MODEL 1
REMARK VINA RESULT:    -4.536      0.000      0.000
REMARK INTER + INTRA:          -6.268
REMARK INTER:                  -6.127
REMARK INTRA:                  -0.141
REMARK UNBOUND:                -0.141
REMARK SMILES [NH3+]CCCC[C@@H]([NH3+])C(=O)[O-]
REMARK SMILES IDX 4 1 3 2 2 3 1 4 5 8 6 9 7 10 8 14 9 15 10 16
REMARK H PARENT 1 5 1 6 1 7 7 11 7 12 7 13
REMARK Flexibility Score: inf
ROOT
ATOM      1  C   UNL     1      -2.531  -5.259 -13.642  1.00  0.00     0.012 C 
ENDROOT
BRANCH   1   2
ATOM      2  C   UNL     1      -2.868  -6.752 -13.782  1.00  0.00     0.061 C 
BRANCH   2   3
ATOM      3  C   UNL     1      -2.187  -7.355 -15.018  1.00  0.00     0.258 C 
BRANCH   3   4
ATOM      4  N   UNL     1      -2.673  -6.723 -16.244  1.00  0.00    -0.358 N 
ATOM      5  H   UNL     1      -2.027  -5.952 -16.531  1.00  0.00     0.344 HD
ATOM      6  H   UNL     1      -2.743  -7.431 -17.011  1.00  0.00     0.344 HD
ATOM      7  H   UNL     1      -3.622  -6.321 -16.068  1.00  0.00     0.344 HD
ENDBRANCH   3   4
ENDBRANCH   2   3
ENDBRANCH   1   2
BRANCH   1   8
ATOM      8  C   UNL     1      -3.507  -4.510 -12.716  1.00  0.00     0.072 C 
BRANCH   8   9
ATOM      9  C   UNL     1      -3.796  -5.229 -11.377  1.00  0.00     0.227 C 
BRANCH   9  10
ATOM     10  N   UNL     1      -2.993  -4.639 -10.300  1.00  0.00    -0.350 N 
ATOM     11  H   UNL     1      -3.600  -4.046  -9.689  1.00  0.00     0.345 HD
ATOM     12  H   UNL     1      -2.546  -5.385  -9.718  1.00  0.00     0.345 HD
ATOM     13  H   UNL     1      -2.246  -4.029 -10.708  1.00  0.00     0.345 HD
ENDBRANCH   9  10
BRANCH   9  14
ATOM     14  C   UNL     1      -5.259  -5.156 -11.024  1.00  0.00     0.099 C 
ATOM     15  O   UNL     1      -5.668  -4.302 -10.193  1.00  0.00    -0.544 OA
ATOM     16  O   UNL     1      -6.166  -6.034 -11.605  1.00  0.00    -0.544 OA
ENDBRANCH   9  14
ENDBRANCH   8   9
ENDBRANCH   1   8
TORSDOF 7
ENDMDL
MODEL 2
REMARK VINA RESULT:    -4.511      3.267      4.735
REMARK INTER + INTRA:          -6.235
REMARK INTER:                  -6.106
REMARK INTRA:                  -0.128
REMARK UNBOUND:                -0.141
REMARK SMILES [NH3+]CCCC[C@@H]([NH3+])C(=O)[O-]
REMARK SMILES IDX 4 1 3 2 2 3 1 4 5 8 6 9 7 10 8 14 9 15 10 16
REMARK H PARENT 1 5 1 6 1 7 7 11 7 12 7 13
REMARK Flexibility Score: inf
ROOT
ATOM      1  C   UNL     1      -3.251  -4.920 -11.340  1.00  0.00     0.012 C 
ENDROOT
BRANCH   1   2
ATOM      2  C   UNL     1      -4.680  -4.895 -10.774  1.00  0.00     0.061 C 
BRANCH   2   3
ATOM      3  C   UNL     1      -5.699  -5.335 -11.834  1.00  0.00     0.258 C 
BRANCH   3   4
ATOM      4  N   UNL     1      -6.597  -6.360 -11.302  1.00  0.00    -0.358 N 
ATOM      5  H   UNL     1      -7.500  -5.926 -11.003  1.00  0.00     0.344 HD
ATOM      6  H   UNL     1      -6.778  -7.091 -12.028  1.00  0.00     0.344 HD
ATOM      7  H   UNL     1      -6.148  -6.811 -10.472  1.00  0.00     0.344 HD
ENDBRANCH   3   4
ENDBRANCH   2   3
ENDBRANCH   1   2
BRANCH   1   8
ATOM      8  C   UNL     1      -3.210  -5.229 -12.848  1.00  0.00     0.072 C 
BRANCH   8   9
ATOM      9  C   UNL     1      -1.964  -6.024 -13.303  1.00  0.00     0.227 C 
BRANCH   9  10
ATOM     10  N   UNL     1      -2.031  -7.402 -12.805  1.00  0.00    -0.350 N 
ATOM     11  H   UNL     1      -2.332  -8.043 -13.574  1.00  0.00     0.345 HD
ATOM     12  H   UNL     1      -1.099  -7.714 -12.446  1.00  0.00     0.345 HD
ATOM     13  H   UNL     1      -2.734  -7.467 -12.032  1.00  0.00     0.345 HD
ENDBRANCH   9  10
BRANCH   9  14
ATOM     14  C   UNL     1      -1.838  -6.027 -14.804  1.00  0.00     0.099 C 
ATOM     15  O   UNL     1      -2.797  -6.421 -15.519  1.00  0.00    -0.544 OA
ATOM     16  O   UNL     1      -0.661  -5.604 -15.411  1.00  0.00    -0.544 OA
ENDBRANCH   9  14
ENDBRANCH   8   9
ENDBRANCH   1   8
TORSDOF 7
ENDMDL
MODEL 3
REMARK VINA RESULT:    -4.346     10.896     11.898
REMARK INTER + INTRA:          -6.011
REMARK INTER:                  -5.952
REMARK INTRA:                  -0.059
REMARK UNBOUND:                -0.141
REMARK SMILES [NH3+]CCCC[C@@H]([NH3+])C(=O)[O-]
REMARK SMILES IDX 4 1 3 2 2 3 1 4 5 8 6 9 7 10 8 14 9 15 10 16
REMARK H PARENT 1 5 1 6 1 7 7 11 7 12 7 13
REMARK Flexibility Score: inf
ROOT
ATOM      1  C   UNL     1      -9.154 -15.871 -16.449  1.00  0.00     0.012 C 
ENDROOT
BRANCH   1   2
ATOM      2  C   UNL     1      -9.259 -15.381 -17.902  1.00  0.00     0.061 C 
BRANCH   2   3
ATOM      3  C   UNL     1     -10.535 -15.909 -18.569  1.00  0.00     0.258 C 
BRANCH   3   4
ATOM      4  N   UNL     1     -10.962 -15.024 -19.653  1.00  0.00    -0.358 N 
ATOM      5  H   UNL     1     -10.574 -14.064 -19.508  1.00  0.00     0.344 HD
ATOM      6  H   UNL     1     -10.639 -15.402 -20.574  1.00  0.00     0.344 HD
ATOM      7  H   UNL     1     -12.007 -14.970 -19.659  1.00  0.00     0.344 HD
ENDBRANCH   3   4
ENDBRANCH   2   3
ENDBRANCH   1   2
BRANCH   1   8
ATOM      8  C   UNL     1      -7.877 -15.379 -15.742  1.00  0.00     0.072 C 
BRANCH   8   9
ATOM      9  C   UNL     1      -8.084 -14.966 -14.266  1.00  0.00     0.227 C 
BRANCH   9  10
ATOM     10  N   UNL     1      -8.473 -13.553 -14.183  1.00  0.00    -0.350 N 
ATOM     11  H   UNL     1      -9.490 -13.479 -13.951  1.00  0.00     0.345 HD
ATOM     12  H   UNL     1      -7.917 -13.057 -13.448  1.00  0.00     0.345 HD
ATOM     13  H   UNL     1      -8.314 -13.087 -15.107  1.00  0.00     0.345 HD
ENDBRANCH   9  10
BRANCH   9  14
ATOM     14  C   UNL     1      -9.129 -15.824 -13.602  1.00  0.00     0.099 C 
ATOM     15  O   UNL     1     -10.264 -15.348 -13.337  1.00  0.00    -0.544 OA
ATOM     16  O   UNL     1      -8.845 -17.144 -13.269  1.00  0.00    -0.544 OA
ENDBRANCH   9  14
ENDBRANCH   8   9
ENDBRANCH   1   8
TORSDOF 7
ENDMDL
MODEL 4
REMARK VINA RESULT:    -4.307     11.125     12.120
REMARK INTER + INTRA:          -5.958
REMARK INTER:                  -5.797
REMARK INTRA:                  -0.161
REMARK UNBOUND:                -0.141
REMARK SMILES [NH3+]CCCC[C@@H]([NH3+])C(=O)[O-]
REMARK SMILES IDX 4 1 3 2 2 3 1 4 5 8 6 9 7 10 8 14 9 15 10 16
REMARK H PARENT 1 5 1 6 1 7 7 11 7 12 7 13
REMARK Flexibility Score: inf
ROOT
ATOM      1  C   UNL     1      -9.924 -15.630 -13.270  1.00  0.00     0.012 C 
ENDROOT
BRANCH   1   2
ATOM      2  C   UNL     1      -9.351 -16.534 -12.168  1.00  0.00     0.061 C 
BRANCH   2   3
ATOM      3  C   UNL     1     -10.466 -17.321 -11.467  1.00  0.00     0.258 C 
BRANCH   3   4
ATOM      4  N   UNL     1     -10.126 -17.575 -10.067  1.00  0.00    -0.358 N 
ATOM      5  H   UNL     1      -9.090 -17.523  -9.934  1.00  0.00     0.344 HD
ATOM      6  H   UNL     1     -10.598 -16.874  -9.449  1.00  0.00     0.344 HD
ATOM      7  H   UNL     1     -10.453 -18.532  -9.804  1.00  0.00     0.344 HD
ENDBRANCH   3   4
ENDBRANCH   2   3
ENDBRANCH   1   2
BRANCH   1   8
ATOM      8  C   UNL     1      -9.216 -15.815 -14.625  1.00  0.00     0.072 C 
BRANCH   8   9
ATOM      9  C   UNL     1      -8.197 -14.704 -14.970  1.00  0.00     0.227 C 
BRANCH   9  10
ATOM     10  N   UNL     1      -8.347 -13.573 -14.047  1.00  0.00    -0.350 N 
ATOM     11  H   UNL     1      -8.488 -12.690 -14.589  1.00  0.00     0.345 HD
ATOM     12  H   UNL     1      -9.165 -13.718 -13.411  1.00  0.00     0.345 HD
ATOM     13  H   UNL     1      -7.479 -13.467 -13.471  1.00  0.00     0.345 HD
ENDBRANCH   9  10
BRANCH   9  14
ATOM     14  C   UNL     1      -6.784 -15.225 -14.915  1.00  0.00     0.099 C 
ATOM     15  O   UNL     1      -5.816 -14.423 -14.839  1.00  0.00    -0.544 OA
ATOM     16  O   UNL     1      -6.539 -16.593 -14.956  1.00  0.00    -0.544 OA
ENDBRANCH   9  14
ENDBRANCH   8   9
ENDBRANCH   1   8
TORSDOF 7
ENDMDL
MODEL 5
REMARK VINA RESULT:    -4.256      2.981      4.807
REMARK INTER + INTRA:          -5.890
REMARK INTER:                  -5.787
REMARK INTRA:                  -0.104
REMARK UNBOUND:                -0.141
REMARK SMILES [NH3+]CCCC[C@@H]([NH3+])C(=O)[O-]
REMARK SMILES IDX 4 1 3 2 2 3 1 4 5 8 6 9 7 10 8 14 9 15 10 16
REMARK H PARENT 1 5 1 6 1 7 7 11 7 12 7 13
REMARK Flexibility Score: inf
ROOT
ATOM      1  C   UNL     1      -3.743  -4.804 -13.189  1.00  0.00     0.012 C 
ENDROOT
BRANCH   1   2
ATOM      2  C   UNL     1      -4.442  -4.875 -11.823  1.00  0.00     0.061 C 
BRANCH   2   3
ATOM      3  C   UNL     1      -5.967  -4.907 -11.986  1.00  0.00     0.258 C 
BRANCH   3   4
ATOM      4  N   UNL     1      -6.526  -6.140 -11.434  1.00  0.00    -0.358 N 
ATOM      5  H   UNL     1      -5.842  -6.924 -11.539  1.00  0.00     0.344 HD
ATOM      6  H   UNL     1      -6.760  -6.007 -10.422  1.00  0.00     0.344 HD
ATOM      7  H   UNL     1      -7.400  -6.382 -11.954  1.00  0.00     0.344 HD
ENDBRANCH   3   4
ENDBRANCH   2   3
ENDBRANCH   1   2
BRANCH   1   8
ATOM      8  C   UNL     1      -2.427  -5.603 -13.231  1.00  0.00     0.072 C 
BRANCH   8   9
ATOM      9  C   UNL     1      -2.082  -6.193 -14.618  1.00  0.00     0.227 C 
BRANCH   9  10
ATOM     10  N   UNL     1      -0.700  -5.862 -14.982  1.00  0.00    -0.350 N 
ATOM     11  H   UNL     1      -0.111  -5.800 -14.120  1.00  0.00     0.345 HD
ATOM     12  H   UNL     1      -0.298  -6.589 -15.618  1.00  0.00     0.345 HD
ATOM     13  H   UNL     1      -0.672  -4.932 -15.463  1.00  0.00     0.345 HD
ENDBRANCH   9  10
BRANCH   9  14
ATOM     14  C   UNL     1      -2.273  -7.687 -14.637  1.00  0.00     0.099 C 
ATOM     15  O   UNL     1      -2.862  -8.263 -13.684  1.00  0.00    -0.544 OA
ATOM     16  O   UNL     1      -1.793  -8.442 -15.701  1.00  0.00    -0.544 OA
ENDBRANCH   9  14
ENDBRANCH   8   9
ENDBRANCH   1   8
TORSDOF 7
ENDMDL
MODEL 6
REMARK VINA RESULT:    -4.136     10.756     11.899
REMARK INTER + INTRA:          -5.728
REMARK INTER:                  -5.570
REMARK INTRA:                  -0.158
REMARK UNBOUND:                -0.141
REMARK SMILES [NH3+]CCCC[C@@H]([NH3+])C(=O)[O-]
REMARK SMILES IDX 4 1 3 2 2 3 1 4 5 8 6 9 7 10 8 14 9 15 10 16
REMARK H PARENT 1 5 1 6 1 7 7 11 7 12 7 13
REMARK Flexibility Score: inf
ROOT
ATOM      1  C   UNL     1      -9.777 -16.376 -16.736  1.00  0.00     0.012 C 
ENDROOT
BRANCH   1   2
ATOM      2  C   UNL     1      -9.273 -15.373 -17.785  1.00  0.00     0.061 C 
BRANCH   2   3
ATOM      3  C   UNL     1      -9.961 -15.600 -19.138  1.00  0.00     0.258 C 
BRANCH   3   4
ATOM      4  N   UNL     1     -11.111 -14.709 -19.296  1.00  0.00    -0.358 N 
ATOM      5  H   UNL     1     -11.006 -14.137 -20.165  1.00  0.00     0.344 HD
ATOM      6  H   UNL     1     -11.995 -15.267 -19.343  1.00  0.00     0.344 HD
ATOM      7  H   UNL     1     -11.160 -14.066 -18.472  1.00  0.00     0.344 HD
ENDBRANCH   3   4
ENDBRANCH   2   3
ENDBRANCH   1   2
BRANCH   1   8
ATOM      8  C   UNL     1      -9.034 -16.260 -15.392  1.00  0.00     0.072 C 
BRANCH   8   9
ATOM      9  C   UNL     1      -8.192 -14.972 -15.237  1.00  0.00     0.227 C 
BRANCH   9  10
ATOM     10  N   UNL     1      -8.724 -14.145 -14.148  1.00  0.00    -0.350 N 
ATOM     11  H   UNL     1      -8.675 -14.673 -13.246  1.00  0.00     0.345 HD
ATOM     12  H   UNL     1      -8.179 -13.257 -14.055  1.00  0.00     0.345 HD
ATOM     13  H   UNL     1      -9.727 -13.913 -14.336  1.00  0.00     0.345 HD
ENDBRANCH   9  10
BRANCH   9  14
ATOM     14  C   UNL     1      -6.744 -15.295 -14.975  1.00  0.00     0.099 C 
ATOM     15  O   UNL     1      -5.920 -14.371 -14.747  1.00  0.00    -0.544 OA
ATOM     16  O   UNL     1      -6.306 -16.615 -14.989  1.00  0.00    -0.544 OA
ENDBRANCH   9  14
ENDBRANCH   8   9
ENDBRANCH   1   8
TORSDOF 7
ENDMDL
MODEL 7
REMARK VINA RESULT:    -4.086      3.542      5.369
REMARK INTER + INTRA:          -5.661
REMARK INTER:                  -5.556
REMARK INTRA:                  -0.104
REMARK UNBOUND:                -0.141
REMARK SMILES [NH3+]CCCC[C@@H]([NH3+])C(=O)[O-]
REMARK SMILES IDX 4 1 3 2 2 3 1 4 5 8 6 9 7 10 8 14 9 15 10 16
REMARK H PARENT 1 5 1 6 1 7 7 11 7 12 7 13
REMARK Flexibility Score: inf
ROOT
ATOM      1  C   UNL     1      -2.554  -5.270 -13.228  1.00  0.00     0.012 C 
ENDROOT
BRANCH   1   2
ATOM      2  C   UNL     1      -3.780  -4.513 -12.696  1.00  0.00     0.061 C 
BRANCH   2   3
ATOM      3  C   UNL     1      -4.044  -4.857 -11.224  1.00  0.00     0.258 C 
BRANCH   3   4
ATOM      4  N   UNL     1      -2.802  -4.832 -10.451  1.00  0.00    -0.358 N 
ATOM      5  H   UNL     1      -2.793  -5.617  -9.760  1.00  0.00     0.344 HD
ATOM      6  H   UNL     1      -1.979  -4.912 -11.090  1.00  0.00     0.344 HD
ATOM      7  H   UNL     1      -2.741  -3.925  -9.933  1.00  0.00     0.344 HD
ENDBRANCH   3   4
ENDBRANCH   2   3
ENDBRANCH   1   2
BRANCH   1   8
ATOM      8  C   UNL     1      -2.925  -6.386 -14.222  1.00  0.00     0.072 C 
BRANCH   8   9
ATOM      9  C   UNL     1      -1.928  -7.569 -14.255  1.00  0.00     0.227 C 
BRANCH   9  10
ATOM     10  N   UNL     1      -2.560  -8.781 -13.721  1.00  0.00    -0.350 N 
ATOM     11  H   UNL     1      -3.601  -8.680 -13.751  1.00  0.00     0.345 HD
ATOM     12  H   UNL     1      -2.282  -9.621 -14.278  1.00  0.00     0.345 HD
ATOM     13  H   UNL     1      -2.274  -8.920 -12.723  1.00  0.00     0.345 HD
ENDBRANCH   9  10
BRANCH   9  14
ATOM     14  C   UNL     1      -1.432  -7.824 -15.654  1.00  0.00     0.099 C 
ATOM     15  O   UNL     1      -0.850  -8.906 -15.932  1.00  0.00    -0.544 OA
ATOM     16  O   UNL     1      -1.605  -6.866 -16.646  1.00  0.00    -0.544 OA
ENDBRANCH   9  14
ENDBRANCH   8   9
ENDBRANCH   1   8
TORSDOF 7
ENDMDL
MODEL 8
REMARK VINA RESULT:    -4.077     12.114     13.611
REMARK INTER + INTRA:          -5.647
REMARK INTER:                  -5.519
REMARK INTRA:                  -0.128
REMARK UNBOUND:                -0.141
REMARK SMILES [NH3+]CCCC[C@@H]([NH3+])C(=O)[O-]
REMARK SMILES IDX 4 1 3 2 2 3 1 4 5 8 6 9 7 10 8 14 9 15 10 16
REMARK H PARENT 1 5 1 6 1 7 7 11 7 12 7 13
REMARK Flexibility Score: inf
ROOT
ATOM      1  C   UNL     1      -9.366 -16.020 -16.613  1.00  0.00     0.012 C 
ENDROOT
BRANCH   1   2
ATOM      2  C   UNL     1      -8.209 -15.277 -15.927  1.00  0.00     0.061 C 
BRANCH   2   3
ATOM      3  C   UNL     1      -8.579 -14.891 -14.488  1.00  0.00     0.258 C 
BRANCH   3   4
ATOM      4  N   UNL     1      -8.239 -13.494 -14.218  1.00  0.00    -0.358 N 
ATOM      5  H   UNL     1      -7.801 -13.061 -15.063  1.00  0.00     0.344 HD
ATOM      6  H   UNL     1      -9.098 -12.960 -13.950  1.00  0.00     0.344 HD
ATOM      7  H   UNL     1      -7.556 -13.456 -13.427  1.00  0.00     0.344 HD
ENDBRANCH   3   4
ENDBRANCH   2   3
ENDBRANCH   1   2
BRANCH   1   8
ATOM      8  C   UNL     1      -9.533 -15.630 -18.093  1.00  0.00     0.072 C 
BRANCH   8   9
ATOM      9  C   UNL     1     -11.002 -15.547 -18.570  1.00  0.00     0.227 C 
BRANCH   9  10
ATOM     10  N   UNL     1     -11.060 -15.076 -19.958  1.00  0.00    -0.350 N 
ATOM     11  H   UNL     1     -11.532 -14.144 -19.997  1.00  0.00     0.345 HD
ATOM     12  H   UNL     1     -10.098 -14.988 -20.362  1.00  0.00     0.345 HD
ATOM     13  H   UNL     1     -11.615 -15.747 -20.538  1.00  0.00     0.345 HD
ENDBRANCH   9  10
BRANCH   9  14
ATOM     14  C   UNL     1     -11.688 -16.883 -18.454  1.00  0.00     0.099 C 
ATOM     15  O   UNL     1     -11.355 -17.834 -19.211  1.00  0.00    -0.544 OA
ATOM     16  O   UNL     1     -12.698 -17.075 -17.518  1.00  0.00    -0.544 OA
ENDBRANCH   9  14
ENDBRANCH   8   9
ENDBRANCH   1   8
TORSDOF 7
ENDMDL
MODEL 9
REMARK VINA RESULT:    -4.034     19.622     20.660
REMARK INTER + INTRA:          -5.590
REMARK INTER:                  -5.159
REMARK INTRA:                  -0.430
REMARK UNBOUND:                -0.141
REMARK SMILES [NH3+]CCCC[C@@H]([NH3+])C(=O)[O-]
REMARK SMILES IDX 4 1 3 2 2 3 1 4 5 8 6 9 7 10 8 14 9 15 10 16
REMARK H PARENT 1 5 1 6 1 7 7 11 7 12 7 13
REMARK Flexibility Score: inf
ROOT
ATOM      1  C   UNL     1     -18.754  -6.755 -25.905  1.00  0.00     0.012 C 
ENDROOT
BRANCH   1   2
ATOM      2  C   UNL     1     -17.733  -6.978 -24.779  1.00  0.00     0.061 C 
BRANCH   2   3
ATOM      3  C   UNL     1     -17.308  -8.450 -24.705  1.00  0.00     0.258 C 
BRANCH   3   4
ATOM      4  N   UNL     1     -15.913  -8.613 -25.115  1.00  0.00    -0.358 N 
ATOM      5  H   UNL     1     -15.574  -9.570 -24.864  1.00  0.00     0.344 HD
ATOM      6  H   UNL     1     -15.822  -8.464 -26.147  1.00  0.00     0.344 HD
ATOM      7  H   UNL     1     -15.326  -7.905 -24.618  1.00  0.00     0.344 HD
ENDBRANCH   3   4
ENDBRANCH   2   3
ENDBRANCH   1   2
BRANCH   1   8
ATOM      8  C   UNL     1     -18.167  -5.983 -27.101  1.00  0.00     0.072 C 
BRANCH   8   9
ATOM      9  C   UNL     1     -18.422  -6.645 -28.476  1.00  0.00     0.227 C 
BRANCH   9  10
ATOM     10  N   UNL     1     -18.640  -5.619 -29.501  1.00  0.00    -0.350 N 
ATOM     11  H   UNL     1     -19.620  -5.679 -29.861  1.00  0.00     0.345 HD
ATOM     12  H   UNL     1     -18.478  -4.662 -29.110  1.00  0.00     0.345 HD
ATOM     13  H   UNL     1     -17.987  -5.775 -30.305  1.00  0.00     0.345 HD
ENDBRANCH   9  10
BRANCH   9  14
ATOM     14  C   UNL     1     -17.271  -7.531 -28.875  1.00  0.00     0.099 C 
ATOM     15  O   UNL     1     -17.279  -8.116 -29.990  1.00  0.00    -0.544 OA
ATOM     16  O   UNL     1     -16.195  -7.716 -28.013  1.00  0.00    -0.544 OA
ENDBRANCH   9  14
ENDBRANCH   8   9
ENDBRANCH   1   8
TORSDOF 7
ENDMDL
