MODEL 1
REMARK VINA RESULT:    -4.836      0.000      0.000
REMARK INTER + INTRA:         -13.273
REMARK INTER:                 -11.056
REMARK INTRA:                  -2.217
REMARK UNBOUND:                -2.217
REMARK SMILES CCCCCCCCCCCCCCCCCCCCCCCC(=O)[O-]
REMARK SMILES IDX 13 1 14 2 15 3 16 4 17 5 18 6 19 7 20 8 21 9 22 10 23 11
REMARK SMILES IDX 24 12 25 13 26 14 12 15 11 16 10 17 9 18 8 19 7 20 6 21 5 22
REMARK SMILES IDX 4 23 3 24 2 25 1 26
REMARK H PARENT
REMARK Flexibility Score: inf
ROOT
ATOM      1  C   UNL     1       1.247  45.185   9.572  1.00  0.00     0.000 C 
ENDROOT
BRANCH   1   2
ATOM      2  C   UNL     1       1.227  43.978   8.616  1.00  0.00     0.000 C 
BRANCH   2   3
ATOM      3  C   UNL     1       2.317  42.937   8.950  1.00  0.00     0.000 C 
BRANCH   3   4
ATOM      4  C   UNL     1       3.681  43.551   9.324  1.00  0.00     0.000 C 
BRANCH   4   5
ATOM      5  C   UNL     1       4.241  43.149  10.699  1.00  0.00     0.000 C 
BRANCH   5   6
ATOM      6  C   UNL     1       3.885  44.086  11.873  1.00  0.00     0.000 C 
BRANCH   6   7
ATOM      7  C   UNL     1       2.622  43.687  12.663  1.00  0.00     0.000 C 
BRANCH   7   8
ATOM      8  C   UNL     1       1.815  42.548  12.007  1.00  0.00     0.000 C 
BRANCH   8   9
ATOM      9  C   UNL     1       1.109  41.651  13.038  1.00  0.00     0.000 C 
BRANCH   9  10
ATOM     10  C   UNL     1       1.887  40.356  13.332  1.00  0.00     0.006 C 
BRANCH  10  11
ATOM     11  C   UNL     1       3.029  40.128  12.333  1.00  0.00     0.053 C 
BRANCH  11  12
ATOM     12  C   UNL     1       3.725  38.822  12.565  1.00  0.00     0.041 C 
ATOM     13  O   UNL     1       4.769  38.781  13.265  1.00  0.00    -0.550 OA
ATOM     14  O   UNL     1       3.215  37.652  12.017  1.00  0.00    -0.550 OA
ENDBRANCH  11  12
ENDBRANCH  10  11
ENDBRANCH   9  10
ENDBRANCH   8   9
ENDBRANCH   7   8
ENDBRANCH   6   7
ENDBRANCH   5   6
ENDBRANCH   4   5
ENDBRANCH   3   4
ENDBRANCH   2   3
ENDBRANCH   1   2
BRANCH   1  15
ATOM     15  C   UNL     1       0.005  45.238  10.484  1.00  0.00     0.000 C 
BRANCH  15  16
ATOM     16  C   UNL     1      -0.998  46.352  10.124  1.00  0.00     0.000 C 
BRANCH  16  17
ATOM     17  C   UNL     1      -1.062  46.622   8.610  1.00  0.00     0.000 C 
BRANCH  17  18
ATOM     18  C   UNL     1      -1.031  48.126   8.271  1.00  0.00    -0.000 C 
BRANCH  18  19
ATOM     19  C   UNL     1       0.366  48.763   8.392  1.00  0.00    -0.000 C 
BRANCH  19  20
ATOM     20  C   UNL     1       1.471  47.908   7.750  1.00  0.00    -0.000 C 
BRANCH  20  21
ATOM     21  C   UNL     1       2.824  48.648   7.689  1.00  0.00    -0.000 C 
BRANCH  21  22
ATOM     22  C   UNL     1       4.044  47.713   7.781  1.00  0.00    -0.000 C 
BRANCH  22  23
ATOM     23  C   UNL     1       4.017  46.821   9.033  1.00  0.00    -0.000 C 
BRANCH  23  24
ATOM     24  C   UNL     1       5.295  46.944   9.882  1.00  0.00    -0.000 C 
BRANCH  24  25
ATOM     25  C   UNL     1       6.476  47.627   9.168  1.00  0.00    -0.003 C 
ATOM     26  C   UNL     1       6.701  49.065   9.632  1.00  0.00     0.004 C 
ENDBRANCH  24  25
ENDBRANCH  23  24
ENDBRANCH  22  23
ENDBRANCH  21  22
ENDBRANCH  20  21
ENDBRANCH  19  20
ENDBRANCH  18  19
ENDBRANCH  17  18
ENDBRANCH  16  17
ENDBRANCH  15  16
ENDBRANCH   1  15
TORSDOF 22
ENDMDL
MODEL 2
REMARK VINA RESULT:    -4.743      3.237      8.208
REMARK INTER + INTRA:         -13.060
REMARK INTER:                 -10.813
REMARK INTRA:                  -2.247
REMARK UNBOUND:                -2.217
REMARK SMILES CCCCCCCCCCCCCCCCCCCCCCCC(=O)[O-]
REMARK SMILES IDX 13 1 14 2 15 3 16 4 17 5 18 6 19 7 20 8 21 9 22 10 23 11
REMARK SMILES IDX 24 12 25 13 26 14 12 15 11 16 10 17 9 18 8 19 7 20 6 21 5 22
REMARK SMILES IDX 4 23 3 24 2 25 1 26
REMARK H PARENT
REMARK Flexibility Score: inf
ROOT
ATOM      1  C   UNL     1       2.401  42.868   9.215  1.00  0.00     0.000 C 
ENDROOT
BRANCH   1   2
ATOM      2  C   UNL     1       1.447  44.077   9.193  1.00  0.00     0.000 C 
BRANCH   2   3
ATOM      3  C   UNL     1       0.740  44.250   7.831  1.00  0.00     0.000 C 
BRANCH   3   4
ATOM      4  C   UNL     1      -0.247  45.434   7.778  1.00  0.00     0.000 C 
BRANCH   4   5
ATOM      5  C   UNL     1      -0.544  46.118   9.123  1.00  0.00     0.000 C 
BRANCH   5   6
ATOM      6  C   UNL     1       0.312  47.360   9.451  1.00  0.00     0.000 C 
BRANCH   6   7
ATOM      7  C   UNL     1       0.825  48.139   8.224  1.00  0.00     0.000 C 
BRANCH   7   8
ATOM      8  C   UNL     1       2.277  47.795   7.834  1.00  0.00     0.000 C 
BRANCH   8   9
ATOM      9  C   UNL     1       3.121  47.335   9.035  1.00  0.00     0.000 C 
BRANCH   9  10
ATOM     10  C   UNL     1       4.516  46.830   8.624  1.00  0.00     0.006 C 
BRANCH  10  11
ATOM     11  C   UNL     1       5.546  46.995   9.749  1.00  0.00     0.053 C 
BRANCH  11  12
ATOM     12  C   UNL     1       6.720  47.819   9.318  1.00  0.00     0.041 C 
ATOM     13  O   UNL     1       6.540  48.963   8.827  1.00  0.00    -0.550 OA
ATOM     14  O   UNL     1       8.011  47.327   9.467  1.00  0.00    -0.550 OA
ENDBRANCH  11  12
ENDBRANCH  10  11
ENDBRANCH   9  10
ENDBRANCH   8   9
ENDBRANCH   7   8
ENDBRANCH   6   7
ENDBRANCH   5   6
ENDBRANCH   4   5
ENDBRANCH   3   4
ENDBRANCH   2   3
ENDBRANCH   1   2
BRANCH   1  15
ATOM     15  C   UNL     1       3.846  43.261   9.580  1.00  0.00     0.000 C 
BRANCH  15  16
ATOM     16  C   UNL     1       3.983  43.986  10.933  1.00  0.00     0.000 C 
BRANCH  16  17
ATOM     17  C   UNL     1       3.992  43.013  12.126  1.00  0.00     0.000 C 
BRANCH  17  18
ATOM     18  C   UNL     1       4.118  41.538  11.692  1.00  0.00    -0.000 C 
BRANCH  18  19
ATOM     19  C   UNL     1       4.855  40.651  12.712  1.00  0.00    -0.000 C 
BRANCH  19  20
ATOM     20  C   UNL     1       4.026  39.435  13.158  1.00  0.00    -0.000 C 
BRANCH  20  21
ATOM     21  C   UNL     1       2.646  39.381  12.468  1.00  0.00    -0.000 C 
BRANCH  21  22
ATOM     22  C   UNL     1       1.469  39.654  13.423  1.00  0.00    -0.000 C 
BRANCH  22  23
ATOM     23  C   UNL     1       1.113  41.147  13.517  1.00  0.00    -0.000 C 
BRANCH  23  24
ATOM     24  C   UNL     1      -0.387  41.389  13.768  1.00  0.00    -0.000 C 
BRANCH  24  25
ATOM     25  C   UNL     1      -0.909  40.841  15.108  1.00  0.00    -0.003 C 
ATOM     26  C   UNL     1      -0.319  41.564  16.318  1.00  0.00     0.004 C 
ENDBRANCH  24  25
ENDBRANCH  23  24
ENDBRANCH  22  23
ENDBRANCH  21  22
ENDBRANCH  20  21
ENDBRANCH  19  20
ENDBRANCH  18  19
ENDBRANCH  17  18
ENDBRANCH  16  17
ENDBRANCH  15  16
ENDBRANCH   1  15
TORSDOF 22
ENDMDL
MODEL 3
REMARK VINA RESULT:    -4.736      1.987      2.656
REMARK INTER + INTRA:         -13.043
REMARK INTER:                 -10.095
REMARK INTRA:                  -2.948
REMARK UNBOUND:                -2.217
REMARK SMILES CCCCCCCCCCCCCCCCCCCCCCCC(=O)[O-]
REMARK SMILES IDX 13 1 14 2 15 3 16 4 17 5 18 6 19 7 20 8 21 9 22 10 23 11
REMARK SMILES IDX 24 12 25 13 26 14 12 15 11 16 10 17 9 18 8 19 7 20 6 21 5 22
REMARK SMILES IDX 4 23 3 24 2 25 1 26
REMARK H PARENT
REMARK Flexibility Score: inf
ROOT
ATOM      1  C   UNL     1       1.057  43.997   7.895  1.00  0.00     0.000 C 
ENDROOT
BRANCH   1   2
ATOM      2  C   UNL     1       1.825  43.584   9.164  1.00  0.00     0.000 C 
BRANCH   2   3
ATOM      3  C   UNL     1       1.321  44.315  10.427  1.00  0.00     0.000 C 
BRANCH   3   4
ATOM      4  C   UNL     1       1.813  43.699  11.752  1.00  0.00     0.000 C 
BRANCH   4   5
ATOM      5  C   UNL     1       3.280  43.985  12.119  1.00  0.00     0.000 C 
BRANCH   5   6
ATOM      6  C   UNL     1       4.295  42.885  11.742  1.00  0.00     0.000 C 
BRANCH   6   7
ATOM      7  C   UNL     1       3.684  41.490  11.503  1.00  0.00     0.000 C 
BRANCH   7   8
ATOM      8  C   UNL     1       3.640  40.608  12.768  1.00  0.00     0.000 C 
BRANCH   8   9
ATOM      9  C   UNL     1       2.750  39.365  12.593  1.00  0.00     0.000 C 
BRANCH   9  10
ATOM     10  C   UNL     1       1.396  39.497  13.314  1.00  0.00     0.006 C 
BRANCH  10  11
ATOM     11  C   UNL     1       1.100  40.944  13.728  1.00  0.00     0.053 C 
BRANCH  11  12
ATOM     12  C   UNL     1      -0.350  41.153  14.039  1.00  0.00     0.041 C 
ATOM     13  O   UNL     1      -0.929  40.409  14.872  1.00  0.00    -0.550 OA
ATOM     14  O   UNL     1      -1.058  42.174  13.418  1.00  0.00    -0.550 OA
ENDBRANCH  11  12
ENDBRANCH  10  11
ENDBRANCH   9  10
ENDBRANCH   8   9
ENDBRANCH   7   8
ENDBRANCH   6   7
ENDBRANCH   5   6
ENDBRANCH   4   5
ENDBRANCH   3   4
ENDBRANCH   2   3
ENDBRANCH   1   2
BRANCH   1  15
ATOM     15  C   UNL     1      -0.081  44.994   8.190  1.00  0.00     0.000 C 
BRANCH  15  16
ATOM     16  C   UNL     1      -0.560  45.792   6.962  1.00  0.00     0.000 C 
BRANCH  16  17
ATOM     17  C   UNL     1      -0.915  47.249   7.306  1.00  0.00     0.000 C 
BRANCH  17  18
ATOM     18  C   UNL     1      -0.711  47.576   8.800  1.00  0.00    -0.000 C 
BRANCH  18  19
ATOM     19  C   UNL     1       0.685  48.137   9.129  1.00  0.00    -0.000 C 
BRANCH  19  20
ATOM     20  C   UNL     1       1.512  48.461   7.873  1.00  0.00    -0.000 C 
BRANCH  20  21
ATOM     21  C   UNL     1       2.875  47.737   7.867  1.00  0.00    -0.000 C 
BRANCH  21  22
ATOM     22  C   UNL     1       3.180  46.982   9.173  1.00  0.00    -0.000 C 
BRANCH  22  23
ATOM     23  C   UNL     1       4.523  46.234   9.130  1.00  0.00    -0.000 C 
BRANCH  23  24
ATOM     24  C   UNL     1       5.602  46.893  10.008  1.00  0.00    -0.000 C 
BRANCH  24  25
ATOM     25  C   UNL     1       6.709  47.622   9.225  1.00  0.00    -0.003 C 
ATOM     26  C   UNL     1       6.318  49.046   8.829  1.00  0.00     0.004 C 
ENDBRANCH  24  25
ENDBRANCH  23  24
ENDBRANCH  22  23
ENDBRANCH  21  22
ENDBRANCH  20  21
ENDBRANCH  19  20
ENDBRANCH  18  19
ENDBRANCH  17  18
ENDBRANCH  16  17
ENDBRANCH  15  16
ENDBRANCH   1  15
TORSDOF 22
ENDMDL
MODEL 4
REMARK VINA RESULT:    -4.725      1.456      2.209
REMARK INTER + INTRA:         -13.019
REMARK INTER:                 -11.892
REMARK INTRA:                  -1.128
REMARK UNBOUND:                -2.217
REMARK SMILES CCCCCCCCCCCCCCCCCCCCCCCC(=O)[O-]
REMARK SMILES IDX 13 1 14 2 15 3 16 4 17 5 18 6 19 7 20 8 21 9 22 10 23 11
REMARK SMILES IDX 24 12 25 13 26 14 12 15 11 16 10 17 9 18 8 19 7 20 6 21 5 22
REMARK SMILES IDX 4 23 3 24 2 25 1 26
REMARK H PARENT
REMARK Flexibility Score: inf
ROOT
ATOM      1  C   UNL     1       1.162  44.502   9.017  1.00  0.00     0.000 C 
ENDROOT
BRANCH   1   2
ATOM      2  C   UNL     1       1.659  43.048   9.121  1.00  0.00     0.000 C 
BRANCH   2   3
ATOM      3  C   UNL     1       3.185  42.958   9.341  1.00  0.00     0.000 C 
BRANCH   3   4
ATOM      4  C   UNL     1       3.738  43.982  10.352  1.00  0.00     0.000 C 
BRANCH   4   5
ATOM      5  C   UNL     1       3.580  43.611  11.836  1.00  0.00     0.000 C 
BRANCH   5   6
ATOM      6  C   UNL     1       2.694  42.383  12.133  1.00  0.00     0.000 C 
BRANCH   6   7
ATOM      7  C   UNL     1       3.241  41.043  11.603  1.00  0.00     0.000 C 
BRANCH   7   8
ATOM      8  C   UNL     1       4.354  40.436  12.484  1.00  0.00     0.000 C 
BRANCH   8   9
ATOM      9  C   UNL     1       4.151  38.934  12.745  1.00  0.00     0.000 C 
BRANCH   9  10
ATOM     10  C   UNL     1       2.682  38.497  12.595  1.00  0.00     0.006 C 
BRANCH  10  11
ATOM     11  C   UNL     1       2.545  37.190  11.804  1.00  0.00     0.053 C 
BRANCH  11  12
ATOM     12  C   UNL     1       1.167  36.612  11.910  1.00  0.00     0.041 C 
ATOM     13  O   UNL     1       0.925  35.474  11.433  1.00  0.00    -0.550 OA
ATOM     14  O   UNL     1       0.157  37.325  12.542  1.00  0.00    -0.550 OA
ENDBRANCH  11  12
ENDBRANCH  10  11
ENDBRANCH   9  10
ENDBRANCH   8   9
ENDBRANCH   7   8
ENDBRANCH   6   7
ENDBRANCH   5   6
ENDBRANCH   4   5
ENDBRANCH   3   4
ENDBRANCH   2   3
ENDBRANCH   1   2
BRANCH   1  15
ATOM     15  C   UNL     1       0.499  44.994  10.319  1.00  0.00     0.000 C 
BRANCH  15  16
ATOM     16  C   UNL     1      -0.545  46.110  10.116  1.00  0.00     0.000 C 
BRANCH  16  17
ATOM     17  C   UNL     1      -0.760  46.454   8.631  1.00  0.00     0.000 C 
BRANCH  17  18
ATOM     18  C   UNL     1      -0.709  47.971   8.357  1.00  0.00    -0.000 C 
BRANCH  18  19
ATOM     19  C   UNL     1       0.693  48.585   8.518  1.00  0.00    -0.000 C 
BRANCH  19  20
ATOM     20  C   UNL     1       1.795  47.746   7.850  1.00  0.00    -0.000 C 
BRANCH  20  21
ATOM     21  C   UNL     1       2.893  47.319   8.848  1.00  0.00    -0.000 C 
BRANCH  21  22
ATOM     22  C   UNL     1       4.320  47.649   8.373  1.00  0.00    -0.000 C 
BRANCH  22  23
ATOM     23  C   UNL     1       5.404  47.056   9.290  1.00  0.00    -0.000 C 
BRANCH  23  24
ATOM     24  C   UNL     1       6.738  47.820   9.209  1.00  0.00    -0.000 C 
BRANCH  24  25
ATOM     25  C   UNL     1       6.692  49.251   9.776  1.00  0.00    -0.003 C 
ATOM     26  C   UNL     1       6.441  50.309   8.701  1.00  0.00     0.004 C 
ENDBRANCH  24  25
ENDBRANCH  23  24
ENDBRANCH  22  23
ENDBRANCH  21  22
ENDBRANCH  20  21
ENDBRANCH  19  20
ENDBRANCH  18  19
ENDBRANCH  17  18
ENDBRANCH  16  17
ENDBRANCH  15  16
ENDBRANCH   1  15
TORSDOF 22
ENDMDL
MODEL 5
REMARK VINA RESULT:    -4.713      3.192      7.552
REMARK INTER + INTRA:         -12.991
REMARK INTER:                  -9.914
REMARK INTRA:                  -3.077
REMARK UNBOUND:                -2.217
REMARK SMILES CCCCCCCCCCCCCCCCCCCCCCCC(=O)[O-]
REMARK SMILES IDX 13 1 14 2 15 3 16 4 17 5 18 6 19 7 20 8 21 9 22 10 23 11
REMARK SMILES IDX 24 12 25 13 26 14 12 15 11 16 10 17 9 18 8 19 7 20 6 21 5 22
REMARK SMILES IDX 4 23 3 24 2 25 1 26
REMARK H PARENT
REMARK Flexibility Score: inf
ROOT
ATOM      1  C   UNL     1       1.112  44.145   7.844  1.00  0.00     0.000 C 
ENDROOT
BRANCH   1   2
ATOM      2  C   UNL     1      -0.319  44.668   7.621  1.00  0.00     0.000 C 
BRANCH   2   3
ATOM      3  C   UNL     1      -0.381  45.792   6.563  1.00  0.00     0.000 C 
BRANCH   3   4
ATOM      4  C   UNL     1      -0.840  47.155   7.117  1.00  0.00     0.000 C 
BRANCH   4   5
ATOM      5  C   UNL     1      -0.689  47.346   8.635  1.00  0.00     0.000 C 
BRANCH   5   6
ATOM      6  C   UNL     1       0.599  48.058   9.100  1.00  0.00     0.000 C 
BRANCH   6   7
ATOM      7  C   UNL     1       1.528  48.530   7.963  1.00  0.00     0.000 C 
BRANCH   7   8
ATOM      8  C   UNL     1       2.827  47.707   7.842  1.00  0.00     0.000 C 
BRANCH   8   9
ATOM      9  C   UNL     1       3.091  46.831   9.077  1.00  0.00     0.000 C 
BRANCH   9  10
ATOM     10  C   UNL     1       4.525  46.271   9.114  1.00  0.00     0.006 C 
BRANCH  10  11
ATOM     11  C   UNL     1       5.426  47.051  10.080  1.00  0.00     0.053 C 
BRANCH  11  12
ATOM     12  C   UNL     1       6.496  47.813   9.359  1.00  0.00     0.041 C 
ATOM     13  O   UNL     1       7.676  47.378   9.344  1.00  0.00    -0.550 OA
ATOM     14  O   UNL     1       6.187  48.994   8.697  1.00  0.00    -0.550 OA
ENDBRANCH  11  12
ENDBRANCH  10  11
ENDBRANCH   9  10
ENDBRANCH   8   9
ENDBRANCH   7   8
ENDBRANCH   6   7
ENDBRANCH   5   6
ENDBRANCH   4   5
ENDBRANCH   3   4
ENDBRANCH   2   3
ENDBRANCH   1   2
BRANCH   1  15
ATOM     15  C   UNL     1       1.358  43.695   9.298  1.00  0.00     0.000 C 
BRANCH  15  16
ATOM     16  C   UNL     1       0.753  44.631  10.361  1.00  0.00     0.000 C 
BRANCH  16  17
ATOM     17  C   UNL     1       0.625  43.956  11.739  1.00  0.00     0.000 C 
BRANCH  17  18
ATOM     18  C   UNL     1       1.871  43.128  12.115  1.00  0.00    -0.000 C 
BRANCH  18  19
ATOM     19  C   UNL     1       3.188  43.922  12.049  1.00  0.00    -0.000 C 
BRANCH  19  20
ATOM     20  C   UNL     1       4.405  43.038  11.727  1.00  0.00    -0.000 C 
BRANCH  20  21
ATOM     21  C   UNL     1       4.038  41.541  11.646  1.00  0.00    -0.000 C 
BRANCH  21  22
ATOM     22  C   UNL     1       4.984  40.630  12.450  1.00  0.00    -0.000 C 
BRANCH  22  23
ATOM     23  C   UNL     1       4.269  39.404  13.043  1.00  0.00    -0.000 C 
BRANCH  23  24
ATOM     24  C   UNL     1       2.737  39.480  12.903  1.00  0.00    -0.000 C 
BRANCH  24  25
ATOM     25  C   UNL     1       2.069  38.165  12.463  1.00  0.00    -0.003 C 
ATOM     26  C   UNL     1       3.025  37.228  11.726  1.00  0.00     0.004 C 
ENDBRANCH  24  25
ENDBRANCH  23  24
ENDBRANCH  22  23
ENDBRANCH  21  22
ENDBRANCH  20  21
ENDBRANCH  19  20
ENDBRANCH  18  19
ENDBRANCH  17  18
ENDBRANCH  16  17
ENDBRANCH  15  16
ENDBRANCH   1  15
TORSDOF 22
ENDMDL
MODEL 6
REMARK VINA RESULT:    -4.577      3.150      7.746
REMARK INTER + INTRA:         -12.679
REMARK INTER:                 -10.202
REMARK INTRA:                  -2.477
REMARK UNBOUND:                -2.217
REMARK SMILES CCCCCCCCCCCCCCCCCCCCCCCC(=O)[O-]
REMARK SMILES IDX 13 1 14 2 15 3 16 4 17 5 18 6 19 7 20 8 21 9 22 10 23 11
REMARK SMILES IDX 24 12 25 13 26 14 12 15 11 16 10 17 9 18 8 19 7 20 6 21 5 22
REMARK SMILES IDX 4 23 3 24 2 25 1 26
REMARK H PARENT
REMARK Flexibility Score: inf
ROOT
ATOM      1  C   UNL     1       2.596  43.262   8.723  1.00  0.00     0.000 C 
ENDROOT
BRANCH   1   2
ATOM      2  C   UNL     1       1.198  43.894   8.857  1.00  0.00     0.000 C 
BRANCH   2   3
ATOM      3  C   UNL     1       0.589  44.281   7.492  1.00  0.00     0.000 C 
BRANCH   3   4
ATOM      4  C   UNL     1      -0.191  45.611   7.503  1.00  0.00     0.000 C 
BRANCH   4   5
ATOM      5  C   UNL     1      -0.275  46.326   8.862  1.00  0.00     0.000 C 
BRANCH   5   6
ATOM      6  C   UNL     1       0.594  47.593   9.012  1.00  0.00     0.000 C 
BRANCH   6   7
ATOM      7  C   UNL     1       1.506  47.902   7.808  1.00  0.00     0.000 C 
BRANCH   7   8
ATOM      8  C   UNL     1       3.011  47.752   8.116  1.00  0.00     0.000 C 
BRANCH   8   9
ATOM      9  C   UNL     1       3.290  46.715   9.217  1.00  0.00     0.000 C 
BRANCH   9  10
ATOM     10  C   UNL     1       4.758  46.253   9.241  1.00  0.00     0.006 C 
BRANCH  10  11
ATOM     11  C   UNL     1       5.637  47.163  10.109  1.00  0.00     0.053 C 
BRANCH  11  12
ATOM     12  C   UNL     1       6.663  47.892   9.297  1.00  0.00     0.041 C 
ATOM     13  O   UNL     1       7.812  47.401   9.148  1.00  0.00    -0.550 OA
ATOM     14  O   UNL     1       6.348  49.105   8.699  1.00  0.00    -0.550 OA
ENDBRANCH  11  12
ENDBRANCH  10  11
ENDBRANCH   9  10
ENDBRANCH   8   9
ENDBRANCH   7   8
ENDBRANCH   6   7
ENDBRANCH   5   6
ENDBRANCH   4   5
ENDBRANCH   3   4
ENDBRANCH   2   3
ENDBRANCH   1   2
BRANCH   1  15
ATOM     15  C   UNL     1       2.963  42.377   9.930  1.00  0.00     0.000 C 
BRANCH  15  16
ATOM     16  C   UNL     1       3.956  43.027  10.913  1.00  0.00     0.000 C 
BRANCH  16  17
ATOM     17  C   UNL     1       3.264  43.969  11.915  1.00  0.00     0.000 C 
BRANCH  17  18
ATOM     18  C   UNL     1       1.776  43.622  12.129  1.00  0.00    -0.000 C 
BRANCH  18  19
ATOM     19  C   UNL     1       1.546  42.262  12.812  1.00  0.00    -0.000 C 
BRANCH  19  20
ATOM     20  C   UNL     1       0.069  42.004  13.153  1.00  0.00    -0.000 C 
BRANCH  20  21
ATOM     21  C   UNL     1      -0.127  40.709  13.969  1.00  0.00    -0.000 C 
BRANCH  21  22
ATOM     22  C   UNL     1       1.148  39.854  14.086  1.00  0.00    -0.000 C 
BRANCH  22  23
ATOM     23  C   UNL     1       1.204  38.722  13.046  1.00  0.00    -0.000 C 
BRANCH  23  24
ATOM     24  C   UNL     1       2.633  38.435  12.551  1.00  0.00    -0.000 C 
BRANCH  24  25
ATOM     25  C   UNL     1       3.563  39.661  12.532  1.00  0.00    -0.003 C 
ATOM     26  C   UNL     1       4.857  39.440  13.314  1.00  0.00     0.004 C 
ENDBRANCH  24  25
ENDBRANCH  23  24
ENDBRANCH  22  23
ENDBRANCH  21  22
ENDBRANCH  20  21
ENDBRANCH  19  20
ENDBRANCH  18  19
ENDBRANCH  17  18
ENDBRANCH  16  17
ENDBRANCH  15  16
ENDBRANCH   1  15
TORSDOF 22
ENDMDL
MODEL 7
REMARK VINA RESULT:    -4.468      1.349      4.337
REMARK INTER + INTRA:         -12.430
REMARK INTER:                  -9.435
REMARK INTRA:                  -2.996
REMARK UNBOUND:                -2.217
REMARK SMILES CCCCCCCCCCCCCCCCCCCCCCCC(=O)[O-]
REMARK SMILES IDX 13 1 14 2 15 3 16 4 17 5 18 6 19 7 20 8 21 9 22 10 23 11
REMARK SMILES IDX 24 12 25 13 26 14 12 15 11 16 10 17 9 18 8 19 7 20 6 21 5 22
REMARK SMILES IDX 4 23 3 24 2 25 1 26
REMARK H PARENT
REMARK Flexibility Score: inf
ROOT
ATOM      1  C   UNL     1       2.751  42.701  10.492  1.00  0.00     0.000 C 
ENDROOT
BRANCH   1   2
ATOM      2  C   UNL     1       1.858  43.103   9.304  1.00  0.00     0.000 C 
BRANCH   2   3
ATOM      3  C   UNL     1       1.078  44.410   9.564  1.00  0.00     0.000 C 
BRANCH   3   4
ATOM      4  C   UNL     1       0.853  44.725  11.056  1.00  0.00     0.000 C 
BRANCH   4   5
ATOM      5  C   UNL     1      -0.612  44.739  11.524  1.00  0.00     0.000 C 
BRANCH   5   6
ATOM      6  C   UNL     1      -0.997  43.669  12.567  1.00  0.00     0.000 C 
BRANCH   6   7
ATOM      7  C   UNL     1       0.123  42.667  12.915  1.00  0.00     0.000 C 
BRANCH   7   8
ATOM      8  C   UNL     1      -0.356  41.476  13.771  1.00  0.00     0.000 C 
BRANCH   8   9
ATOM      9  C   UNL     1       0.510  40.221  13.577  1.00  0.00     0.000 C 
BRANCH   9  10
ATOM     10  C   UNL     1       1.967  40.554  13.207  1.00  0.00     0.006 C 
BRANCH  10  11
ATOM     11  C   UNL     1       2.778  39.298  12.861  1.00  0.00     0.053 C 
BRANCH  11  12
ATOM     12  C   UNL     1       4.253  39.544  12.939  1.00  0.00     0.041 C 
ATOM     13  O   UNL     1       4.987  38.765  13.600  1.00  0.00    -0.550 OA
ATOM     14  O   UNL     1       4.818  40.625  12.273  1.00  0.00    -0.550 OA
ENDBRANCH  11  12
ENDBRANCH  10  11
ENDBRANCH   9  10
ENDBRANCH   8   9
ENDBRANCH   7   8
ENDBRANCH   6   7
ENDBRANCH   5   6
ENDBRANCH   4   5
ENDBRANCH   3   4
ENDBRANCH   2   3
ENDBRANCH   1   2
BRANCH   1  15
ATOM     15  C   UNL     1       4.174  43.285  10.387  1.00  0.00     0.000 C 
BRANCH  15  16
ATOM     16  C   UNL     1       4.498  44.357  11.446  1.00  0.00     0.000 C 
BRANCH  16  17
ATOM     17  C   UNL     1       4.339  45.789  10.905  1.00  0.00     0.000 C 
BRANCH  17  18
ATOM     18  C   UNL     1       4.474  45.866   9.370  1.00  0.00    -0.000 C 
BRANCH  18  19
ATOM     19  C   UNL     1       4.653  47.297   8.832  1.00  0.00    -0.000 C 
BRANCH  19  20
ATOM     20  C   UNL     1       3.476  47.761   7.958  1.00  0.00    -0.000 C 
BRANCH  20  21
ATOM     21  C   UNL     1       2.111  47.525   8.639  1.00  0.00    -0.000 C 
BRANCH  21  22
ATOM     22  C   UNL     1       0.952  48.298   7.983  1.00  0.00    -0.000 C 
BRANCH  22  23
ATOM     23  C   UNL     1      -0.396  48.055   8.681  1.00  0.00    -0.000 C 
BRANCH  23  24
ATOM     24  C   UNL     1      -1.038  46.711   8.292  1.00  0.00    -0.000 C 
BRANCH  24  25
ATOM     25  C   UNL     1      -1.094  46.442   6.777  1.00  0.00    -0.003 C 
ATOM     26  C   UNL     1      -0.805  44.985   6.420  1.00  0.00     0.004 C 
ENDBRANCH  24  25
ENDBRANCH  23  24
ENDBRANCH  22  23
ENDBRANCH  21  22
ENDBRANCH  20  21
ENDBRANCH  19  20
ENDBRANCH  18  19
ENDBRANCH  17  18
ENDBRANCH  16  17
ENDBRANCH  15  16
ENDBRANCH   1  15
TORSDOF 22
ENDMDL
MODEL 8
REMARK VINA RESULT:    -4.400      1.138      2.573
REMARK INTER + INTRA:         -12.275
REMARK INTER:                 -10.176
REMARK INTRA:                  -2.099
REMARK UNBOUND:                -2.217
REMARK SMILES CCCCCCCCCCCCCCCCCCCCCCCC(=O)[O-]
REMARK SMILES IDX 13 1 14 2 15 3 16 4 17 5 18 6 19 7 20 8 21 9 22 10 23 11
REMARK SMILES IDX 24 12 25 13 26 14 12 15 11 16 10 17 9 18 8 19 7 20 6 21 5 22
REMARK SMILES IDX 4 23 3 24 2 25 1 26
REMARK H PARENT
REMARK Flexibility Score: inf
ROOT
ATOM      1  C   UNL     1       2.932  42.527   9.839  1.00  0.00     0.000 C 
ENDROOT
BRANCH   1   2
ATOM      2  C   UNL     1       4.124  43.284  10.453  1.00  0.00     0.000 C 
BRANCH   2   3
ATOM      3  C   UNL     1       3.737  44.070  11.725  1.00  0.00     0.000 C 
BRANCH   3   4
ATOM      4  C   UNL     1       2.259  43.917  12.135  1.00  0.00     0.000 C 
BRANCH   4   5
ATOM      5  C   UNL     1       1.807  42.490  12.491  1.00  0.00     0.000 C 
BRANCH   5   6
ATOM      6  C   UNL     1       0.314  42.325  12.848  1.00  0.00     0.000 C 
BRANCH   6   7
ATOM      7  C   UNL     1      -0.007  41.127  13.763  1.00  0.00     0.000 C 
BRANCH   7   8
ATOM      8  C   UNL     1       1.206  40.212  14.035  1.00  0.00     0.000 C 
BRANCH   8   9
ATOM      9  C   UNL     1       1.091  38.850  13.331  1.00  0.00     0.000 C 
BRANCH   9  10
ATOM     10  C   UNL     1       2.412  38.405  12.676  1.00  0.00     0.006 C 
BRANCH  10  11
ATOM     11  C   UNL     1       3.192  39.586  12.086  1.00  0.00     0.053 C 
BRANCH  11  12
ATOM     12  C   UNL     1       4.469  39.841  12.826  1.00  0.00     0.041 C 
ATOM     13  O   UNL     1       5.103  40.911  12.637  1.00  0.00    -0.550 OA
ATOM     14  O   UNL     1       4.952  38.904  13.730  1.00  0.00    -0.550 OA
ENDBRANCH  11  12
ENDBRANCH  10  11
ENDBRANCH   9  10
ENDBRANCH   8   9
ENDBRANCH   7   8
ENDBRANCH   6   7
ENDBRANCH   5   6
ENDBRANCH   4   5
ENDBRANCH   3   4
ENDBRANCH   2   3
ENDBRANCH   1   2
BRANCH   1  15
ATOM     15  C   UNL     1       2.351  43.241   8.602  1.00  0.00     0.000 C 
BRANCH  15  16
ATOM     16  C   UNL     1       1.136  44.140   8.902  1.00  0.00     0.000 C 
BRANCH  16  17
ATOM     17  C   UNL     1       0.358  44.525   7.631  1.00  0.00     0.000 C 
BRANCH  17  18
ATOM     18  C   UNL     1      -0.041  46.015   7.605  1.00  0.00    -0.000 C 
BRANCH  18  19
ATOM     19  C   UNL     1      -0.103  46.667   8.998  1.00  0.00    -0.000 C 
BRANCH  19  20
ATOM     20  C   UNL     1       0.948  47.774   9.190  1.00  0.00    -0.000 C 
BRANCH  20  21
ATOM     21  C   UNL     1       1.730  48.070   7.893  1.00  0.00    -0.000 C 
BRANCH  21  22
ATOM     22  C   UNL     1       3.198  47.606   7.938  1.00  0.00    -0.000 C 
BRANCH  22  23
ATOM     23  C   UNL     1       3.575  46.951   9.277  1.00  0.00    -0.000 C 
BRANCH  23  24
ATOM     24  C   UNL     1       5.081  46.655   9.394  1.00  0.00    -0.000 C 
BRANCH  24  25
ATOM     25  C   UNL     1       5.985  47.900   9.347  1.00  0.00    -0.003 C 
ATOM     26  C   UNL     1       7.473  47.559   9.415  1.00  0.00     0.004 C 
ENDBRANCH  24  25
ENDBRANCH  23  24
ENDBRANCH  22  23
ENDBRANCH  21  22
ENDBRANCH  20  21
ENDBRANCH  19  20
ENDBRANCH  18  19
ENDBRANCH  17  18
ENDBRANCH  16  17
ENDBRANCH  15  16
ENDBRANCH   1  15
TORSDOF 22
ENDMDL
MODEL 9
REMARK VINA RESULT:    -4.300      3.401      8.693
REMARK INTER + INTRA:         -12.047
REMARK INTER:                  -9.925
REMARK INTRA:                  -2.122
REMARK UNBOUND:                -2.217
REMARK SMILES CCCCCCCCCCCCCCCCCCCCCCCC(=O)[O-]
REMARK SMILES IDX 13 1 14 2 15 3 16 4 17 5 18 6 19 7 20 8 21 9 22 10 23 11
REMARK SMILES IDX 24 12 25 13 26 14 12 15 11 16 10 17 9 18 8 19 7 20 6 21 5 22
REMARK SMILES IDX 4 23 3 24 2 25 1 26
REMARK H PARENT
REMARK Flexibility Score: inf
ROOT
ATOM      1  C   UNL     1       1.308  44.752   8.874  1.00  0.00     0.000 C 
ENDROOT
BRANCH   1   2
ATOM      2  C   UNL     1       0.516  45.318  10.068  1.00  0.00     0.000 C 
BRANCH   2   3
ATOM      3  C   UNL     1      -0.807  45.987   9.638  1.00  0.00     0.000 C 
BRANCH   3   4
ATOM      4  C   UNL     1      -1.075  45.939   8.121  1.00  0.00     0.000 C 
BRANCH   4   5
ATOM      5  C   UNL     1      -1.068  47.296   7.396  1.00  0.00     0.000 C 
BRANCH   5   6
ATOM      6  C   UNL     1      -0.769  48.528   8.276  1.00  0.00     0.000 C 
BRANCH   6   7
ATOM      7  C   UNL     1       0.631  49.144   8.077  1.00  0.00     0.000 C 
BRANCH   7   8
ATOM      8  C   UNL     1       1.765  48.328   8.731  1.00  0.00     0.000 C 
BRANCH   8   9
ATOM      9  C   UNL     1       2.736  47.730   7.699  1.00  0.00     0.000 C 
BRANCH   9  10
ATOM     10  C   UNL     1       4.162  48.295   7.828  1.00  0.00     0.006 C 
BRANCH  10  11
ATOM     11  C   UNL     1       4.994  47.535   8.870  1.00  0.00     0.053 C 
BRANCH  11  12
ATOM     12  C   UNL     1       6.322  48.185   9.110  1.00  0.00     0.041 C 
ATOM     13  O   UNL     1       6.416  49.439   9.121  1.00  0.00    -0.550 OA
ATOM     14  O   UNL     1       7.451  47.406   9.332  1.00  0.00    -0.550 OA
ENDBRANCH  11  12
ENDBRANCH  10  11
ENDBRANCH   9  10
ENDBRANCH   8   9
ENDBRANCH   7   8
ENDBRANCH   6   7
ENDBRANCH   5   6
ENDBRANCH   4   5
ENDBRANCH   3   4
ENDBRANCH   2   3
ENDBRANCH   1   2
BRANCH   1  15
ATOM     15  C   UNL     1       1.646  43.258   9.042  1.00  0.00     0.000 C 
BRANCH  15  16
ATOM     16  C   UNL     1       3.155  42.953   9.118  1.00  0.00     0.000 C 
BRANCH  16  17
ATOM     17  C   UNL     1       3.841  43.660  10.301  1.00  0.00     0.000 C 
BRANCH  17  18
ATOM     18  C   UNL     1       3.493  43.021  11.661  1.00  0.00    -0.000 C 
BRANCH  18  19
ATOM     19  C   UNL     1       3.314  41.493  11.602  1.00  0.00    -0.000 C 
BRANCH  19  20
ATOM     20  C   UNL     1       2.132  40.995  12.450  1.00  0.00    -0.000 C 
BRANCH  20  21
ATOM     21  C   UNL     1       2.446  39.667  13.171  1.00  0.00    -0.000 C 
BRANCH  21  22
ATOM     22  C   UNL     1       3.551  38.840  12.488  1.00  0.00    -0.000 C 
BRANCH  22  23
ATOM     23  C   UNL     1       3.012  37.569  11.812  1.00  0.00    -0.000 C 
BRANCH  23  24
ATOM     24  C   UNL     1       1.540  37.284  12.160  1.00  0.00    -0.000 C 
BRANCH  24  25
ATOM     25  C   UNL     1       1.026  35.909  11.696  1.00  0.00    -0.003 C 
ATOM     26  C   UNL     1      -0.427  35.651  12.094  1.00  0.00     0.004 C 
ENDBRANCH  24  25
ENDBRANCH  23  24
ENDBRANCH  22  23
ENDBRANCH  21  22
ENDBRANCH  20  21
ENDBRANCH  19  20
ENDBRANCH  18  19
ENDBRANCH  17  18
ENDBRANCH  16  17
ENDBRANCH  15  16
ENDBRANCH   1  15
TORSDOF 22
ENDMDL
