MODEL 1
REMARK VINA RESULT:    30.905      0.000      0.000
REMARK INTER + INTRA:          33.615
REMARK INTER:                  33.615
REMARK INTRA:                   0.000
REMARK UNBOUND:                 0.000
REMARK SMILES Cc1cc(O)c2c(c1)C(=O)c1cc(O)cc(O)c1C2=O
REMARK SMILES IDX 1 1 2 2 8 3 7 4 6 5 4 6 3 7 19 8 20 9 18 10 11 11 9 12 10 13
REMARK SMILES IDX 12 14 13 15 15 16 16 17 5 18 17 20 14 22
REMARK H PARENT 5 19 17 21 14 23
REMARK Flexibility Score: inf
ROOT
ATOM      1  C   UNL     1      -3.161  -4.125  -0.877  1.00  0.00     0.044 C 
ATOM      2  C   UNL     1      -1.816  -3.458  -0.867  1.00  0.00    -0.047 A 
ATOM      3  C   UNL     1      -1.358  -2.815   0.287  1.00  0.00     0.016 A 
ATOM      4  C   UNL     1      -0.090  -2.209   0.315  1.00  0.00     0.038 A 
ATOM      5  C   UNL     1       0.736  -2.247  -0.833  1.00  0.00     0.076 A 
ATOM      6  C   UNL     1       0.303  -2.989  -1.965  1.00  0.00     0.127 A 
ATOM      7  C   UNL     1      -0.973  -3.559  -1.977  1.00  0.00     0.050 A 
ATOM      8  C   UNL     1       2.001  -1.462  -0.822  1.00  0.00     0.201 C 
ATOM      9  O   UNL     1       2.546  -1.125  -1.906  1.00  0.00    -0.288 OA
ATOM     10  C   UNL     1       2.566  -0.974   0.464  1.00  0.00     0.076 A 
ATOM     11  C   UNL     1       1.760  -1.000   1.622  1.00  0.00     0.041 A 
ATOM     12  C   UNL     1       0.384  -1.542   1.551  1.00  0.00     0.194 C 
ATOM     13  O   UNL     1      -0.379  -1.453   2.552  1.00  0.00    -0.289 OA
ATOM     14  C   UNL     1       2.267  -0.508   2.838  1.00  0.00     0.059 A 
ATOM     15  C   UNL     1       3.567   0.003   2.909  1.00  0.00     0.120 A 
ATOM     16  C   UNL     1       4.369   0.022   1.768  1.00  0.00     0.093 A 
ATOM     17  C   UNL     1       3.882  -0.462   0.548  1.00  0.00     0.131 A 
ENDROOT
BRANCH   6  18
ATOM     18  O   UNL     1       1.115  -3.217  -3.080  1.00  0.00    -0.507 OA
ATOM     19  H   UNL     1       1.962  -2.703  -3.271  1.00  0.00     0.293 HD
ENDBRANCH   6  18
BRANCH  17  20
ATOM     20  O   UNL     1       4.710  -0.443  -0.575  1.00  0.00    -0.507 OA
ATOM     21  H   UNL     1       5.643  -0.048  -0.543  1.00  0.00     0.293 HD
ENDBRANCH  17  20
BRANCH  15  22
ATOM     22  O   UNL     1       4.074   0.490   4.113  1.00  0.00    -0.508 OA
ATOM     23  H   UNL     1       3.966  -0.024   4.980  1.00  0.00     0.293 HD
ENDBRANCH  15  22
TORSDOF 3
ENDMDL
MODEL 2
REMARK VINA RESULT:    32.897      1.287      5.497
REMARK INTER + INTRA:          35.782
REMARK INTER:                  35.782
REMARK INTRA:                   0.000
REMARK UNBOUND:                 0.000
REMARK SMILES Cc1cc(O)c2c(c1)C(=O)c1cc(O)cc(O)c1C2=O
REMARK SMILES IDX 1 1 2 2 8 3 7 4 6 5 4 6 3 7 19 8 20 9 18 10 11 11 9 12 10 13
REMARK SMILES IDX 12 14 13 15 15 16 16 17 5 18 17 20 14 22
REMARK H PARENT 5 19 17 21 14 23
REMARK Flexibility Score: inf
ROOT
ATOM      1  C   UNL     1       4.105   0.520   4.020  1.00  0.00     0.044 C 
ATOM      2  C   UNL     1       3.511  -0.078   2.778  1.00  0.00    -0.047 A 
ATOM      3  C   UNL     1       2.309  -0.789   2.844  1.00  0.00     0.016 A 
ATOM      4  C   UNL     1       1.731  -1.331   1.684  1.00  0.00     0.038 A 
ATOM      5  C   UNL     1       2.368  -1.160   0.432  1.00  0.00     0.076 A 
ATOM      6  C   UNL     1       3.535  -0.351   0.361  1.00  0.00     0.127 A 
ATOM      7  C   UNL     1       4.104   0.154   1.533  1.00  0.00     0.050 A 
ATOM      8  C   UNL     1       1.816  -1.879  -0.749  1.00  0.00     0.201 C 
ATOM      9  O   UNL     1       2.544  -2.100  -1.753  1.00  0.00    -0.288 OA
ATOM     10  C   UNL     1       0.440  -2.441  -0.705  1.00  0.00     0.076 A 
ATOM     11  C   UNL     1      -0.219  -2.549   0.539  1.00  0.00     0.041 A 
ATOM     12  C   UNL     1       0.450  -2.072   1.771  1.00  0.00     0.194 C 
ATOM     13  O   UNL     1      -0.083  -2.280   2.896  1.00  0.00    -0.289 OA
ATOM     14  C   UNL     1      -1.505  -3.112   0.602  1.00  0.00     0.059 A 
ATOM     15  C   UNL     1      -2.141  -3.562  -0.560  1.00  0.00     0.120 A 
ATOM     16  C   UNL     1      -1.496  -3.449  -1.792  1.00  0.00     0.093 A 
ATOM     17  C   UNL     1      -0.214  -2.892  -1.876  1.00  0.00     0.131 A 
ENDROOT
BRANCH   6  18
ATOM     18  O   UNL     1       4.139   0.007  -0.848  1.00  0.00    -0.507 OA
ATOM     19  H   UNL     1       4.483   0.935  -1.050  1.00  0.00     0.293 HD
ENDBRANCH   6  18
BRANCH  17  20
ATOM     20  O   UNL     1       0.403  -2.780  -3.122  1.00  0.00    -0.507 OA
ATOM     21  H   UNL     1       1.240  -2.225  -3.255  1.00  0.00     0.293 HD
ENDBRANCH  17  20
BRANCH  15  22
ATOM     22  O   UNL     1      -3.416  -4.120  -0.501  1.00  0.00    -0.508 OA
ATOM     23  H   UNL     1      -3.999  -4.198  -1.327  1.00  0.00     0.293 HD
ENDBRANCH  15  22
TORSDOF 3
ENDMDL
