MODEL 1
REMARK VINA RESULT:     6.425      0.000      0.000
REMARK INTER + INTRA:           8.063
REMARK INTER:                   7.365
REMARK INTRA:                   0.698
REMARK UNBOUND:                 0.698
REMARK SMILES C=C(C)[C@@H]1CC[C@@]2(C(=O)[O-])CC[C@@]3(C)[C@H](CC[C@@H]4[C@]5(C)CC[C@H](O)C(C)(C)[C@@H]5CC[C@@]43C)[C@@H]12
REMARK SMILES IDX 7 1 6 2 33 3 11 4 5 5 15 6 4 7 12 8 16 9 13 10 17 11 31 12
REMARK SMILES IDX 14 13 18 14 30 15 32 16 19 17 29 18 21 19 20 20 28 21 22 22
REMARK SMILES IDX 25 23 23 24 26 25 27 26 8 27 9 28 10 29 2 30 3 31 1 32 24 33
REMARK H PARENT 24 34
REMARK Flexibility Score: inf
ROOT
ATOM      1  C   UNL     1     -11.343  13.607 -33.294  1.00  0.00     0.014 C 
ATOM      2  C   UNL     1     -10.034  14.158 -33.908  1.00  0.00     0.014 C 
ATOM      3  C   UNL     1     -12.174  14.853 -32.888  1.00  0.00     0.012 C 
ATOM      4  C   UNL     1     -11.036  12.783 -32.029  1.00  0.00     0.014 C 
ATOM      5  C   UNL     1      -9.875  15.608 -33.478  1.00  0.00     0.009 C 
ATOM      6  C   UNL     1     -13.122  14.716 -31.623  1.00  0.00     0.000 C 
ATOM      7  C   UNL     1     -11.124  15.980 -32.683  1.00  0.00     0.018 C 
ATOM      8  C   UNL     1     -12.321  12.194 -31.448  1.00  0.00     0.008 C 
ATOM      9  C   UNL     1     -14.410  15.540 -31.853  1.00  0.00     0.005 C 
ATOM     10  C   UNL     1     -13.381  13.266 -30.981  1.00  0.00    -0.024 C 
ATOM     11  C   UNL     1     -15.471  15.279 -30.794  1.00  0.00     0.005 C 
ATOM     12  C   UNL     1     -14.896  12.754 -31.269  1.00  0.00    -0.024 C 
ATOM     13  C   UNL     1     -13.097  13.413 -29.442  1.00  0.00     0.012 C 
ATOM     14  C   UNL     1     -16.014  13.824 -30.860  1.00  0.00     0.002 C 
ATOM     15  C   UNL     1     -15.169  11.400 -30.559  1.00  0.00     0.008 C 
ATOM     16  C   UNL     1     -15.064  12.462 -32.810  1.00  0.00     0.012 C 
ATOM     17  C   UNL     1     -17.049  13.436 -29.700  1.00  0.00    -0.026 C 
ATOM     18  C   UNL     1     -16.637  10.976 -30.589  1.00  0.00     0.005 C 
ATOM     19  C   UNL     1     -16.411  13.486 -28.281  1.00  0.00     0.010 C 
ATOM     20  C   UNL     1     -18.179  14.518 -29.746  1.00  0.00     0.012 C 
ATOM     21  C   UNL     1     -17.671  11.994 -29.979  1.00  0.00     0.003 C 
ATOM     22  C   UNL     1     -17.335  12.989 -27.159  1.00  0.00     0.033 C 
ATOM     23  C   UNL     1     -18.577  11.389 -28.796  1.00  0.00    -0.006 C 
ATOM     24  C   UNL     1     -17.889  11.569 -27.399  1.00  0.00     0.120 C 
ATOM     25  C   UNL     1     -19.985  12.083 -28.760  1.00  0.00     0.014 C 
ATOM     26  C   UNL     1     -18.903   9.875 -29.013  1.00  0.00     0.014 C 
ENDROOT
BRANCH   1  27
ATOM     27  C   UNL     1     -12.004  12.738 -34.361  1.00  0.00     0.048 C 
ATOM     28  O   UNL     1     -13.144  13.021 -34.820  1.00  0.00    -0.550 OA
ATOM     29  O   UNL     1     -11.280  11.718 -34.964  1.00  0.00    -0.550 OA
ENDBRANCH   1  27
BRANCH   7  30
ATOM     30  C   UNL     1     -11.658  17.361 -33.047  1.00  0.00    -0.077 C 
ATOM     31  C   UNL     1     -12.902  17.914 -32.394  1.00  0.00     0.039 C 
ATOM     32  C   UNL     1     -11.007  18.121 -33.940  1.00  0.00     0.008 C 
ENDBRANCH   7  30
BRANCH  24  33
ATOM     33  O   UNL     1     -16.894  10.605 -27.149  1.00  0.00    -0.393 OA
ATOM     34  H   UNL     1     -17.114  10.152 -26.298  1.00  0.00     0.210 HD
ENDBRANCH  24  33
TORSDOF 3
ENDMDL
