MODEL 1
REMARK VINA RESULT:    -4.740      0.000      0.000
REMARK INTER + INTRA:          -5.408
REMARK INTER:                  -5.156
REMARK INTRA:                  -0.252
REMARK UNBOUND:                -0.252
REMARK SMILES O=C([O-])c1ccccc1O
REMARK SMILES IDX 4 1 9 2 5 3 8 4 6 5 7 6 2 7 1 8 3 9 10 10
REMARK H PARENT 10 11
REMARK Flexibility Score: inf
ROOT
ATOM      1  C   UNL     1      19.629  19.564  -5.863  1.00  0.00     0.039 A 
ATOM      2  C   UNL     1      18.579  20.056  -6.680  1.00  0.00     0.124 A 
ATOM      3  C   UNL     1      20.818  20.312  -5.760  1.00  0.00     0.014 A 
ATOM      4  C   UNL     1      18.719  21.296  -7.316  1.00  0.00     0.047 A 
ATOM      5  C   UNL     1      20.948  21.536  -6.417  1.00  0.00     0.001 A 
ATOM      6  C   UNL     1      19.896  22.034  -7.186  1.00  0.00     0.004 A 
ENDROOT
BRANCH   1   7
ATOM      7  C   UNL     1      19.519  18.311  -5.083  1.00  0.00     0.075 C 
ATOM      8  O   UNL     1      20.004  18.226  -3.925  1.00  0.00    -0.545 OA
ATOM      9  O   UNL     1      18.938  17.185  -5.655  1.00  0.00    -0.545 OA
ENDBRANCH   1   7
BRANCH   2  10
ATOM     10  O   UNL     1      17.406  19.335  -6.916  1.00  0.00    -0.507 OA
ATOM     11  H   UNL     1      17.147  18.968  -7.822  1.00  0.00     0.293 HD
ENDBRANCH   2  10
TORSDOF 2
ENDMDL
MODEL 2
REMARK VINA RESULT:    -4.615      1.543      3.155
REMARK INTER + INTRA:          -5.272
REMARK INTER:                  -5.047
REMARK INTRA:                  -0.225
REMARK UNBOUND:                -0.252
REMARK SMILES O=C([O-])c1ccccc1O
REMARK SMILES IDX 4 1 9 2 5 3 8 4 6 5 7 6 2 7 1 8 3 9 10 10
REMARK H PARENT 10 11
REMARK Flexibility Score: inf
ROOT
ATOM      1  C   UNL     1      18.568  18.535  -6.737  1.00  0.00     0.039 A 
ATOM      2  C   UNL     1      19.290  17.889  -5.700  1.00  0.00     0.124 A 
ATOM      3  C   UNL     1      18.775  19.911  -6.953  1.00  0.00     0.014 A 
ATOM      4  C   UNL     1      20.232  18.612  -4.958  1.00  0.00     0.047 A 
ATOM      5  C   UNL     1      19.704  20.620  -6.190  1.00  0.00     0.001 A 
ATOM      6  C   UNL     1      20.440  19.970  -5.200  1.00  0.00     0.004 A 
ENDROOT
BRANCH   1   7
ATOM      7  C   UNL     1      17.627  17.819  -7.628  1.00  0.00     0.075 C 
ATOM      8  O   UNL     1      16.429  18.189  -7.733  1.00  0.00    -0.545 OA
ATOM      9  O   UNL     1      18.044  16.680  -8.307  1.00  0.00    -0.545 OA
ENDBRANCH   1   7
BRANCH   2  10
ATOM     10  O   UNL     1      19.077  16.553  -5.354  1.00  0.00    -0.507 OA
ATOM     11  H   UNL     1      19.430  15.773  -5.891  1.00  0.00     0.293 HD
ENDBRANCH   2  10
TORSDOF 2
ENDMDL
MODEL 3
REMARK VINA RESULT:    -4.587      1.967      3.964
REMARK INTER + INTRA:          -5.241
REMARK INTER:                  -4.991
REMARK INTRA:                  -0.249
REMARK UNBOUND:                -0.252
REMARK SMILES O=C([O-])c1ccccc1O
REMARK SMILES IDX 4 1 9 2 5 3 8 4 6 5 7 6 2 7 1 8 3 9 10 10
REMARK H PARENT 10 11
REMARK Flexibility Score: inf
ROOT
ATOM      1  C   UNL     1      19.038  19.027  -6.087  1.00  0.00     0.039 A 
ATOM      2  C   UNL     1      19.490  17.896  -5.360  1.00  0.00     0.124 A 
ATOM      3  C   UNL     1      18.271  18.826  -7.250  1.00  0.00     0.014 A 
ATOM      4  C   UNL     1      19.114  16.611  -5.774  1.00  0.00     0.047 A 
ATOM      5  C   UNL     1      17.923  17.537  -7.659  1.00  0.00     0.001 A 
ATOM      6  C   UNL     1      18.335  16.431  -6.917  1.00  0.00     0.004 A 
ENDROOT
BRANCH   1   7
ATOM      7  C   UNL     1      19.311  20.418  -5.659  1.00  0.00     0.075 C 
ATOM      8  O   UNL     1      18.406  21.292  -5.685  1.00  0.00    -0.545 OA
ATOM      9  O   UNL     1      20.598  20.791  -5.290  1.00  0.00    -0.545 OA
ENDBRANCH   1   7
BRANCH   2  10
ATOM     10  O   UNL     1      20.335  17.999  -4.252  1.00  0.00    -0.507 OA
ATOM     11  H   UNL     1      21.290  17.668  -4.245  1.00  0.00     0.293 HD
ENDBRANCH   2  10
TORSDOF 2
ENDMDL
MODEL 4
REMARK VINA RESULT:    -4.586      1.697      2.536
REMARK INTER + INTRA:          -5.240
REMARK INTER:                  -5.004
REMARK INTRA:                  -0.236
REMARK UNBOUND:                -0.252
REMARK SMILES O=C([O-])c1ccccc1O
REMARK SMILES IDX 4 1 9 2 5 3 8 4 6 5 7 6 2 7 1 8 3 9 10 10
REMARK H PARENT 10 11
REMARK Flexibility Score: inf
ROOT
ATOM      1  C   UNL     1      20.067  20.023  -6.091  1.00  0.00     0.039 A 
ATOM      2  C   UNL     1      20.853  21.145  -6.459  1.00  0.00     0.124 A 
ATOM      3  C   UNL     1      18.704  20.003  -6.445  1.00  0.00     0.014 A 
ATOM      4  C   UNL     1      20.279  22.175  -7.216  1.00  0.00     0.047 A 
ATOM      5  C   UNL     1      18.144  21.047  -7.182  1.00  0.00     0.001 A 
ATOM      6  C   UNL     1      18.932  22.127  -7.576  1.00  0.00     0.004 A 
ENDROOT
BRANCH   1   7
ATOM      7  C   UNL     1      20.623  18.853  -5.376  1.00  0.00     0.075 C 
ATOM      8  O   UNL     1      21.670  18.284  -5.783  1.00  0.00    -0.545 OA
ATOM      9  O   UNL     1      19.951  18.323  -4.280  1.00  0.00    -0.545 OA
ENDBRANCH   1   7
BRANCH   2  10
ATOM     10  O   UNL     1      22.186  21.294  -6.067  1.00  0.00    -0.507 OA
ATOM     11  H   UNL     1      22.477  21.853  -5.277  1.00  0.00     0.293 HD
ENDBRANCH   2  10
TORSDOF 2
ENDMDL
MODEL 5
REMARK VINA RESULT:    -4.501      2.103      2.726
REMARK INTER + INTRA:          -5.147
REMARK INTER:                  -4.897
REMARK INTRA:                  -0.250
REMARK UNBOUND:                -0.252
REMARK SMILES O=C([O-])c1ccccc1O
REMARK SMILES IDX 4 1 9 2 5 3 8 4 6 5 7 6 2 7 1 8 3 9 10 10
REMARK H PARENT 10 11
REMARK Flexibility Score: inf
ROOT
ATOM      1  C   UNL     1      18.708  18.735  -6.907  1.00  0.00     0.039 A 
ATOM      2  C   UNL     1      18.670  20.153  -6.894  1.00  0.00     0.124 A 
ATOM      3  C   UNL     1      19.706  18.076  -6.164  1.00  0.00     0.014 A 
ATOM      4  C   UNL     1      19.579  20.864  -6.100  1.00  0.00     0.047 A 
ATOM      5  C   UNL     1      20.617  18.801  -5.394  1.00  0.00     0.001 A 
ATOM      6  C   UNL     1      20.548  20.193  -5.353  1.00  0.00     0.004 A 
ENDROOT
BRANCH   1   7
ATOM      7  C   UNL     1      17.723  17.912  -7.643  1.00  0.00     0.075 C 
ATOM      8  O   UNL     1      16.510  18.241  -7.687  1.00  0.00    -0.545 OA
ATOM      9  O   UNL     1      18.120  16.720  -8.239  1.00  0.00    -0.545 OA
ENDBRANCH   1   7
BRANCH   2  10
ATOM     10  O   UNL     1      17.777  20.891  -7.676  1.00  0.00    -0.507 OA
ATOM     11  H   UNL     1      17.080  20.470  -8.275  1.00  0.00     0.293 HD
ENDBRANCH   2  10
TORSDOF 2
ENDMDL
MODEL 6
REMARK VINA RESULT:    -4.470      2.123      3.388
REMARK INTER + INTRA:          -5.113
REMARK INTER:                  -4.868
REMARK INTRA:                  -0.245
REMARK UNBOUND:                -0.252
REMARK SMILES O=C([O-])c1ccccc1O
REMARK SMILES IDX 4 1 9 2 5 3 8 4 6 5 7 6 2 7 1 8 3 9 10 10
REMARK H PARENT 10 11
REMARK Flexibility Score: inf
ROOT
ATOM      1  C   UNL     1      19.140  19.551  -6.869  1.00  0.00     0.039 A 
ATOM      2  C   UNL     1      18.237  18.520  -7.237  1.00  0.00     0.124 A 
ATOM      3  C   UNL     1      20.516  19.261  -6.811  1.00  0.00     0.014 A 
ATOM      4  C   UNL     1      18.734  17.259  -7.594  1.00  0.00     0.047 A 
ATOM      5  C   UNL     1      20.992  17.993  -7.150  1.00  0.00     0.001 A 
ATOM      6  C   UNL     1      20.104  16.996  -7.551  1.00  0.00     0.004 A 
ENDROOT
BRANCH   1   7
ATOM      7  C   UNL     1      18.702  20.934  -6.573  1.00  0.00     0.075 C 
ATOM      8  O   UNL     1      17.765  21.155  -5.763  1.00  0.00    -0.545 OA
ATOM      9  O   UNL     1      19.279  22.005  -7.245  1.00  0.00    -0.545 OA
ENDBRANCH   1   7
BRANCH   2  10
ATOM     10  O   UNL     1      16.851  18.692  -7.228  1.00  0.00    -0.507 OA
ATOM     11  H   UNL     1      16.335  19.023  -6.425  1.00  0.00     0.293 HD
ENDBRANCH   2  10
TORSDOF 2
ENDMDL
MODEL 7
REMARK VINA RESULT:    -4.421      2.477      3.240
REMARK INTER + INTRA:          -5.061
REMARK INTER:                  -4.814
REMARK INTRA:                  -0.247
REMARK UNBOUND:                -0.252
REMARK SMILES O=C([O-])c1ccccc1O
REMARK SMILES IDX 4 1 9 2 5 3 8 4 6 5 7 6 2 7 1 8 3 9 10 10
REMARK H PARENT 10 11
REMARK Flexibility Score: inf
ROOT
ATOM      1  C   UNL     1      20.361  18.156  -6.334  1.00  0.00     0.039 A 
ATOM      2  C   UNL     1      19.250  17.387  -6.771  1.00  0.00     0.124 A 
ATOM      3  C   UNL     1      21.494  18.246  -7.165  1.00  0.00     0.014 A 
ATOM      4  C   UNL     1      19.278  16.789  -8.037  1.00  0.00     0.047 A 
ATOM      5  C   UNL     1      21.511  17.626  -8.415  1.00  0.00     0.001 A 
ATOM      6  C   UNL     1      20.401  16.907  -8.856  1.00  0.00     0.004 A 
ENDROOT
BRANCH   1   7
ATOM      7  C   UNL     1      20.370  18.897  -5.053  1.00  0.00     0.075 C 
ATOM      8  O   UNL     1      20.763  20.091  -5.000  1.00  0.00    -0.545 OA
ATOM      9  O   UNL     1      20.007  18.253  -3.875  1.00  0.00    -0.545 OA
ENDBRANCH   1   7
BRANCH   2  10
ATOM     10  O   UNL     1      18.126  17.165  -5.972  1.00  0.00    -0.507 OA
ATOM     11  H   UNL     1      17.204  17.512  -6.196  1.00  0.00     0.293 HD
ENDBRANCH   2  10
TORSDOF 2
ENDMDL
MODEL 8
REMARK VINA RESULT:    -4.373     10.565     11.283
REMARK INTER + INTRA:          -5.008
REMARK INTER:                  -4.761
REMARK INTRA:                  -0.248
REMARK UNBOUND:                -0.252
REMARK SMILES O=C([O-])c1ccccc1O
REMARK SMILES IDX 4 1 9 2 5 3 8 4 6 5 7 6 2 7 1 8 3 9 10 10
REMARK H PARENT 10 11
REMARK Flexibility Score: inf
ROOT
ATOM      1  C   UNL     1      20.748  21.574 -16.629  1.00  0.00     0.039 A 
ATOM      2  C   UNL     1      19.391  21.960 -16.783  1.00  0.00     0.124 A 
ATOM      3  C   UNL     1      21.145  20.296 -17.065  1.00  0.00     0.014 A 
ATOM      4  C   UNL     1      18.493  21.093 -17.418  1.00  0.00     0.047 A 
ATOM      5  C   UNL     1      20.231  19.437 -17.677  1.00  0.00     0.001 A 
ATOM      6  C   UNL     1      18.909  19.838 -17.863  1.00  0.00     0.004 A 
ENDROOT
BRANCH   1   7
ATOM      7  C   UNL     1      21.777  22.471 -16.056  1.00  0.00     0.075 C 
ATOM      8  O   UNL     1      22.563  22.065 -15.161  1.00  0.00    -0.545 OA
ATOM      9  O   UNL     1      21.840  23.801 -16.456  1.00  0.00    -0.545 OA
ENDBRANCH   1   7
BRANCH   2  10
ATOM     10  O   UNL     1      18.890  23.168 -16.293  1.00  0.00    -0.507 OA
ATOM     11  H   UNL     1      19.102  23.529 -15.373  1.00  0.00     0.293 HD
ENDBRANCH   2  10
TORSDOF 2
ENDMDL
MODEL 9
REMARK VINA RESULT:    -4.371      1.414      2.513
REMARK INTER + INTRA:          -5.006
REMARK INTER:                  -4.758
REMARK INTRA:                  -0.249
REMARK UNBOUND:                -0.252
REMARK SMILES O=C([O-])c1ccccc1O
REMARK SMILES IDX 4 1 9 2 5 3 8 4 6 5 7 6 2 7 1 8 3 9 10 10
REMARK H PARENT 10 11
REMARK Flexibility Score: inf
ROOT
ATOM      1  C   UNL     1      19.182  18.906  -6.775  1.00  0.00     0.039 A 
ATOM      2  C   UNL     1      20.480  19.199  -6.281  1.00  0.00     0.124 A 
ATOM      3  C   UNL     1      18.371  19.966  -7.224  1.00  0.00     0.014 A 
ATOM      4  C   UNL     1      20.950  20.519  -6.307  1.00  0.00     0.047 A 
ATOM      5  C   UNL     1      18.848  21.278  -7.224  1.00  0.00     0.001 A 
ATOM      6  C   UNL     1      20.139  21.554  -6.776  1.00  0.00     0.004 A 
ENDROOT
BRANCH   1   7
ATOM      7  C   UNL     1      18.652  17.528  -6.870  1.00  0.00     0.075 C 
ATOM      8  O   UNL     1      18.859  16.691  -5.953  1.00  0.00    -0.545 OA
ATOM      9  O   UNL     1      17.975  17.121  -8.013  1.00  0.00    -0.545 OA
ENDBRANCH   1   7
BRANCH   2  10
ATOM     10  O   UNL     1      21.314  18.225  -5.728  1.00  0.00    -0.507 OA
ATOM     11  H   UNL     1      22.298  18.143  -5.944  1.00  0.00     0.293 HD
ENDBRANCH   2  10
TORSDOF 2
ENDMDL
