MODEL 1
REMARK VINA RESULT:    -3.962      0.000      0.000
REMARK INTER + INTRA:          -4.708
REMARK INTER:                  -4.657
REMARK INTRA:                  -0.052
REMARK UNBOUND:                -0.052
REMARK SMILES O=C([O-])CCC(=O)[O-]
REMARK SMILES IDX 4 1 2 2 1 3 3 4 5 5 6 6 7 7 8 8
REMARK H PARENT
REMARK Flexibility Score: inf
ROOT
ATOM      1  C   UNL     1     -16.802  -8.575  -2.642  1.00  0.00     0.059 C 
ENDROOT
BRANCH   1   2
ATOM      2  C   UNL     1     -16.246  -8.671  -4.029  1.00  0.00     0.042 C 
ATOM      3  O   UNL     1     -16.752  -7.994  -4.963  1.00  0.00    -0.550 OA
ATOM      4  O   UNL     1     -15.142  -9.476  -4.283  1.00  0.00    -0.550 OA
ENDBRANCH   1   2
BRANCH   1   5
ATOM      5  C   UNL     1     -15.990  -7.609  -1.773  1.00  0.00     0.059 C 
BRANCH   5   6
ATOM      6  C   UNL     1     -15.840  -8.117  -0.372  1.00  0.00     0.042 C 
ATOM      7  O   UNL     1     -15.356  -9.260  -0.161  1.00  0.00    -0.550 OA
ATOM      8  O   UNL     1     -16.199  -7.312   0.702  1.00  0.00    -0.550 OA
ENDBRANCH   5   6
ENDBRANCH   1   5
TORSDOF 3
ENDMDL
MODEL 2
REMARK VINA RESULT:    -3.926      0.263      4.304
REMARK INTER + INTRA:          -4.666
REMARK INTER:                  -4.622
REMARK INTRA:                  -0.045
REMARK UNBOUND:                -0.052
REMARK SMILES O=C([O-])CCC(=O)[O-]
REMARK SMILES IDX 4 1 2 2 1 3 3 4 5 5 6 6 7 7 8 8
REMARK H PARENT
REMARK Flexibility Score: inf
ROOT
ATOM      1  C   UNL     1     -15.799  -7.613  -1.575  1.00  0.00     0.059 C 
ENDROOT
BRANCH   1   2
ATOM      2  C   UNL     1     -15.904  -8.068  -0.152  1.00  0.00     0.042 C 
ATOM      3  O   UNL     1     -15.500  -9.214   0.178  1.00  0.00    -0.550 OA
ATOM      4  O   UNL     1     -16.409  -7.210   0.818  1.00  0.00    -0.550 OA
ENDBRANCH   1   2
BRANCH   1   5
ATOM      5  C   UNL     1     -16.759  -8.384  -2.487  1.00  0.00     0.059 C 
BRANCH   5   6
ATOM      6  C   UNL     1     -16.184  -8.582  -3.855  1.00  0.00     0.042 C 
ATOM      7  O   UNL     1     -16.721  -8.035  -4.854  1.00  0.00    -0.550 OA
ATOM      8  O   UNL     1     -15.031  -9.338  -4.022  1.00  0.00    -0.550 OA
ENDBRANCH   5   6
ENDBRANCH   1   5
TORSDOF 3
ENDMDL
MODEL 3
REMARK VINA RESULT:    -3.921      0.348      1.632
REMARK INTER + INTRA:          -4.661
REMARK INTER:                  -4.614
REMARK INTRA:                  -0.046
REMARK UNBOUND:                -0.052
REMARK SMILES O=C([O-])CCC(=O)[O-]
REMARK SMILES IDX 4 1 2 2 1 3 3 4 5 5 6 6 7 7 8 8
REMARK H PARENT
REMARK Flexibility Score: inf
ROOT
ATOM      1  C   UNL     1     -16.767  -8.402  -2.524  1.00  0.00     0.059 C 
ENDROOT
BRANCH   1   2
ATOM      2  C   UNL     1     -16.133  -8.552  -3.873  1.00  0.00     0.042 C 
ATOM      3  O   UNL     1     -15.055  -9.192  -3.999  1.00  0.00    -0.550 OA
ATOM      4  O   UNL     1     -16.754  -8.022  -4.998  1.00  0.00    -0.550 OA
ENDBRANCH   1   2
BRANCH   1   5
ATOM      5  C   UNL     1     -15.868  -7.618  -1.562  1.00  0.00     0.059 C 
BRANCH   5   6
ATOM      6  C   UNL     1     -16.041  -8.075  -0.146  1.00  0.00     0.042 C 
ATOM      7  O   UNL     1     -16.268  -7.239   0.767  1.00  0.00    -0.550 OA
ATOM      8  O   UNL     1     -15.991  -9.430   0.158  1.00  0.00    -0.550 OA
ENDBRANCH   5   6
ENDBRANCH   1   5
TORSDOF 3
ENDMDL
MODEL 4
REMARK VINA RESULT:    -3.887      5.218      5.724
REMARK INTER + INTRA:          -4.620
REMARK INTER:                  -4.496
REMARK INTRA:                  -0.123
REMARK UNBOUND:                -0.052
REMARK SMILES O=C([O-])CCC(=O)[O-]
REMARK SMILES IDX 4 1 2 2 1 3 3 4 5 5 6 6 7 7 8 8
REMARK H PARENT
REMARK Flexibility Score: inf
ROOT
ATOM      1  C   UNL     1     -16.532 -14.524  -1.264  1.00  0.00     0.059 C 
ENDROOT
BRANCH   1   2
ATOM      2  C   UNL     1     -16.537 -13.665  -2.490  1.00  0.00     0.042 C 
ATOM      3  O   UNL     1     -15.970 -12.540  -2.478  1.00  0.00    -0.550 OA
ATOM      4  O   UNL     1     -17.131 -14.124  -3.660  1.00  0.00    -0.550 OA
ENDBRANCH   1   2
BRANCH   1   5
ATOM      5  C   UNL     1     -16.657 -13.686   0.013  1.00  0.00     0.059 C 
BRANCH   5   6
ATOM      6  C   UNL     1     -15.434 -13.799   0.871  1.00  0.00     0.042 C 
ATOM      7  O   UNL     1     -14.303 -13.504   0.403  1.00  0.00    -0.550 OA
ATOM      8  O   UNL     1     -15.549 -14.191   2.198  1.00  0.00    -0.550 OA
ENDBRANCH   5   6
ENDBRANCH   1   5
TORSDOF 3
ENDMDL
MODEL 5
REMARK VINA RESULT:    -3.856      5.345      6.971
REMARK INTER + INTRA:          -4.584
REMARK INTER:                  -4.517
REMARK INTRA:                  -0.068
REMARK UNBOUND:                -0.052
REMARK SMILES O=C([O-])CCC(=O)[O-]
REMARK SMILES IDX 4 1 2 2 1 3 3 4 5 5 6 6 7 7 8 8
REMARK H PARENT
REMARK Flexibility Score: inf
ROOT
ATOM      1  C   UNL     1     -16.613 -13.621   0.144  1.00  0.00     0.059 C 
ENDROOT
BRANCH   1   2
ATOM      2  C   UNL     1     -15.491 -13.594   1.136  1.00  0.00     0.042 C 
ATOM      3  O   UNL     1     -14.469 -12.891   0.917  1.00  0.00    -0.550 OA
ATOM      4  O   UNL     1     -15.591 -14.313   2.321  1.00  0.00    -0.550 OA
ENDBRANCH   1   2
BRANCH   1   5
ATOM      5  C   UNL     1     -16.356 -14.639  -0.972  1.00  0.00     0.059 C 
BRANCH   5   6
ATOM      6  C   UNL     1     -16.640 -14.060  -2.325  1.00  0.00     0.042 C 
ATOM      7  O   UNL     1     -17.161 -14.772  -3.222  1.00  0.00    -0.550 OA
ATOM      8  O   UNL     1     -16.366 -12.722  -2.580  1.00  0.00    -0.550 OA
ENDBRANCH   5   6
ENDBRANCH   1   5
TORSDOF 3
ENDMDL
MODEL 6
REMARK VINA RESULT:    -3.835      2.086      3.793
REMARK INTER + INTRA:          -4.560
REMARK INTER:                  -4.404
REMARK INTRA:                  -0.156
REMARK UNBOUND:                -0.052
REMARK SMILES O=C([O-])CCC(=O)[O-]
REMARK SMILES IDX 4 1 2 2 1 3 3 4 5 5 6 6 7 7 8 8
REMARK H PARENT
REMARK Flexibility Score: inf
ROOT
ATOM      1  C   UNL     1     -16.462  -9.192  -1.671  1.00  0.00     0.059 C 
ENDROOT
BRANCH   1   2
ATOM      2  C   UNL     1     -17.716  -9.994  -1.837  1.00  0.00     0.042 C 
ATOM      3  O   UNL     1     -18.815  -9.546  -1.415  1.00  0.00    -0.550 OA
ATOM      4  O   UNL     1     -17.679 -11.218  -2.494  1.00  0.00    -0.550 OA
ENDBRANCH   1   2
BRANCH   1   5
ATOM      5  C   UNL     1     -16.405  -8.022  -2.660  1.00  0.00     0.059 C 
BRANCH   5   6
ATOM      6  C   UNL     1     -16.161  -8.493  -4.061  1.00  0.00     0.042 C 
ATOM      7  O   UNL     1     -16.810  -7.997  -5.018  1.00  0.00    -0.550 OA
ATOM      8  O   UNL     1     -15.188  -9.452  -4.312  1.00  0.00    -0.550 OA
ENDBRANCH   5   6
ENDBRANCH   1   5
TORSDOF 3
ENDMDL
MODEL 7
REMARK VINA RESULT:    -3.819      1.875      2.457
REMARK INTER + INTRA:          -4.540
REMARK INTER:                  -4.409
REMARK INTRA:                  -0.131
REMARK UNBOUND:                -0.052
REMARK SMILES O=C([O-])CCC(=O)[O-]
REMARK SMILES IDX 4 1 2 2 1 3 3 4 5 5 6 6 7 7 8 8
REMARK H PARENT
REMARK Flexibility Score: inf
ROOT
ATOM      1  C   UNL     1     -16.391  -8.250  -2.641  1.00  0.00     0.059 C 
ENDROOT
BRANCH   1   2
ATOM      2  C   UNL     1     -16.105  -8.560  -4.078  1.00  0.00     0.042 C 
ATOM      3  O   UNL     1     -16.770  -8.002  -4.992  1.00  0.00    -0.550 OA
ATOM      4  O   UNL     1     -15.077  -9.434  -4.411  1.00  0.00    -0.550 OA
ENDBRANCH   1   2
BRANCH   1   5
ATOM      5  C   UNL     1     -17.526  -9.120  -2.090  1.00  0.00     0.059 C 
BRANCH   5   6
ATOM      6  C   UNL     1     -17.114 -10.555  -1.971  1.00  0.00     0.042 C 
ATOM      7  O   UNL     1     -17.782 -11.456  -2.543  1.00  0.00    -0.550 OA
ATOM      8  O   UNL     1     -15.969 -10.894  -1.261  1.00  0.00    -0.550 OA
ENDBRANCH   5   6
ENDBRANCH   1   5
TORSDOF 3
ENDMDL
MODEL 8
REMARK VINA RESULT:    -3.739      1.289      1.556
REMARK INTER + INTRA:          -4.446
REMARK INTER:                  -4.352
REMARK INTRA:                  -0.094
REMARK UNBOUND:                -0.052
REMARK SMILES O=C([O-])CCC(=O)[O-]
REMARK SMILES IDX 4 1 2 2 1 3 3 4 5 5 6 6 7 7 8 8
REMARK H PARENT
REMARK Flexibility Score: inf
ROOT
ATOM      1  C   UNL     1     -16.196  -8.324  -2.559  1.00  0.00     0.059 C 
ENDROOT
BRANCH   1   2
ATOM      2  C   UNL     1     -14.930  -8.893  -3.122  1.00  0.00     0.042 C 
ATOM      3  O   UNL     1     -14.948  -9.519  -4.215  1.00  0.00    -0.550 OA
ATOM      4  O   UNL     1     -13.724  -8.697  -2.461  1.00  0.00    -0.550 OA
ENDBRANCH   1   2
BRANCH   1   5
ATOM      5  C   UNL     1     -15.939  -7.549  -1.262  1.00  0.00     0.059 C 
BRANCH   5   6
ATOM      6  C   UNL     1     -16.364  -8.330  -0.057  1.00  0.00     0.042 C 
ATOM      7  O   UNL     1     -17.052  -9.376  -0.190  1.00  0.00    -0.550 OA
ATOM      8  O   UNL     1     -15.966  -7.925   1.211  1.00  0.00    -0.550 OA
ENDBRANCH   5   6
ENDBRANCH   1   5
TORSDOF 3
ENDMDL
MODEL 9
REMARK VINA RESULT:    -3.694      2.071      4.127
REMARK INTER + INTRA:          -4.394
REMARK INTER:                  -4.360
REMARK INTRA:                  -0.034
REMARK UNBOUND:                -0.052
REMARK SMILES O=C([O-])CCC(=O)[O-]
REMARK SMILES IDX 4 1 2 2 1 3 3 4 5 5 6 6 7 7 8 8
REMARK H PARENT
REMARK Flexibility Score: inf
ROOT
ATOM      1  C   UNL     1     -17.101  -8.650  -1.302  1.00  0.00     0.059 C 
ENDROOT
BRANCH   1   2
ATOM      2  C   UNL     1     -18.244  -9.157  -0.477  1.00  0.00     0.042 C 
ATOM      3  O   UNL     1     -19.223  -9.723  -1.032  1.00  0.00    -0.550 OA
ATOM      4  O   UNL     1     -18.210  -9.042   0.907  1.00  0.00    -0.550 OA
ENDBRANCH   1   2
BRANCH   1   5
ATOM      5  C   UNL     1     -17.158  -9.186  -2.737  1.00  0.00     0.059 C 
BRANCH   5   6
ATOM      6  C   UNL     1     -16.126  -8.540  -3.609  1.00  0.00     0.042 C 
ATOM      7  O   UNL     1     -14.905  -8.618  -3.311  1.00  0.00    -0.550 OA
ATOM      8  O   UNL     1     -16.509  -7.887  -4.774  1.00  0.00    -0.550 OA
ENDBRANCH   5   6
ENDBRANCH   1   5
TORSDOF 3
ENDMDL
