MODEL 1
REMARK VINA RESULT:    -2.891      0.000      0.000
REMARK INTER + INTRA:          -3.763
REMARK INTER:                  -3.567
REMARK INTRA:                  -0.195
REMARK UNBOUND:                -0.195
REMARK SMILES O=c1c(O)c(-c2cc(O)c(O)c(O)c2)oc2cc(O)cc(O)c12
REMARK SMILES IDX 5 1 3 2 2 3 1 4 23 5 21 6 20 7 18 8 17 9 16 10 15 11 6 12
REMARK SMILES IDX 7 13 8 14 14 15 10 16 12 17 9 18 11 20 13 22 4 24 22 26
REMARK SMILES IDX 19 28
REMARK H PARENT 9 19 11 21 13 23 4 25 22 27 19 29
REMARK Flexibility Score: inf
ROOT
ATOM      1  C   UNL     1       4.862  11.748  33.070  1.00  0.00     0.180 A 
ATOM      2  C   UNL     1       5.175  10.800  32.080  1.00  0.00     0.208 A 
ATOM      3  C   UNL     1       4.420  10.777  30.897  1.00  0.00     0.238 A 
ATOM      4  O   UNL     1       4.670   9.892  30.037  1.00  0.00    -0.285 OA
ATOM      5  C   UNL     1       3.371  11.710  30.712  1.00  0.00     0.111 A 
ATOM      6  C   UNL     1       2.567  11.803  29.536  1.00  0.00     0.134 A 
ATOM      7  C   UNL     1       1.472  12.677  29.515  1.00  0.00     0.093 A 
ATOM      8  C   UNL     1       1.194  13.507  30.600  1.00  0.00     0.123 A 
ATOM      9  C   UNL     1       2.009  13.467  31.731  1.00  0.00     0.094 A 
ATOM     10  C   UNL     1       3.086  12.579  31.796  1.00  0.00     0.146 A 
ATOM     11  O   UNL     1       3.831  12.566  32.895  1.00  0.00    -0.452 OA
ENDROOT
BRANCH   1  12
ATOM     12  C   UNL     1       5.629  11.850  34.333  1.00  0.00     0.029 A 
ATOM     13  C   UNL     1       5.632  10.806  35.272  1.00  0.00     0.062 A 
ATOM     14  C   UNL     1       6.383  10.913  36.449  1.00  0.00     0.162 A 
ATOM     15  C   UNL     1       6.416  12.985  34.573  1.00  0.00     0.062 A 
ATOM     16  C   UNL     1       7.151  12.059  36.699  1.00  0.00     0.200 A 
ATOM     17  C   UNL     1       7.171  13.105  35.746  1.00  0.00     0.162 A 
BRANCH  14  18
ATOM     18  O   UNL     1       6.375   9.875  37.381  1.00  0.00    -0.504 OA
ATOM     19  H   UNL     1       7.218   9.363  37.613  1.00  0.00     0.293 HD
ENDBRANCH  14  18
BRANCH  16  20
ATOM     20  O   UNL     1       7.875  12.116  37.892  1.00  0.00    -0.502 OA
ATOM     21  H   UNL     1       7.805  11.430  38.629  1.00  0.00     0.293 HD
ENDBRANCH  16  20
BRANCH  17  22
ATOM     22  O   UNL     1       7.920  14.270  35.920  1.00  0.00    -0.504 OA
ATOM     23  H   UNL     1       8.563  14.420  36.684  1.00  0.00     0.293 HD
ENDBRANCH  17  22
ENDBRANCH   1  12
BRANCH   2  24
ATOM     24  O   UNL     1       6.200   9.875  32.292  1.00  0.00    -0.502 OA
ATOM     25  H   UNL     1       6.274   9.013  31.764  1.00  0.00     0.293 HD
ENDBRANCH   2  24
BRANCH   6  26
ATOM     26  O   UNL     1       2.814  11.085  28.363  1.00  0.00    -0.507 OA
ATOM     27  H   UNL     1       3.091  11.497  27.485  1.00  0.00     0.293 HD
ENDBRANCH   6  26
BRANCH   8  28
ATOM     28  O   UNL     1       0.107  14.376  30.538  1.00  0.00    -0.508 OA
ATOM     29  H   UNL     1       0.016  15.061  29.797  1.00  0.00     0.293 HD
ENDBRANCH   8  28
TORSDOF 7
ENDMDL
MODEL 2
REMARK VINA RESULT:    -2.773      0.124      1.763
REMARK INTER + INTRA:          -3.617
REMARK INTER:                  -3.403
REMARK INTRA:                  -0.214
REMARK UNBOUND:                -0.195
REMARK SMILES O=c1c(O)c(-c2cc(O)c(O)c(O)c2)oc2cc(O)cc(O)c12
REMARK SMILES IDX 5 1 3 2 2 3 1 4 23 5 21 6 20 7 18 8 17 9 16 10 15 11 6 12
REMARK SMILES IDX 7 13 8 14 14 15 10 16 12 17 9 18 11 20 13 22 4 24 22 26
REMARK SMILES IDX 19 28
REMARK H PARENT 9 19 11 21 13 23 4 25 22 27 19 29
REMARK Flexibility Score: inf
ROOT
ATOM      1  C   UNL     1       4.812  11.762  32.983  1.00  0.00     0.180 A 
ATOM      2  C   UNL     1       5.097  10.803  31.995  1.00  0.00     0.208 A 
ATOM      3  C   UNL     1       4.313  10.771  30.831  1.00  0.00     0.238 A 
ATOM      4  O   UNL     1       4.539   9.876  29.974  1.00  0.00    -0.285 OA
ATOM      5  C   UNL     1       3.265  11.707  30.662  1.00  0.00     0.111 A 
ATOM      6  C   UNL     1       2.433  11.792  29.506  1.00  0.00     0.134 A 
ATOM      7  C   UNL     1       1.342  12.671  29.502  1.00  0.00     0.093 A 
ATOM      8  C   UNL     1       1.093  13.513  30.585  1.00  0.00     0.123 A 
ATOM      9  C   UNL     1       1.936  13.481  31.696  1.00  0.00     0.094 A 
ATOM     10  C   UNL     1       3.010  12.589  31.744  1.00  0.00     0.146 A 
ATOM     11  O   UNL     1       3.781  12.583  32.825  1.00  0.00    -0.452 OA
ENDROOT
BRANCH   1  12
ATOM     12  C   UNL     1       5.610  11.873  34.226  1.00  0.00     0.029 A 
ATOM     13  C   UNL     1       6.392  13.009  34.492  1.00  0.00     0.062 A 
ATOM     14  C   UNL     1       7.121  13.105  35.684  1.00  0.00     0.162 A 
ATOM     15  C   UNL     1       5.542  10.853  35.184  1.00  0.00     0.062 A 
ATOM     16  C   UNL     1       7.070  12.072  36.631  1.00  0.00     0.200 A 
ATOM     17  C   UNL     1       6.266  10.935  36.380  1.00  0.00     0.162 A 
BRANCH  14  18
ATOM     18  O   UNL     1       7.901  14.232  35.938  1.00  0.00    -0.504 OA
ATOM     19  H   UNL     1       8.594  14.243  36.676  1.00  0.00     0.293 HD
ENDBRANCH  14  18
BRANCH  16  20
ATOM     20  O   UNL     1       7.822  12.217  37.800  1.00  0.00    -0.502 OA
ATOM     21  H   UNL     1       8.770  11.887  37.906  1.00  0.00     0.293 HD
ENDBRANCH  16  20
BRANCH  17  22
ATOM     22  O   UNL     1       6.156   9.875  37.281  1.00  0.00    -0.504 OA
ATOM     23  H   UNL     1       5.330   9.303  37.384  1.00  0.00     0.293 HD
ENDBRANCH  17  22
ENDBRANCH   1  12
BRANCH   2  24
ATOM     24  O   UNL     1       6.124   9.875  32.191  1.00  0.00    -0.502 OA
ATOM     25  H   UNL     1       5.989   9.016  32.712  1.00  0.00     0.293 HD
ENDBRANCH   2  24
BRANCH   6  26
ATOM     26  O   UNL     1       2.648  11.061  28.334  1.00  0.00    -0.507 OA
ATOM     27  H   UNL     1       3.474  10.516  28.140  1.00  0.00     0.293 HD
ENDBRANCH   6  26
BRANCH   8  28
ATOM     28  O   UNL     1       0.009  14.387  30.541  1.00  0.00    -0.508 OA
ATOM     29  H   UNL     1      -0.073  15.096  29.822  1.00  0.00     0.293 HD
ENDBRANCH   8  28
TORSDOF 7
ENDMDL
MODEL 3
REMARK VINA RESULT:    -2.359      1.656      3.195
REMARK INTER + INTRA:          -3.106
REMARK INTER:                  -2.788
REMARK INTRA:                  -0.318
REMARK UNBOUND:                -0.195
REMARK SMILES O=c1c(O)c(-c2cc(O)c(O)c(O)c2)oc2cc(O)cc(O)c12
REMARK SMILES IDX 5 1 3 2 2 3 1 4 23 5 21 6 20 7 18 8 17 9 16 10 15 11 6 12
REMARK SMILES IDX 7 13 8 14 14 15 10 16 12 17 9 18 11 20 13 22 4 24 22 26
REMARK SMILES IDX 19 28
REMARK H PARENT 9 19 11 21 13 23 4 25 22 27 19 29
REMARK Flexibility Score: inf
ROOT
ATOM      1  C   UNL     1       5.383  11.978  33.722  1.00  0.00     0.180 A 
ATOM      2  C   UNL     1       5.164  13.358  33.577  1.00  0.00     0.208 A 
ATOM      3  C   UNL     1       4.361  13.813  32.518  1.00  0.00     0.238 A 
ATOM      4  O   UNL     1       4.212  15.053  32.362  1.00  0.00    -0.285 OA
ATOM      5  C   UNL     1       3.776  12.880  31.628  1.00  0.00     0.111 A 
ATOM      6  C   UNL     1       2.914  13.227  30.544  1.00  0.00     0.134 A 
ATOM      7  C   UNL     1       2.498  12.234  29.648  1.00  0.00     0.093 A 
ATOM      8  C   UNL     1       2.859  10.900  29.834  1.00  0.00     0.123 A 
ATOM      9  C   UNL     1       3.653  10.542  30.924  1.00  0.00     0.094 A 
ATOM     10  C   UNL     1       4.114  11.515  31.814  1.00  0.00     0.146 A 
ATOM     11  O   UNL     1       4.875  11.134  32.832  1.00  0.00    -0.452 OA
ENDROOT
BRANCH   1  12
ATOM     12  C   UNL     1       6.197  11.421  34.827  1.00  0.00     0.029 A 
ATOM     13  C   UNL     1       7.600  11.457  34.791  1.00  0.00     0.062 A 
ATOM     14  C   UNL     1       8.351  10.947  35.857  1.00  0.00     0.162 A 
ATOM     15  C   UNL     1       5.558  10.901  35.961  1.00  0.00     0.062 A 
ATOM     16  C   UNL     1       7.710  10.405  36.980  1.00  0.00     0.200 A 
ATOM     17  C   UNL     1       6.296  10.387  37.034  1.00  0.00     0.162 A 
BRANCH  14  18
ATOM     18  O   UNL     1       9.744  10.979  35.810  1.00  0.00    -0.504 OA
ATOM     19  H   UNL     1      10.275  11.702  36.282  1.00  0.00     0.293 HD
ENDBRANCH  14  18
BRANCH  16  20
ATOM     20  O   UNL     1       8.508   9.904  38.012  1.00  0.00    -0.502 OA
ATOM     21  H   UNL     1       8.382   8.995  38.433  1.00  0.00     0.293 HD
ENDBRANCH  16  20
BRANCH  17  22
ATOM     22  O   UNL     1       5.589   9.875  38.123  1.00  0.00    -0.504 OA
ATOM     23  H   UNL     1       5.226   8.934  38.171  1.00  0.00     0.293 HD
ENDBRANCH  17  22
ENDBRANCH   1  12
BRANCH   2  24
ATOM     24  O   UNL     1       5.768  14.262  34.455  1.00  0.00    -0.502 OA
ATOM     25  H   UNL     1       5.322  15.127  34.739  1.00  0.00     0.293 HD
ENDBRANCH   2  24
BRANCH   6  26
ATOM     26  O   UNL     1       2.419  14.515  30.322  1.00  0.00    -0.507 OA
ATOM     27  H   UNL     1       2.931  15.257  29.870  1.00  0.00     0.293 HD
ENDBRANCH   6  26
BRANCH   8  28
ATOM     28  O   UNL     1       2.414   9.936  28.932  1.00  0.00    -0.508 OA
ATOM     29  H   UNL     1       3.057   9.301  28.474  1.00  0.00     0.293 HD
ENDBRANCH   8  28
TORSDOF 7
ENDMDL
MODEL 4
REMARK VINA RESULT:    -2.220      1.746      7.315
REMARK INTER + INTRA:          -2.935
REMARK INTER:                  -2.663
REMARK INTRA:                  -0.271
REMARK UNBOUND:                -0.195
REMARK SMILES O=c1c(O)c(-c2cc(O)c(O)c(O)c2)oc2cc(O)cc(O)c12
REMARK SMILES IDX 5 1 3 2 2 3 1 4 23 5 21 6 20 7 18 8 17 9 16 10 15 11 6 12
REMARK SMILES IDX 7 13 8 14 14 15 10 16 12 17 9 18 11 20 13 22 4 24 22 26
REMARK SMILES IDX 19 28
REMARK H PARENT 9 19 11 21 13 23 4 25 22 27 19 29
REMARK Flexibility Score: inf
ROOT
ATOM      1  C   UNL     1       3.932  13.323  32.426  1.00  0.00     0.180 A 
ATOM      2  C   UNL     1       4.607  14.539  32.627  1.00  0.00     0.208 A 
ATOM      3  C   UNL     1       5.664  14.587  33.550  1.00  0.00     0.238 A 
ATOM      4  O   UNL     1       6.229  15.691  33.765  1.00  0.00    -0.285 OA
ATOM      5  C   UNL     1       6.043  13.414  34.247  1.00  0.00     0.111 A 
ATOM      6  C   UNL     1       7.125  13.338  35.175  1.00  0.00     0.134 A 
ATOM      7  C   UNL     1       7.328  12.160  35.905  1.00  0.00     0.093 A 
ATOM      8  C   UNL     1       6.530  11.036  35.692  1.00  0.00     0.123 A 
ATOM      9  C   UNL     1       5.507  11.081  34.745  1.00  0.00     0.094 A 
ATOM     10  C   UNL     1       5.258  12.254  34.028  1.00  0.00     0.146 A 
ATOM     11  O   UNL     1       4.268  12.257  33.143  1.00  0.00    -0.452 OA
ENDROOT
BRANCH   1  12
ATOM     12  C   UNL     1       2.824  13.189  31.452  1.00  0.00     0.029 A 
ATOM     13  C   UNL     1       1.488  13.092  31.875  1.00  0.00     0.062 A 
ATOM     14  C   UNL     1       0.453  12.989  30.937  1.00  0.00     0.162 A 
ATOM     15  C   UNL     1       3.104  13.218  30.079  1.00  0.00     0.062 A 
ATOM     16  C   UNL     1       0.737  12.995  29.564  1.00  0.00     0.200 A 
ATOM     17  C   UNL     1       2.079  13.116  29.131  1.00  0.00     0.162 A 
BRANCH  14  18
ATOM     18  O   UNL     1      -0.870  12.886  31.365  1.00  0.00    -0.504 OA
ATOM     19  H   UNL     1      -1.619  13.384  30.899  1.00  0.00     0.293 HD
ENDBRANCH  14  18
BRANCH  16  20
ATOM     20  O   UNL     1      -0.333  12.883  28.672  1.00  0.00    -0.502 OA
ATOM     21  H   UNL     1      -0.578  12.032  28.189  1.00  0.00     0.293 HD
ENDBRANCH  16  20
BRANCH  17  22
ATOM     22  O   UNL     1       2.437  13.141  27.782  1.00  0.00    -0.504 OA
ATOM     23  H   UNL     1       3.200  12.609  27.389  1.00  0.00     0.293 HD
ENDBRANCH  17  22
ENDBRANCH   1  12
BRANCH   2  24
ATOM     24  O   UNL     1       4.202  15.689  31.944  1.00  0.00    -0.502 OA
ATOM     25  H   UNL     1       4.757  16.537  31.930  1.00  0.00     0.293 HD
ENDBRANCH   2  24
BRANCH   6  26
ATOM     26  O   UNL     1       8.039  14.373  35.395  1.00  0.00    -0.507 OA
ATOM     27  H   UNL     1       9.042  14.269  35.366  1.00  0.00     0.293 HD
ENDBRANCH   6  26
BRANCH   8  28
ATOM     28  O   UNL     1       6.770   9.875  36.424  1.00  0.00    -0.508 OA
ATOM     29  H   UNL     1       7.640   9.733  36.924  1.00  0.00     0.293 HD
ENDBRANCH   8  28
TORSDOF 7
ENDMDL
MODEL 5
REMARK VINA RESULT:    -2.113      1.749      7.416
REMARK INTER + INTRA:          -2.803
REMARK INTER:                  -2.494
REMARK INTRA:                  -0.309
REMARK UNBOUND:                -0.195
REMARK SMILES O=c1c(O)c(-c2cc(O)c(O)c(O)c2)oc2cc(O)cc(O)c12
REMARK SMILES IDX 5 1 3 2 2 3 1 4 23 5 21 6 20 7 18 8 17 9 16 10 15 11 6 12
REMARK SMILES IDX 7 13 8 14 14 15 10 16 12 17 9 18 11 20 13 22 4 24 22 26
REMARK SMILES IDX 19 28
REMARK H PARENT 9 19 11 21 13 23 4 25 22 27 19 29
REMARK Flexibility Score: inf
ROOT
ATOM      1  C   UNL     1       4.003  13.401  32.368  1.00  0.00     0.180 A 
ATOM      2  C   UNL     1       4.690  14.606  32.596  1.00  0.00     0.208 A 
ATOM      3  C   UNL     1       5.727  14.629  33.543  1.00  0.00     0.238 A 
ATOM      4  O   UNL     1       6.303  15.723  33.782  1.00  0.00    -0.285 OA
ATOM      5  C   UNL     1       6.074  13.445  34.237  1.00  0.00     0.111 A 
ATOM      6  C   UNL     1       7.133  13.345  35.188  1.00  0.00     0.134 A 
ATOM      7  C   UNL     1       7.302  12.156  35.911  1.00  0.00     0.093 A 
ATOM      8  C   UNL     1       6.494  11.047  35.669  1.00  0.00     0.123 A 
ATOM      9  C   UNL     1       5.493  11.115  34.700  1.00  0.00     0.094 A 
ATOM     10  C   UNL     1       5.277  12.298  33.989  1.00  0.00     0.146 A 
ATOM     11  O   UNL     1       4.308  12.324  33.082  1.00  0.00    -0.452 OA
ENDROOT
BRANCH   1  12
ATOM     12  C   UNL     1       2.915  13.293  31.368  1.00  0.00     0.029 A 
ATOM     13  C   UNL     1       3.190  13.264  29.991  1.00  0.00     0.062 A 
ATOM     14  C   UNL     1       2.149  13.137  29.063  1.00  0.00     0.162 A 
ATOM     15  C   UNL     1       1.590  13.156  31.802  1.00  0.00     0.062 A 
ATOM     16  C   UNL     1       0.820  13.025  29.499  1.00  0.00     0.200 A 
ATOM     17  C   UNL     1       0.539  13.030  30.886  1.00  0.00     0.162 A 
BRANCH  14  18
ATOM     18  O   UNL     1       2.428  13.117  27.697  1.00  0.00    -0.504 OA
ATOM     19  H   UNL     1       1.936  12.498  27.064  1.00  0.00     0.293 HD
ENDBRANCH  14  18
BRANCH  16  20
ATOM     20  O   UNL     1      -0.180  12.907  28.529  1.00  0.00    -0.502 OA
ATOM     21  H   UNL     1      -0.743  13.679  28.203  1.00  0.00     0.293 HD
ENDBRANCH  16  20
BRANCH  17  22
ATOM     22  O   UNL     1      -0.756  12.910  31.393  1.00  0.00    -0.504 OA
ATOM     23  H   UNL     1      -1.338  13.694  31.648  1.00  0.00     0.293 HD
ENDBRANCH  17  22
ENDBRANCH   1  12
BRANCH   2  24
ATOM     24  O   UNL     1       4.318  15.768  31.915  1.00  0.00    -0.502 OA
ATOM     25  H   UNL     1       3.363  15.947  31.626  1.00  0.00     0.293 HD
ENDBRANCH   2  24
BRANCH   6  26
ATOM     26  O   UNL     1       8.056  14.364  35.439  1.00  0.00    -0.507 OA
ATOM     27  H   UNL     1       9.053  14.280  35.313  1.00  0.00     0.293 HD
ENDBRANCH   6  26
BRANCH   8  28
ATOM     28  O   UNL     1       6.701   9.875  36.395  1.00  0.00    -0.508 OA
ATOM     29  H   UNL     1       6.094   9.612  37.162  1.00  0.00     0.293 HD
ENDBRANCH   8  28
TORSDOF 7
ENDMDL
MODEL 6
REMARK VINA RESULT:    -2.033      2.191      2.956
REMARK INTER + INTRA:          -2.704
REMARK INTER:                  -2.700
REMARK INTRA:                  -0.003
REMARK UNBOUND:                -0.195
REMARK SMILES O=c1c(O)c(-c2cc(O)c(O)c(O)c2)oc2cc(O)cc(O)c12
REMARK SMILES IDX 5 1 3 2 2 3 1 4 23 5 21 6 20 7 18 8 17 9 16 10 15 11 6 12
REMARK SMILES IDX 7 13 8 14 14 15 10 16 12 17 9 18 11 20 13 22 4 24 22 26
REMARK SMILES IDX 19 28
REMARK H PARENT 9 19 11 21 13 23 4 25 22 27 19 29
REMARK Flexibility Score: inf
ROOT
ATOM      1  C   UNL     1       4.198  12.724  31.842  1.00  0.00     0.180 A 
ATOM      2  C   UNL     1       2.854  12.341  31.688  1.00  0.00     0.208 A 
ATOM      3  C   UNL     1       2.223  12.552  30.452  1.00  0.00     0.238 A 
ATOM      4  O   UNL     1       1.005  12.257  30.336  1.00  0.00    -0.285 OA
ATOM      5  C   UNL     1       2.948  13.128  29.380  1.00  0.00     0.111 A 
ATOM      6  C   UNL     1       2.421  13.350  28.073  1.00  0.00     0.134 A 
ATOM      7  C   UNL     1       3.187  14.047  27.129  1.00  0.00     0.093 A 
ATOM      8  C   UNL     1       4.482  14.469  27.424  1.00  0.00     0.123 A 
ATOM      9  C   UNL     1       5.029  14.204  28.679  1.00  0.00     0.094 A 
ATOM     10  C   UNL     1       4.276  13.545  29.654  1.00  0.00     0.146 A 
ATOM     11  O   UNL     1       4.831  13.321  30.839  1.00  0.00    -0.452 OA
ENDROOT
BRANCH   1  12
ATOM     12  C   UNL     1       4.937  12.510  33.107  1.00  0.00     0.029 A 
ATOM     13  C   UNL     1       4.881  11.284  33.788  1.00  0.00     0.062 A 
ATOM     14  C   UNL     1       5.606  11.094  34.971  1.00  0.00     0.162 A 
ATOM     15  C   UNL     1       5.758  13.531  33.608  1.00  0.00     0.062 A 
ATOM     16  C   UNL     1       6.408  12.125  35.484  1.00  0.00     0.200 A 
ATOM     17  C   UNL     1       6.488  13.356  34.790  1.00  0.00     0.162 A 
BRANCH  14  18
ATOM     18  O   UNL     1       5.539   9.876  35.646  1.00  0.00    -0.504 OA
ATOM     19  H   UNL     1       6.227   9.148  35.497  1.00  0.00     0.293 HD
ENDBRANCH  14  18
BRANCH  16  20
ATOM     20  O   UNL     1       7.105  11.884  36.671  1.00  0.00    -0.502 OA
ATOM     21  H   UNL     1       7.154  10.984  37.124  1.00  0.00     0.293 HD
ENDBRANCH  16  20
BRANCH  17  22
ATOM     22  O   UNL     1       7.273  14.421  35.233  1.00  0.00    -0.504 OA
ATOM     23  H   UNL     1       8.178  14.655  34.849  1.00  0.00     0.293 HD
ENDBRANCH  17  22
ENDBRANCH   1  12
BRANCH   2  24
ATOM     24  O   UNL     1       2.151  11.794  32.765  1.00  0.00    -0.502 OA
ATOM     25  H   UNL     1       1.266  11.313  32.650  1.00  0.00     0.293 HD
ENDBRANCH   2  24
BRANCH   6  26
ATOM     26  O   UNL     1       1.173  12.888  27.645  1.00  0.00    -0.507 OA
ATOM     27  H   UNL     1       0.841  12.929  26.694  1.00  0.00     0.293 HD
ENDBRANCH   6  26
BRANCH   8  28
ATOM     28  O   UNL     1       5.222  15.145  26.455  1.00  0.00    -0.508 OA
ATOM     29  H   UNL     1       5.258  16.157  26.426  1.00  0.00     0.293 HD
ENDBRANCH   8  28
TORSDOF 7
ENDMDL
MODEL 7
REMARK VINA RESULT:    -1.754      2.212      3.471
REMARK INTER + INTRA:          -2.360
REMARK INTER:                  -2.393
REMARK INTRA:                   0.033
REMARK UNBOUND:                -0.195
REMARK SMILES O=c1c(O)c(-c2cc(O)c(O)c(O)c2)oc2cc(O)cc(O)c12
REMARK SMILES IDX 5 1 3 2 2 3 1 4 23 5 21 6 20 7 18 8 17 9 16 10 15 11 6 12
REMARK SMILES IDX 7 13 8 14 14 15 10 16 12 17 9 18 11 20 13 22 4 24 22 26
REMARK SMILES IDX 19 28
REMARK H PARENT 9 19 11 21 13 23 4 25 22 27 19 29
REMARK Flexibility Score: inf
ROOT
ATOM      1  C   UNL     1       4.251  12.854  31.874  1.00  0.00     0.180 A 
ATOM      2  C   UNL     1       2.883  12.553  31.765  1.00  0.00     0.208 A 
ATOM      3  C   UNL     1       2.229  12.787  30.545  1.00  0.00     0.238 A 
ATOM      4  O   UNL     1       0.992  12.566  30.470  1.00  0.00    -0.285 OA
ATOM      5  C   UNL     1       2.955  13.305  29.445  1.00  0.00     0.111 A 
ATOM      6  C   UNL     1       2.403  13.543  28.151  1.00  0.00     0.134 A 
ATOM      7  C   UNL     1       3.181  14.181  27.175  1.00  0.00     0.093 A 
ATOM      8  C   UNL     1       4.508  14.526  27.426  1.00  0.00     0.123 A 
ATOM      9  C   UNL     1       5.075  14.243  28.669  1.00  0.00     0.094 A 
ATOM     10  C   UNL     1       4.314  13.642  29.674  1.00  0.00     0.146 A 
ATOM     11  O   UNL     1       4.889  13.400  30.845  1.00  0.00    -0.452 OA
ENDROOT
BRANCH   1  12
ATOM     12  C   UNL     1       5.014  12.611  33.120  1.00  0.00     0.029 A 
ATOM     13  C   UNL     1       5.825  13.608  33.686  1.00  0.00     0.062 A 
ATOM     14  C   UNL     1       6.520  13.366  34.878  1.00  0.00     0.162 A 
ATOM     15  C   UNL     1       4.882  11.383  33.783  1.00  0.00     0.062 A 
ATOM     16  C   UNL     1       6.405  12.128  35.527  1.00  0.00     0.200 A 
ATOM     17  C   UNL     1       5.571  11.127  34.974  1.00  0.00     0.162 A 
BRANCH  14  18
ATOM     18  O   UNL     1       7.329  14.358  35.430  1.00  0.00    -0.504 OA
ATOM     19  H   UNL     1       7.256  14.621  36.405  1.00  0.00     0.293 HD
ENDBRANCH  14  18
BRANCH  16  20
ATOM     20  O   UNL     1       7.126  11.938  36.709  1.00  0.00    -0.502 OA
ATOM     21  H   UNL     1       7.774  11.179  36.859  1.00  0.00     0.293 HD
ENDBRANCH  16  20
BRANCH  17  22
ATOM     22  O   UNL     1       5.398   9.876  35.569  1.00  0.00    -0.504 OA
ATOM     23  H   UNL     1       4.934   9.730  36.455  1.00  0.00     0.293 HD
ENDBRANCH  17  22
ENDBRANCH   1  12
BRANCH   2  24
ATOM     24  O   UNL     1       2.181  12.062  32.869  1.00  0.00    -0.502 OA
ATOM     25  H   UNL     1       2.413  11.183  33.316  1.00  0.00     0.293 HD
ENDBRANCH   2  24
BRANCH   6  26
ATOM     26  O   UNL     1       1.117  13.154  27.766  1.00  0.00    -0.507 OA
ATOM     27  H   UNL     1       0.768  12.209  27.805  1.00  0.00     0.293 HD
ENDBRANCH   6  26
BRANCH   8  28
ATOM     28  O   UNL     1       5.257  15.144  26.427  1.00  0.00    -0.508 OA
ATOM     29  H   UNL     1       5.326  14.751  25.495  1.00  0.00     0.293 HD
ENDBRANCH   8  28
TORSDOF 7
ENDMDL
MODEL 8
REMARK VINA RESULT:    -1.200      1.836      3.061
REMARK INTER + INTRA:          -1.676
REMARK INTER:                  -1.445
REMARK INTRA:                  -0.230
REMARK UNBOUND:                -0.195
REMARK SMILES O=c1c(O)c(-c2cc(O)c(O)c(O)c2)oc2cc(O)cc(O)c12
REMARK SMILES IDX 5 1 3 2 2 3 1 4 23 5 21 6 20 7 18 8 17 9 16 10 15 11 6 12
REMARK SMILES IDX 7 13 8 14 14 15 10 16 12 17 9 18 11 20 13 22 4 24 22 26
REMARK SMILES IDX 19 28
REMARK H PARENT 9 19 11 21 13 23 4 25 22 27 19 29
REMARK Flexibility Score: inf
ROOT
ATOM      1  C   UNL     1       3.755  12.981  32.169  1.00  0.00     0.180 A 
ATOM      2  C   UNL     1       4.053  13.429  30.870  1.00  0.00     0.208 A 
ATOM      3  C   UNL     1       3.001  13.656  29.970  1.00  0.00     0.238 A 
ATOM      4  O   UNL     1       3.277  14.005  28.792  1.00  0.00    -0.285 OA
ATOM      5  C   UNL     1       1.663  13.446  30.383  1.00  0.00     0.111 A 
ATOM      6  C   UNL     1       0.516  13.682  29.566  1.00  0.00     0.134 A 
ATOM      7  C   UNL     1      -0.752  13.316  30.034  1.00  0.00     0.093 A 
ATOM      8  C   UNL     1      -0.922  12.785  31.311  1.00  0.00     0.123 A 
ATOM      9  C   UNL     1       0.185  12.605  32.141  1.00  0.00     0.094 A 
ATOM     10  C   UNL     1       1.467  12.927  31.688  1.00  0.00     0.146 A 
ATOM     11  O   UNL     1       2.495  12.731  32.505  1.00  0.00    -0.452 OA
ENDROOT
BRANCH   1  12
ATOM     12  C   UNL     1       4.809  12.744  33.182  1.00  0.00     0.029 A 
ATOM     13  C   UNL     1       5.586  13.799  33.687  1.00  0.00     0.062 A 
ATOM     14  C   UNL     1       6.563  13.558  34.662  1.00  0.00     0.162 A 
ATOM     15  C   UNL     1       5.000  11.453  33.692  1.00  0.00     0.062 A 
ATOM     16  C   UNL     1       6.768  12.261  35.154  1.00  0.00     0.200 A 
ATOM     17  C   UNL     1       5.972  11.197  34.666  1.00  0.00     0.162 A 
BRANCH  14  18
ATOM     18  O   UNL     1       7.336  14.609  35.153  1.00  0.00    -0.504 OA
ATOM     19  H   UNL     1       7.077  15.576  34.997  1.00  0.00     0.293 HD
ENDBRANCH  14  18
BRANCH  16  20
ATOM     20  O   UNL     1       7.760  12.075  36.121  1.00  0.00    -0.502 OA
ATOM     21  H   UNL     1       8.522  12.718  36.277  1.00  0.00     0.293 HD
ENDBRANCH  16  20
BRANCH  17  22
ATOM     22  O   UNL     1       6.111   9.883  35.117  1.00  0.00    -0.504 OA
ATOM     23  H   UNL     1       5.791   9.557  36.017  1.00  0.00     0.293 HD
ENDBRANCH  17  22
ENDBRANCH   1  12
BRANCH   2  24
ATOM     24  O   UNL     1       5.382  13.610  30.477  1.00  0.00    -0.502 OA
ATOM     25  H   UNL     1       5.835  13.009  29.798  1.00  0.00     0.293 HD
ENDBRANCH   2  24
BRANCH   6  26
ATOM     26  O   UNL     1       0.565  14.293  28.310  1.00  0.00    -0.507 OA
ATOM     27  H   UNL     1       0.677  15.284  28.157  1.00  0.00     0.293 HD
ENDBRANCH   6  26
BRANCH   8  28
ATOM     28  O   UNL     1      -2.200  12.447  31.751  1.00  0.00    -0.508 OA
ATOM     29  H   UNL     1      -2.838  13.145  32.115  1.00  0.00     0.293 HD
ENDBRANCH   8  28
TORSDOF 7
ENDMDL
MODEL 9
REMARK VINA RESULT:    -0.923      1.650      7.156
REMARK INTER + INTRA:          -1.334
REMARK INTER:                  -1.069
REMARK INTRA:                  -0.266
REMARK UNBOUND:                -0.195
REMARK SMILES O=c1c(O)c(-c2cc(O)c(O)c(O)c2)oc2cc(O)cc(O)c12
REMARK SMILES IDX 5 1 3 2 2 3 1 4 23 5 21 6 20 7 18 8 17 9 16 10 15 11 6 12
REMARK SMILES IDX 7 13 8 14 14 15 10 16 12 17 9 18 11 20 13 22 4 24 22 26
REMARK SMILES IDX 19 28
REMARK H PARENT 9 19 11 21 13 23 4 25 22 27 19 29
REMARK Flexibility Score: inf
ROOT
ATOM      1  C   UNL     1       4.006  12.832  32.075  1.00  0.00     0.180 A 
ATOM      2  C   UNL     1       3.847  11.510  32.525  1.00  0.00     0.208 A 
ATOM      3  C   UNL     1       4.588  11.075  33.635  1.00  0.00     0.238 A 
ATOM      4  O   UNL     1       4.482   9.875  34.001  1.00  0.00    -0.285 OA
ATOM      5  C   UNL     1       5.466  11.972  34.291  1.00  0.00     0.111 A 
ATOM      6  C   UNL     1       6.236  11.650  35.449  1.00  0.00     0.134 A 
ATOM      7  C   UNL     1       7.171  12.573  35.935  1.00  0.00     0.093 A 
ATOM      8  C   UNL     1       7.315  13.828  35.347  1.00  0.00     0.123 A 
ATOM      9  C   UNL     1       6.525  14.176  34.250  1.00  0.00     0.094 A 
ATOM     10  C   UNL     1       5.611  13.262  33.720  1.00  0.00     0.146 A 
ATOM     11  O   UNL     1       4.886  13.629  32.670  1.00  0.00    -0.452 OA
ENDROOT
BRANCH   1  12
ATOM     12  C   UNL     1       3.240  13.371  30.927  1.00  0.00     0.029 A 
ATOM     13  C   UNL     1       3.850  13.589  29.681  1.00  0.00     0.062 A 
ATOM     14  C   UNL     1       3.103  14.076  28.601  1.00  0.00     0.162 A 
ATOM     15  C   UNL     1       1.867  13.613  31.065  1.00  0.00     0.062 A 
ATOM     16  C   UNL     1       1.734  14.341  28.749  1.00  0.00     0.200 A 
ATOM     17  C   UNL     1       1.108  14.102  29.995  1.00  0.00     0.162 A 
BRANCH  14  18
ATOM     18  O   UNL     1       3.717  14.298  27.369  1.00  0.00    -0.504 OA
ATOM     19  H   UNL     1       4.724  14.261  27.264  1.00  0.00     0.293 HD
ENDBRANCH  14  18
BRANCH  16  20
ATOM     20  O   UNL     1       1.038  14.833  27.641  1.00  0.00    -0.502 OA
ATOM     21  H   UNL     1       0.206  14.406  27.262  1.00  0.00     0.293 HD
ENDBRANCH  16  20
BRANCH  17  22
ATOM     22  O   UNL     1      -0.252  14.330  30.213  1.00  0.00    -0.504 OA
ATOM     23  H   UNL     1      -0.794  15.027  29.722  1.00  0.00     0.293 HD
ENDBRANCH  17  22
ENDBRANCH   1  12
BRANCH   2  24
ATOM     24  O   UNL     1       2.990  10.636  31.851  1.00  0.00    -0.502 OA
ATOM     25  H   UNL     1       2.050  10.898  31.576  1.00  0.00     0.293 HD
ENDBRANCH   2  24
BRANCH   6  26
ATOM     26  O   UNL     1       6.103  10.459  36.168  1.00  0.00    -0.507 OA
ATOM     27  H   UNL     1       5.769  10.395  37.117  1.00  0.00     0.293 HD
ENDBRANCH   6  26
BRANCH   8  28
ATOM     28  O   UNL     1       8.243  14.728  35.867  1.00  0.00    -0.508 OA
ATOM     29  H   UNL     1       8.311  14.905  36.862  1.00  0.00     0.293 HD
ENDBRANCH   8  28
TORSDOF 7
ENDMDL
