MODEL 1
REMARK VINA RESULT:    -3.760      0.000      0.000
REMARK INTER + INTRA:          -8.843
REMARK INTER:                  -6.838
REMARK INTRA:                  -2.005
REMARK UNBOUND:                -2.005
REMARK SMILES CCCCCCCCCCCCCCCC(=O)[O-]
REMARK SMILES IDX 9 1 10 2 11 3 12 4 13 5 14 6 15 7 16 8 17 9 18 10 8 11 7 12
REMARK SMILES IDX 6 13 5 14 4 15 3 16 2 17 1 18
REMARK H PARENT
REMARK Flexibility Score: inf
ROOT
ATOM      1  C   UNL     1      -4.621  24.389   0.639  1.00  0.00     0.000 C 
ENDROOT
BRANCH   1   2
ATOM      2  C   UNL     1      -3.532  25.441   0.912  1.00  0.00     0.000 C 
BRANCH   2   3
ATOM      3  C   UNL     1      -3.281  25.661   2.414  1.00  0.00     0.000 C 
BRANCH   3   4
ATOM      4  C   UNL     1      -3.171  27.137   2.847  1.00  0.00     0.000 C 
BRANCH   4   5
ATOM      5  C   UNL     1      -2.958  28.144   1.700  1.00  0.00     0.000 C 
BRANCH   5   6
ATOM      6  C   UNL     1      -4.155  29.070   1.407  1.00  0.00     0.006 C 
BRANCH   6   7
ATOM      7  C   UNL     1      -4.179  29.626  -0.029  1.00  0.00     0.053 C 
BRANCH   7   8
ATOM      8  C   UNL     1      -5.338  29.114  -0.828  1.00  0.00     0.041 C 
ATOM      9  O   UNL     1      -5.859  28.001  -0.550  1.00  0.00    -0.550 OA
ATOM     10  O   UNL     1      -5.822  29.848  -1.904  1.00  0.00    -0.550 OA
ENDBRANCH   7   8
ENDBRANCH   6   7
ENDBRANCH   5   6
ENDBRANCH   4   5
ENDBRANCH   3   4
ENDBRANCH   2   3
ENDBRANCH   1   2
BRANCH   1  11
ATOM     11  C   UNL     1      -5.248  23.843   1.932  1.00  0.00     0.000 C 
BRANCH  11  12
ATOM     12  C   UNL     1      -6.759  24.114   2.013  1.00  0.00    -0.000 C 
BRANCH  12  13
ATOM     13  C   UNL     1      -7.146  25.505   1.484  1.00  0.00    -0.000 C 
BRANCH  13  14
ATOM     14  C   UNL     1      -6.909  26.641   2.503  1.00  0.00    -0.000 C 
BRANCH  14  15
ATOM     15  C   UNL     1      -7.363  26.257   3.919  1.00  0.00    -0.000 C 
BRANCH  15  16
ATOM     16  C   UNL     1      -6.225  26.447   4.931  1.00  0.00    -0.000 C 
BRANCH  16  17
ATOM     17  C   UNL     1      -6.702  26.324   6.387  1.00  0.00    -0.003 C 
ATOM     18  C   UNL     1      -8.030  25.576   6.512  1.00  0.00     0.004 C 
ENDBRANCH  16  17
ENDBRANCH  15  16
ENDBRANCH  14  15
ENDBRANCH  13  14
ENDBRANCH  12  13
ENDBRANCH  11  12
ENDBRANCH   1  11
TORSDOF 14
ENDMDL
MODEL 2
REMARK VINA RESULT:    -3.712      1.716      2.771
REMARK INTER + INTRA:          -8.756
REMARK INTER:                  -6.999
REMARK INTRA:                  -1.756
REMARK UNBOUND:                -2.005
REMARK SMILES CCCCCCCCCCCCCCCC(=O)[O-]
REMARK SMILES IDX 9 1 10 2 11 3 12 4 13 5 14 6 15 7 16 8 17 9 18 10 8 11 7 12
REMARK SMILES IDX 6 13 5 14 4 15 3 16 2 17 1 18
REMARK H PARENT
REMARK Flexibility Score: inf
ROOT
ATOM      1  C   UNL     1      -3.500  25.532   2.731  1.00  0.00     0.000 C 
ENDROOT
BRANCH   1   2
ATOM      2  C   UNL     1      -3.709  27.045   2.908  1.00  0.00     0.000 C 
BRANCH   2   3
ATOM      3  C   UNL     1      -4.667  27.639   1.861  1.00  0.00     0.000 C 
BRANCH   3   4
ATOM      4  C   UNL     1      -4.065  28.759   0.988  1.00  0.00     0.000 C 
BRANCH   4   5
ATOM      5  C   UNL     1      -5.019  29.359  -0.063  1.00  0.00     0.000 C 
BRANCH   5   6
ATOM      6  C   UNL     1      -5.716  30.669   0.353  1.00  0.00     0.006 C 
BRANCH   6   7
ATOM      7  C   UNL     1      -5.720  31.751  -0.742  1.00  0.00     0.053 C 
BRANCH   7   8
ATOM      8  C   UNL     1      -7.093  32.028  -1.276  1.00  0.00     0.041 C 
ATOM      9  O   UNL     1      -8.041  31.237  -1.029  1.00  0.00    -0.550 OA
ATOM     10  O   UNL     1      -7.317  33.141  -2.077  1.00  0.00    -0.550 OA
ENDBRANCH   7   8
ENDBRANCH   6   7
ENDBRANCH   5   6
ENDBRANCH   4   5
ENDBRANCH   3   4
ENDBRANCH   2   3
ENDBRANCH   1   2
BRANCH   1  11
ATOM     11  C   UNL     1      -3.223  25.142   1.270  1.00  0.00     0.000 C 
BRANCH  11  12
ATOM     12  C   UNL     1      -4.075  23.949   0.808  1.00  0.00    -0.000 C 
BRANCH  12  13
ATOM     13  C   UNL     1      -5.416  23.847   1.555  1.00  0.00    -0.000 C 
BRANCH  13  14
ATOM     14  C   UNL     1      -6.582  24.552   0.829  1.00  0.00    -0.000 C 
BRANCH  14  15
ATOM     15  C   UNL     1      -7.585  25.178   1.809  1.00  0.00    -0.000 C 
BRANCH  15  16
ATOM     16  C   UNL     1      -7.148  24.950   3.263  1.00  0.00    -0.000 C 
BRANCH  16  17
ATOM     17  C   UNL     1      -7.624  26.068   4.204  1.00  0.00    -0.003 C 
ATOM     18  C   UNL     1      -6.646  26.332   5.349  1.00  0.00     0.004 C 
ENDBRANCH  16  17
ENDBRANCH  15  16
ENDBRANCH  14  15
ENDBRANCH  13  14
ENDBRANCH  12  13
ENDBRANCH  11  12
ENDBRANCH   1  11
TORSDOF 14
ENDMDL
MODEL 3
REMARK VINA RESULT:    -3.647      3.242      6.188
REMARK INTER + INTRA:          -8.637
REMARK INTER:                  -6.284
REMARK INTRA:                  -2.352
REMARK UNBOUND:                -2.005
REMARK SMILES CCCCCCCCCCCCCCCC(=O)[O-]
REMARK SMILES IDX 9 1 10 2 11 3 12 4 13 5 14 6 15 7 16 8 17 9 18 10 8 11 7 12
REMARK SMILES IDX 6 13 5 14 4 15 3 16 2 17 1 18
REMARK H PARENT
REMARK Flexibility Score: inf
ROOT
ATOM      1  C   UNL     1      -3.282  25.871  -1.203  1.00  0.00     0.000 C 
ENDROOT
BRANCH   1   2
ATOM      2  C   UNL     1      -2.103  26.028  -0.226  1.00  0.00     0.000 C 
BRANCH   2   3
ATOM      3  C   UNL     1      -2.434  25.527   1.190  1.00  0.00     0.000 C 
BRANCH   3   4
ATOM      4  C   UNL     1      -3.406  26.420   1.987  1.00  0.00     0.000 C 
BRANCH   4   5
ATOM      5  C   UNL     1      -4.558  25.675   2.689  1.00  0.00     0.000 C 
BRANCH   5   6
ATOM      6  C   UNL     1      -5.259  24.597   1.840  1.00  0.00     0.006 C 
BRANCH   6   7
ATOM      7  C   UNL     1      -6.312  25.155   0.864  1.00  0.00     0.053 C 
BRANCH   7   8
ATOM      8  C   UNL     1      -7.708  24.749   1.228  1.00  0.00     0.041 C 
ATOM      9  O   UNL     1      -8.252  23.766   0.658  1.00  0.00    -0.550 OA
ATOM     10  O   UNL     1      -8.424  25.480   2.168  1.00  0.00    -0.550 OA
ENDBRANCH   7   8
ENDBRANCH   6   7
ENDBRANCH   5   6
ENDBRANCH   4   5
ENDBRANCH   3   4
ENDBRANCH   2   3
ENDBRANCH   1   2
BRANCH   1  11
ATOM     11  C   UNL     1      -3.170  24.601  -2.060  1.00  0.00     0.000 C 
BRANCH  11  12
ATOM     12  C   UNL     1      -4.403  23.692  -1.931  1.00  0.00    -0.000 C 
BRANCH  12  13
ATOM     13  C   UNL     1      -4.044  22.248  -1.544  1.00  0.00    -0.000 C 
BRANCH  13  14
ATOM     14  C   UNL     1      -3.418  22.123  -0.138  1.00  0.00    -0.000 C 
BRANCH  14  15
ATOM     15  C   UNL     1      -2.037  21.452  -0.172  1.00  0.00    -0.000 C 
BRANCH  15  16
ATOM     16  C   UNL     1      -0.917  22.492  -0.030  1.00  0.00    -0.000 C 
BRANCH  16  17
ATOM     17  C   UNL     1      -0.145  22.711  -1.341  1.00  0.00    -0.003 C 
ATOM     18  C   UNL     1       0.191  21.402  -2.055  1.00  0.00     0.004 C 
ENDBRANCH  16  17
ENDBRANCH  15  16
ENDBRANCH  14  15
ENDBRANCH  13  14
ENDBRANCH  12  13
ENDBRANCH  11  12
ENDBRANCH   1  11
TORSDOF 14
ENDMDL
MODEL 4
REMARK VINA RESULT:    -3.621      2.261      4.993
REMARK INTER + INTRA:          -8.589
REMARK INTER:                  -6.139
REMARK INTRA:                  -2.450
REMARK UNBOUND:                -2.005
REMARK SMILES CCCCCCCCCCCCCCCC(=O)[O-]
REMARK SMILES IDX 9 1 10 2 11 3 12 4 13 5 14 6 15 7 16 8 17 9 18 10 8 11 7 12
REMARK SMILES IDX 6 13 5 14 4 15 3 16 2 17 1 18
REMARK H PARENT
REMARK Flexibility Score: inf
ROOT
ATOM      1  C   UNL     1      -1.843  26.653  -0.568  1.00  0.00     0.000 C 
ENDROOT
BRANCH   1   2
ATOM      2  C   UNL     1      -1.503  25.852   0.700  1.00  0.00     0.000 C 
BRANCH   2   3
ATOM      3  C   UNL     1      -2.748  25.263   1.384  1.00  0.00     0.000 C 
BRANCH   3   4
ATOM      4  C   UNL     1      -3.044  25.820   2.791  1.00  0.00     0.000 C 
BRANCH   4   5
ATOM      5  C   UNL     1      -4.536  25.890   3.171  1.00  0.00     0.000 C 
BRANCH   5   6
ATOM      6  C   UNL     1      -5.508  25.308   2.127  1.00  0.00     0.006 C 
BRANCH   6   7
ATOM      7  C   UNL     1      -6.876  24.899   2.706  1.00  0.00     0.053 C 
BRANCH   7   8
ATOM      8  C   UNL     1      -7.748  26.078   3.014  1.00  0.00     0.041 C 
ATOM      9  O   UNL     1      -8.740  25.951   3.781  1.00  0.00    -0.550 OA
ATOM     10  O   UNL     1      -7.489  27.310   2.426  1.00  0.00    -0.550 OA
ENDBRANCH   7   8
ENDBRANCH   6   7
ENDBRANCH   5   6
ENDBRANCH   4   5
ENDBRANCH   3   4
ENDBRANCH   2   3
ENDBRANCH   1   2
BRANCH   1  11
ATOM     11  C   UNL     1      -3.331  26.557  -0.942  1.00  0.00     0.000 C 
BRANCH  11  12
ATOM     12  C   UNL     1      -4.002  27.936  -1.044  1.00  0.00    -0.000 C 
BRANCH  12  13
ATOM     13  C   UNL     1      -4.894  28.257   0.168  1.00  0.00    -0.000 C 
BRANCH  13  14
ATOM     14  C   UNL     1      -4.218  29.180   1.204  1.00  0.00    -0.000 C 
BRANCH  14  15
ATOM     15  C   UNL     1      -3.058  29.986   0.599  1.00  0.00    -0.000 C 
BRANCH  15  16
ATOM     16  C   UNL     1      -2.009  30.325   1.667  1.00  0.00    -0.000 C 
BRANCH  16  17
ATOM     17  C   UNL     1      -1.532  29.086   2.441  1.00  0.00    -0.003 C 
ATOM     18  C   UNL     1      -1.898  29.140   3.925  1.00  0.00     0.004 C 
ENDBRANCH  16  17
ENDBRANCH  15  16
ENDBRANCH  14  15
ENDBRANCH  13  14
ENDBRANCH  12  13
ENDBRANCH  11  12
ENDBRANCH   1  11
TORSDOF 14
ENDMDL
MODEL 5
REMARK VINA RESULT:    -3.596      3.365      5.447
REMARK INTER + INTRA:          -8.543
REMARK INTER:                  -6.457
REMARK INTRA:                  -2.086
REMARK UNBOUND:                -2.005
REMARK SMILES CCCCCCCCCCCCCCCC(=O)[O-]
REMARK SMILES IDX 9 1 10 2 11 3 12 4 13 5 14 6 15 7 16 8 17 9 18 10 8 11 7 12
REMARK SMILES IDX 6 13 5 14 4 15 3 16 2 17 1 18
REMARK H PARENT
REMARK Flexibility Score: inf
ROOT
ATOM      1  C   UNL     1      -0.905  22.891   0.134  1.00  0.00     0.000 C 
ENDROOT
BRANCH   1   2
ATOM      2  C   UNL     1      -1.699  21.744  -0.516  1.00  0.00     0.000 C 
BRANCH   2   3
ATOM      3  C   UNL     1      -3.194  21.776  -0.153  1.00  0.00     0.000 C 
BRANCH   3   4
ATOM      4  C   UNL     1      -3.813  23.186  -0.068  1.00  0.00     0.000 C 
BRANCH   4   5
ATOM      5  C   UNL     1      -4.834  23.523  -1.173  1.00  0.00     0.000 C 
BRANCH   5   6
ATOM      6  C   UNL     1      -5.377  24.965  -1.149  1.00  0.00     0.006 C 
BRANCH   6   7
ATOM      7  C   UNL     1      -6.063  25.353   0.174  1.00  0.00     0.053 C 
BRANCH   7   8
ATOM      8  C   UNL     1      -7.144  24.392   0.567  1.00  0.00     0.041 C 
ATOM      9  O   UNL     1      -7.069  23.763   1.656  1.00  0.00    -0.550 OA
ATOM     10  O   UNL     1      -8.217  24.164  -0.286  1.00  0.00    -0.550 OA
ENDBRANCH   7   8
ENDBRANCH   6   7
ENDBRANCH   5   6
ENDBRANCH   4   5
ENDBRANCH   3   4
ENDBRANCH   2   3
ENDBRANCH   1   2
BRANCH   1  11
ATOM     11  C   UNL     1      -0.080  23.687  -0.890  1.00  0.00     0.000 C 
BRANCH  11  12
ATOM     12  C   UNL     1      -0.234  25.207  -0.715  1.00  0.00    -0.000 C 
BRANCH  12  13
ATOM     13  C   UNL     1      -1.553  25.744  -1.295  1.00  0.00    -0.000 C 
BRANCH  13  14
ATOM     14  C   UNL     1      -2.300  26.703  -0.343  1.00  0.00    -0.000 C 
BRANCH  14  15
ATOM     15  C   UNL     1      -1.802  26.591   1.106  1.00  0.00    -0.000 C 
BRANCH  15  16
ATOM     16  C   UNL     1      -2.758  25.736   1.950  1.00  0.00    -0.000 C 
BRANCH  16  17
ATOM     17  C   UNL     1      -3.382  26.522   3.114  1.00  0.00    -0.003 C 
ATOM     18  C   UNL     1      -2.709  27.876   3.341  1.00  0.00     0.004 C 
ENDBRANCH  16  17
ENDBRANCH  15  16
ENDBRANCH  14  15
ENDBRANCH  13  14
ENDBRANCH  12  13
ENDBRANCH  11  12
ENDBRANCH   1  11
TORSDOF 14
ENDMDL
MODEL 6
REMARK VINA RESULT:    -3.592      2.468      5.502
REMARK INTER + INTRA:          -8.536
REMARK INTER:                  -6.033
REMARK INTRA:                  -2.503
REMARK UNBOUND:                -2.005
REMARK SMILES CCCCCCCCCCCCCCCC(=O)[O-]
REMARK SMILES IDX 9 1 10 2 11 3 12 4 13 5 14 6 15 7 16 8 17 9 18 10 8 11 7 12
REMARK SMILES IDX 6 13 5 14 4 15 3 16 2 17 1 18
REMARK H PARENT
REMARK Flexibility Score: inf
ROOT
ATOM      1  C   UNL     1      -0.586  27.630  -0.082  1.00  0.00     0.000 C 
ENDROOT
BRANCH   1   2
ATOM      2  C   UNL     1      -2.075  27.896  -0.364  1.00  0.00     0.000 C 
BRANCH   2   3
ATOM      3  C   UNL     1      -2.978  27.545   0.831  1.00  0.00     0.000 C 
BRANCH   3   4
ATOM      4  C   UNL     1      -2.255  26.883   2.022  1.00  0.00     0.000 C 
BRANCH   4   5
ATOM      5  C   UNL     1      -3.103  25.884   2.833  1.00  0.00     0.000 C 
BRANCH   5   6
ATOM      6  C   UNL     1      -4.449  26.430   3.348  1.00  0.00     0.006 C 
BRANCH   6   7
ATOM      7  C   UNL     1      -5.676  25.653   2.836  1.00  0.00     0.053 C 
BRANCH   7   8
ATOM      8  C   UNL     1      -6.687  26.541   2.175  1.00  0.00     0.041 C 
ATOM      9  O   UNL     1      -6.329  27.626   1.645  1.00  0.00    -0.550 OA
ATOM     10  O   UNL     1      -8.031  26.188   2.179  1.00  0.00    -0.550 OA
ENDBRANCH   7   8
ENDBRANCH   6   7
ENDBRANCH   5   6
ENDBRANCH   4   5
ENDBRANCH   3   4
ENDBRANCH   2   3
ENDBRANCH   1   2
BRANCH   1  11
ATOM     11  C   UNL     1       0.058  26.717  -1.137  1.00  0.00     0.000 C 
BRANCH  11  12
ATOM     12  C   UNL     1      -0.667  25.367  -1.269  1.00  0.00    -0.000 C 
BRANCH  12  13
ATOM     13  C   UNL     1      -0.355  24.406  -0.109  1.00  0.00    -0.000 C 
BRANCH  13  14
ATOM     14  C   UNL     1      -1.438  23.326   0.106  1.00  0.00    -0.000 C 
BRANCH  14  15
ATOM     15  C   UNL     1      -2.717  23.616  -0.694  1.00  0.00    -0.000 C 
BRANCH  15  16
ATOM     16  C   UNL     1      -3.959  23.519   0.203  1.00  0.00    -0.000 C 
BRANCH  16  17
ATOM     17  C   UNL     1      -5.225  24.058  -0.482  1.00  0.00    -0.003 C 
ATOM     18  C   UNL     1      -5.026  25.450  -1.082  1.00  0.00     0.004 C 
ENDBRANCH  16  17
ENDBRANCH  15  16
ENDBRANCH  14  15
ENDBRANCH  13  14
ENDBRANCH  12  13
ENDBRANCH  11  12
ENDBRANCH   1  11
TORSDOF 14
ENDMDL
MODEL 7
REMARK VINA RESULT:    -3.555      2.546      5.560
REMARK INTER + INTRA:          -8.469
REMARK INTER:                  -6.251
REMARK INTRA:                  -2.218
REMARK UNBOUND:                -2.005
REMARK SMILES CCCCCCCCCCCCCCCC(=O)[O-]
REMARK SMILES IDX 9 1 10 2 11 3 12 4 13 5 14 6 15 7 16 8 17 9 18 10 8 11 7 12
REMARK SMILES IDX 6 13 5 14 4 15 3 16 2 17 1 18
REMARK H PARENT
REMARK Flexibility Score: inf
ROOT
ATOM      1  C   UNL     1      -1.633  27.487   0.351  1.00  0.00     0.000 C 
ENDROOT
BRANCH   1   2
ATOM      2  C   UNL     1      -1.777  26.115   1.032  1.00  0.00     0.000 C 
BRANCH   2   3
ATOM      3  C   UNL     1      -3.243  25.672   1.174  1.00  0.00     0.000 C 
BRANCH   3   4
ATOM      4  C   UNL     1      -3.705  25.404   2.620  1.00  0.00     0.000 C 
BRANCH   4   5
ATOM      5  C   UNL     1      -4.678  26.446   3.204  1.00  0.00     0.000 C 
BRANCH   5   6
ATOM      6  C   UNL     1      -5.957  26.688   2.378  1.00  0.00     0.006 C 
BRANCH   6   7
ATOM      7  C   UNL     1      -7.186  25.912   2.887  1.00  0.00     0.053 C 
BRANCH   7   8
ATOM      8  C   UNL     1      -7.631  24.846   1.932  1.00  0.00     0.041 C 
ATOM      9  O   UNL     1      -8.701  24.983   1.281  1.00  0.00    -0.550 OA
ATOM     10  O   UNL     1      -6.884  23.683   1.789  1.00  0.00    -0.550 OA
ENDBRANCH   7   8
ENDBRANCH   6   7
ENDBRANCH   5   6
ENDBRANCH   4   5
ENDBRANCH   3   4
ENDBRANCH   2   3
ENDBRANCH   1   2
BRANCH   1  11
ATOM     11  C   UNL     1      -0.820  28.480   1.197  1.00  0.00     0.000 C 
BRANCH  11  12
ATOM     12  C   UNL     1      -1.472  28.766   2.559  1.00  0.00    -0.000 C 
BRANCH  12  13
ATOM     13  C   UNL     1      -2.880  29.373   2.432  1.00  0.00    -0.000 C 
BRANCH  13  14
ATOM     14  C   UNL     1      -2.900  30.738   1.710  1.00  0.00    -0.000 C 
BRANCH  14  15
ATOM     15  C   UNL     1      -4.168  30.932   0.865  1.00  0.00    -0.000 C 
BRANCH  15  16
ATOM     16  C   UNL     1      -4.146  30.027  -0.374  1.00  0.00    -0.000 C 
BRANCH  16  17
ATOM     17  C   UNL     1      -5.240  28.949  -0.338  1.00  0.00    -0.003 C 
ATOM     18  C   UNL     1      -4.977  27.807  -1.321  1.00  0.00     0.004 C 
ENDBRANCH  16  17
ENDBRANCH  15  16
ENDBRANCH  14  15
ENDBRANCH  13  14
ENDBRANCH  12  13
ENDBRANCH  11  12
ENDBRANCH   1  11
TORSDOF 14
ENDMDL
MODEL 8
REMARK VINA RESULT:    -3.546      2.792      5.472
REMARK INTER + INTRA:          -8.453
REMARK INTER:                  -6.738
REMARK INTRA:                  -1.715
REMARK UNBOUND:                -2.005
REMARK SMILES CCCCCCCCCCCCCCCC(=O)[O-]
REMARK SMILES IDX 9 1 10 2 11 3 12 4 13 5 14 6 15 7 16 8 17 9 18 10 8 11 7 12
REMARK SMILES IDX 6 13 5 14 4 15 3 16 2 17 1 18
REMARK H PARENT
REMARK Flexibility Score: inf
ROOT
ATOM      1  C   UNL     1      -2.506  22.984  -0.787  1.00  0.00     0.000 C 
ENDROOT
BRANCH   1   2
ATOM      2  C   UNL     1      -3.697  22.490   0.052  1.00  0.00     0.000 C 
BRANCH   2   3
ATOM      3  C   UNL     1      -4.800  23.552   0.202  1.00  0.00     0.000 C 
BRANCH   3   4
ATOM      4  C   UNL     1      -5.273  23.799   1.649  1.00  0.00     0.000 C 
BRANCH   4   5
ATOM      5  C   UNL     1      -6.708  24.345   1.787  1.00  0.00     0.000 C 
BRANCH   5   6
ATOM      6  C   UNL     1      -6.811  25.834   2.171  1.00  0.00     0.006 C 
BRANCH   6   7
ATOM      7  C   UNL     1      -6.531  26.117   3.659  1.00  0.00     0.053 C 
BRANCH   7   8
ATOM      8  C   UNL     1      -7.711  25.824   4.535  1.00  0.00     0.041 C 
ATOM      9  O   UNL     1      -8.881  25.916   4.076  1.00  0.00    -0.550 OA
ATOM     10  O   UNL     1      -7.522  25.485   5.869  1.00  0.00    -0.550 OA
ENDBRANCH   7   8
ENDBRANCH   6   7
ENDBRANCH   5   6
ENDBRANCH   4   5
ENDBRANCH   3   4
ENDBRANCH   2   3
ENDBRANCH   1   2
BRANCH   1  11
ATOM     11  C   UNL     1      -1.177  22.914  -0.018  1.00  0.00     0.000 C 
BRANCH  11  12
ATOM     12  C   UNL     1      -0.607  24.306   0.301  1.00  0.00    -0.000 C 
BRANCH  12  13
ATOM     13  C   UNL     1      -1.621  25.436   0.058  1.00  0.00    -0.000 C 
BRANCH  13  14
ATOM     14  C   UNL     1      -2.293  25.950   1.350  1.00  0.00    -0.000 C 
BRANCH  14  15
ATOM     15  C   UNL     1      -3.399  26.977   1.063  1.00  0.00    -0.000 C 
BRANCH  15  16
ATOM     16  C   UNL     1      -3.637  27.882   2.280  1.00  0.00    -0.000 C 
BRANCH  16  17
ATOM     17  C   UNL     1      -2.463  27.859   3.271  1.00  0.00    -0.003 C 
ATOM     18  C   UNL     1      -1.659  29.160   3.265  1.00  0.00     0.004 C 
ENDBRANCH  16  17
ENDBRANCH  15  16
ENDBRANCH  14  15
ENDBRANCH  13  14
ENDBRANCH  12  13
ENDBRANCH  11  12
ENDBRANCH   1  11
TORSDOF 14
ENDMDL
MODEL 9
REMARK VINA RESULT:    -3.518      1.376      2.072
REMARK INTER + INTRA:          -8.402
REMARK INTER:                  -7.265
REMARK INTRA:                  -1.137
REMARK UNBOUND:                -2.005
REMARK SMILES CCCCCCCCCCCCCCCC(=O)[O-]
REMARK SMILES IDX 9 1 10 2 11 3 12 4 13 5 14 6 15 7 16 8 17 9 18 10 8 11 7 12
REMARK SMILES IDX 6 13 5 14 4 15 3 16 2 17 1 18
REMARK H PARENT
REMARK Flexibility Score: inf
ROOT
ATOM      1  C   UNL     1      -2.710  25.710   1.929  1.00  0.00     0.000 C 
ENDROOT
BRANCH   1   2
ATOM      2  C   UNL     1      -2.843  26.921   0.990  1.00  0.00     0.000 C 
BRANCH   2   3
ATOM      3  C   UNL     1      -2.071  28.152   1.494  1.00  0.00     0.000 C 
BRANCH   3   4
ATOM      4  C   UNL     1      -2.778  28.954   2.606  1.00  0.00     0.000 C 
BRANCH   4   5
ATOM      5  C   UNL     1      -3.171  30.396   2.228  1.00  0.00     0.000 C 
BRANCH   5   6
ATOM      6  C   UNL     1      -3.304  30.667   0.718  1.00  0.00     0.006 C 
BRANCH   6   7
ATOM      7  C   UNL     1      -4.574  31.448   0.332  1.00  0.00     0.053 C 
BRANCH   7   8
ATOM      8  C   UNL     1      -5.781  30.567   0.217  1.00  0.00     0.041 C 
ATOM      9  O   UNL     1      -6.937  31.056   0.324  1.00  0.00    -0.550 OA
ATOM     10  O   UNL     1      -5.629  29.199   0.028  1.00  0.00    -0.550 OA
ENDBRANCH   7   8
ENDBRANCH   6   7
ENDBRANCH   5   6
ENDBRANCH   4   5
ENDBRANCH   3   4
ENDBRANCH   2   3
ENDBRANCH   1   2
BRANCH   1  11
ATOM     11  C   UNL     1      -3.931  25.542   2.847  1.00  0.00     0.000 C 
BRANCH  11  12
ATOM     12  C   UNL     1      -5.068  24.754   2.176  1.00  0.00    -0.000 C 
BRANCH  12  13
ATOM     13  C   UNL     1      -6.387  25.543   2.115  1.00  0.00    -0.000 C 
BRANCH  13  14
ATOM     14  C   UNL     1      -7.432  25.080   3.153  1.00  0.00    -0.000 C 
BRANCH  14  15
ATOM     15  C   UNL     1      -7.619  26.099   4.287  1.00  0.00    -0.000 C 
BRANCH  15  16
ATOM     16  C   UNL     1      -8.001  25.399   5.598  1.00  0.00    -0.000 C 
BRANCH  16  17
ATOM     17  C   UNL     1      -7.248  25.965   6.812  1.00  0.00    -0.003 C 
ATOM     18  C   UNL     1      -6.017  26.781   6.416  1.00  0.00     0.004 C 
ENDBRANCH  16  17
ENDBRANCH  15  16
ENDBRANCH  14  15
ENDBRANCH  13  14
ENDBRANCH  12  13
ENDBRANCH  11  12
ENDBRANCH   1  11
TORSDOF 14
ENDMDL
