MODEL 1
REMARK VINA RESULT:    -3.374      0.000      0.000
REMARK INTER + INTRA:          -8.577
REMARK INTER:                  -6.136
REMARK INTRA:                  -2.441
REMARK UNBOUND:                -2.441
REMARK SMILES CCCCCCCCCCCCCCCC(=O)[O-]
REMARK SMILES IDX 9 1 10 2 11 3 12 4 13 5 14 6 15 7 16 8 17 9 18 10 8 11 7 12
REMARK SMILES IDX 6 13 5 14 4 15 3 16 2 17 1 18
REMARK H PARENT
REMARK Flexibility Score: inf
ROOT
ATOM      1  C   UNL     1     -29.774 -52.836  51.626  1.00  0.00     0.000 C 
ENDROOT
BRANCH   1   2
ATOM      2  C   UNL     1     -30.131 -54.314  51.368  1.00  0.00     0.000 C 
BRANCH   2   3
ATOM      3  C   UNL     1     -30.151 -55.191  52.638  1.00  0.00     0.000 C 
BRANCH   3   4
ATOM      4  C   UNL     1     -29.703 -54.444  53.910  1.00  0.00     0.000 C 
BRANCH   4   5
ATOM      5  C   UNL     1     -29.687 -55.328  55.171  1.00  0.00     0.000 C 
BRANCH   5   6
ATOM      6  C   UNL     1     -28.395 -55.158  55.992  1.00  0.00     0.006 C 
BRANCH   6   7
ATOM      7  C   UNL     1     -27.998 -53.684  56.146  1.00  0.00     0.053 C 
BRANCH   7   8
ATOM      8  C   UNL     1     -26.527 -53.528  56.379  1.00  0.00     0.041 C 
ATOM      9  O   UNL     1     -25.807 -54.539  56.592  1.00  0.00    -0.550 OA
ATOM     10  O   UNL     1     -25.955 -52.262  56.393  1.00  0.00    -0.550 OA
ENDBRANCH   7   8
ENDBRANCH   6   7
ENDBRANCH   5   6
ENDBRANCH   4   5
ENDBRANCH   3   4
ENDBRANCH   2   3
ENDBRANCH   1   2
BRANCH   1  11
ATOM     11  C   UNL     1     -28.386 -52.423  51.095  1.00  0.00     0.000 C 
BRANCH  11  12
ATOM     12  C   UNL     1     -27.435 -51.979  52.222  1.00  0.00    -0.000 C 
BRANCH  12  13
ATOM     13  C   UNL     1     -26.586 -53.134  52.775  1.00  0.00    -0.000 C 
BRANCH  13  14
ATOM     14  C   UNL     1     -26.550 -54.348  51.831  1.00  0.00    -0.000 C 
BRANCH  14  15
ATOM     15  C   UNL     1     -25.705 -55.510  52.381  1.00  0.00    -0.000 C 
BRANCH  15  16
ATOM     16  C   UNL     1     -26.436 -56.445  53.362  1.00  0.00    -0.000 C 
BRANCH  16  17
ATOM     17  C   UNL     1     -27.286 -57.510  52.654  1.00  0.00    -0.003 C 
ATOM     18  C   UNL     1     -28.098 -58.323  53.660  1.00  0.00     0.004 C 
ENDBRANCH  16  17
ENDBRANCH  15  16
ENDBRANCH  14  15
ENDBRANCH  13  14
ENDBRANCH  12  13
ENDBRANCH  11  12
ENDBRANCH   1  11
TORSDOF 14
ENDMDL
MODEL 2
REMARK VINA RESULT:    -3.342      1.326      3.358
REMARK INTER + INTRA:          -8.519
REMARK INTER:                  -6.657
REMARK INTRA:                  -1.862
REMARK UNBOUND:                -2.441
REMARK SMILES CCCCCCCCCCCCCCCC(=O)[O-]
REMARK SMILES IDX 9 1 10 2 11 3 12 4 13 5 14 6 15 7 16 8 17 9 18 10 8 11 7 12
REMARK SMILES IDX 6 13 5 14 4 15 3 16 2 17 1 18
REMARK H PARENT
REMARK Flexibility Score: inf
ROOT
ATOM      1  C   UNL     1     -30.447 -53.151  51.980  1.00  0.00     0.000 C 
ENDROOT
BRANCH   1   2
ATOM      2  C   UNL     1     -29.568 -52.428  50.939  1.00  0.00     0.000 C 
BRANCH   2   3
ATOM      3  C   UNL     1     -29.307 -50.940  51.255  1.00  0.00     0.000 C 
BRANCH   3   4
ATOM      4  C   UNL     1     -27.909 -50.672  51.848  1.00  0.00     0.000 C 
BRANCH   4   5
ATOM      5  C   UNL     1     -27.105 -51.953  52.135  1.00  0.00     0.000 C 
BRANCH   5   6
ATOM      6  C   UNL     1     -26.383 -51.903  53.495  1.00  0.00     0.006 C 
BRANCH   6   7
ATOM      7  C   UNL     1     -26.783 -53.071  54.405  1.00  0.00     0.053 C 
BRANCH   7   8
ATOM      8  C   UNL     1     -26.624 -52.725  55.853  1.00  0.00     0.041 C 
ATOM      9  O   UNL     1     -25.846 -51.798  56.203  1.00  0.00    -0.550 OA
ATOM     10  O   UNL     1     -27.311 -53.448  56.821  1.00  0.00    -0.550 OA
ENDBRANCH   7   8
ENDBRANCH   6   7
ENDBRANCH   5   6
ENDBRANCH   4   5
ENDBRANCH   3   4
ENDBRANCH   2   3
ENDBRANCH   1   2
BRANCH   1  11
ATOM     11  C   UNL     1     -30.211 -54.673  52.054  1.00  0.00     0.000 C 
BRANCH  11  12
ATOM     12  C   UNL     1     -28.719 -55.042  51.946  1.00  0.00    -0.000 C 
BRANCH  12  13
ATOM     13  C   UNL     1     -28.447 -56.519  52.269  1.00  0.00    -0.000 C 
BRANCH  13  14
ATOM     14  C   UNL     1     -27.140 -56.724  53.053  1.00  0.00    -0.000 C 
BRANCH  14  15
ATOM     15  C   UNL     1     -27.340 -57.522  54.353  1.00  0.00    -0.000 C 
BRANCH  15  16
ATOM     16  C   UNL     1     -27.603 -56.672  55.610  1.00  0.00    -0.000 C 
BRANCH  16  17
ATOM     17  C   UNL     1     -29.069 -56.715  56.066  1.00  0.00    -0.003 C 
ATOM     18  C   UNL     1     -29.812 -55.450  55.645  1.00  0.00     0.004 C 
ENDBRANCH  16  17
ENDBRANCH  15  16
ENDBRANCH  14  15
ENDBRANCH  13  14
ENDBRANCH  12  13
ENDBRANCH  11  12
ENDBRANCH   1  11
TORSDOF 14
ENDMDL
MODEL 3
REMARK VINA RESULT:    -3.269      1.923      3.429
REMARK INTER + INTRA:          -8.385
REMARK INTER:                  -6.512
REMARK INTRA:                  -1.872
REMARK UNBOUND:                -2.441
REMARK SMILES CCCCCCCCCCCCCCCC(=O)[O-]
REMARK SMILES IDX 9 1 10 2 11 3 12 4 13 5 14 6 15 7 16 8 17 9 18 10 8 11 7 12
REMARK SMILES IDX 6 13 5 14 4 15 3 16 2 17 1 18
REMARK H PARENT
REMARK Flexibility Score: inf
ROOT
ATOM      1  C   UNL     1     -27.335 -51.481  52.165  1.00  0.00     0.000 C 
ENDROOT
BRANCH   1   2
ATOM      2  C   UNL     1     -26.555 -52.308  53.207  1.00  0.00     0.000 C 
BRANCH   2   3
ATOM      3  C   UNL     1     -26.068 -51.495  54.425  1.00  0.00     0.000 C 
BRANCH   3   4
ATOM      4  C   UNL     1     -26.177 -52.260  55.760  1.00  0.00     0.000 C 
BRANCH   4   5
ATOM      5  C   UNL     1     -26.769 -53.673  55.614  1.00  0.00     0.000 C 
BRANCH   5   6
ATOM      6  C   UNL     1     -27.966 -53.911  56.554  1.00  0.00     0.006 C 
BRANCH   6   7
ATOM      7  C   UNL     1     -29.078 -54.725  55.879  1.00  0.00     0.053 C 
BRANCH   7   8
ATOM      8  C   UNL     1     -29.058 -56.157  56.315  1.00  0.00     0.041 C 
ATOM      9  O   UNL     1     -28.154 -56.933  55.906  1.00  0.00    -0.550 OA
ATOM     10  O   UNL     1     -30.059 -56.645  57.147  1.00  0.00    -0.550 OA
ENDBRANCH   7   8
ENDBRANCH   6   7
ENDBRANCH   5   6
ENDBRANCH   4   5
ENDBRANCH   3   4
ENDBRANCH   2   3
ENDBRANCH   1   2
BRANCH   1  11
ATOM     11  C   UNL     1     -28.325 -52.307  51.319  1.00  0.00     0.000 C 
BRANCH  11  12
ATOM     12  C   UNL     1     -29.223 -53.212  52.183  1.00  0.00    -0.000 C 
BRANCH  12  13
ATOM     13  C   UNL     1     -29.181 -54.684  51.745  1.00  0.00    -0.000 C 
BRANCH  13  14
ATOM     14  C   UNL     1     -28.312 -55.554  52.669  1.00  0.00    -0.000 C 
BRANCH  14  15
ATOM     15  C   UNL     1     -27.103 -56.173  51.946  1.00  0.00    -0.000 C 
BRANCH  15  16
ATOM     16  C   UNL     1     -25.726 -55.755  52.494  1.00  0.00    -0.000 C 
BRANCH  16  17
ATOM     17  C   UNL     1     -25.184 -56.725  53.554  1.00  0.00    -0.003 C 
ATOM     18  C   UNL     1     -23.692 -56.980  53.353  1.00  0.00     0.004 C 
ENDBRANCH  16  17
ENDBRANCH  15  16
ENDBRANCH  14  15
ENDBRANCH  13  14
ENDBRANCH  12  13
ENDBRANCH  11  12
ENDBRANCH   1  11
TORSDOF 14
ENDMDL
MODEL 4
REMARK VINA RESULT:    -3.225      2.743      4.648
REMARK INTER + INTRA:          -8.305
REMARK INTER:                  -5.992
REMARK INTRA:                  -2.312
REMARK UNBOUND:                -2.441
REMARK SMILES CCCCCCCCCCCCCCCC(=O)[O-]
REMARK SMILES IDX 9 1 10 2 11 3 12 4 13 5 14 6 15 7 16 8 17 9 18 10 8 11 7 12
REMARK SMILES IDX 6 13 5 14 4 15 3 16 2 17 1 18
REMARK H PARENT
REMARK Flexibility Score: inf
ROOT
ATOM      1  C   UNL     1     -26.420 -52.114  54.654  1.00  0.00     0.000 C 
ENDROOT
BRANCH   1   2
ATOM      2  C   UNL     1     -26.176 -52.102  53.132  1.00  0.00     0.000 C 
BRANCH   2   3
ATOM      3  C   UNL     1     -27.323 -51.475  52.311  1.00  0.00     0.000 C 
BRANCH   3   4
ATOM      4  C   UNL     1     -27.735 -52.314  51.086  1.00  0.00     0.000 C 
BRANCH   4   5
ATOM      5  C   UNL     1     -29.092 -53.023  51.252  1.00  0.00     0.000 C 
BRANCH   5   6
ATOM      6  C   UNL     1     -28.971 -54.356  52.014  1.00  0.00     0.006 C 
BRANCH   6   7
ATOM      7  C   UNL     1     -29.963 -54.446  53.181  1.00  0.00     0.053 C 
BRANCH   7   8
ATOM      8  C   UNL     1     -31.123 -55.334  52.855  1.00  0.00     0.041 C 
ATOM      9  O   UNL     1     -31.891 -55.737  53.768  1.00  0.00    -0.550 OA
ATOM     10  O   UNL     1     -31.338 -55.744  51.545  1.00  0.00    -0.550 OA
ENDBRANCH   7   8
ENDBRANCH   6   7
ENDBRANCH   5   6
ENDBRANCH   4   5
ENDBRANCH   3   4
ENDBRANCH   2   3
ENDBRANCH   1   2
BRANCH   1  11
ATOM     11  C   UNL     1     -27.216 -53.338  55.154  1.00  0.00     0.000 C 
BRANCH  11  12
ATOM     12  C   UNL     1     -26.470 -54.113  56.256  1.00  0.00    -0.000 C 
BRANCH  12  13
ATOM     13  C   UNL     1     -26.038 -55.517  55.808  1.00  0.00    -0.000 C 
BRANCH  13  14
ATOM     14  C   UNL     1     -26.334 -55.783  54.322  1.00  0.00    -0.000 C 
BRANCH  14  15
ATOM     15  C   UNL     1     -27.336 -56.931  54.107  1.00  0.00    -0.000 C 
BRANCH  15  16
ATOM     16  C   UNL     1     -27.845 -57.606  55.394  1.00  0.00    -0.000 C 
BRANCH  16  17
ATOM     17  C   UNL     1     -29.356 -57.430  55.604  1.00  0.00    -0.003 C 
ATOM     18  C   UNL     1     -29.646 -56.296  56.584  1.00  0.00     0.004 C 
ENDBRANCH  16  17
ENDBRANCH  15  16
ENDBRANCH  14  15
ENDBRANCH  13  14
ENDBRANCH  12  13
ENDBRANCH  11  12
ENDBRANCH   1  11
TORSDOF 14
ENDMDL
MODEL 5
REMARK VINA RESULT:    -3.177      2.341      4.635
REMARK INTER + INTRA:          -8.218
REMARK INTER:                  -6.295
REMARK INTRA:                  -1.923
REMARK UNBOUND:                -2.441
REMARK SMILES CCCCCCCCCCCCCCCC(=O)[O-]
REMARK SMILES IDX 9 1 10 2 11 3 12 4 13 5 14 6 15 7 16 8 17 9 18 10 8 11 7 12
REMARK SMILES IDX 6 13 5 14 4 15 3 16 2 17 1 18
REMARK H PARENT
REMARK Flexibility Score: inf
ROOT
ATOM      1  C   UNL     1     -29.828 -55.424  53.315  1.00  0.00     0.000 C 
ENDROOT
BRANCH   1   2
ATOM      2  C   UNL     1     -29.938 -55.167  54.831  1.00  0.00     0.000 C 
BRANCH   2   3
ATOM      3  C   UNL     1     -28.762 -55.730  55.656  1.00  0.00     0.000 C 
BRANCH   3   4
ATOM      4  C   UNL     1     -27.666 -54.687  55.957  1.00  0.00     0.000 C 
BRANCH   4   5
ATOM      5  C   UNL     1     -26.287 -55.060  55.383  1.00  0.00     0.000 C 
BRANCH   5   6
ATOM      6  C   UNL     1     -26.352 -56.267  54.428  1.00  0.00     0.006 C 
BRANCH   6   7
ATOM      7  C   UNL     1     -25.739 -55.952  53.057  1.00  0.00     0.053 C 
BRANCH   7   8
ATOM      8  C   UNL     1     -24.795 -57.026  52.613  1.00  0.00     0.041 C 
ATOM      9  O   UNL     1     -24.341 -57.027  51.438  1.00  0.00    -0.550 OA
ATOM     10  O   UNL     1     -24.441 -58.046  53.487  1.00  0.00    -0.550 OA
ENDBRANCH   7   8
ENDBRANCH   6   7
ENDBRANCH   5   6
ENDBRANCH   4   5
ENDBRANCH   3   4
ENDBRANCH   2   3
ENDBRANCH   1   2
BRANCH   1  11
ATOM     11  C   UNL     1     -29.948 -54.153  52.450  1.00  0.00     0.000 C 
BRANCH  11  12
ATOM     12  C   UNL     1     -28.590 -53.693  51.889  1.00  0.00    -0.000 C 
BRANCH  12  13
ATOM     13  C   UNL     1     -28.596 -52.221  51.447  1.00  0.00    -0.000 C 
BRANCH  13  14
ATOM     14  C   UNL     1     -27.517 -51.385  52.156  1.00  0.00    -0.000 C 
BRANCH  14  15
ATOM     15  C   UNL     1     -26.772 -52.171  53.250  1.00  0.00    -0.000 C 
BRANCH  15  16
ATOM     16  C   UNL     1     -25.693 -51.377  54.007  1.00  0.00    -0.000 C 
BRANCH  16  17
ATOM     17  C   UNL     1     -25.914 -51.367  55.528  1.00  0.00    -0.003 C 
ATOM     18  C   UNL     1     -25.234 -50.162  56.173  1.00  0.00     0.004 C 
ENDBRANCH  16  17
ENDBRANCH  15  16
ENDBRANCH  14  15
ENDBRANCH  13  14
ENDBRANCH  12  13
ENDBRANCH  11  12
ENDBRANCH   1  11
TORSDOF 14
ENDMDL
MODEL 6
REMARK VINA RESULT:    -3.156      1.610      3.493
REMARK INTER + INTRA:          -8.180
REMARK INTER:                  -6.320
REMARK INTRA:                  -1.861
REMARK UNBOUND:                -2.441
REMARK SMILES CCCCCCCCCCCCCCCC(=O)[O-]
REMARK SMILES IDX 9 1 10 2 11 3 12 4 13 5 14 6 15 7 16 8 17 9 18 10 8 11 7 12
REMARK SMILES IDX 6 13 5 14 4 15 3 16 2 17 1 18
REMARK H PARENT
REMARK Flexibility Score: inf
ROOT
ATOM      1  C   UNL     1     -29.547 -51.338  50.875  1.00  0.00     0.000 C 
ENDROOT
BRANCH   1   2
ATOM      2  C   UNL     1     -28.114 -51.860  51.103  1.00  0.00     0.000 C 
BRANCH   2   3
ATOM      3  C   UNL     1     -27.347 -51.133  52.228  1.00  0.00     0.000 C 
BRANCH   3   4
ATOM      4  C   UNL     1     -26.462 -52.070  53.075  1.00  0.00     0.000 C 
BRANCH   4   5
ATOM      5  C   UNL     1     -26.747 -53.565  52.842  1.00  0.00     0.000 C 
BRANCH   5   6
ATOM      6  C   UNL     1     -27.423 -54.232  54.054  1.00  0.00     0.006 C 
BRANCH   6   7
ATOM      7  C   UNL     1     -26.448 -54.431  55.222  1.00  0.00     0.053 C 
BRANCH   7   8
ATOM      8  C   UNL     1     -26.729 -53.481  56.346  1.00  0.00     0.041 C 
ATOM      9  O   UNL     1     -25.927 -52.544  56.601  1.00  0.00    -0.550 OA
ATOM     10  O   UNL     1     -27.861 -53.651  57.133  1.00  0.00    -0.550 OA
ENDBRANCH   7   8
ENDBRANCH   6   7
ENDBRANCH   5   6
ENDBRANCH   4   5
ENDBRANCH   3   4
ENDBRANCH   2   3
ENDBRANCH   1   2
BRANCH   1  11
ATOM     11  C   UNL     1     -30.643 -52.407  51.064  1.00  0.00     0.000 C 
BRANCH  11  12
ATOM     12  C   UNL     1     -30.302 -53.405  52.186  1.00  0.00    -0.000 C 
BRANCH  12  13
ATOM     13  C   UNL     1     -31.055 -54.737  52.046  1.00  0.00    -0.000 C 
BRANCH  13  14
ATOM     14  C   UNL     1     -30.109 -55.944  51.930  1.00  0.00    -0.000 C 
BRANCH  14  15
ATOM     15  C   UNL     1     -29.938 -56.702  53.258  1.00  0.00    -0.000 C 
BRANCH  15  16
ATOM     16  C   UNL     1     -30.990 -56.381  54.335  1.00  0.00    -0.000 C 
BRANCH  16  17
ATOM     17  C   UNL     1     -30.388 -55.706  55.577  1.00  0.00    -0.003 C 
ATOM     18  C   UNL     1     -29.450 -56.655  56.318  1.00  0.00     0.004 C 
ENDBRANCH  16  17
ENDBRANCH  15  16
ENDBRANCH  14  15
ENDBRANCH  13  14
ENDBRANCH  12  13
ENDBRANCH  11  12
ENDBRANCH   1  11
TORSDOF 14
ENDMDL
MODEL 7
REMARK VINA RESULT:    -3.043      2.100      4.137
REMARK INTER + INTRA:          -7.974
REMARK INTER:                  -5.699
REMARK INTRA:                  -2.275
REMARK UNBOUND:                -2.441
REMARK SMILES CCCCCCCCCCCCCCCC(=O)[O-]
REMARK SMILES IDX 9 1 10 2 11 3 12 4 13 5 14 6 15 7 16 8 17 9 18 10 8 11 7 12
REMARK SMILES IDX 6 13 5 14 4 15 3 16 2 17 1 18
REMARK H PARENT
REMARK Flexibility Score: inf
ROOT
ATOM      1  C   UNL     1     -26.088 -51.787  53.173  1.00  0.00     0.000 C 
ENDROOT
BRANCH   1   2
ATOM      2  C   UNL     1     -27.358 -51.498  52.347  1.00  0.00     0.000 C 
BRANCH   2   3
ATOM      3  C   UNL     1     -27.701 -52.588  51.311  1.00  0.00     0.000 C 
BRANCH   3   4
ATOM      4  C   UNL     1     -28.895 -53.473  51.721  1.00  0.00     0.000 C 
BRANCH   4   5
ATOM      5  C   UNL     1     -28.490 -54.894  52.155  1.00  0.00     0.000 C 
BRANCH   5   6
ATOM      6  C   UNL     1     -27.006 -55.194  51.875  1.00  0.00     0.006 C 
BRANCH   6   7
ATOM      7  C   UNL     1     -26.649 -56.659  52.163  1.00  0.00     0.053 C 
BRANCH   7   8
ATOM      8  C   UNL     1     -25.211 -56.813  52.551  1.00  0.00     0.041 C 
ATOM      9  O   UNL     1     -24.336 -57.035  51.673  1.00  0.00    -0.550 OA
ATOM     10  O   UNL     1     -24.841 -56.743  53.889  1.00  0.00    -0.550 OA
ENDBRANCH   7   8
ENDBRANCH   6   7
ENDBRANCH   5   6
ENDBRANCH   4   5
ENDBRANCH   3   4
ENDBRANCH   2   3
ENDBRANCH   1   2
BRANCH   1  11
ATOM     11  C   UNL     1     -26.348 -51.966  54.683  1.00  0.00     0.000 C 
BRANCH  11  12
ATOM     12  C   UNL     1     -26.637 -53.432  55.059  1.00  0.00    -0.000 C 
BRANCH  12  13
ATOM     13  C   UNL     1     -27.727 -53.565  56.134  1.00  0.00    -0.000 C 
BRANCH  13  14
ATOM     14  C   UNL     1     -28.595 -54.821  55.946  1.00  0.00    -0.000 C 
BRANCH  14  15
ATOM     15  C   UNL     1     -27.763 -56.093  55.701  1.00  0.00    -0.000 C 
BRANCH  15  16
ATOM     16  C   UNL     1     -28.573 -57.336  55.290  1.00  0.00    -0.000 C 
BRANCH  16  17
ATOM     17  C   UNL     1     -30.090 -57.102  55.329  1.00  0.00    -0.003 C 
ATOM     18  C   UNL     1     -30.714 -57.313  53.951  1.00  0.00     0.004 C 
ENDBRANCH  16  17
ENDBRANCH  15  16
ENDBRANCH  14  15
ENDBRANCH  13  14
ENDBRANCH  12  13
ENDBRANCH  11  12
ENDBRANCH   1  11
TORSDOF 14
ENDMDL
MODEL 8
REMARK VINA RESULT:    -3.039     10.928     14.013
REMARK INTER + INTRA:          -7.967
REMARK INTER:                  -5.477
REMARK INTRA:                  -2.490
REMARK UNBOUND:                -2.441
REMARK SMILES CCCCCCCCCCCCCCCC(=O)[O-]
REMARK SMILES IDX 9 1 10 2 11 3 12 4 13 5 14 6 15 7 16 8 17 9 18 10 8 11 7 12
REMARK SMILES IDX 6 13 5 14 4 15 3 16 2 17 1 18
REMARK H PARENT
REMARK Flexibility Score: inf
ROOT
ATOM      1  C   UNL     1     -21.989 -69.061  58.520  1.00  0.00     0.000 C 
ENDROOT
BRANCH   1   2
ATOM      2  C   UNL     1     -23.392 -69.124  59.156  1.00  0.00     0.000 C 
BRANCH   2   3
ATOM      3  C   UNL     1     -24.464 -68.305  58.407  1.00  0.00     0.000 C 
BRANCH   3   4
ATOM      4  C   UNL     1     -24.009 -66.875  58.050  1.00  0.00     0.000 C 
BRANCH   4   5
ATOM      5  C   UNL     1     -24.861 -66.213  56.952  1.00  0.00     0.000 C 
BRANCH   5   6
ATOM      6  C   UNL     1     -24.357 -64.806  56.584  1.00  0.00     0.006 C 
BRANCH   6   7
ATOM      7  C   UNL     1     -23.535 -64.172  57.714  1.00  0.00     0.053 C 
BRANCH   7   8
ATOM      8  C   UNL     1     -24.248 -63.009  58.333  1.00  0.00     0.041 C 
ATOM      9  O   UNL     1     -25.284 -63.195  59.025  1.00  0.00    -0.550 OA
ATOM     10  O   UNL     1     -23.787 -61.717  58.117  1.00  0.00    -0.550 OA
ENDBRANCH   7   8
ENDBRANCH   6   7
ENDBRANCH   5   6
ENDBRANCH   4   5
ENDBRANCH   3   4
ENDBRANCH   2   3
ENDBRANCH   1   2
BRANCH   1  11
ATOM     11  C   UNL     1     -20.866 -68.684  59.508  1.00  0.00     0.000 C 
BRANCH  11  12
ATOM     12  C   UNL     1     -19.880 -67.661  58.914  1.00  0.00    -0.000 C 
BRANCH  12  13
ATOM     13  C   UNL     1     -20.539 -66.307  58.609  1.00  0.00    -0.000 C 
BRANCH  13  14
ATOM     14  C   UNL     1     -20.281 -65.832  57.169  1.00  0.00    -0.000 C 
BRANCH  14  15
ATOM     15  C   UNL     1     -20.685 -66.876  56.113  1.00  0.00    -0.000 C 
BRANCH  15  16
ATOM     16  C   UNL     1     -21.314 -66.302  54.831  1.00  0.00    -0.000 C 
BRANCH  16  17
ATOM     17  C   UNL     1     -22.490 -67.143  54.312  1.00  0.00    -0.003 C 
ATOM     18  C   UNL     1     -22.544 -68.500  55.010  1.00  0.00     0.004 C 
ENDBRANCH  16  17
ENDBRANCH  15  16
ENDBRANCH  14  15
ENDBRANCH  13  14
ENDBRANCH  12  13
ENDBRANCH  11  12
ENDBRANCH   1  11
TORSDOF 14
ENDMDL
MODEL 9
REMARK VINA RESULT:    -2.979     11.501     14.201
REMARK INTER + INTRA:          -7.858
REMARK INTER:                  -5.298
REMARK INTRA:                  -2.560
REMARK UNBOUND:                -2.441
REMARK SMILES CCCCCCCCCCCCCCCC(=O)[O-]
REMARK SMILES IDX 9 1 10 2 11 3 12 4 13 5 14 6 15 7 16 8 17 9 18 10 8 11 7 12
REMARK SMILES IDX 6 13 5 14 4 15 3 16 2 17 1 18
REMARK H PARENT
REMARK Flexibility Score: inf
ROOT
ATOM      1  C   UNL     1     -23.087 -69.125  59.007  1.00  0.00     0.000 C 
ENDROOT
BRANCH   1   2
ATOM      2  C   UNL     1     -22.040 -69.064  57.876  1.00  0.00     0.000 C 
BRANCH   2   3
ATOM      3  C   UNL     1     -20.640 -68.603  58.333  1.00  0.00     0.000 C 
BRANCH   3   4
ATOM      4  C   UNL     1     -20.609 -67.151  58.854  1.00  0.00     0.000 C 
BRANCH   4   5
ATOM      5  C   UNL     1     -21.409 -66.166  57.982  1.00  0.00     0.000 C 
BRANCH   5   6
ATOM      6  C   UNL     1     -20.579 -64.936  57.570  1.00  0.00     0.006 C 
BRANCH   6   7
ATOM      7  C   UNL     1     -21.463 -63.771  57.106  1.00  0.00     0.053 C 
BRANCH   7   8
ATOM      8  C   UNL     1     -21.391 -62.610  58.049  1.00  0.00     0.041 C 
ATOM      9  O   UNL     1     -22.359 -61.810  58.147  1.00  0.00    -0.550 OA
ATOM     10  O   UNL     1     -20.240 -62.393  58.797  1.00  0.00    -0.550 OA
ENDBRANCH   7   8
ENDBRANCH   6   7
ENDBRANCH   5   6
ENDBRANCH   4   5
ENDBRANCH   3   4
ENDBRANCH   2   3
ENDBRANCH   1   2
BRANCH   1  11
ATOM     11  C   UNL     1     -24.333 -68.251  58.758  1.00  0.00     0.000 C 
BRANCH  11  12
ATOM     12  C   UNL     1     -24.611 -68.038  57.259  1.00  0.00    -0.000 C 
BRANCH  12  13
ATOM     13  C   UNL     1     -24.986 -66.586  56.924  1.00  0.00    -0.000 C 
BRANCH  13  14
ATOM     14  C   UNL     1     -24.210 -66.037  55.715  1.00  0.00    -0.000 C 
BRANCH  14  15
ATOM     15  C   UNL     1     -23.443 -67.129  54.949  1.00  0.00    -0.000 C 
BRANCH  15  16
ATOM     16  C   UNL     1     -22.058 -66.710  54.423  1.00  0.00    -0.000 C 
BRANCH  16  17
ATOM     17  C   UNL     1     -21.027 -67.848  54.478  1.00  0.00    -0.003 C 
ATOM     18  C   UNL     1     -19.640 -67.317  54.828  1.00  0.00     0.004 C 
ENDBRANCH  16  17
ENDBRANCH  15  16
ENDBRANCH  14  15
ENDBRANCH  13  14
ENDBRANCH  12  13
ENDBRANCH  11  12
ENDBRANCH   1  11
TORSDOF 14
ENDMDL
