MODEL 1
REMARK VINA RESULT:    -6.560      0.000      0.000
REMARK INTER + INTRA:          -6.560
REMARK INTER:                  -6.560
REMARK INTRA:                   0.000
REMARK UNBOUND:                 0.000
REMARK SMILES c1ccc2ccccc2c1
REMARK SMILES IDX 2 1 1 2 10 3 9 4 8 5 7 6 6 7 5 8 4 9 3 10
REMARK H PARENT
REMARK Flexibility Score: inf
ROOT
ATOM      1  C   UNL     1     143.429 132.583 136.986  1.00  0.00     0.001 A 
ATOM      2  C   UNL     1     142.065 132.683 137.272  1.00  0.00     0.001 A 
ATOM      3  C   UNL     1     141.617 132.643 138.596  1.00  0.00     0.009 A 
ATOM      4  C   UNL     1     142.539 132.504 139.645  1.00  0.00    -0.018 A 
ATOM      5  C   UNL     1     142.104 132.463 140.979  1.00  0.00     0.009 A 
ATOM      6  C   UNL     1     143.031 132.323 142.016  1.00  0.00     0.001 A 
ATOM      7  C   UNL     1     144.396 132.223 141.730  1.00  0.00     0.001 A 
ATOM      8  C   UNL     1     144.843 132.263 140.406  1.00  0.00     0.009 A 
ATOM      9  C   UNL     1     143.922 132.402 139.356  1.00  0.00    -0.018 A 
ATOM     10  C   UNL     1     144.357 132.444 138.023  1.00  0.00     0.009 A 
ENDROOT
TORSDOF 0
ENDMDL
MODEL 2
REMARK VINA RESULT:    -6.548      0.052      4.018
REMARK INTER + INTRA:          -6.548
REMARK INTER:                  -6.548
REMARK INTRA:                   0.000
REMARK UNBOUND:                 0.000
REMARK SMILES c1ccc2ccccc2c1
REMARK SMILES IDX 2 1 1 2 10 3 9 4 8 5 7 6 6 7 5 8 4 9 3 10
REMARK H PARENT
REMARK Flexibility Score: inf
ROOT
ATOM      1  C   UNL     1     143.032 132.400 142.034  1.00  0.00     0.001 A 
ATOM      2  C   UNL     1     144.397 132.277 141.758  1.00  0.00     0.001 A 
ATOM      3  C   UNL     1     144.853 132.287 140.436  1.00  0.00     0.009 A 
ATOM      4  C   UNL     1     143.940 132.423 139.378  1.00  0.00    -0.018 A 
ATOM      5  C   UNL     1     144.383 132.434 138.047  1.00  0.00     0.009 A 
ATOM      6  C   UNL     1     143.464 132.569 137.002  1.00  0.00     0.001 A 
ATOM      7  C   UNL     1     142.099 132.692 137.278  1.00  0.00     0.001 A 
ATOM      8  C   UNL     1     141.643 132.682 138.599  1.00  0.00     0.009 A 
ATOM      9  C   UNL     1     142.556 132.547 139.657  1.00  0.00    -0.018 A 
ATOM     10  C   UNL     1     142.113 132.535 140.989  1.00  0.00     0.009 A 
ENDROOT
TORSDOF 0
ENDMDL
MODEL 3
REMARK VINA RESULT:    -6.545      0.077      2.082
REMARK INTER + INTRA:          -6.545
REMARK INTER:                  -6.545
REMARK INTRA:                   0.000
REMARK UNBOUND:                 0.000
REMARK SMILES c1ccc2ccccc2c1
REMARK SMILES IDX 2 1 1 2 10 3 9 4 8 5 7 6 6 7 5 8 4 9 3 10
REMARK H PARENT
REMARK Flexibility Score: inf
ROOT
ATOM      1  C   UNL     1     142.124 132.734 137.312  1.00  0.00     0.001 A 
ATOM      2  C   UNL     1     143.484 132.591 137.024  1.00  0.00     0.001 A 
ATOM      3  C   UNL     1     144.410 132.421 138.057  1.00  0.00     0.009 A 
ATOM      4  C   UNL     1     143.977 132.392 139.392  1.00  0.00    -0.018 A 
ATOM      5  C   UNL     1     144.895 132.222 140.440  1.00  0.00     0.009 A 
ATOM      6  C   UNL     1     144.451 132.194 141.765  1.00  0.00     0.001 A 
ATOM      7  C   UNL     1     143.090 132.337 142.054  1.00  0.00     0.001 A 
ATOM      8  C   UNL     1     142.164 132.507 141.020  1.00  0.00     0.009 A 
ATOM      9  C   UNL     1     142.598 132.537 139.686  1.00  0.00    -0.018 A 
ATOM     10  C   UNL     1     141.680 132.707 138.638  1.00  0.00     0.009 A 
ENDROOT
TORSDOF 0
ENDMDL
MODEL 4
REMARK VINA RESULT:    -6.537      0.085      3.437
REMARK INTER + INTRA:          -6.537
REMARK INTER:                  -6.537
REMARK INTRA:                   0.000
REMARK UNBOUND:                 0.000
REMARK SMILES c1ccc2ccccc2c1
REMARK SMILES IDX 2 1 1 2 10 3 9 4 8 5 7 6 6 7 5 8 4 9 3 10
REMARK H PARENT
REMARK Flexibility Score: inf
ROOT
ATOM      1  C   UNL     1     144.396 132.244 141.795  1.00  0.00     0.001 A 
ATOM      2  C   UNL     1     143.036 132.406 142.071  1.00  0.00     0.001 A 
ATOM      3  C   UNL     1     142.119 132.569 141.028  1.00  0.00     0.009 A 
ATOM      4  C   UNL     1     142.562 132.569 139.696  1.00  0.00    -0.018 A 
ATOM      5  C   UNL     1     141.654 132.732 138.639  1.00  0.00     0.009 A 
ATOM      6  C   UNL     1     142.107 132.731 137.317  1.00  0.00     0.001 A 
ATOM      7  C   UNL     1     143.468 132.568 137.041  1.00  0.00     0.001 A 
ATOM      8  C   UNL     1     144.384 132.405 138.083  1.00  0.00     0.009 A 
ATOM      9  C   UNL     1     143.941 132.405 139.415  1.00  0.00    -0.018 A 
ATOM     10  C   UNL     1     144.850 132.242 140.472  1.00  0.00     0.009 A 
ENDROOT
TORSDOF 0
ENDMDL
MODEL 5
REMARK VINA RESULT:    -6.474      1.359      4.031
REMARK INTER + INTRA:          -6.474
REMARK INTER:                  -6.474
REMARK INTRA:                   0.000
REMARK UNBOUND:                 0.000
REMARK SMILES c1ccc2ccccc2c1
REMARK SMILES IDX 2 1 1 2 10 3 9 4 8 5 7 6 6 7 5 8 4 9 3 10
REMARK H PARENT
REMARK Flexibility Score: inf
ROOT
ATOM      1  C   UNL     1     143.284 132.545 139.787  1.00  0.00     0.001 A 
ATOM      2  C   UNL     1     141.993 132.734 139.285  1.00  0.00     0.001 A 
ATOM      3  C   UNL     1     141.768 132.751 137.906  1.00  0.00     0.009 A 
ATOM      4  C   UNL     1     142.839 132.576 137.016  1.00  0.00    -0.018 A 
ATOM      5  C   UNL     1     142.628 132.590 135.629  1.00  0.00     0.009 A 
ATOM      6  C   UNL     1     143.704 132.415 134.753  1.00  0.00     0.001 A 
ATOM      7  C   UNL     1     144.995 132.226 135.254  1.00  0.00     0.001 A 
ATOM      8  C   UNL     1     145.220 132.209 136.633  1.00  0.00     0.009 A 
ATOM      9  C   UNL     1     144.149 132.384 137.523  1.00  0.00    -0.018 A 
ATOM     10  C   UNL     1     144.360 132.369 138.910  1.00  0.00     0.009 A 
ENDROOT
TORSDOF 0
ENDMDL
MODEL 6
REMARK VINA RESULT:    -6.472      1.326      2.450
REMARK INTER + INTRA:          -6.472
REMARK INTER:                  -6.472
REMARK INTRA:                   0.000
REMARK UNBOUND:                 0.000
REMARK SMILES c1ccc2ccccc2c1
REMARK SMILES IDX 2 1 1 2 10 3 9 4 8 5 7 6 6 7 5 8 4 9 3 10
REMARK H PARENT
REMARK Flexibility Score: inf
ROOT
ATOM      1  C   UNL     1     144.889 132.223 135.268  1.00  0.00     0.001 A 
ATOM      2  C   UNL     1     143.580 132.375 134.800  1.00  0.00     0.001 A 
ATOM      3  C   UNL     1     142.522 132.523 135.700  1.00  0.00     0.009 A 
ATOM      4  C   UNL     1     142.769 132.523 137.082  1.00  0.00    -0.018 A 
ATOM      5  C   UNL     1     141.715 132.671 137.998  1.00  0.00     0.009 A 
ATOM      6  C   UNL     1     141.974 132.669 139.372  1.00  0.00     0.001 A 
ATOM      7  C   UNL     1     143.282 132.517 139.840  1.00  0.00     0.001 A 
ATOM      8  C   UNL     1     144.341 132.369 138.940  1.00  0.00     0.009 A 
ATOM      9  C   UNL     1     144.094 132.369 137.558  1.00  0.00    -0.018 A 
ATOM     10  C   UNL     1     145.147 132.221 136.642  1.00  0.00     0.009 A 
ENDROOT
TORSDOF 0
ENDMDL
MODEL 7
REMARK VINA RESULT:    -6.459      1.417      3.215
REMARK INTER + INTRA:          -6.459
REMARK INTER:                  -6.459
REMARK INTRA:                   0.000
REMARK UNBOUND:                 0.000
REMARK SMILES c1ccc2ccccc2c1
REMARK SMILES IDX 2 1 1 2 10 3 9 4 8 5 7 6 6 7 5 8 4 9 3 10
REMARK H PARENT
REMARK Flexibility Score: inf
ROOT
ATOM      1  C   UNL     1     143.555 132.382 134.648  1.00  0.00     0.001 A 
ATOM      2  C   UNL     1     144.875 132.255 135.089  1.00  0.00     0.001 A 
ATOM      3  C   UNL     1     145.163 132.247 136.457  1.00  0.00     0.009 A 
ATOM      4  C   UNL     1     144.125 132.366 137.395  1.00  0.00    -0.018 A 
ATOM      5  C   UNL     1     144.400 132.360 138.771  1.00  0.00     0.009 A 
ATOM      6  C   UNL     1     143.358 132.479 139.696  1.00  0.00     0.001 A 
ATOM      7  C   UNL     1     142.038 132.606 139.254  1.00  0.00     0.001 A 
ATOM      8  C   UNL     1     141.749 132.614 137.886  1.00  0.00     0.009 A 
ATOM      9  C   UNL     1     142.787 132.495 136.948  1.00  0.00    -0.018 A 
ATOM     10  C   UNL     1     142.513 132.501 135.572  1.00  0.00     0.009 A 
ENDROOT
TORSDOF 0
ENDMDL
MODEL 8
REMARK VINA RESULT:    -6.454      1.341      4.453
REMARK INTER + INTRA:          -6.454
REMARK INTER:                  -6.454
REMARK INTRA:                   0.000
REMARK UNBOUND:                 0.000
REMARK SMILES c1ccc2ccccc2c1
REMARK SMILES IDX 2 1 1 2 10 3 9 4 8 5 7 6 6 7 5 8 4 9 3 10
REMARK H PARENT
REMARK Flexibility Score: inf
ROOT
ATOM      1  C   UNL     1     142.006 132.732 139.348  1.00  0.00     0.001 A 
ATOM      2  C   UNL     1     143.308 132.540 139.819  1.00  0.00     0.001 A 
ATOM      3  C   UNL     1     144.364 132.362 138.920  1.00  0.00     0.009 A 
ATOM      4  C   UNL     1     144.121 132.378 137.538  1.00  0.00    -0.018 A 
ATOM      5  C   UNL     1     145.171 132.200 136.624  1.00  0.00     0.009 A 
ATOM      6  C   UNL     1     144.916 132.217 135.249  1.00  0.00     0.001 A 
ATOM      7  C   UNL     1     143.614 132.409 134.778  1.00  0.00     0.001 A 
ATOM      8  C   UNL     1     142.558 132.587 135.677  1.00  0.00     0.009 A 
ATOM      9  C   UNL     1     142.801 132.572 137.059  1.00  0.00    -0.018 A 
ATOM     10  C   UNL     1     141.751 132.749 137.973  1.00  0.00     0.009 A 
ENDROOT
TORSDOF 0
ENDMDL
MODEL 9
REMARK VINA RESULT:    -6.326      1.281      3.050
REMARK INTER + INTRA:          -6.326
REMARK INTER:                  -6.326
REMARK INTRA:                   0.000
REMARK UNBOUND:                 0.000
REMARK SMILES c1ccc2ccccc2c1
REMARK SMILES IDX 2 1 1 2 10 3 9 4 8 5 7 6 6 7 5 8 4 9 3 10
REMARK H PARENT
REMARK Flexibility Score: inf
ROOT
ATOM      1  C   UNL     1     143.057 132.388 139.079  1.00  0.00     0.001 A 
ATOM      2  C   UNL     1     144.389 132.375 139.504  1.00  0.00     0.001 A 
ATOM      3  C   UNL     1     144.693 132.397 140.868  1.00  0.00     0.009 A 
ATOM      4  C   UNL     1     143.661 132.430 141.819  1.00  0.00    -0.018 A 
ATOM      5  C   UNL     1     143.952 132.453 143.191  1.00  0.00     0.009 A 
ATOM      6  C   UNL     1     142.914 132.486 144.129  1.00  0.00     0.001 A 
ATOM      7  C   UNL     1     141.583 132.499 143.703  1.00  0.00     0.001 A 
ATOM      8  C   UNL     1     141.278 132.477 142.339  1.00  0.00     0.009 A 
ATOM      9  C   UNL     1     142.311 132.444 141.388  1.00  0.00    -0.018 A 
ATOM     10  C   UNL     1     142.020 132.421 140.016  1.00  0.00     0.009 A 
ENDROOT
TORSDOF 0
ENDMDL
