MODEL 1
REMARK VINA RESULT:    -4.462      0.000      0.000
REMARK INTER + INTRA:         -11.192
REMARK INTER:                  -8.374
REMARK INTRA:                  -2.818
REMARK UNBOUND:                -2.818
REMARK SMILES CCCCCCCCC=CCCCCCCCC(=O)[O-]
REMARK SMILES IDX 10 1 9 2 11 3 12 4 13 5 14 6 15 7 16 8 17 9 18 10 19 11
REMARK SMILES IDX 20 12 8 13 7 14 6 15 5 16 4 17 3 18 2 19 1 20
REMARK H PARENT
REMARK Flexibility Score: inf
ROOT
ATOM      1  C   UNL     1      13.928  24.117  35.662  1.00  0.00    -0.031 C 
ATOM      2  C   UNL     1      12.833  24.871  35.876  1.00  0.00    -0.031 C 
ENDROOT
BRANCH   1   3
ATOM      3  C   UNL     1      14.418  23.030  36.582  1.00  0.00     0.027 C 
BRANCH   3   4
ATOM      4  C   UNL     1      15.128  21.920  35.797  1.00  0.00     0.004 C 
BRANCH   4   5
ATOM      5  C   UNL     1      15.429  22.373  34.362  1.00  0.00     0.000 C 
BRANCH   5   6
ATOM      6  C   UNL     1      16.935  22.443  34.059  1.00  0.00     0.000 C 
BRANCH   6   7
ATOM      7  C   UNL     1      17.859  22.233  35.276  1.00  0.00     0.000 C 
BRANCH   7   8
ATOM      8  C   UNL     1      18.473  23.517  35.860  1.00  0.00     0.006 C 
BRANCH   8   9
ATOM      9  C   UNL     1      18.751  24.582  34.793  1.00  0.00     0.053 C 
BRANCH   9  10
ATOM     10  C   UNL     1      18.002  25.840  35.102  1.00  0.00     0.041 C 
ATOM     11  O   UNL     1      16.785  25.946  34.795  1.00  0.00    -0.550 OA
ATOM     12  O   UNL     1      18.634  26.875  35.782  1.00  0.00    -0.550 OA
ENDBRANCH   9  10
ENDBRANCH   8   9
ENDBRANCH   7   8
ENDBRANCH   6   7
ENDBRANCH   5   6
ENDBRANCH   4   5
ENDBRANCH   3   4
ENDBRANCH   1   3
BRANCH   2  13
ATOM     13  C   UNL     1      11.889  24.719  37.047  1.00  0.00     0.027 C 
BRANCH  13  14
ATOM     14  C   UNL     1      10.568  24.069  36.618  1.00  0.00     0.004 C 
BRANCH  14  15
ATOM     15  C   UNL     1      10.442  22.625  37.134  1.00  0.00     0.000 C 
BRANCH  15  16
ATOM     16  C   UNL     1      10.289  21.603  35.998  1.00  0.00     0.000 C 
BRANCH  16  17
ATOM     17  C   UNL     1      11.639  21.016  35.547  1.00  0.00    -0.000 C 
BRANCH  17  18
ATOM     18  C   UNL     1      11.911  21.245  34.051  1.00  0.00    -0.000 C 
BRANCH  18  19
ATOM     19  C   UNL     1      10.768  21.995  33.352  1.00  0.00    -0.003 C 
ATOM     20  C   UNL     1      11.232  23.361  32.854  1.00  0.00     0.004 C 
ENDBRANCH  18  19
ENDBRANCH  17  18
ENDBRANCH  16  17
ENDBRANCH  15  16
ENDBRANCH  14  15
ENDBRANCH  13  14
ENDBRANCH   2  13
TORSDOF 15
ENDMDL
MODEL 2
REMARK VINA RESULT:    -4.447      3.148      6.654
REMARK INTER + INTRA:         -11.165
REMARK INTER:                  -8.437
REMARK INTRA:                  -2.728
REMARK UNBOUND:                -2.818
REMARK SMILES CCCCCCCCC=CCCCCCCCC(=O)[O-]
REMARK SMILES IDX 10 1 9 2 11 3 12 4 13 5 14 6 15 7 16 8 17 9 18 10 19 11
REMARK SMILES IDX 20 12 8 13 7 14 6 15 5 16 4 17 3 18 2 19 1 20
REMARK H PARENT
REMARK Flexibility Score: inf
ROOT
ATOM      1  C   UNL     1      16.131  23.013  34.051  1.00  0.00    -0.031 C 
ATOM      2  C   UNL     1      16.152  24.360  34.045  1.00  0.00    -0.031 C 
ENDROOT
BRANCH   1   3
ATOM      3  C   UNL     1      15.549  22.167  35.153  1.00  0.00     0.027 C 
BRANCH   3   4
ATOM      4  C   UNL     1      14.214  21.544  34.724  1.00  0.00     0.004 C 
BRANCH   4   5
ATOM      5  C   UNL     1      13.147  21.740  35.809  1.00  0.00     0.000 C 
BRANCH   5   6
ATOM      6  C   UNL     1      12.906  23.220  36.152  1.00  0.00     0.000 C 
BRANCH   6   7
ATOM      7  C   UNL     1      11.505  23.756  35.797  1.00  0.00     0.000 C 
BRANCH   7   8
ATOM      8  C   UNL     1      11.423  24.551  34.481  1.00  0.00     0.006 C 
BRANCH   8   9
ATOM      9  C   UNL     1      11.841  23.724  33.261  1.00  0.00     0.053 C 
BRANCH   9  10
ATOM     10  C   UNL     1      10.727  22.819  32.836  1.00  0.00     0.041 C 
ATOM     11  O   UNL     1       9.798  23.255  32.105  1.00  0.00    -0.550 OA
ATOM     12  O   UNL     1      10.745  21.478  33.201  1.00  0.00    -0.550 OA
ENDBRANCH   9  10
ENDBRANCH   8   9
ENDBRANCH   7   8
ENDBRANCH   6   7
ENDBRANCH   5   6
ENDBRANCH   4   5
ENDBRANCH   3   4
ENDBRANCH   1   3
BRANCH   2  13
ATOM     13  C   UNL     1      15.554  25.243  35.115  1.00  0.00     0.027 C 
BRANCH  13  14
ATOM     14  C   UNL     1      16.643  25.990  35.895  1.00  0.00     0.004 C 
BRANCH  14  15
ATOM     15  C   UNL     1      16.671  25.582  37.378  1.00  0.00     0.000 C 
BRANCH  15  16
ATOM     16  C   UNL     1      17.482  24.301  37.624  1.00  0.00     0.000 C 
BRANCH  16  17
ATOM     17  C   UNL     1      18.801  24.277  36.830  1.00  0.00    -0.000 C 
BRANCH  17  18
ATOM     18  C   UNL     1      19.101  22.895  36.227  1.00  0.00    -0.000 C 
BRANCH  18  19
ATOM     19  C   UNL     1      19.832  22.987  34.879  1.00  0.00    -0.003 C 
ATOM     20  C   UNL     1      19.771  24.404  34.317  1.00  0.00     0.004 C 
ENDBRANCH  18  19
ENDBRANCH  17  18
ENDBRANCH  16  17
ENDBRANCH  15  16
ENDBRANCH  14  15
ENDBRANCH  13  14
ENDBRANCH   2  13
TORSDOF 15
ENDMDL
MODEL 3
REMARK VINA RESULT:    -4.419     10.776     12.407
REMARK INTER + INTRA:         -11.112
REMARK INTER:                  -8.558
REMARK INTRA:                  -2.554
REMARK UNBOUND:                -2.818
REMARK SMILES CCCCCCCCC=CCCCCCCCC(=O)[O-]
REMARK SMILES IDX 10 1 9 2 11 3 12 4 13 5 14 6 15 7 16 8 17 9 18 10 19 11
REMARK SMILES IDX 20 12 8 13 7 14 6 15 5 16 4 17 3 18 2 19 1 20
REMARK H PARENT
REMARK Flexibility Score: inf
ROOT
ATOM      1  C   UNL     1      17.543  14.338  30.688  1.00  0.00    -0.031 C 
ATOM      2  C   UNL     1      16.248  14.703  30.646  1.00  0.00    -0.031 C 
ENDROOT
BRANCH   1   3
ATOM      3  C   UNL     1      18.129  13.162  29.951  1.00  0.00     0.027 C 
BRANCH   3   4
ATOM      4  C   UNL     1      18.526  12.043  30.924  1.00  0.00     0.004 C 
BRANCH   4   5
ATOM      5  C   UNL     1      17.311  11.179  31.287  1.00  0.00     0.000 C 
BRANCH   5   6
ATOM      6  C   UNL     1      16.750  11.490  32.685  1.00  0.00     0.000 C 
BRANCH   6   7
ATOM      7  C   UNL     1      17.808  11.654  33.795  1.00  0.00     0.000 C 
BRANCH   7   8
ATOM      8  C   UNL     1      17.802  13.018  34.508  1.00  0.00     0.006 C 
BRANCH   8   9
ATOM      9  C   UNL     1      19.007  13.889  34.134  1.00  0.00     0.053 C 
BRANCH   9  10
ATOM     10  C   UNL     1      20.161  13.603  35.041  1.00  0.00     0.041 C 
ATOM     11  O   UNL     1      20.019  13.669  36.291  1.00  0.00    -0.550 OA
ATOM     12  O   UNL     1      21.382  13.206  34.507  1.00  0.00    -0.550 OA
ENDBRANCH   9  10
ENDBRANCH   8   9
ENDBRANCH   7   8
ENDBRANCH   6   7
ENDBRANCH   5   6
ENDBRANCH   4   5
ENDBRANCH   3   4
ENDBRANCH   1   3
BRANCH   2  13
ATOM     13  C   UNL     1      15.180  14.026  29.818  1.00  0.00     0.027 C 
BRANCH  13  14
ATOM     14  C   UNL     1      14.756  14.901  28.631  1.00  0.00     0.004 C 
BRANCH  14  15
ATOM     15  C   UNL     1      15.942  15.238  27.712  1.00  0.00     0.000 C 
BRANCH  15  16
ATOM     16  C   UNL     1      15.957  14.389  26.431  1.00  0.00     0.000 C 
BRANCH  16  17
ATOM     17  C   UNL     1      17.008  13.266  26.480  1.00  0.00    -0.000 C 
BRANCH  17  18
ATOM     18  C   UNL     1      16.385  11.868  26.343  1.00  0.00    -0.000 C 
BRANCH  18  19
ATOM     19  C   UNL     1      15.926  11.292  27.691  1.00  0.00    -0.003 C 
ATOM     20  C   UNL     1      14.482  10.805  27.617  1.00  0.00     0.004 C 
ENDBRANCH  18  19
ENDBRANCH  17  18
ENDBRANCH  16  17
ENDBRANCH  15  16
ENDBRANCH  14  15
ENDBRANCH  13  14
ENDBRANCH   2  13
TORSDOF 15
ENDMDL
MODEL 4
REMARK VINA RESULT:    -4.398      2.282      6.253
REMARK INTER + INTRA:         -11.072
REMARK INTER:                  -8.108
REMARK INTRA:                  -2.964
REMARK UNBOUND:                -2.818
REMARK SMILES CCCCCCCCC=CCCCCCCCC(=O)[O-]
REMARK SMILES IDX 10 1 9 2 11 3 12 4 13 5 14 6 15 7 16 8 17 9 18 10 19 11
REMARK SMILES IDX 20 12 8 13 7 14 6 15 5 16 4 17 3 18 2 19 1 20
REMARK H PARENT
REMARK Flexibility Score: inf
ROOT
ATOM      1  C   UNL     1      15.302  22.968  34.653  1.00  0.00    -0.031 C 
ATOM      2  C   UNL     1      15.690  24.222  34.352  1.00  0.00    -0.031 C 
ENDROOT
BRANCH   1   3
ATOM      3  C   UNL     1      14.644  22.560  35.945  1.00  0.00     0.027 C 
BRANCH   3   4
ATOM      4  C   UNL     1      13.399  21.702  35.683  1.00  0.00     0.004 C 
BRANCH   4   5
ATOM      5  C   UNL     1      13.105  21.612  34.179  1.00  0.00     0.000 C 
BRANCH   5   6
ATOM      6  C   UNL     1      11.635  21.909  33.838  1.00  0.00     0.000 C 
BRANCH   6   7
ATOM      7  C   UNL     1      11.388  23.246  33.110  1.00  0.00     0.000 C 
BRANCH   7   8
ATOM      8  C   UNL     1      10.786  24.363  33.981  1.00  0.00     0.006 C 
BRANCH   8   9
ATOM      9  C   UNL     1      11.842  25.110  34.803  1.00  0.00     0.053 C 
BRANCH   9  10
ATOM     10  C   UNL     1      11.664  24.829  36.262  1.00  0.00     0.041 C 
ATOM     11  O   UNL     1      10.748  24.059  36.654  1.00  0.00    -0.550 OA
ATOM     12  O   UNL     1      12.547  25.376  37.187  1.00  0.00    -0.550 OA
ENDBRANCH   9  10
ENDBRANCH   8   9
ENDBRANCH   7   8
ENDBRANCH   6   7
ENDBRANCH   5   6
ENDBRANCH   4   5
ENDBRANCH   3   4
ENDBRANCH   1   3
BRANCH   2  13
ATOM     13  C   UNL     1      15.487  25.432  35.235  1.00  0.00     0.027 C 
BRANCH  13  14
ATOM     14  C   UNL     1      16.825  25.983  35.743  1.00  0.00     0.004 C 
BRANCH  14  15
ATOM     15  C   UNL     1      17.056  25.657  37.228  1.00  0.00     0.000 C 
BRANCH  15  16
ATOM     16  C   UNL     1      17.619  24.243  37.441  1.00  0.00     0.000 C 
BRANCH  16  17
ATOM     17  C   UNL     1      18.934  24.010  36.676  1.00  0.00    -0.000 C 
BRANCH  17  18
ATOM     18  C   UNL     1      18.883  22.759  35.784  1.00  0.00    -0.000 C 
BRANCH  18  19
ATOM     19  C   UNL     1      19.168  23.074  34.308  1.00  0.00    -0.003 C 
ATOM     20  C   UNL     1      19.814  24.449  34.157  1.00  0.00     0.004 C 
ENDBRANCH  18  19
ENDBRANCH  17  18
ENDBRANCH  16  17
ENDBRANCH  15  16
ENDBRANCH  14  15
ENDBRANCH  13  14
ENDBRANCH   2  13
TORSDOF 15
ENDMDL
MODEL 5
REMARK VINA RESULT:    -4.381     11.007     12.880
REMARK INTER + INTRA:         -11.041
REMARK INTER:                  -8.507
REMARK INTRA:                  -2.533
REMARK UNBOUND:                -2.818
REMARK SMILES CCCCCCCCC=CCCCCCCCC(=O)[O-]
REMARK SMILES IDX 10 1 9 2 11 3 12 4 13 5 14 6 15 7 16 8 17 9 18 10 19 11
REMARK SMILES IDX 20 12 8 13 7 14 6 15 5 16 4 17 3 18 2 19 1 20
REMARK H PARENT
REMARK Flexibility Score: inf
ROOT
ATOM      1  C   UNL     1      15.270  10.578  28.492  1.00  0.00    -0.031 C 
ATOM      2  C   UNL     1      15.594  11.017  27.260  1.00  0.00    -0.031 C 
ENDROOT
BRANCH   1   3
ATOM      3  C   UNL     1      16.264  10.181  29.552  1.00  0.00     0.027 C 
BRANCH   3   4
ATOM      4  C   UNL     1      16.371  11.257  30.640  1.00  0.00     0.004 C 
BRANCH   4   5
ATOM      5  C   UNL     1      17.822  11.414  31.112  1.00  0.00     0.000 C 
BRANCH   5   6
ATOM      6  C   UNL     1      18.120  12.812  31.681  1.00  0.00     0.000 C 
BRANCH   6   7
ATOM      7  C   UNL     1      17.139  13.301  32.766  1.00  0.00     0.000 C 
BRANCH   7   8
ATOM      8  C   UNL     1      17.687  13.273  34.204  1.00  0.00     0.006 C 
BRANCH   8   9
ATOM      9  C   UNL     1      18.968  12.442  34.335  1.00  0.00     0.053 C 
BRANCH   9  10
ATOM     10  C   UNL     1      20.114  13.310  34.748  1.00  0.00     0.041 C 
ATOM     11  O   UNL     1      21.180  13.318  34.076  1.00  0.00    -0.550 OA
ATOM     12  O   UNL     1      19.986  14.155  35.844  1.00  0.00    -0.550 OA
ENDBRANCH   9  10
ENDBRANCH   8   9
ENDBRANCH   7   8
ENDBRANCH   6   7
ENDBRANCH   5   6
ENDBRANCH   4   5
ENDBRANCH   3   4
ENDBRANCH   1   3
BRANCH   2  13
ATOM     13  C   UNL     1      17.003  11.230  26.756  1.00  0.00     0.027 C 
BRANCH  13  14
ATOM     14  C   UNL     1      17.474  12.668  27.008  1.00  0.00     0.004 C 
BRANCH  14  15
ATOM     15  C   UNL     1      16.565  13.701  26.323  1.00  0.00     0.000 C 
BRANCH  15  16
ATOM     16  C   UNL     1      16.092  14.802  27.284  1.00  0.00     0.000 C 
BRANCH  16  17
ATOM     17  C   UNL     1      16.351  14.449  28.759  1.00  0.00    -0.000 C 
BRANCH  17  18
ATOM     18  C   UNL     1      15.070  14.479  29.607  1.00  0.00    -0.000 C 
BRANCH  18  19
ATOM     19  C   UNL     1      13.802  14.636  28.754  1.00  0.00    -0.003 C 
ATOM     20  C   UNL     1      12.951  13.370  28.798  1.00  0.00     0.004 C 
ENDBRANCH  18  19
ENDBRANCH  17  18
ENDBRANCH  16  17
ENDBRANCH  15  16
ENDBRANCH  14  15
ENDBRANCH  13  14
ENDBRANCH   2  13
TORSDOF 15
ENDMDL
MODEL 6
REMARK VINA RESULT:    -4.375     11.061     12.771
REMARK INTER + INTRA:         -11.029
REMARK INTER:                  -8.231
REMARK INTRA:                  -2.798
REMARK UNBOUND:                -2.818
REMARK SMILES CCCCCCCCC=CCCCCCCCC(=O)[O-]
REMARK SMILES IDX 10 1 9 2 11 3 12 4 13 5 14 6 15 7 16 8 17 9 18 10 19 11
REMARK SMILES IDX 20 12 8 13 7 14 6 15 5 16 4 17 3 18 2 19 1 20
REMARK H PARENT
REMARK Flexibility Score: inf
ROOT
ATOM      1  C   UNL     1      17.281  10.937  29.417  1.00  0.00    -0.031 C 
ATOM      2  C   UNL     1      15.987  11.024  29.057  1.00  0.00    -0.031 C 
ENDROOT
BRANCH   1   3
ATOM      3  C   UNL     1      17.869  11.539  30.666  1.00  0.00     0.027 C 
BRANCH   3   4
ATOM      4  C   UNL     1      18.251  13.008  30.444  1.00  0.00     0.004 C 
BRANCH   4   5
ATOM      5  C   UNL     1      17.471  13.924  31.398  1.00  0.00     0.000 C 
BRANCH   5   6
ATOM      6  C   UNL     1      16.964  13.191  32.651  1.00  0.00     0.000 C 
BRANCH   6   7
ATOM      7  C   UNL     1      17.322  13.862  33.993  1.00  0.00     0.000 C 
BRANCH   7   8
ATOM      8  C   UNL     1      18.245  13.039  34.910  1.00  0.00     0.006 C 
BRANCH   8   9
ATOM      9  C   UNL     1      18.740  11.748  34.249  1.00  0.00     0.053 C 
BRANCH   9  10
ATOM     10  C   UNL     1      20.184  11.872  33.876  1.00  0.00     0.041 C 
ATOM     11  O   UNL     1      20.810  10.879  33.419  1.00  0.00    -0.550 OA
ATOM     12  O   UNL     1      20.825  13.101  33.981  1.00  0.00    -0.550 OA
ENDBRANCH   9  10
ENDBRANCH   8   9
ENDBRANCH   7   8
ENDBRANCH   6   7
ENDBRANCH   5   6
ENDBRANCH   4   5
ENDBRANCH   3   4
ENDBRANCH   1   3
BRANCH   2  13
ATOM     13  C   UNL     1      14.902  11.695  29.869  1.00  0.00     0.027 C 
BRANCH  13  14
ATOM     14  C   UNL     1      14.083  12.666  29.010  1.00  0.00     0.004 C 
BRANCH  14  15
ATOM     15  C   UNL     1      14.267  14.127  29.456  1.00  0.00     0.000 C 
BRANCH  15  16
ATOM     16  C   UNL     1      14.794  15.027  28.328  1.00  0.00     0.000 C 
BRANCH  16  17
ATOM     17  C   UNL     1      16.225  14.657  27.897  1.00  0.00    -0.000 C 
BRANCH  17  18
ATOM     18  C   UNL     1      16.315  14.287  26.408  1.00  0.00    -0.000 C 
BRANCH  18  19
ATOM     19  C   UNL     1      17.172  13.035  26.163  1.00  0.00    -0.003 C 
ATOM     20  C   UNL     1      16.360  11.942  25.473  1.00  0.00     0.004 C 
ENDBRANCH  18  19
ENDBRANCH  17  18
ENDBRANCH  16  17
ENDBRANCH  15  16
ENDBRANCH  14  15
ENDBRANCH  13  14
ENDBRANCH   2  13
TORSDOF 15
ENDMDL
MODEL 7
REMARK VINA RESULT:    -4.374     11.143     12.857
REMARK INTER + INTRA:         -11.027
REMARK INTER:                  -8.159
REMARK INTRA:                  -2.868
REMARK UNBOUND:                -2.818
REMARK SMILES CCCCCCCCC=CCCCCCCCC(=O)[O-]
REMARK SMILES IDX 10 1 9 2 11 3 12 4 13 5 14 6 15 7 16 8 17 9 18 10 19 11
REMARK SMILES IDX 20 12 8 13 7 14 6 15 5 16 4 17 3 18 2 19 1 20
REMARK H PARENT
REMARK Flexibility Score: inf
ROOT
ATOM      1  C   UNL     1      17.492  13.947  31.132  1.00  0.00    -0.031 C 
ATOM      2  C   UNL     1      17.971  13.293  30.057  1.00  0.00    -0.031 C 
ENDROOT
BRANCH   1   3
ATOM      3  C   UNL     1      16.790  13.294  32.293  1.00  0.00     0.027 C 
BRANCH   3   4
ATOM      4  C   UNL     1      17.110  14.014  33.609  1.00  0.00     0.004 C 
BRANCH   4   5
ATOM      5  C   UNL     1      18.039  13.162  34.486  1.00  0.00     0.000 C 
BRANCH   5   6
ATOM      6  C   UNL     1      19.461  13.740  34.590  1.00  0.00     0.000 C 
BRANCH   6   7
ATOM      7  C   UNL     1      20.581  12.823  34.060  1.00  0.00     0.000 C 
BRANCH   7   8
ATOM      8  C   UNL     1      20.261  12.092  32.744  1.00  0.00     0.006 C 
BRANCH   8   9
ATOM      9  C   UNL     1      20.499  10.580  32.831  1.00  0.00     0.053 C 
BRANCH   9  10
ATOM     10  C   UNL     1      19.301   9.894  33.409  1.00  0.00     0.041 C 
ATOM     11  O   UNL     1      19.240   9.654  34.644  1.00  0.00    -0.550 OA
ATOM     12  O   UNL     1      18.225   9.570  32.590  1.00  0.00    -0.550 OA
ENDBRANCH   9  10
ENDBRANCH   8   9
ENDBRANCH   7   8
ENDBRANCH   6   7
ENDBRANCH   5   6
ENDBRANCH   4   5
ENDBRANCH   3   4
ENDBRANCH   1   3
BRANCH   2  13
ATOM     13  C   UNL     1      17.928  11.795  29.860  1.00  0.00     0.027 C 
BRANCH  13  14
ATOM     14  C   UNL     1      16.860  11.398  28.832  1.00  0.00     0.004 C 
BRANCH  14  15
ATOM     15  C   UNL     1      15.567  10.908  29.505  1.00  0.00     0.000 C 
BRANCH  15  16
ATOM     16  C   UNL     1      14.513  12.018  29.638  1.00  0.00     0.000 C 
BRANCH  16  17
ATOM     17  C   UNL     1      14.515  12.981  28.437  1.00  0.00    -0.000 C 
BRANCH  17  18
ATOM     18  C   UNL     1      14.569  14.457  28.865  1.00  0.00    -0.000 C 
BRANCH  18  19
ATOM     19  C   UNL     1      15.584  15.271  28.048  1.00  0.00    -0.003 C 
ATOM     20  C   UNL     1      16.166  14.437  26.910  1.00  0.00     0.004 C 
ENDBRANCH  18  19
ENDBRANCH  17  18
ENDBRANCH  16  17
ENDBRANCH  15  16
ENDBRANCH  14  15
ENDBRANCH  13  14
ENDBRANCH   2  13
TORSDOF 15
ENDMDL
MODEL 8
REMARK VINA RESULT:    -4.305     11.053     13.376
REMARK INTER + INTRA:         -10.898
REMARK INTER:                  -8.556
REMARK INTRA:                  -2.343
REMARK UNBOUND:                -2.818
REMARK SMILES CCCCCCCCC=CCCCCCCCC(=O)[O-]
REMARK SMILES IDX 10 1 9 2 11 3 12 4 13 5 14 6 15 7 16 8 17 9 18 10 19 11
REMARK SMILES IDX 20 12 8 13 7 14 6 15 5 16 4 17 3 18 2 19 1 20
REMARK H PARENT
REMARK Flexibility Score: inf
ROOT
ATOM      1  C   UNL     1      18.962  11.360  32.175  1.00  0.00    -0.031 C 
ATOM      2  C   UNL     1      19.860  10.483  32.664  1.00  0.00    -0.031 C 
ENDROOT
BRANCH   1   3
ATOM      3  C   UNL     1      17.468  11.166  32.204  1.00  0.00     0.027 C 
BRANCH   3   4
ATOM      4  C   UNL     1      16.758  12.432  32.702  1.00  0.00     0.004 C 
BRANCH   4   5
ATOM      5  C   UNL     1      17.624  13.675  32.461  1.00  0.00     0.000 C 
BRANCH   5   6
ATOM      6  C   UNL     1      17.180  14.486  31.232  1.00  0.00     0.000 C 
BRANCH   6   7
ATOM      7  C   UNL     1      17.619  13.908  29.872  1.00  0.00     0.000 C 
BRANCH   7   8
ATOM      8  C   UNL     1      16.485  13.702  28.852  1.00  0.00     0.006 C 
BRANCH   8   9
ATOM      9  C   UNL     1      15.951  15.021  28.282  1.00  0.00     0.053 C 
BRANCH   9  10
ATOM     10  C   UNL     1      14.457  14.989  28.200  1.00  0.00     0.041 C 
ATOM     11  O   UNL     1      13.790  14.308  29.024  1.00  0.00    -0.550 OA
ATOM     12  O   UNL     1      13.798  15.757  27.248  1.00  0.00    -0.550 OA
ENDBRANCH   9  10
ENDBRANCH   8   9
ENDBRANCH   7   8
ENDBRANCH   6   7
ENDBRANCH   5   6
ENDBRANCH   4   5
ENDBRANCH   3   4
ENDBRANCH   1   3
BRANCH   2  13
ATOM     13  C   UNL     1      19.518   9.189  33.366  1.00  0.00     0.027 C 
BRANCH  13  14
ATOM     14  C   UNL     1      20.245   9.075  34.712  1.00  0.00     0.004 C 
BRANCH  14  15
ATOM     15  C   UNL     1      19.263   8.921  35.885  1.00  0.00     0.000 C 
BRANCH  15  16
ATOM     16  C   UNL     1      18.167   9.997  35.885  1.00  0.00     0.000 C 
BRANCH  16  17
ATOM     17  C   UNL     1      18.593  11.273  36.634  1.00  0.00    -0.000 C 
BRANCH  17  18
ATOM     18  C   UNL     1      18.490  12.532  35.759  1.00  0.00    -0.000 C 
BRANCH  18  19
ATOM     19  C   UNL     1      19.680  13.484  35.953  1.00  0.00    -0.003 C 
ATOM     20  C   UNL     1      20.711  13.305  34.842  1.00  0.00     0.004 C 
ENDBRANCH  18  19
ENDBRANCH  17  18
ENDBRANCH  16  17
ENDBRANCH  15  16
ENDBRANCH  14  15
ENDBRANCH  13  14
ENDBRANCH   2  13
TORSDOF 15
ENDMDL
MODEL 9
REMARK VINA RESULT:    -4.300     11.069     12.623
REMARK INTER + INTRA:         -10.889
REMARK INTER:                  -8.414
REMARK INTRA:                  -2.476
REMARK UNBOUND:                -2.818
REMARK SMILES CCCCCCCCC=CCCCCCCCC(=O)[O-]
REMARK SMILES IDX 10 1 9 2 11 3 12 4 13 5 14 6 15 7 16 8 17 9 18 10 19 11
REMARK SMILES IDX 20 12 8 13 7 14 6 15 5 16 4 17 3 18 2 19 1 20
REMARK H PARENT
REMARK Flexibility Score: inf
ROOT
ATOM      1  C   UNL     1      17.418  14.283  30.597  1.00  0.00    -0.031 C 
ATOM      2  C   UNL     1      16.580  14.678  29.620  1.00  0.00    -0.031 C 
ENDROOT
BRANCH   1   3
ATOM      3  C   UNL     1      16.987  13.805  31.958  1.00  0.00     0.027 C 
BRANCH   3   4
ATOM      4  C   UNL     1      16.787  12.284  31.972  1.00  0.00     0.004 C 
BRANCH   4   5
ATOM      5  C   UNL     1      17.769  11.596  31.014  1.00  0.00     0.000 C 
BRANCH   5   6
ATOM      6  C   UNL     1      18.851  10.784  31.746  1.00  0.00     0.000 C 
BRANCH   6   7
ATOM      7  C   UNL     1      20.093  11.588  32.181  1.00  0.00     0.000 C 
BRANCH   7   8
ATOM      8  C   UNL     1      20.264  11.754  33.701  1.00  0.00     0.006 C 
BRANCH   8   9
ATOM      9  C   UNL     1      20.206  13.219  34.149  1.00  0.00     0.053 C 
BRANCH   9  10
ATOM     10  C   UNL     1      19.340  13.361  35.361  1.00  0.00     0.041 C 
ATOM     11  O   UNL     1      19.818  13.815  36.434  1.00  0.00    -0.550 OA
ATOM     12  O   UNL     1      17.988  13.045  35.288  1.00  0.00    -0.550 OA
ENDBRANCH   9  10
ENDBRANCH   8   9
ENDBRANCH   7   8
ENDBRANCH   6   7
ENDBRANCH   5   6
ENDBRANCH   4   5
ENDBRANCH   3   4
ENDBRANCH   1   3
BRANCH   2  13
ATOM     13  C   UNL     1      15.071  14.661  29.709  1.00  0.00     0.027 C 
BRANCH  13  14
ATOM     14  C   UNL     1      14.455  13.827  28.578  1.00  0.00     0.004 C 
BRANCH  14  15
ATOM     15  C   UNL     1      14.704  12.322  28.770  1.00  0.00     0.000 C 
BRANCH  15  16
ATOM     16  C   UNL     1      15.268  11.650  27.509  1.00  0.00     0.000 C 
BRANCH  16  17
ATOM     17  C   UNL     1      16.801  11.518  27.546  1.00  0.00    -0.000 C 
BRANCH  17  18
ATOM     18  C   UNL     1      17.507  12.620  26.740  1.00  0.00    -0.000 C 
BRANCH  18  19
ATOM     19  C   UNL     1      16.650  13.141  25.577  1.00  0.00    -0.003 C 
ATOM     20  C   UNL     1      16.998  12.425  24.275  1.00  0.00     0.004 C 
ENDBRANCH  18  19
ENDBRANCH  17  18
ENDBRANCH  16  17
ENDBRANCH  15  16
ENDBRANCH  14  15
ENDBRANCH  13  14
ENDBRANCH   2  13
TORSDOF 15
ENDMDL
