MODEL 1
REMARK VINA RESULT:   115.821      0.000      0.000
REMARK INTER + INTRA:         171.337
REMARK INTER:                 169.989
REMARK INTRA:                   1.348
REMARK UNBOUND:                 1.348
REMARK SMILES Cc1cc2c(C(C)C)c(O)c(O)c(C=O)c2c(O)c1-c1c(C)cc2c(C(C)C)c(O)c(O)c(C=O)c2c1O
REMARK SMILES IDX 1 1 2 2 3 3 4 4 16 5 13 6 11 7 9 8 5 9 17 10 19 11 20 12
REMARK SMILES IDX 37 13 21 14 36 15 23 16 22 17 24 18 33 19 25 20 31 21 29 22
REMARK SMILES IDX 38 23 34 25 35 26 26 27 27 28 28 29 32 30 30 32 18 34 6 36
REMARK SMILES IDX 7 37 8 38 14 39 15 40 10 41 12 43
REMARK H PARENT 38 24 32 31 30 33 18 35 10 42 12 44
REMARK Flexibility Score: inf
ROOT
ATOM      1  C   UNL     1     -12.902  13.520 -15.155  1.00  0.00     0.045 C 
ATOM      2  C   UNL     1     -11.427  13.769 -15.359  1.00  0.00    -0.039 A 
ATOM      3  C   UNL     1     -10.940  13.958 -16.653  1.00  0.00     0.013 A 
ATOM      4  C   UNL     1      -9.582  14.252 -16.906  1.00  0.00    -0.006 A 
ATOM      5  C   UNL     1      -8.661  14.245 -15.812  1.00  0.00     0.039 A 
ATOM      6  C   UNL     1      -7.274  14.456 -16.077  1.00  0.00     0.072 A 
ATOM      7  C   UNL     1      -6.822  14.576 -17.408  1.00  0.00     0.169 A 
ATOM      8  C   UNL     1      -7.730  14.554 -18.470  1.00  0.00     0.162 A 
ATOM      9  C   UNL     1      -9.120  14.518 -18.234  1.00  0.00     0.008 A 
ATOM     10  C   UNL     1      -9.155  13.985 -14.496  1.00  0.00     0.132 A 
ATOM     11  C   UNL     1     -10.534  13.774 -14.277  1.00  0.00     0.031 A 
ENDROOT
BRANCH  11  12
ATOM     12  C   UNL     1     -11.040  13.537 -12.898  1.00  0.00     0.031 A 
ATOM     13  C   UNL     1     -10.836  12.286 -12.277  1.00  0.00     0.132 A 
ATOM     14  C   UNL     1     -11.700  14.566 -12.208  1.00  0.00    -0.039 A 
ATOM     15  C   UNL     1     -11.364  12.030 -10.977  1.00  0.00     0.039 A 
ATOM     16  C   UNL     1     -12.125  14.351 -10.897  1.00  0.00     0.013 A 
ATOM     17  C   UNL     1     -11.926  15.915 -12.849  1.00  0.00     0.045 C 
ATOM     18  C   UNL     1     -12.005  13.091 -10.267  1.00  0.00    -0.006 A 
ATOM     19  C   UNL     1     -11.233  10.760 -10.343  1.00  0.00     0.072 A 
ATOM     20  C   UNL     1     -12.475  12.881  -8.934  1.00  0.00     0.008 A 
ATOM     21  C   UNL     1     -11.555  10.617  -8.982  1.00  0.00     0.169 A 
ATOM     22  C   UNL     1     -12.091  11.700  -8.262  1.00  0.00     0.162 A 
BRANCH  13  23
ATOM     23  O   UNL     1     -10.071  11.314 -12.933  1.00  0.00    -0.507 OA
ATOM     24  H   UNL     1      -9.200  11.507 -13.410  1.00  0.00     0.293 HD
ENDBRANCH  13  23
BRANCH  19  25
ATOM     25  C   UNL     1     -10.851   9.539 -11.096  1.00  0.00     0.264 C 
ATOM     26  O   UNL     1     -11.487   9.178 -12.121  1.00  0.00    -0.298 OA
ENDBRANCH  19  25
BRANCH  20  27
ATOM     27  C   UNL     1     -13.337  13.925  -8.201  1.00  0.00     0.017 C 
ATOM     28  C   UNL     1     -14.793  13.864  -8.675  1.00  0.00     0.012 C 
ATOM     29  C   UNL     1     -12.782  15.360  -8.283  1.00  0.00     0.012 C 
ENDBRANCH  20  27
BRANCH  21  30
ATOM     30  O   UNL     1     -11.379   9.369  -8.375  1.00  0.00    -0.504 OA
ATOM     31  H   UNL     1     -11.245   8.504  -8.880  1.00  0.00     0.293 HD
ENDBRANCH  21  30
BRANCH  22  32
ATOM     32  O   UNL     1     -12.241  11.626  -6.875  1.00  0.00    -0.504 OA
ATOM     33  H   UNL     1     -12.805  10.934  -6.402  1.00  0.00     0.293 HD
ENDBRANCH  22  32
ENDBRANCH  11  12
BRANCH  10  34
ATOM     34  O   UNL     1      -8.275  13.910 -13.409  1.00  0.00    -0.507 OA
ATOM     35  H   UNL     1      -8.291  14.545 -12.622  1.00  0.00     0.293 HD
ENDBRANCH  10  34
BRANCH   9  36
ATOM     36  C   UNL     1     -10.096  14.741 -19.406  1.00  0.00     0.017 C 
ATOM     37  C   UNL     1      -9.640  13.968 -20.648  1.00  0.00     0.012 C 
ATOM     38  C   UNL     1     -10.351  16.224 -19.732  1.00  0.00     0.012 C 
ENDBRANCH   9  36
BRANCH   6  39
ATOM     39  C   UNL     1      -6.278  14.566 -14.989  1.00  0.00     0.264 C 
ATOM     40  O   UNL     1      -6.299  13.767 -14.015  1.00  0.00    -0.298 OA
ENDBRANCH   6  39
BRANCH   8  41
ATOM     41  O   UNL     1      -7.246  14.577 -19.781  1.00  0.00    -0.504 OA
ATOM     42  H   UNL     1      -6.944  15.425 -20.244  1.00  0.00     0.293 HD
ENDBRANCH   8  41
BRANCH   7  43
ATOM     43  O   UNL     1      -5.468  14.760 -17.714  1.00  0.00    -0.504 OA
ATOM     44  H   UNL     1      -4.706  14.339 -17.199  1.00  0.00     0.293 HD
ENDBRANCH   7  43
TORSDOF 11
ENDMDL
MODEL 2
REMARK VINA RESULT:   116.066      2.272      9.141
REMARK INTER + INTRA:         171.696
REMARK INTER:                 169.839
REMARK INTRA:                   1.857
REMARK UNBOUND:                 1.348
REMARK SMILES Cc1cc2c(C(C)C)c(O)c(O)c(C=O)c2c(O)c1-c1c(C)cc2c(C(C)C)c(O)c(O)c(C=O)c2c1O
REMARK SMILES IDX 1 1 2 2 3 3 4 4 16 5 13 6 11 7 9 8 5 9 17 10 19 11 20 12
REMARK SMILES IDX 37 13 21 14 36 15 23 16 22 17 24 18 33 19 25 20 31 21 29 22
REMARK SMILES IDX 38 23 34 25 35 26 26 27 27 28 28 29 32 30 30 32 18 34 6 36
REMARK SMILES IDX 7 37 8 38 14 39 15 40 10 41 12 43
REMARK H PARENT 38 24 32 31 30 33 18 35 10 42 12 44
REMARK Flexibility Score: inf
ROOT
ATOM      1  C   UNL     1     -13.418  13.675 -15.734  1.00  0.00     0.045 C 
ATOM      2  C   UNL     1     -12.481  13.471 -14.568  1.00  0.00    -0.039 A 
ATOM      3  C   UNL     1     -13.005  13.406 -13.276  1.00  0.00     0.013 A 
ATOM      4  C   UNL     1     -12.190  13.158 -12.149  1.00  0.00    -0.006 A 
ATOM      5  C   UNL     1     -10.773  13.085 -12.329  1.00  0.00     0.039 A 
ATOM      6  C   UNL     1      -9.941  12.922 -11.180  1.00  0.00     0.072 A 
ATOM      7  C   UNL     1     -10.513  12.927  -9.890  1.00  0.00     0.169 A 
ATOM      8  C   UNL     1     -11.897  13.028  -9.729  1.00  0.00     0.162 A 
ATOM      9  C   UNL     1     -12.759  13.018 -10.845  1.00  0.00     0.008 A 
ATOM     10  C   UNL     1     -10.236  13.219 -13.646  1.00  0.00     0.132 A 
ATOM     11  C   UNL     1     -11.093  13.386 -14.756  1.00  0.00     0.031 A 
ENDROOT
BRANCH  11  12
ATOM     12  C   UNL     1     -10.524  13.492 -16.126  1.00  0.00     0.031 A 
ATOM     13  C   UNL     1     -10.227  14.760 -16.671  1.00  0.00     0.132 A 
ATOM     14  C   UNL     1     -10.262  12.329 -16.867  1.00  0.00    -0.039 A 
ATOM     15  C   UNL     1      -9.731  14.877 -18.004  1.00  0.00     0.039 A 
ATOM     16  C   UNL     1      -9.680  12.436 -18.131  1.00  0.00     0.013 A 
ATOM     17  C   UNL     1     -10.566  10.961 -16.305  1.00  0.00     0.045 C 
ATOM     18  C   UNL     1      -9.435  13.688 -18.739  1.00  0.00    -0.006 A 
ATOM     19  C   UNL     1      -9.479  16.142 -18.609  1.00  0.00     0.072 A 
ATOM     20  C   UNL     1      -8.868  13.779 -20.048  1.00  0.00     0.008 A 
ATOM     21  C   UNL     1      -8.775  16.211 -19.825  1.00  0.00     0.169 A 
ATOM     22  C   UNL     1      -8.397  15.033 -20.493  1.00  0.00     0.162 A 
BRANCH  13  23
ATOM     23  O   UNL     1     -10.381  15.900 -15.873  1.00  0.00    -0.507 OA
ATOM     24  H   UNL     1     -10.927  16.708 -16.141  1.00  0.00     0.293 HD
ENDBRANCH  13  23
BRANCH  19  25
ATOM     25  C   UNL     1     -10.016  17.406 -18.047  1.00  0.00     0.264 C 
ATOM     26  O   UNL     1      -9.270  18.220 -17.441  1.00  0.00    -0.298 OA
ENDBRANCH  19  25
BRANCH  20  27
ATOM     27  C   UNL     1      -8.709  12.543 -20.953  1.00  0.00     0.017 C 
ATOM     28  C   UNL     1      -7.507  12.701 -21.890  1.00  0.00     0.012 C 
ATOM     29  C   UNL     1      -9.985  12.176 -21.736  1.00  0.00     0.012 C 
ENDBRANCH  20  27
BRANCH  21  30
ATOM     30  O   UNL     1      -8.506  17.468 -20.378  1.00  0.00    -0.504 OA
ATOM     31  H   UNL     1      -8.579  17.684 -21.362  1.00  0.00     0.293 HD
ENDBRANCH  21  30
BRANCH  22  32
ATOM     32  O   UNL     1      -7.543  15.087 -21.599  1.00  0.00    -0.504 OA
ATOM     33  H   UNL     1      -6.545  14.942 -21.551  1.00  0.00     0.293 HD
ENDBRANCH  22  32
ENDBRANCH  11  12
BRANCH  10  34
ATOM     34  O   UNL     1      -8.851  13.213 -13.853  1.00  0.00    -0.507 OA
ATOM     35  H   UNL     1      -8.288  12.374 -13.896  1.00  0.00     0.293 HD
ENDBRANCH  10  34
BRANCH   9  36
ATOM     36  C   UNL     1     -14.279  12.882 -10.629  1.00  0.00     0.017 C 
ATOM     37  C   UNL     1     -15.027  12.956 -11.965  1.00  0.00     0.012 C 
ATOM     38  C   UNL     1     -14.857  13.881  -9.609  1.00  0.00     0.012 C 
ENDBRANCH   9  36
BRANCH   6  39
ATOM     39  C   UNL     1      -8.479  12.734 -11.294  1.00  0.00     0.264 C 
ATOM     40  O   UNL     1      -7.770  13.567 -11.919  1.00  0.00    -0.298 OA
ENDBRANCH   6  39
BRANCH   8  41
ATOM     41  O   UNL     1     -12.427  13.128  -8.439  1.00  0.00    -0.504 OA
ATOM     42  H   UNL     1     -13.172  13.769  -8.196  1.00  0.00     0.293 HD
ENDBRANCH   8  41
BRANCH   7  43
ATOM     43  O   UNL     1      -9.731  12.795  -8.736  1.00  0.00    -0.504 OA
ATOM     44  H   UNL     1      -9.534  13.549  -8.091  1.00  0.00     0.293 HD
ENDBRANCH   7  43
TORSDOF 11
ENDMDL
MODEL 3
REMARK VINA RESULT:   116.531      2.212      8.953
REMARK INTER + INTRA:         172.378
REMARK INTER:                 170.330
REMARK INTRA:                   2.048
REMARK UNBOUND:                 1.348
REMARK SMILES Cc1cc2c(C(C)C)c(O)c(O)c(C=O)c2c(O)c1-c1c(C)cc2c(C(C)C)c(O)c(O)c(C=O)c2c1O
REMARK SMILES IDX 1 1 2 2 3 3 4 4 16 5 13 6 11 7 9 8 5 9 17 10 19 11 20 12
REMARK SMILES IDX 37 13 21 14 36 15 23 16 22 17 24 18 33 19 25 20 31 21 29 22
REMARK SMILES IDX 38 23 34 25 35 26 26 27 27 28 28 29 32 30 30 32 18 34 6 36
REMARK SMILES IDX 7 37 8 38 14 39 15 40 10 41 12 43
REMARK H PARENT 38 24 32 31 30 33 18 35 10 42 12 44
REMARK Flexibility Score: inf
ROOT
ATOM      1  C   UNL     1      -9.055   9.376 -13.625  1.00  0.00     0.045 C 
ATOM      2  C   UNL     1      -9.688  10.095 -12.458  1.00  0.00    -0.039 A 
ATOM      3  C   UNL     1     -10.026   9.371 -11.314  1.00  0.00     0.013 A 
ATOM      4  C   UNL     1     -10.567   9.994 -10.167  1.00  0.00    -0.006 A 
ATOM      5  C   UNL     1     -10.880  11.388 -10.224  1.00  0.00     0.039 A 
ATOM      6  C   UNL     1     -11.508  12.000  -9.097  1.00  0.00     0.072 A 
ATOM      7  C   UNL     1     -11.889  11.213  -7.990  1.00  0.00     0.169 A 
ATOM      8  C   UNL     1     -11.602   9.846  -7.959  1.00  0.00     0.162 A 
ATOM      9  C   UNL     1     -10.834   9.244  -8.978  1.00  0.00     0.008 A 
ATOM     10  C   UNL     1     -10.593  12.111 -11.423  1.00  0.00     0.132 A 
ATOM     11  C   UNL     1      -9.978  11.467 -12.519  1.00  0.00     0.031 A 
ENDROOT
BRANCH  11  12
ATOM     12  C   UNL     1      -9.655  12.238 -13.749  1.00  0.00     0.031 A 
ATOM     13  C   UNL     1     -10.212  11.856 -14.988  1.00  0.00     0.132 A 
ATOM     14  C   UNL     1      -8.812  13.358 -13.672  1.00  0.00    -0.039 A 
ATOM     15  C   UNL     1      -9.867  12.554 -16.183  1.00  0.00     0.039 A 
ATOM     16  C   UNL     1      -8.556  14.105 -14.822  1.00  0.00     0.013 A 
ATOM     17  C   UNL     1      -8.207  13.790 -12.357  1.00  0.00     0.045 C 
ATOM     18  C   UNL     1      -9.036  13.714 -16.093  1.00  0.00    -0.006 A 
ATOM     19  C   UNL     1     -10.360  12.160 -17.461  1.00  0.00     0.072 A 
ATOM     20  C   UNL     1      -8.737  14.474 -17.265  1.00  0.00     0.008 A 
ATOM     21  C   UNL     1     -10.190  13.005 -18.571  1.00  0.00     0.169 A 
ATOM     22  C   UNL     1      -9.456  14.198 -18.449  1.00  0.00     0.162 A 
BRANCH  13  23
ATOM     23  O   UNL     1     -11.144  10.812 -15.026  1.00  0.00    -0.507 OA
ATOM     24  H   UNL     1     -12.009  10.844 -15.551  1.00  0.00     0.293 HD
ENDBRANCH  13  23
BRANCH  19  25
ATOM     25  C   UNL     1     -10.978  10.830 -17.691  1.00  0.00     0.264 C 
ATOM     26  O   UNL     1     -12.226  10.698 -17.790  1.00  0.00    -0.298 OA
ENDBRANCH  19  25
BRANCH  20  27
ATOM     27  C   UNL     1      -7.700  15.612 -17.254  1.00  0.00     0.017 C 
ATOM     28  C   UNL     1      -6.487  15.239 -16.395  1.00  0.00     0.012 C 
ATOM     29  C   UNL     1      -8.279  16.980 -16.842  1.00  0.00     0.012 C 
ENDBRANCH  20  27
BRANCH  21  30
ATOM     30  O   UNL     1     -10.719  12.612 -19.806  1.00  0.00    -0.504 OA
ATOM     31  H   UNL     1     -10.632  13.146 -20.658  1.00  0.00     0.293 HD
ENDBRANCH  21  30
BRANCH  22  32
ATOM     32  O   UNL     1      -9.436  15.130 -19.490  1.00  0.00    -0.504 OA
ATOM     33  H   UNL     1     -10.137  15.845 -19.625  1.00  0.00     0.293 HD
ENDBRANCH  22  32
ENDBRANCH  11  12
BRANCH  10  34
ATOM     34  O   UNL     1     -10.941  13.463 -11.538  1.00  0.00    -0.507 OA
ATOM     35  H   UNL     1     -11.455  13.978 -10.836  1.00  0.00     0.293 HD
ENDBRANCH  10  34
BRANCH   9  36
ATOM     36  C   UNL     1     -10.328   7.800  -8.795  1.00  0.00     0.017 C 
ATOM     37  C   UNL     1      -9.550   7.658  -7.482  1.00  0.00     0.012 C 
ATOM     38  C   UNL     1      -9.513   7.268  -9.988  1.00  0.00     0.012 C 
ENDBRANCH   9  36
BRANCH   6  39
ATOM     39  C   UNL     1     -11.767  13.455  -9.041  1.00  0.00     0.264 C 
ATOM     40  O   UNL     1     -12.944  13.901  -9.091  1.00  0.00    -0.298 OA
ENDBRANCH   6  39
BRANCH   8  41
ATOM     41  O   UNL     1     -12.077   9.074  -6.896  1.00  0.00    -0.504 OA
ATOM     42  H   UNL     1     -11.504   8.403  -6.399  1.00  0.00     0.293 HD
ENDBRANCH   8  41
BRANCH   7  43
ATOM     43  O   UNL     1     -12.528  11.769  -6.875  1.00  0.00    -0.504 OA
ATOM     44  H   UNL     1     -12.113  11.838  -5.955  1.00  0.00     0.293 HD
ENDBRANCH   7  43
TORSDOF 11
ENDMDL
MODEL 4
REMARK VINA RESULT:   116.792      1.591      2.973
REMARK INTER + INTRA:         172.761
REMARK INTER:                 170.906
REMARK INTRA:                   1.855
REMARK UNBOUND:                 1.348
REMARK SMILES Cc1cc2c(C(C)C)c(O)c(O)c(C=O)c2c(O)c1-c1c(C)cc2c(C(C)C)c(O)c(O)c(C=O)c2c1O
REMARK SMILES IDX 1 1 2 2 3 3 4 4 16 5 13 6 11 7 9 8 5 9 17 10 19 11 20 12
REMARK SMILES IDX 37 13 21 14 36 15 23 16 22 17 24 18 33 19 25 20 31 21 29 22
REMARK SMILES IDX 38 23 34 25 35 26 26 27 27 28 28 29 32 30 30 32 18 34 6 36
REMARK SMILES IDX 7 37 8 38 14 39 15 40 10 41 12 43
REMARK H PARENT 38 24 32 31 30 33 18 35 10 42 12 44
REMARK Flexibility Score: inf
ROOT
ATOM      1  C   UNL     1     -12.705  13.413 -14.749  1.00  0.00     0.045 C 
ATOM      2  C   UNL     1     -11.246  13.674 -15.037  1.00  0.00    -0.039 A 
ATOM      3  C   UNL     1     -10.843  13.917 -16.351  1.00  0.00     0.013 A 
ATOM      4  C   UNL     1      -9.504  14.226 -16.679  1.00  0.00    -0.006 A 
ATOM      5  C   UNL     1      -8.515  14.177 -15.647  1.00  0.00     0.039 A 
ATOM      6  C   UNL     1      -7.148  14.403 -15.992  1.00  0.00     0.072 A 
ATOM      7  C   UNL     1      -6.783  14.578 -17.343  1.00  0.00     0.169 A 
ATOM      8  C   UNL     1      -7.757  14.595 -18.344  1.00  0.00     0.162 A 
ATOM      9  C   UNL     1      -9.129  14.546 -18.021  1.00  0.00     0.008 A 
ATOM     10  C   UNL     1      -8.923  13.863 -14.314  1.00  0.00     0.132 A 
ATOM     11  C   UNL     1     -10.285  13.640 -14.015  1.00  0.00     0.031 A 
ENDROOT
BRANCH  11  12
ATOM     12  C   UNL     1     -10.701  13.345 -12.617  1.00  0.00     0.031 A 
ATOM     13  C   UNL     1     -11.533  14.250 -11.923  1.00  0.00     0.132 A 
ATOM     14  C   UNL     1     -10.284  12.156 -11.998  1.00  0.00    -0.039 A 
ATOM     15  C   UNL     1     -11.894  14.005 -10.565  1.00  0.00     0.039 A 
ATOM     16  C   UNL     1     -10.722  11.864 -10.706  1.00  0.00     0.013 A 
ATOM     17  C   UNL     1      -9.399  11.169 -12.721  1.00  0.00     0.045 C 
ATOM     18  C   UNL     1     -11.495  12.777  -9.952  1.00  0.00    -0.006 A 
ATOM     19  C   UNL     1     -12.680  14.925  -9.812  1.00  0.00     0.072 A 
ATOM     20  C   UNL     1     -11.908  12.475  -8.618  1.00  0.00     0.008 A 
ATOM     21  C   UNL     1     -13.209  14.543  -8.567  1.00  0.00     0.169 A 
ATOM     22  C   UNL     1     -12.893  13.289  -8.016  1.00  0.00     0.162 A 
BRANCH  13  23
ATOM     23  O   UNL     1     -12.037  15.370 -12.596  1.00  0.00    -0.507 OA
ATOM     24  H   UNL     1     -12.388  16.197 -12.132  1.00  0.00     0.293 HD
ENDBRANCH  13  23
BRANCH  19  25
ATOM     25  C   UNL     1     -12.892  16.326 -10.255  1.00  0.00     0.264 C 
ATOM     26  O   UNL     1     -11.944  17.018 -10.708  1.00  0.00    -0.298 OA
ENDBRANCH  19  25
BRANCH  20  27
ATOM     27  C   UNL     1     -11.350  11.263  -7.849  1.00  0.00     0.017 C 
ATOM     28  C   UNL     1     -12.393  10.705  -6.876  1.00  0.00     0.012 C 
ATOM     29  C   UNL     1     -10.011  11.538  -7.138  1.00  0.00     0.012 C 
ENDBRANCH  20  27
BRANCH  21  30
ATOM     30  O   UNL     1     -14.011  15.452  -7.867  1.00  0.00    -0.504 OA
ATOM     31  H   UNL     1     -15.008  15.351  -7.741  1.00  0.00     0.293 HD
ENDBRANCH  21  30
BRANCH  22  32
ATOM     32  O   UNL     1     -13.554  12.826  -6.875  1.00  0.00    -0.504 OA
ATOM     33  H   UNL     1     -14.528  13.002  -6.674  1.00  0.00     0.293 HD
ENDBRANCH  22  32
ENDBRANCH  11  12
BRANCH  10  34
ATOM     34  O   UNL     1      -7.975  13.748 -13.289  1.00  0.00    -0.507 OA
ATOM     35  H   UNL     1      -7.297  13.000 -13.225  1.00  0.00     0.293 HD
ENDBRANCH  10  34
BRANCH   9  36
ATOM     36  C   UNL     1     -10.179  14.812 -19.118  1.00  0.00     0.017 C 
ATOM     37  C   UNL     1      -9.802  14.093 -20.418  1.00  0.00     0.012 C 
ATOM     38  C   UNL     1     -10.457  16.307 -19.366  1.00  0.00     0.012 C 
ENDBRANCH   9  36
BRANCH   6  39
ATOM     39  C   UNL     1      -6.084  14.472 -14.967  1.00  0.00     0.264 C 
ATOM     40  O   UNL     1      -5.228  13.554 -14.865  1.00  0.00    -0.298 OA
ENDBRANCH   6  39
BRANCH   8  41
ATOM     41  O   UNL     1      -7.359  14.673 -19.682  1.00  0.00    -0.504 OA
ATOM     42  H   UNL     1      -7.363  15.536 -20.211  1.00  0.00     0.293 HD
ENDBRANCH   8  41
BRANCH   7  43
ATOM     43  O   UNL     1      -5.452  14.778 -17.728  1.00  0.00    -0.504 OA
ATOM     44  H   UNL     1      -5.152  15.461 -18.411  1.00  0.00     0.293 HD
ENDBRANCH   7  43
TORSDOF 11
ENDMDL
MODEL 5
REMARK VINA RESULT:   116.879      0.250      8.832
REMARK INTER + INTRA:         172.889
REMARK INTER:                 172.918
REMARK INTRA:                  -0.030
REMARK UNBOUND:                 1.348
REMARK SMILES Cc1cc2c(C(C)C)c(O)c(O)c(C=O)c2c(O)c1-c1c(C)cc2c(C(C)C)c(O)c(O)c(C=O)c2c1O
REMARK SMILES IDX 1 1 2 2 3 3 4 4 16 5 13 6 11 7 9 8 5 9 17 10 19 11 20 12
REMARK SMILES IDX 37 13 21 14 36 15 23 16 22 17 24 18 33 19 25 20 31 21 29 22
REMARK SMILES IDX 38 23 34 25 35 26 26 27 27 28 28 29 32 30 30 32 18 34 6 36
REMARK SMILES IDX 7 37 8 38 14 39 15 40 10 41 12 43
REMARK H PARENT 38 24 32 31 30 33 18 35 10 42 12 44
REMARK Flexibility Score: inf
ROOT
ATOM      1  C   UNL     1     -11.676  15.931 -12.617  1.00  0.00     0.045 C 
ATOM      2  C   UNL     1     -11.524  14.540 -12.049  1.00  0.00    -0.039 A 
ATOM      3  C   UNL     1     -11.935  14.289 -10.739  1.00  0.00     0.013 A 
ATOM      4  C   UNL     1     -11.875  12.998 -10.170  1.00  0.00    -0.006 A 
ATOM      5  C   UNL     1     -11.271  11.942 -10.922  1.00  0.00     0.039 A 
ATOM      6  C   UNL     1     -11.129  10.657 -10.315  1.00  0.00     0.072 A 
ATOM      7  C   UNL     1     -11.500  10.472  -8.966  1.00  0.00     0.169 A 
ATOM      8  C   UNL     1     -12.063  11.520  -8.235  1.00  0.00     0.162 A 
ATOM      9  C   UNL     1     -12.373  12.750  -8.852  1.00  0.00     0.008 A 
ATOM     10  C   UNL     1     -10.791  12.221 -12.239  1.00  0.00     0.132 A 
ATOM     11  C   UNL     1     -10.943  13.507 -12.801  1.00  0.00     0.031 A 
ENDROOT
BRANCH  11  12
ATOM     12  C   UNL     1     -10.469  13.775 -14.185  1.00  0.00     0.031 A 
ATOM     13  C   UNL     1      -9.087  13.889 -14.448  1.00  0.00     0.132 A 
ATOM     14  C   UNL     1     -11.397  13.892 -15.232  1.00  0.00    -0.039 A 
ATOM     15  C   UNL     1      -8.624  14.200 -15.761  1.00  0.00     0.039 A 
ATOM     16  C   UNL     1     -10.940  14.092 -16.535  1.00  0.00     0.013 A 
ATOM     17  C   UNL     1     -12.880  13.769 -14.978  1.00  0.00     0.045 C 
ATOM     18  C   UNL     1      -9.570  14.284 -16.828  1.00  0.00    -0.006 A 
ATOM     19  C   UNL     1      -7.241  14.385 -16.052  1.00  0.00     0.072 A 
ATOM     20  C   UNL     1      -9.124  14.520 -18.165  1.00  0.00     0.008 A 
ATOM     21  C   UNL     1      -6.807  14.455 -17.388  1.00  0.00     0.169 A 
ATOM     22  C   UNL     1      -7.741  14.434 -18.439  1.00  0.00     0.162 A 
BRANCH  13  23
ATOM     23  O   UNL     1      -8.173  13.650 -13.415  1.00  0.00    -0.507 OA
ATOM     24  H   UNL     1      -8.395  13.735 -12.432  1.00  0.00     0.293 HD
ENDBRANCH  13  23
BRANCH  19  25
ATOM     25  C   UNL     1      -6.233  14.601 -14.984  1.00  0.00     0.264 C 
ATOM     26  O   UNL     1      -5.504  13.659 -14.575  1.00  0.00    -0.298 OA
ENDBRANCH  19  25
BRANCH  20  27
ATOM     27  C   UNL     1     -10.108  14.808 -19.313  1.00  0.00     0.017 C 
ATOM     28  C   UNL     1      -9.674  14.098 -20.599  1.00  0.00     0.012 C 
ATOM     29  C   UNL     1     -10.357  16.310 -19.559  1.00  0.00     0.012 C 
ENDBRANCH  20  27
BRANCH  21  30
ATOM     30  O   UNL     1      -5.439  14.596 -17.646  1.00  0.00    -0.504 OA
ATOM     31  H   UNL     1      -4.801  13.822 -17.767  1.00  0.00     0.293 HD
ENDBRANCH  21  30
BRANCH  22  32
ATOM     32  O   UNL     1      -7.315  14.318 -19.765  1.00  0.00    -0.504 OA
ATOM     33  H   UNL     1      -7.304  13.450 -20.283  1.00  0.00     0.293 HD
ENDBRANCH  22  32
ENDBRANCH  11  12
BRANCH  10  34
ATOM     34  O   UNL     1     -10.139  11.228 -12.982  1.00  0.00    -0.507 OA
ATOM     35  H   UNL     1      -9.964  10.291 -12.646  1.00  0.00     0.293 HD
ENDBRANCH  10  34
BRANCH   9  36
ATOM     36  C   UNL     1     -13.213  13.793  -8.089  1.00  0.00     0.017 C 
ATOM     37  C   UNL     1     -14.640  13.853  -8.643  1.00  0.00     0.012 C 
ATOM     38  C   UNL     1     -12.573  15.193  -8.037  1.00  0.00     0.012 C 
ENDBRANCH   9  36
BRANCH   6  39
ATOM     39  C   UNL     1     -10.611   9.492 -11.064  1.00  0.00     0.264 C 
ATOM     40  O   UNL     1     -11.232   9.042 -12.063  1.00  0.00    -0.298 OA
ENDBRANCH   6  39
BRANCH   8  41
ATOM     41  O   UNL     1     -12.330  11.336  -6.875  1.00  0.00    -0.504 OA
ATOM     42  H   UNL     1     -12.896  10.575  -6.521  1.00  0.00     0.293 HD
ENDBRANCH   8  41
BRANCH   7  43
ATOM     43  O   UNL     1     -11.355   9.235  -8.326  1.00  0.00    -0.504 OA
ATOM     44  H   UNL     1     -10.491   8.902  -7.918  1.00  0.00     0.293 HD
ENDBRANCH   7  43
TORSDOF 11
ENDMDL
MODEL 6
REMARK VINA RESULT:   117.272      2.296      3.305
REMARK INTER + INTRA:         173.466
REMARK INTER:                 171.899
REMARK INTRA:                   1.567
REMARK UNBOUND:                 1.348
REMARK SMILES Cc1cc2c(C(C)C)c(O)c(O)c(C=O)c2c(O)c1-c1c(C)cc2c(C(C)C)c(O)c(O)c(C=O)c2c1O
REMARK SMILES IDX 1 1 2 2 3 3 4 4 16 5 13 6 11 7 9 8 5 9 17 10 19 11 20 12
REMARK SMILES IDX 37 13 21 14 36 15 23 16 22 17 24 18 33 19 25 20 31 21 29 22
REMARK SMILES IDX 38 23 34 25 35 26 26 27 27 28 28 29 32 30 30 32 18 34 6 36
REMARK SMILES IDX 7 37 8 38 14 39 15 40 10 41 12 43
REMARK H PARENT 38 24 32 31 30 33 18 35 10 42 12 44
REMARK Flexibility Score: inf
ROOT
ATOM      1  C   UNL     1     -10.663  11.012 -16.320  1.00  0.00     0.045 C 
ATOM      2  C   UNL     1     -10.314  12.361 -16.901  1.00  0.00    -0.039 A 
ATOM      3  C   UNL     1      -9.706  12.426 -18.155  1.00  0.00     0.013 A 
ATOM      4  C   UNL     1      -9.407  13.658 -18.779  1.00  0.00    -0.006 A 
ATOM      5  C   UNL     1      -9.634  14.869 -18.054  1.00  0.00     0.039 A 
ATOM      6  C   UNL     1      -9.251  16.110 -18.648  1.00  0.00     0.072 A 
ATOM      7  C   UNL     1      -8.580  16.118 -19.889  1.00  0.00     0.169 A 
ATOM      8  C   UNL     1      -8.341  14.925 -20.574  1.00  0.00     0.162 A 
ATOM      9  C   UNL     1      -8.854  13.700 -20.098  1.00  0.00     0.008 A 
ATOM     10  C   UNL     1     -10.195  14.793 -16.742  1.00  0.00     0.132 A 
ATOM     11  C   UNL     1     -10.554  13.545 -16.187  1.00  0.00     0.031 A 
ENDROOT
BRANCH  11  12
ATOM     12  C   UNL     1     -11.168  13.482 -14.833  1.00  0.00     0.031 A 
ATOM     13  C   UNL     1     -10.350  13.322 -13.694  1.00  0.00     0.132 A 
ATOM     14  C   UNL     1     -12.559  13.603 -14.690  1.00  0.00    -0.039 A 
ATOM     15  C   UNL     1     -10.932  13.206 -12.397  1.00  0.00     0.039 A 
ATOM     16  C   UNL     1     -13.121  13.595 -13.413  1.00  0.00     0.013 A 
ATOM     17  C   UNL     1     -13.455  13.780 -15.892  1.00  0.00     0.045 C 
ATOM     18  C   UNL     1     -12.345  13.364 -12.254  1.00  0.00    -0.006 A 
ATOM     19  C   UNL     1     -10.144  12.981 -11.231  1.00  0.00     0.072 A 
ATOM     20  C   UNL     1     -12.943  13.327 -10.956  1.00  0.00     0.008 A 
ATOM     21  C   UNL     1     -10.724  13.108  -9.956  1.00  0.00     0.169 A 
ATOM     22  C   UNL     1     -12.099  13.366  -9.824  1.00  0.00     0.162 A 
BRANCH  13  23
ATOM     23  O   UNL     1      -8.958  13.324 -13.846  1.00  0.00    -0.507 OA
ATOM     24  H   UNL     1      -8.463  12.766 -14.530  1.00  0.00     0.293 HD
ENDBRANCH  13  23
BRANCH  19  25
ATOM     25  C   UNL     1      -8.734  12.523 -11.308  1.00  0.00     0.264 C 
ATOM     26  O   UNL     1      -7.860  13.200 -11.910  1.00  0.00    -0.298 OA
ENDBRANCH  19  25
BRANCH  20  27
ATOM     27  C   UNL     1     -14.470  13.301 -10.765  1.00  0.00     0.017 C 
ATOM     28  C   UNL     1     -14.851  13.715  -9.340  1.00  0.00     0.012 C 
ATOM     29  C   UNL     1     -15.124  11.960 -11.151  1.00  0.00     0.012 C 
ENDBRANCH  20  27
BRANCH  21  30
ATOM     30  O   UNL     1      -9.917  12.921  -8.827  1.00  0.00    -0.504 OA
ATOM     31  H   UNL     1      -9.895  12.073  -8.278  1.00  0.00     0.293 HD
ENDBRANCH  21  30
BRANCH  22  32
ATOM     32  O   UNL     1     -12.648  13.675  -8.577  1.00  0.00    -0.504 OA
ATOM     33  H   UNL     1     -13.498  13.266  -8.214  1.00  0.00     0.293 HD
ENDBRANCH  22  32
ENDBRANCH  11  12
BRANCH  10  34
ATOM     34  O   UNL     1     -10.376  15.953 -15.978  1.00  0.00    -0.507 OA
ATOM     35  H   UNL     1     -10.659  15.954 -15.007  1.00  0.00     0.293 HD
ENDBRANCH  10  34
BRANCH   9  36
ATOM     36  C   UNL     1      -8.786  12.448 -20.994  1.00  0.00     0.017 C 
ATOM     37  C   UNL     1      -7.638  12.562 -22.002  1.00  0.00     0.012 C 
ATOM     38  C   UNL     1     -10.115  12.109 -21.695  1.00  0.00     0.012 C 
ENDBRANCH   9  36
BRANCH   6  39
ATOM     39  C   UNL     1      -9.548  17.408 -18.006  1.00  0.00     0.264 C 
ATOM     40  O   UNL     1     -10.710  17.894 -18.044  1.00  0.00    -0.298 OA
ENDBRANCH   6  39
BRANCH   8  41
ATOM     41  O   UNL     1      -7.589  14.954 -21.752  1.00  0.00    -0.504 OA
ATOM     42  H   UNL     1      -6.621  14.659 -21.798  1.00  0.00     0.293 HD
ENDBRANCH   8  41
BRANCH   7  43
ATOM     43  O   UNL     1      -8.166  17.311 -20.495  1.00  0.00    -0.504 OA
ATOM     44  H   UNL     1      -8.720  17.834 -21.162  1.00  0.00     0.293 HD
ENDBRANCH   7  43
TORSDOF 11
ENDMDL
MODEL 7
REMARK VINA RESULT:   117.406      1.586      8.999
REMARK INTER + INTRA:         173.663
REMARK INTER:                 172.845
REMARK INTRA:                   0.818
REMARK UNBOUND:                 1.348
REMARK SMILES Cc1cc2c(C(C)C)c(O)c(O)c(C=O)c2c(O)c1-c1c(C)cc2c(C(C)C)c(O)c(O)c(C=O)c2c1O
REMARK SMILES IDX 1 1 2 2 3 3 4 4 16 5 13 6 11 7 9 8 5 9 17 10 19 11 20 12
REMARK SMILES IDX 37 13 21 14 36 15 23 16 22 17 24 18 33 19 25 20 31 21 29 22
REMARK SMILES IDX 38 23 34 25 35 26 26 27 27 28 28 29 32 30 30 32 18 34 6 36
REMARK SMILES IDX 7 37 8 38 14 39 15 40 10 41 12 43
REMARK H PARENT 38 24 32 31 30 33 18 35 10 42 12 44
REMARK Flexibility Score: inf
ROOT
ATOM      1  C   UNL     1      -9.890  10.950 -13.027  1.00  0.00     0.045 C 
ATOM      2  C   UNL     1     -10.603  11.999 -12.207  1.00  0.00    -0.039 A 
ATOM      3  C   UNL     1     -11.077  11.665 -10.937  1.00  0.00     0.013 A 
ATOM      4  C   UNL     1     -11.700  12.615 -10.097  1.00  0.00    -0.006 A 
ATOM      5  C   UNL     1     -11.950  13.926 -10.610  1.00  0.00     0.039 A 
ATOM      6  C   UNL     1     -12.658  14.861  -9.794  1.00  0.00     0.072 A 
ATOM      7  C   UNL     1     -13.174  14.455  -8.545  1.00  0.00     0.169 A 
ATOM      8  C   UNL     1     -12.945  13.162  -8.069  1.00  0.00     0.162 A 
ATOM      9  C   UNL     1     -12.108  12.269  -8.770  1.00  0.00     0.008 A 
ATOM     10  C   UNL     1     -11.522  14.242 -11.936  1.00  0.00     0.132 A 
ATOM     11  C   UNL     1     -10.831  13.287 -12.713  1.00  0.00     0.031 A 
ENDROOT
BRANCH  11  12
ATOM     12  C   UNL     1     -10.362  13.639 -14.080  1.00  0.00     0.031 A 
ATOM     13  C   UNL     1      -8.981  13.781 -14.337  1.00  0.00     0.132 A 
ATOM     14  C   UNL     1     -11.292  13.808 -15.117  1.00  0.00    -0.039 A 
ATOM     15  C   UNL     1      -8.523  14.171 -15.631  1.00  0.00     0.039 A 
ATOM     16  C   UNL     1     -10.839  14.086 -16.408  1.00  0.00     0.013 A 
ATOM     17  C   UNL     1     -12.774  13.656 -14.869  1.00  0.00     0.045 C 
ATOM     18  C   UNL     1      -9.472  14.308 -16.690  1.00  0.00    -0.006 A 
ATOM     19  C   UNL     1      -7.142  14.385 -15.912  1.00  0.00     0.072 A 
ATOM     20  C   UNL     1      -9.029  14.624 -18.012  1.00  0.00     0.008 A 
ATOM     21  C   UNL     1      -6.711  14.536 -17.242  1.00  0.00     0.169 A 
ATOM     22  C   UNL     1      -7.646  14.566 -18.291  1.00  0.00     0.162 A 
BRANCH  13  23
ATOM     23  O   UNL     1      -8.063  13.491 -13.321  1.00  0.00    -0.507 OA
ATOM     24  H   UNL     1      -7.124  13.153 -13.487  1.00  0.00     0.293 HD
ENDBRANCH  13  23
BRANCH  19  25
ATOM     25  C   UNL     1      -6.134  14.549 -14.834  1.00  0.00     0.264 C 
ATOM     26  O   UNL     1      -5.313  13.634 -14.564  1.00  0.00    -0.298 OA
ENDBRANCH  19  25
BRANCH  20  27
ATOM     27  C   UNL     1     -10.019  14.968 -19.140  1.00  0.00     0.017 C 
ATOM     28  C   UNL     1      -9.545  14.394 -20.479  1.00  0.00     0.012 C 
ATOM     29  C   UNL     1     -10.332  16.473 -19.256  1.00  0.00     0.012 C 
ENDBRANCH  20  27
BRANCH  21  30
ATOM     30  O   UNL     1      -5.345  14.704 -17.493  1.00  0.00    -0.504 OA
ATOM     31  H   UNL     1      -4.617  14.136 -17.083  1.00  0.00     0.293 HD
ENDBRANCH  21  30
BRANCH  22  32
ATOM     32  O   UNL     1      -7.222  14.530 -19.622  1.00  0.00    -0.504 OA
ATOM     33  H   UNL     1      -7.803  14.237 -20.395  1.00  0.00     0.293 HD
ENDBRANCH  22  32
ENDBRANCH  11  12
BRANCH  10  34
ATOM     34  O   UNL     1     -11.803  15.496 -12.493  1.00  0.00    -0.507 OA
ATOM     35  H   UNL     1     -11.995  16.328 -11.951  1.00  0.00     0.293 HD
ENDBRANCH  10  34
BRANCH   9  36
ATOM     36  C   UNL     1     -11.679  10.948  -8.104  1.00  0.00     0.017 C 
ATOM     37  C   UNL     1     -10.559  11.189  -7.087  1.00  0.00     0.012 C 
ATOM     38  C   UNL     1     -11.299   9.839  -9.103  1.00  0.00     0.012 C 
ENDBRANCH   9  36
BRANCH   6  39
ATOM     39  C   UNL     1     -12.863  16.264 -10.212  1.00  0.00     0.264 C 
ATOM     40  O   UNL     1     -12.326  17.210  -9.576  1.00  0.00    -0.298 OA
ENDBRANCH   6  39
BRANCH   8  41
ATOM     41  O   UNL     1     -13.550  12.759  -6.875  1.00  0.00    -0.504 OA
ATOM     42  H   UNL     1     -14.542  12.575  -6.792  1.00  0.00     0.293 HD
ENDBRANCH   8  41
BRANCH   7  43
ATOM     43  O   UNL     1     -13.894  15.333  -7.725  1.00  0.00    -0.504 OA
ATOM     44  H   UNL     1     -14.837  15.164  -7.398  1.00  0.00     0.293 HD
ENDBRANCH   7  43
TORSDOF 11
ENDMDL
MODEL 8
REMARK VINA RESULT:   117.966      2.251      4.468
REMARK INTER + INTRA:         174.484
REMARK INTER:                 172.996
REMARK INTRA:                   1.488
REMARK UNBOUND:                 1.348
REMARK SMILES Cc1cc2c(C(C)C)c(O)c(O)c(C=O)c2c(O)c1-c1c(C)cc2c(C(C)C)c(O)c(O)c(C=O)c2c1O
REMARK SMILES IDX 1 1 2 2 3 3 4 4 16 5 13 6 11 7 9 8 5 9 17 10 19 11 20 12
REMARK SMILES IDX 37 13 21 14 36 15 23 16 22 17 24 18 33 19 25 20 31 21 29 22
REMARK SMILES IDX 38 23 34 25 35 26 26 27 27 28 28 29 32 30 30 32 18 34 6 36
REMARK SMILES IDX 7 37 8 38 14 39 15 40 10 41 12 43
REMARK H PARENT 38 24 32 31 30 33 18 35 10 42 12 44
REMARK Flexibility Score: inf
ROOT
ATOM      1  C   UNL     1      -8.165  13.800 -12.282  1.00  0.00     0.045 C 
ATOM      2  C   UNL     1      -8.758  13.352 -13.597  1.00  0.00    -0.039 A 
ATOM      3  C   UNL     1      -8.521  14.111 -14.744  1.00  0.00     0.013 A 
ATOM      4  C   UNL     1      -8.998  13.715 -16.014  1.00  0.00    -0.006 A 
ATOM      5  C   UNL     1      -9.842  12.564 -16.104  1.00  0.00     0.039 A 
ATOM      6  C   UNL     1     -10.396  12.213 -17.373  1.00  0.00     0.072 A 
ATOM      7  C   UNL     1     -10.181  13.048 -18.489  1.00  0.00     0.169 A 
ATOM      8  C   UNL     1      -9.377  14.186 -18.380  1.00  0.00     0.162 A 
ATOM      9  C   UNL     1      -8.678  14.467 -17.188  1.00  0.00     0.008 A 
ATOM     10  C   UNL     1     -10.135  11.829 -14.914  1.00  0.00     0.132 A 
ATOM     11  C   UNL     1      -9.573  12.212 -13.678  1.00  0.00     0.031 A 
ENDROOT
BRANCH  11  12
ATOM     12  C   UNL     1      -9.860  11.420 -12.452  1.00  0.00     0.031 A 
ATOM     13  C   UNL     1     -10.539  12.017 -11.368  1.00  0.00     0.132 A 
ATOM     14  C   UNL     1      -9.474  10.072 -12.384  1.00  0.00    -0.039 A 
ATOM     15  C   UNL     1     -10.772  11.283 -10.167  1.00  0.00     0.039 A 
ATOM     16  C   UNL     1      -9.794   9.322 -11.251  1.00  0.00     0.013 A 
ATOM     17  C   UNL     1      -8.751   9.408 -13.532  1.00  0.00     0.045 C 
ATOM     18  C   UNL     1     -10.407   9.902 -10.117  1.00  0.00    -0.006 A 
ATOM     19  C   UNL     1     -11.398  11.870  -9.030  1.00  0.00     0.072 A 
ATOM     20  C   UNL     1     -10.698   9.126  -8.953  1.00  0.00     0.008 A 
ATOM     21  C   UNL     1     -11.819  11.058  -7.962  1.00  0.00     0.169 A 
ATOM     22  C   UNL     1     -11.546   9.679  -7.969  1.00  0.00     0.162 A 
BRANCH  13  23
ATOM     23  O   UNL     1     -11.022  13.324 -11.501  1.00  0.00    -0.507 OA
ATOM     24  H   UNL     1     -11.193  13.946 -10.721  1.00  0.00     0.293 HD
ENDBRANCH  13  23
BRANCH  19  25
ATOM     25  C   UNL     1     -11.545  13.340  -8.883  1.00  0.00     0.264 C 
ATOM     26  O   UNL     1     -12.681  13.876  -8.793  1.00  0.00    -0.298 OA
ENDBRANCH  19  25
BRANCH  20  27
ATOM     27  C   UNL     1     -10.159   7.695  -8.774  1.00  0.00     0.017 C 
ATOM     28  C   UNL     1      -9.304   7.586  -7.508  1.00  0.00     0.012 C 
ATOM     29  C   UNL     1      -9.408   7.153 -10.006  1.00  0.00     0.012 C 
ENDBRANCH  20  27
BRANCH  21  30
ATOM     30  O   UNL     1     -12.468  11.656  -6.875  1.00  0.00    -0.504 OA
ATOM     31  H   UNL     1     -12.356  12.624  -6.609  1.00  0.00     0.293 HD
ENDBRANCH  21  30
BRANCH  22  32
ATOM     32  O   UNL     1     -12.116   8.837  -7.010  1.00  0.00    -0.504 OA
ATOM     33  H   UNL     1     -11.689   8.619  -6.121  1.00  0.00     0.293 HD
ENDBRANCH  22  32
ENDBRANCH  11  12
BRANCH  10  34
ATOM     34  O   UNL     1     -11.005  10.732 -14.953  1.00  0.00    -0.507 OA
ATOM     35  H   UNL     1     -11.761  10.584 -14.297  1.00  0.00     0.293 HD
ENDBRANCH  10  34
BRANCH   9  36
ATOM     36  C   UNL     1      -7.615  15.583 -17.176  1.00  0.00     0.017 C 
ATOM     37  C   UNL     1      -6.322  15.096 -16.513  1.00  0.00     0.012 C 
ATOM     38  C   UNL     1      -8.102  16.903 -16.550  1.00  0.00     0.012 C 
ENDBRANCH   9  36
BRANCH   6  39
ATOM     39  C   UNL     1     -11.190  10.981 -17.565  1.00  0.00     0.264 C 
ATOM     40  O   UNL     1     -12.338  11.030 -18.080  1.00  0.00    -0.298 OA
ENDBRANCH   6  39
BRANCH   8  41
ATOM     41  O   UNL     1      -9.261  15.046 -19.476  1.00  0.00    -0.504 OA
ATOM     42  H   UNL     1      -9.982  15.145 -20.180  1.00  0.00     0.293 HD
ENDBRANCH   8  41
BRANCH   7  43
ATOM     43  O   UNL     1     -10.726  12.755 -19.745  1.00  0.00    -0.504 OA
ATOM     44  H   UNL     1     -11.695  12.511 -19.904  1.00  0.00     0.293 HD
ENDBRANCH   7  43
TORSDOF 11
ENDMDL
MODEL 9
REMARK VINA RESULT:   118.589      2.171      9.023
REMARK INTER + INTRA:         175.399
REMARK INTER:                 176.023
REMARK INTRA:                  -0.624
REMARK UNBOUND:                 1.348
REMARK SMILES Cc1cc2c(C(C)C)c(O)c(O)c(C=O)c2c(O)c1-c1c(C)cc2c(C(C)C)c(O)c(O)c(C=O)c2c1O
REMARK SMILES IDX 1 1 2 2 3 3 4 4 16 5 13 6 11 7 9 8 5 9 17 10 19 11 20 12
REMARK SMILES IDX 37 13 21 14 36 15 23 16 22 17 24 18 33 19 25 20 31 21 29 22
REMARK SMILES IDX 38 23 34 25 35 26 26 27 27 28 28 29 32 30 30 32 18 34 6 36
REMARK SMILES IDX 7 37 8 38 14 39 15 40 10 41 12 43
REMARK H PARENT 38 24 32 31 30 33 18 35 10 42 12 44
REMARK Flexibility Score: inf
ROOT
ATOM      1  C   UNL     1      -9.091  11.013 -12.503  1.00  0.00     0.045 C 
ATOM      2  C   UNL     1      -9.980  12.027 -11.824  1.00  0.00    -0.039 A 
ATOM      3  C   UNL     1     -10.555  11.713 -10.592  1.00  0.00     0.013 A 
ATOM      4  C   UNL     1     -11.348  12.638  -9.878  1.00  0.00    -0.006 A 
ATOM      5  C   UNL     1     -11.661  13.892 -10.491  1.00  0.00     0.039 A 
ATOM      6  C   UNL     1     -12.534  14.794  -9.809  1.00  0.00     0.072 A 
ATOM      7  C   UNL     1     -13.141  14.403  -8.597  1.00  0.00     0.169 A 
ATOM      8  C   UNL     1     -12.848  13.164  -8.023  1.00  0.00     0.162 A 
ATOM      9  C   UNL     1     -11.863  12.322  -8.581  1.00  0.00     0.008 A 
ATOM     10  C   UNL     1     -11.124  14.182 -11.783  1.00  0.00     0.132 A 
ATOM     11  C   UNL     1     -10.270  13.260 -12.427  1.00  0.00     0.031 A 
ENDROOT
BRANCH  11  12
ATOM     12  C   UNL     1      -9.690  13.587 -13.758  1.00  0.00     0.031 A 
ATOM     13  C   UNL     1     -10.393  13.252 -14.935  1.00  0.00     0.132 A 
ATOM     14  C   UNL     1      -8.455  14.249 -13.840  1.00  0.00    -0.039 A 
ATOM     15  C   UNL     1      -9.823  13.512 -16.217  1.00  0.00     0.039 A 
ATOM     16  C   UNL     1      -7.945  14.598 -15.091  1.00  0.00     0.013 A 
ATOM     17  C   UNL     1      -7.686  14.623 -12.595  1.00  0.00     0.045 C 
ATOM     18  C   UNL     1      -8.582  14.216 -16.293  1.00  0.00    -0.006 A 
ATOM     19  C   UNL     1     -10.474  13.133 -17.426  1.00  0.00     0.072 A 
ATOM     20  C   UNL     1      -8.028  14.555 -17.566  1.00  0.00     0.008 A 
ATOM     21  C   UNL     1      -9.999  13.612 -18.660  1.00  0.00     0.169 A 
ATOM     22  C   UNL     1      -8.831  14.391 -18.716  1.00  0.00     0.162 A 
BRANCH  13  23
ATOM     23  O   UNL     1     -11.677  12.703 -14.832  1.00  0.00    -0.507 OA
ATOM     24  H   UNL     1     -12.530  13.238 -14.931  1.00  0.00     0.293 HD
ENDBRANCH  13  23
BRANCH  19  25
ATOM     25  C   UNL     1     -11.598  12.162 -17.446  1.00  0.00     0.264 C 
ATOM     26  O   UNL     1     -12.794  12.550 -17.493  1.00  0.00    -0.298 OA
ENDBRANCH  19  25
BRANCH  20  27
ATOM     27  C   UNL     1      -6.610  15.139 -17.707  1.00  0.00     0.017 C 
ATOM     28  C   UNL     1      -5.563  14.179 -17.134  1.00  0.00     0.012 C 
ATOM     29  C   UNL     1      -6.457  16.554 -17.114  1.00  0.00     0.012 C 
ENDBRANCH  20  27
BRANCH  21  30
ATOM     30  O   UNL     1     -10.682  13.255 -19.829  1.00  0.00    -0.504 OA
ATOM     31  H   UNL     1     -10.932  12.308 -20.075  1.00  0.00     0.293 HD
ENDBRANCH  21  30
BRANCH  22  32
ATOM     32  O   UNL     1      -8.455  15.023 -19.905  1.00  0.00    -0.504 OA
ATOM     33  H   UNL     1      -8.456  14.574 -20.810  1.00  0.00     0.293 HD
ENDBRANCH  22  32
ENDBRANCH  11  12
BRANCH  10  34
ATOM     34  O   UNL     1     -11.456  15.373 -12.440  1.00  0.00    -0.507 OA
ATOM     35  H   UNL     1     -12.385  15.774 -12.452  1.00  0.00     0.293 HD
ENDBRANCH  10  34
BRANCH   9  36
ATOM     36  C   UNL     1     -11.389  11.083  -7.797  1.00  0.00     0.017 C 
ATOM     37  C   UNL     1     -12.499  10.564  -6.877  1.00  0.00     0.012 C 
ATOM     38  C   UNL     1     -10.075  11.299  -7.022  1.00  0.00     0.012 C 
ENDBRANCH   9  36
BRANCH   6  39
ATOM     39  C   UNL     1     -12.820  16.148 -10.329  1.00  0.00     0.264 C 
ATOM     40  O   UNL     1     -12.434  17.172  -9.704  1.00  0.00    -0.298 OA
ENDBRANCH   6  39
BRANCH   8  41
ATOM     41  O   UNL     1     -13.537  12.764  -6.875  1.00  0.00    -0.504 OA
ATOM     42  H   UNL     1     -13.177  12.899  -5.939  1.00  0.00     0.293 HD
ENDBRANCH   8  41
BRANCH   7  43
ATOM     43  O   UNL     1     -14.022  15.247  -7.908  1.00  0.00    -0.504 OA
ATOM     44  H   UNL     1     -14.645  14.941  -7.172  1.00  0.00     0.293 HD
ENDBRANCH   7  43
TORSDOF 11
ENDMDL
