MODEL 1
REMARK VINA RESULT:    -4.561      0.000      0.000
REMARK INTER + INTRA:         -10.598
REMARK INTER:                  -8.561
REMARK INTRA:                  -2.037
REMARK UNBOUND:                -2.037
REMARK SMILES O=C([O-])CCCCCCCCCCCCCCC(=O)[O-]
REMARK SMILES IDX 10 1 9 2 8 3 7 4 6 5 5 6 4 7 2 8 1 9 3 10 11 11 12 12 13 13
REMARK SMILES IDX 14 14 15 15 16 16 17 17 18 18 19 19 20 20
REMARK H PARENT
REMARK Flexibility Score: inf
ROOT
ATOM      1  C   UNL     1       2.623  50.400   0.400  1.00  0.00     0.000 C 
ENDROOT
BRANCH   1   2
ATOM      2  C   UNL     1       3.265  51.162   1.573  1.00  0.00     0.000 C 
BRANCH   2   3
ATOM      3  C   UNL     1       4.738  51.512   1.313  1.00  0.00     0.000 C 
BRANCH   3   4
ATOM      4  C   UNL     1       5.010  53.026   1.370  1.00  0.00     0.000 C 
BRANCH   4   5
ATOM      5  C   UNL     1       3.808  53.860   0.897  1.00  0.00     0.000 C 
BRANCH   5   6
ATOM      6  C   UNL     1       4.185  54.875  -0.193  1.00  0.00     0.006 C 
BRANCH   6   7
ATOM      7  C   UNL     1       4.486  56.247   0.415  1.00  0.00     0.053 C 
BRANCH   7   8
ATOM      8  C   UNL     1       3.467  57.250  -0.027  1.00  0.00     0.041 C 
ATOM      9  O   UNL     1       3.825  58.282  -0.653  1.00  0.00    -0.550 OA
ATOM     10  O   UNL     1       2.118  57.024   0.211  1.00  0.00    -0.550 OA
ENDBRANCH   7   8
ENDBRANCH   6   7
ENDBRANCH   5   6
ENDBRANCH   4   5
ENDBRANCH   3   4
ENDBRANCH   2   3
ENDBRANCH   1   2
BRANCH   1  11
ATOM     11  C   UNL     1       1.875  51.331  -0.568  1.00  0.00     0.000 C 
BRANCH  11  12
ATOM     12  C   UNL     1       2.250  51.081  -2.037  1.00  0.00     0.000 C 
BRANCH  12  13
ATOM     13  C   UNL     1       3.302  52.095  -2.514  1.00  0.00     0.000 C 
BRANCH  13  14
ATOM     14  C   UNL     1       4.175  51.549  -3.654  1.00  0.00     0.000 C 
BRANCH  14  15
ATOM     15  C   UNL     1       5.646  51.975  -3.527  1.00  0.00     0.000 C 
BRANCH  15  16
ATOM     16  C   UNL     1       6.053  52.109  -2.054  1.00  0.00     0.006 C 
BRANCH  16  17
ATOM     17  C   UNL     1       7.350  52.912  -1.913  1.00  0.00     0.053 C 
BRANCH  17  18
ATOM     18  C   UNL     1       8.323  52.188  -1.038  1.00  0.00     0.041 C 
ATOM     19  O   UNL     1       9.179  51.418  -1.545  1.00  0.00    -0.550 OA
ATOM     20  O   UNL     1       8.313  52.398   0.335  1.00  0.00    -0.550 OA
ENDBRANCH  17  18
ENDBRANCH  16  17
ENDBRANCH  15  16
ENDBRANCH  14  15
ENDBRANCH  13  14
ENDBRANCH  12  13
ENDBRANCH  11  12
ENDBRANCH   1  11
TORSDOF 15
ENDMDL
MODEL 2
REMARK VINA RESULT:    -4.445      1.466      5.750
REMARK INTER + INTRA:         -10.380
REMARK INTER:                  -8.145
REMARK INTRA:                  -2.235
REMARK UNBOUND:                -2.037
REMARK SMILES O=C([O-])CCCCCCCCCCCCCCC(=O)[O-]
REMARK SMILES IDX 10 1 9 2 8 3 7 4 6 5 5 6 4 7 2 8 1 9 3 10 11 11 12 12 13 13
REMARK SMILES IDX 14 14 15 15 16 16 17 17 18 18 19 19 20 20
REMARK H PARENT
REMARK Flexibility Score: inf
ROOT
ATOM      1  C   UNL     1       2.804  52.823  -1.504  1.00  0.00     0.000 C 
ENDROOT
BRANCH   1   2
ATOM      2  C   UNL     1       3.836  52.113  -2.399  1.00  0.00     0.000 C 
BRANCH   2   3
ATOM      3  C   UNL     1       5.162  52.883  -2.494  1.00  0.00     0.000 C 
BRANCH   3   4
ATOM      4  C   UNL     1       6.391  51.980  -2.284  1.00  0.00     0.000 C 
BRANCH   4   5
ATOM      5  C   UNL     1       7.601  52.751  -1.731  1.00  0.00     0.000 C 
BRANCH   5   6
ATOM      6  C   UNL     1       8.780  51.829  -1.382  1.00  0.00     0.006 C 
BRANCH   6   7
ATOM      7  C   UNL     1       9.699  52.481  -0.345  1.00  0.00     0.053 C 
BRANCH   7   8
ATOM      8  C   UNL     1      10.731  53.328  -1.020  1.00  0.00     0.041 C 
ATOM      9  O   UNL     1      10.725  54.577  -0.865  1.00  0.00    -0.550 OA
ATOM     10  O   UNL     1      11.727  52.735  -1.784  1.00  0.00    -0.550 OA
ENDBRANCH   7   8
ENDBRANCH   6   7
ENDBRANCH   5   6
ENDBRANCH   4   5
ENDBRANCH   3   4
ENDBRANCH   2   3
ENDBRANCH   1   2
BRANCH   1  11
ATOM     11  C   UNL     1       2.109  51.861  -0.528  1.00  0.00     0.000 C 
BRANCH  11  12
ATOM     12  C   UNL     1       3.106  51.020   0.284  1.00  0.00     0.000 C 
BRANCH  12  13
ATOM     13  C   UNL     1       3.755  51.862   1.394  1.00  0.00     0.000 C 
BRANCH  13  14
ATOM     14  C   UNL     1       5.287  51.913   1.278  1.00  0.00     0.000 C 
BRANCH  14  15
ATOM     15  C   UNL     1       5.852  53.318   1.540  1.00  0.00     0.000 C 
BRANCH  15  16
ATOM     16  C   UNL     1       4.744  54.376   1.473  1.00  0.00     0.006 C 
BRANCH  16  17
ATOM     17  C   UNL     1       4.875  55.229   0.208  1.00  0.00     0.053 C 
BRANCH  17  18
ATOM     18  C   UNL     1       4.033  56.462   0.316  1.00  0.00     0.041 C 
ATOM     19  O   UNL     1       4.570  57.577   0.541  1.00  0.00    -0.550 OA
ATOM     20  O   UNL     1       2.659  56.384   0.125  1.00  0.00    -0.550 OA
ENDBRANCH  17  18
ENDBRANCH  16  17
ENDBRANCH  15  16
ENDBRANCH  14  15
ENDBRANCH  13  14
ENDBRANCH  12  13
ENDBRANCH  11  12
ENDBRANCH   1  11
TORSDOF 15
ENDMDL
MODEL 3
REMARK VINA RESULT:    -4.417      2.912      3.953
REMARK INTER + INTRA:         -10.327
REMARK INTER:                  -8.585
REMARK INTRA:                  -1.742
REMARK UNBOUND:                -2.037
REMARK SMILES O=C([O-])CCCCCCCCCCCCCCC(=O)[O-]
REMARK SMILES IDX 10 1 9 2 8 3 7 4 6 5 5 6 4 7 2 8 1 9 3 10 11 11 12 12 13 13
REMARK SMILES IDX 14 14 15 15 16 16 17 17 18 18 19 19 20 20
REMARK H PARENT
REMARK Flexibility Score: inf
ROOT
ATOM      1  C   UNL     1       2.317  51.256  -2.210  1.00  0.00     0.000 C 
ENDROOT
BRANCH   1   2
ATOM      2  C   UNL     1       2.215  51.561  -0.705  1.00  0.00     0.000 C 
BRANCH   2   3
ATOM      3  C   UNL     1       2.336  50.297   0.161  1.00  0.00     0.000 C 
BRANCH   3   4
ATOM      4  C   UNL     1       3.046  50.559   1.502  1.00  0.00     0.000 C 
BRANCH   4   5
ATOM      5  C   UNL     1       3.775  51.913   1.529  1.00  0.00     0.000 C 
BRANCH   5   6
ATOM      6  C   UNL     1       5.304  51.761   1.513  1.00  0.00     0.006 C 
BRANCH   6   7
ATOM      7  C   UNL     1       5.992  53.117   1.697  1.00  0.00     0.053 C 
BRANCH   7   8
ATOM      8  C   UNL     1       7.316  52.944   2.372  1.00  0.00     0.041 C 
ATOM      9  O   UNL     1       7.629  51.834   2.877  1.00  0.00    -0.550 OA
ATOM     10  O   UNL     1       8.223  53.995   2.404  1.00  0.00    -0.550 OA
ENDBRANCH   7   8
ENDBRANCH   6   7
ENDBRANCH   5   6
ENDBRANCH   4   5
ENDBRANCH   3   4
ENDBRANCH   2   3
ENDBRANCH   1   2
BRANCH   1  11
ATOM     11  C   UNL     1       3.621  51.784  -2.830  1.00  0.00     0.000 C 
BRANCH  11  12
ATOM     12  C   UNL     1       4.343  52.790  -1.921  1.00  0.00     0.000 C 
BRANCH  12  13
ATOM     13  C   UNL     1       5.691  53.208  -2.530  1.00  0.00     0.000 C 
BRANCH  13  14
ATOM     14  C   UNL     1       6.768  52.122  -2.385  1.00  0.00     0.000 C 
BRANCH  14  15
ATOM     15  C   UNL     1       7.814  52.466  -1.314  1.00  0.00     0.000 C 
BRANCH  15  16
ATOM     16  C   UNL     1       9.012  51.511  -1.389  1.00  0.00     0.006 C 
BRANCH  16  17
ATOM     17  C   UNL     1       9.844  51.571  -0.105  1.00  0.00     0.053 C 
BRANCH  17  18
ATOM     18  C   UNL     1      11.118  52.320  -0.340  1.00  0.00     0.041 C 
ATOM     19  O   UNL     1      11.654  52.317  -1.478  1.00  0.00    -0.550 OA
ATOM     20  O   UNL     1      11.690  53.058   0.689  1.00  0.00    -0.550 OA
ENDBRANCH  17  18
ENDBRANCH  16  17
ENDBRANCH  15  16
ENDBRANCH  14  15
ENDBRANCH  13  14
ENDBRANCH  12  13
ENDBRANCH  11  12
ENDBRANCH   1  11
TORSDOF 15
ENDMDL
MODEL 4
REMARK VINA RESULT:    -4.387      2.776      4.889
REMARK INTER + INTRA:         -10.272
REMARK INTER:                  -7.871
REMARK INTRA:                  -2.401
REMARK UNBOUND:                -2.037
REMARK SMILES O=C([O-])CCCCCCCCCCCCCCC(=O)[O-]
REMARK SMILES IDX 10 1 9 2 8 3 7 4 6 5 5 6 4 7 2 8 1 9 3 10 11 11 12 12 13 13
REMARK SMILES IDX 14 14 15 15 16 16 17 17 18 18 19 19 20 20
REMARK H PARENT
REMARK Flexibility Score: inf
ROOT
ATOM      1  C   UNL     1       3.361  50.746   1.666  1.00  0.00     0.000 C 
ENDROOT
BRANCH   1   2
ATOM      2  C   UNL     1       4.699  51.461   1.405  1.00  0.00     0.000 C 
BRANCH   2   3
ATOM      3  C   UNL     1       4.557  52.991   1.397  1.00  0.00     0.000 C 
BRANCH   3   4
ATOM      4  C   UNL     1       5.842  53.706   0.940  1.00  0.00     0.000 C 
BRANCH   4   5
ATOM      5  C   UNL     1       6.995  52.727   0.663  1.00  0.00     0.000 C 
BRANCH   5   6
ATOM      6  C   UNL     1       7.923  53.210  -0.463  1.00  0.00     0.006 C 
BRANCH   6   7
ATOM      7  C   UNL     1       8.506  52.026  -1.239  1.00  0.00     0.053 C 
BRANCH   7   8
ATOM      8  C   UNL     1       9.967  51.880  -0.950  1.00  0.00     0.041 C 
ATOM      9  O   UNL     1      10.820  52.346  -1.749  1.00  0.00    -0.550 OA
ATOM     10  O   UNL     1      10.386  51.270   0.225  1.00  0.00    -0.550 OA
ENDBRANCH   7   8
ENDBRANCH   6   7
ENDBRANCH   5   6
ENDBRANCH   4   5
ENDBRANCH   3   4
ENDBRANCH   2   3
ENDBRANCH   1   2
BRANCH   1  11
ATOM     11  C   UNL     1       2.272  51.151   0.660  1.00  0.00     0.000 C 
BRANCH  11  12
ATOM     12  C   UNL     1       2.240  50.238  -0.576  1.00  0.00     0.000 C 
BRANCH  12  13
ATOM     13  C   UNL     1       2.363  51.063  -1.868  1.00  0.00     0.000 C 
BRANCH  13  14
ATOM     14  C   UNL     1       2.385  52.577  -1.603  1.00  0.00     0.000 C 
BRANCH  14  15
ATOM     15  C   UNL     1       3.654  53.252  -2.146  1.00  0.00     0.000 C 
BRANCH  15  16
ATOM     16  C   UNL     1       4.795  52.238  -2.293  1.00  0.00     0.006 C 
BRANCH  16  17
ATOM     17  C   UNL     1       5.622  52.519  -3.551  1.00  0.00     0.053 C 
BRANCH  17  18
ATOM     18  C   UNL     1       4.747  52.521  -4.764  1.00  0.00     0.041 C 
ATOM     19  O   UNL     1       4.719  53.524  -5.523  1.00  0.00    -0.550 OA
ATOM     20  O   UNL     1       3.996  51.396  -5.082  1.00  0.00    -0.550 OA
ENDBRANCH  17  18
ENDBRANCH  16  17
ENDBRANCH  15  16
ENDBRANCH  14  15
ENDBRANCH  13  14
ENDBRANCH  12  13
ENDBRANCH  11  12
ENDBRANCH   1  11
TORSDOF 15
ENDMDL
MODEL 5
REMARK VINA RESULT:    -4.377      1.502      2.694
REMARK INTER + INTRA:         -10.253
REMARK INTER:                  -8.344
REMARK INTRA:                  -1.909
REMARK UNBOUND:                -2.037
REMARK SMILES O=C([O-])CCCCCCCCCCCCCCC(=O)[O-]
REMARK SMILES IDX 10 1 9 2 8 3 7 4 6 5 5 6 4 7 2 8 1 9 3 10 11 11 12 12 13 13
REMARK SMILES IDX 14 14 15 15 16 16 17 17 18 18 19 19 20 20
REMARK H PARENT
REMARK Flexibility Score: inf
ROOT
ATOM      1  C   UNL     1       1.925  52.164  -2.178  1.00  0.00     0.000 C 
ENDROOT
BRANCH   1   2
ATOM      2  C   UNL     1       2.411  50.914  -1.422  1.00  0.00     0.000 C 
BRANCH   2   3
ATOM      3  C   UNL     1       1.875  50.852   0.018  1.00  0.00     0.000 C 
BRANCH   3   4
ATOM      4  C   UNL     1       2.998  50.754   1.067  1.00  0.00     0.000 C 
BRANCH   4   5
ATOM      5  C   UNL     1       4.276  51.490   0.634  1.00  0.00     0.000 C 
BRANCH   5   6
ATOM      6  C   UNL     1       4.489  52.806   1.397  1.00  0.00     0.006 C 
BRANCH   6   7
ATOM      7  C   UNL     1       3.964  53.998   0.592  1.00  0.00     0.053 C 
BRANCH   7   8
ATOM      8  C   UNL     1       4.526  55.278   1.127  1.00  0.00     0.041 C 
ATOM      9  O   UNL     1       5.269  55.268   2.142  1.00  0.00    -0.550 OA
ATOM     10  O   UNL     1       4.266  56.477   0.477  1.00  0.00    -0.550 OA
ENDBRANCH   7   8
ENDBRANCH   6   7
ENDBRANCH   5   6
ENDBRANCH   4   5
ENDBRANCH   3   4
ENDBRANCH   2   3
ENDBRANCH   1   2
BRANCH   1  11
ATOM     11  C   UNL     1       2.977  52.702  -3.161  1.00  0.00     0.000 C 
BRANCH  11  12
ATOM     12  C   UNL     1       3.920  51.605  -3.678  1.00  0.00     0.000 C 
BRANCH  12  13
ATOM     13  C   UNL     1       5.364  52.123  -3.771  1.00  0.00     0.000 C 
BRANCH  13  14
ATOM     14  C   UNL     1       6.177  51.840  -2.498  1.00  0.00     0.000 C 
BRANCH  14  15
ATOM     15  C   UNL     1       6.933  53.078  -1.993  1.00  0.00     0.000 C 
BRANCH  15  16
ATOM     16  C   UNL     1       7.974  52.692  -0.935  1.00  0.00     0.006 C 
BRANCH  16  17
ATOM     17  C   UNL     1       9.003  51.713  -1.507  1.00  0.00     0.053 C 
BRANCH  17  18
ATOM     18  C   UNL     1      10.304  51.833  -0.780  1.00  0.00     0.041 C 
ATOM     19  O   UNL     1      11.264  52.461  -1.297  1.00  0.00    -0.550 OA
ATOM     20  O   UNL     1      10.443  51.289   0.491  1.00  0.00    -0.550 OA
ENDBRANCH  17  18
ENDBRANCH  16  17
ENDBRANCH  15  16
ENDBRANCH  14  15
ENDBRANCH  13  14
ENDBRANCH  12  13
ENDBRANCH  11  12
ENDBRANCH   1  11
TORSDOF 15
ENDMDL
MODEL 6
REMARK VINA RESULT:    -4.369      2.305      5.679
REMARK INTER + INTRA:         -10.238
REMARK INTER:                  -8.583
REMARK INTRA:                  -1.654
REMARK UNBOUND:                -2.037
REMARK SMILES O=C([O-])CCCCCCCCCCCCCCC(=O)[O-]
REMARK SMILES IDX 10 1 9 2 8 3 7 4 6 5 5 6 4 7 2 8 1 9 3 10 11 11 12 12 13 13
REMARK SMILES IDX 14 14 15 15 16 16 17 17 18 18 19 19 20 20
REMARK H PARENT
REMARK Flexibility Score: inf
ROOT
ATOM      1  C   UNL     1       5.381  51.959  -3.720  1.00  0.00     0.000 C 
ENDROOT
BRANCH   1   2
ATOM      2  C   UNL     1       6.456  52.029  -2.621  1.00  0.00     0.000 C 
BRANCH   2   3
ATOM      3  C   UNL     1       6.889  53.471  -2.312  1.00  0.00     0.000 C 
BRANCH   3   4
ATOM      4  C   UNL     1       8.111  53.538  -1.378  1.00  0.00     0.000 C 
BRANCH   4   5
ATOM      5  C   UNL     1       8.557  52.150  -0.889  1.00  0.00     0.000 C 
BRANCH   5   6
ATOM      6  C   UNL     1       9.948  51.758  -1.411  1.00  0.00     0.006 C 
BRANCH   6   7
ATOM      7  C   UNL     1      10.945  52.908  -1.233  1.00  0.00     0.053 C 
BRANCH   7   8
ATOM      8  C   UNL     1      11.283  53.088   0.214  1.00  0.00     0.041 C 
ATOM      9  O   UNL     1      11.824  52.152   0.859  1.00  0.00    -0.550 OA
ATOM     10  O   UNL     1      11.042  54.305   0.838  1.00  0.00    -0.550 OA
ENDBRANCH   7   8
ENDBRANCH   6   7
ENDBRANCH   5   6
ENDBRANCH   4   5
ENDBRANCH   3   4
ENDBRANCH   2   3
ENDBRANCH   1   2
BRANCH   1  11
ATOM     11  C   UNL     1       3.979  52.307  -3.195  1.00  0.00     0.000 C 
BRANCH  11  12
ATOM     12  C   UNL     1       2.960  51.183  -3.440  1.00  0.00     0.000 C 
BRANCH  12  13
ATOM     13  C   UNL     1       2.217  50.827  -2.143  1.00  0.00     0.000 C 
BRANCH  13  14
ATOM     14  C   UNL     1       2.649  51.700  -0.954  1.00  0.00     0.000 C 
BRANCH  14  15
ATOM     15  C   UNL     1       2.411  51.014   0.400  1.00  0.00     0.000 C 
BRANCH  15  16
ATOM     16  C   UNL     1       3.657  51.107   1.289  1.00  0.00     0.006 C 
BRANCH  16  17
ATOM     17  C   UNL     1       4.765  51.911   0.601  1.00  0.00     0.053 C 
BRANCH  17  18
ATOM     18  C   UNL     1       5.083  53.144   1.384  1.00  0.00     0.041 C 
ATOM     19  O   UNL     1       4.180  53.982   1.642  1.00  0.00    -0.550 OA
ATOM     20  O   UNL     1       6.369  53.348   1.868  1.00  0.00    -0.550 OA
ENDBRANCH  17  18
ENDBRANCH  16  17
ENDBRANCH  15  16
ENDBRANCH  14  15
ENDBRANCH  13  14
ENDBRANCH  12  13
ENDBRANCH  11  12
ENDBRANCH   1  11
TORSDOF 15
ENDMDL
MODEL 7
REMARK VINA RESULT:    -4.314      2.646      4.253
REMARK INTER + INTRA:         -10.135
REMARK INTER:                  -8.760
REMARK INTRA:                  -1.375
REMARK UNBOUND:                -2.037
REMARK SMILES O=C([O-])CCCCCCCCCCCCCCC(=O)[O-]
REMARK SMILES IDX 10 1 9 2 8 3 7 4 6 5 5 6 4 7 2 8 1 9 3 10 11 11 12 12 13 13
REMARK SMILES IDX 14 14 15 15 16 16 17 17 18 18 19 19 20 20
REMARK H PARENT
REMARK Flexibility Score: inf
ROOT
ATOM      1  C   UNL     1       3.231  50.701   1.495  1.00  0.00     0.000 C 
ENDROOT
BRANCH   1   2
ATOM      2  C   UNL     1       2.244  50.386   0.357  1.00  0.00     0.000 C 
BRANCH   2   3
ATOM      3  C   UNL     1       2.261  51.452  -0.750  1.00  0.00     0.000 C 
BRANCH   3   4
ATOM      4  C   UNL     1       2.208  50.844  -2.163  1.00  0.00     0.000 C 
BRANCH   4   5
ATOM      5  C   UNL     1       3.064  51.624  -3.174  1.00  0.00     0.000 C 
BRANCH   5   6
ATOM      6  C   UNL     1       4.478  51.918  -2.649  1.00  0.00     0.006 C 
BRANCH   6   7
ATOM      7  C   UNL     1       5.428  52.269  -3.797  1.00  0.00     0.053 C 
BRANCH   7   8
ATOM      8  C   UNL     1       5.776  53.724  -3.762  1.00  0.00     0.041 C 
ATOM      9  O   UNL     1       5.506  54.415  -2.745  1.00  0.00    -0.550 OA
ATOM     10  O   UNL     1       6.440  54.307  -4.833  1.00  0.00    -0.550 OA
ENDBRANCH   7   8
ENDBRANCH   6   7
ENDBRANCH   5   6
ENDBRANCH   4   5
ENDBRANCH   3   4
ENDBRANCH   2   3
ENDBRANCH   1   2
BRANCH   1  11
ATOM     11  C   UNL     1       3.856  52.099   1.362  1.00  0.00     0.000 C 
BRANCH  11  12
ATOM     12  C   UNL     1       5.388  52.075   1.473  1.00  0.00     0.000 C 
BRANCH  12  13
ATOM     13  C   UNL     1       6.040  52.468   0.137  1.00  0.00     0.000 C 
BRANCH  13  14
ATOM     14  C   UNL     1       7.571  52.558   0.230  1.00  0.00     0.000 C 
BRANCH  14  15
ATOM     15  C   UNL     1       8.244  52.596  -1.150  1.00  0.00     0.000 C 
BRANCH  15  16
ATOM     16  C   UNL     1       9.377  51.566  -1.237  1.00  0.00     0.006 C 
BRANCH  16  17
ATOM     17  C   UNL     1      10.710  52.241  -1.575  1.00  0.00     0.053 C 
BRANCH  17  18
ATOM     18  C   UNL     1      11.209  53.033  -0.408  1.00  0.00     0.041 C 
ATOM     19  O   UNL     1      11.713  52.447   0.585  1.00  0.00    -0.550 OA
ATOM     20  O   UNL     1      11.156  54.421  -0.436  1.00  0.00    -0.550 OA
ENDBRANCH  17  18
ENDBRANCH  16  17
ENDBRANCH  15  16
ENDBRANCH  14  15
ENDBRANCH  13  14
ENDBRANCH  12  13
ENDBRANCH  11  12
ENDBRANCH   1  11
TORSDOF 15
ENDMDL
MODEL 8
REMARK VINA RESULT:    -3.810      1.110      5.620
REMARK INTER + INTRA:          -9.188
REMARK INTER:                  -7.263
REMARK INTRA:                  -1.926
REMARK UNBOUND:                -2.037
REMARK SMILES O=C([O-])CCCCCCCCCCCCCCC(=O)[O-]
REMARK SMILES IDX 10 1 9 2 8 3 7 4 6 5 5 6 4 7 2 8 1 9 3 10 11 11 12 12 13 13
REMARK SMILES IDX 14 14 15 15 16 16 17 17 18 18 19 19 20 20
REMARK H PARENT
REMARK Flexibility Score: inf
ROOT
ATOM      1  C   UNL     1       2.236  50.751  -2.222  1.00  0.00     0.000 C 
ENDROOT
BRANCH   1   2
ATOM      2  C   UNL     1       3.134  51.183  -3.396  1.00  0.00     0.000 C 
BRANCH   2   3
ATOM      3  C   UNL     1       3.825  52.533  -3.142  1.00  0.00     0.000 C 
BRANCH   3   4
ATOM      4  C   UNL     1       5.289  52.551  -3.618  1.00  0.00     0.000 C 
BRANCH   4   5
ATOM      5  C   UNL     1       6.243  51.884  -2.615  1.00  0.00     0.000 C 
BRANCH   5   6
ATOM      6  C   UNL     1       7.113  52.901  -1.860  1.00  0.00     0.006 C 
BRANCH   6   7
ATOM      7  C   UNL     1       8.356  52.229  -1.269  1.00  0.00     0.053 C 
BRANCH   7   8
ATOM      8  C   UNL     1       9.529  53.156  -1.327  1.00  0.00     0.041 C 
ATOM      9  O   UNL     1      10.700  52.694  -1.343  1.00  0.00    -0.550 OA
ATOM     10  O   UNL     1       9.329  54.527  -1.408  1.00  0.00    -0.550 OA
ENDBRANCH   7   8
ENDBRANCH   6   7
ENDBRANCH   5   6
ENDBRANCH   4   5
ENDBRANCH   3   4
ENDBRANCH   2   3
ENDBRANCH   1   2
BRANCH   1  11
ATOM     11  C   UNL     1       2.477  51.590  -0.957  1.00  0.00     0.000 C 
BRANCH  11  12
ATOM     12  C   UNL     1       2.367  50.760   0.332  1.00  0.00     0.000 C 
BRANCH  12  13
ATOM     13  C   UNL     1       3.500  51.113   1.308  1.00  0.00     0.000 C 
BRANCH  13  14
ATOM     14  C   UNL     1       4.512  52.102   0.707  1.00  0.00     0.000 C 
BRANCH  14  15
ATOM     15  C   UNL     1       4.572  53.428   1.481  1.00  0.00     0.000 C 
BRANCH  15  16
ATOM     16  C   UNL     1       4.610  54.623   0.521  1.00  0.00     0.006 C 
BRANCH  16  17
ATOM     17  C   UNL     1       3.200  55.000   0.057  1.00  0.00     0.053 C 
BRANCH  17  18
ATOM     18  C   UNL     1       3.028  56.486   0.053  1.00  0.00     0.041 C 
ATOM     19  O   UNL     1       1.875  56.990   0.055  1.00  0.00    -0.550 OA
ATOM     20  O   UNL     1       4.142  57.315   0.093  1.00  0.00    -0.550 OA
ENDBRANCH  17  18
ENDBRANCH  16  17
ENDBRANCH  15  16
ENDBRANCH  14  15
ENDBRANCH  13  14
ENDBRANCH  12  13
ENDBRANCH  11  12
ENDBRANCH   1  11
TORSDOF 15
ENDMDL
