MODEL 1
REMARK VINA RESULT:   -10.214      0.000      0.000
REMARK INTER + INTRA:         -11.231
REMARK INTER:                 -11.110
REMARK INTRA:                  -0.122
REMARK UNBOUND:                -0.122
REMARK SMILES C[C@H]1[C@H](C)CC[C@@]2(C(=O)[O-])CC[C@@]3(C)C(=CC[C@H]4[C@]5(C)CC[C@@H](O)C(C)(C)[C@H]5CC[C@@]43C)[C@@H]12
REMARK SMILES IDX 7 1 6 2 11 3 33 4 5 5 12 6 15 7 2 8 3 9 13 10 16 11 1 12
REMARK SMILES IDX 4 13 14 14 31 15 17 16 18 17 30 18 32 19 19 20 29 21 28 22
REMARK SMILES IDX 21 23 20 24 25 25 22 26 23 27 26 28 27 29 8 30 9 31 10 32
REMARK SMILES IDX 24 33
REMARK H PARENT 24 34
REMARK Flexibility Score: inf
ROOT
ATOM      1  C   UNL     1     -37.494  36.762  46.446  1.00  0.00     0.017 C 
ATOM      2  C   UNL     1     -38.309  35.885  47.439  1.00  0.00     0.014 C 
ATOM      3  C   UNL     1     -37.778  36.325  44.990  1.00  0.00     0.014 C 
ATOM      4  C   UNL     1     -37.807  38.298  46.604  1.00  0.00     0.030 C 
ATOM      5  C   UNL     1     -39.782  36.273  47.556  1.00  0.00     0.004 C 
ATOM      6  C   UNL     1     -36.848  37.032  43.994  1.00  0.00     0.013 C 
ATOM      7  C   UNL     1     -37.228  39.152  45.458  1.00  0.00    -0.063 C 
ATOM      8  C   UNL     1     -39.294  38.693  46.954  1.00  0.00    -0.003 C 
ATOM      9  C   UNL     1     -39.950  37.737  47.981  1.00  0.00    -0.011 C 
ATOM     10  C   UNL     1     -36.907  38.600  44.050  1.00  0.00    -0.006 C 
ATOM     11  C   UNL     1     -36.992  40.463  45.721  1.00  0.00    -0.027 C 
ATOM     12  C   UNL     1     -40.230  38.912  45.751  1.00  0.00     0.008 C 
ATOM     13  C   UNL     1     -39.446  37.994  49.414  1.00  0.00     0.008 C 
ATOM     14  C   UNL     1     -38.107  39.005  43.128  1.00  0.00     0.017 C 
ATOM     15  C   UNL     1     -35.514  39.258  43.583  1.00  0.00    -0.020 C 
ATOM     16  C   UNL     1     -36.334  41.439  44.766  1.00  0.00     0.032 C 
ATOM     17  C   UNL     1     -35.753  40.824  43.451  1.00  0.00     0.006 C 
ATOM     18  C   UNL     1     -35.017  38.660  42.222  1.00  0.00     0.008 C 
ATOM     19  C   UNL     1     -34.402  38.952  44.646  1.00  0.00     0.012 C 
ATOM     20  C   UNL     1     -34.585  41.652  42.763  1.00  0.00    -0.025 C 
ATOM     21  C   UNL     1     -33.899  39.467  41.530  1.00  0.00     0.005 C 
ATOM     22  C   UNL     1     -34.328  40.945  41.369  1.00  0.00     0.003 C 
ATOM     23  C   UNL     1     -35.030  43.148  42.500  1.00  0.00     0.010 C 
ATOM     24  C   UNL     1     -33.305  41.692  43.679  1.00  0.00     0.012 C 
ATOM     25  C   UNL     1     -33.560  41.831  40.316  1.00  0.00    -0.006 C 
ATOM     26  C   UNL     1     -35.518  43.422  41.076  1.00  0.00     0.033 C 
ATOM     27  C   UNL     1     -34.424  43.125  40.015  1.00  0.00     0.120 C 
ATOM     28  C   UNL     1     -33.385  41.063  38.979  1.00  0.00     0.014 C 
ATOM     29  C   UNL     1     -32.134  42.196  40.804  1.00  0.00     0.014 C 
ENDROOT
BRANCH   1  30
ATOM     30  C   UNL     1     -36.026  36.458  46.766  1.00  0.00     0.048 C 
ATOM     31  O   UNL     1     -35.333  37.230  47.480  1.00  0.00    -0.550 OA
ATOM     32  O   UNL     1     -35.459  35.265  46.333  1.00  0.00    -0.550 OA
ENDBRANCH   1  30
BRANCH  27  33
ATOM     33  O   UNL     1     -33.603  44.258  39.848  1.00  0.00    -0.393 OA
ATOM     34  H   UNL     1     -33.246  44.230  38.922  1.00  0.00     0.210 HD
ENDBRANCH  27  33
TORSDOF 2
ENDMDL
MODEL 2
REMARK VINA RESULT:   -10.132      1.843      8.070
REMARK INTER + INTRA:         -11.143
REMARK INTER:                 -11.020
REMARK INTRA:                  -0.122
REMARK UNBOUND:                -0.122
REMARK SMILES C[C@H]1[C@H](C)CC[C@@]2(C(=O)[O-])CC[C@@]3(C)C(=CC[C@H]4[C@]5(C)CC[C@@H](O)C(C)(C)[C@H]5CC[C@@]43C)[C@@H]12
REMARK SMILES IDX 7 1 6 2 11 3 33 4 5 5 12 6 15 7 2 8 3 9 13 10 16 11 1 12
REMARK SMILES IDX 4 13 14 14 31 15 17 16 18 17 30 18 32 19 19 20 29 21 28 22
REMARK SMILES IDX 21 23 20 24 25 25 22 26 23 27 26 28 27 29 8 30 9 31 10 32
REMARK SMILES IDX 24 33
REMARK H PARENT 24 34
REMARK Flexibility Score: inf
ROOT
ATOM      1  C   UNL     1     -32.809  42.180  40.637  1.00  0.00     0.017 C 
ATOM      2  C   UNL     1     -32.047  43.100  39.641  1.00  0.00     0.014 C 
ATOM      3  C   UNL     1     -32.400  42.513  42.091  1.00  0.00     0.014 C 
ATOM      4  C   UNL     1     -34.373  42.301  40.492  1.00  0.00     0.030 C 
ATOM      5  C   UNL     1     -32.616  44.513  39.531  1.00  0.00     0.004 C 
ATOM      6  C   UNL     1     -32.979  41.500  43.089  1.00  0.00     0.013 C 
ATOM      7  C   UNL     1     -35.141  41.618  41.642  1.00  0.00    -0.063 C 
ATOM      8  C   UNL     1     -34.952  43.728  40.150  1.00  0.00    -0.003 C 
ATOM      9  C   UNL     1     -34.092  44.501  39.118  1.00  0.00    -0.011 C 
ATOM     10  C   UNL     1     -34.542  41.365  43.045  1.00  0.00    -0.006 C 
ATOM     11  C   UNL     1     -36.415  41.222  41.388  1.00  0.00    -0.027 C 
ATOM     12  C   UNL     1     -35.276  44.628  41.357  1.00  0.00     0.008 C 
ATOM     13  C   UNL     1     -34.297  43.971  37.686  1.00  0.00     0.008 C 
ATOM     14  C   UNL     1     -35.086  42.503  43.974  1.00  0.00     0.017 C 
ATOM     15  C   UNL     1     -35.020  39.900  43.512  1.00  0.00    -0.020 C 
ATOM     16  C   UNL     1     -37.294  40.447  42.348  1.00  0.00     0.032 C 
ATOM     17  C   UNL     1     -36.602  39.943  43.656  1.00  0.00     0.006 C 
ATOM     18  C   UNL     1     -34.353  39.478  44.867  1.00  0.00     0.008 C 
ATOM     19  C   UNL     1     -34.586  38.837  42.443  1.00  0.00     0.012 C 
ATOM     20  C   UNL     1     -37.273  38.679  44.347  1.00  0.00    -0.025 C 
ATOM     21  C   UNL     1     -35.011  38.266  45.561  1.00  0.00     0.005 C 
ATOM     22  C   UNL     1     -36.530  38.509  45.735  1.00  0.00     0.003 C 
ATOM     23  C   UNL     1     -38.811  38.935  44.622  1.00  0.00     0.010 C 
ATOM     24  C   UNL     1     -37.162  37.407  43.427  1.00  0.00     0.012 C 
ATOM     25  C   UNL     1     -37.305  37.634  46.791  1.00  0.00    -0.006 C 
ATOM     26  C   UNL     1     -39.132  39.383  46.049  1.00  0.00     0.033 C 
ATOM     27  C   UNL     1     -38.694  38.331  47.104  1.00  0.00     0.120 C 
ATOM     28  C   UNL     1     -36.512  37.553  48.122  1.00  0.00     0.014 C 
ATOM     29  C   UNL     1     -37.495  36.175  46.301  1.00  0.00     0.014 C 
ENDROOT
BRANCH   1  30
ATOM     30  C   UNL     1     -32.328  40.762  40.310  1.00  0.00     0.048 C 
ATOM     31  O   UNL     1     -33.009  39.985  39.589  1.00  0.00    -0.550 OA
ATOM     32  O   UNL     1     -31.077  40.341  40.745  1.00  0.00    -0.550 OA
ENDBRANCH   1  30
BRANCH  27  33
ATOM     33  O   UNL     1     -39.715  37.376  47.277  1.00  0.00    -0.393 OA
ATOM     34  H   UNL     1     -40.119  37.210  46.385  1.00  0.00     0.210 HD
ENDBRANCH  27  33
TORSDOF 2
ENDMDL
MODEL 3
REMARK VINA RESULT:   -10.047      1.731      8.102
REMARK INTER + INTRA:         -11.050
REMARK INTER:                 -10.969
REMARK INTRA:                  -0.081
REMARK UNBOUND:                -0.122
REMARK SMILES C[C@H]1[C@H](C)CC[C@@]2(C(=O)[O-])CC[C@@]3(C)C(=CC[C@H]4[C@]5(C)CC[C@@H](O)C(C)(C)[C@H]5CC[C@@]43C)[C@@H]12
REMARK SMILES IDX 7 1 6 2 11 3 33 4 5 5 12 6 15 7 2 8 3 9 13 10 16 11 1 12
REMARK SMILES IDX 4 13 14 14 31 15 17 16 18 17 30 18 32 19 19 20 29 21 28 22
REMARK SMILES IDX 21 23 20 24 25 25 22 26 23 27 26 28 27 29 8 30 9 31 10 32
REMARK SMILES IDX 24 33
REMARK H PARENT 24 34
REMARK Flexibility Score: inf
ROOT
ATOM      1  C   UNL     1     -35.106  41.862  41.913  1.00  0.00     0.017 C 
ATOM      2  C   UNL     1     -34.370  42.656  40.796  1.00  0.00     0.014 C 
ATOM      3  C   UNL     1     -36.563  41.567  41.488  1.00  0.00     0.014 C 
ATOM      4  C   UNL     1     -34.380  40.510  42.268  1.00  0.00     0.030 C 
ATOM      5  C   UNL     1     -33.908  41.799  39.618  1.00  0.00     0.004 C 
ATOM      6  C   UNL     1     -37.378  40.961  42.639  1.00  0.00     0.013 C 
ATOM      7  C   UNL     1     -35.229  39.585  43.163  1.00  0.00    -0.063 C 
ATOM      8  C   UNL     1     -33.697  39.730  41.078  1.00  0.00    -0.003 C 
ATOM      9  C   UNL     1     -32.981  40.665  40.071  1.00  0.00    -0.011 C 
ATOM     10  C   UNL     1     -36.773  39.642  43.239  1.00  0.00    -0.006 C 
ATOM     11  C   UNL     1     -34.565  38.676  43.922  1.00  0.00    -0.027 C 
ATOM     12  C   UNL     1     -34.595  38.726  40.331  1.00  0.00     0.008 C 
ATOM     13  C   UNL     1     -31.640  41.187  40.622  1.00  0.00     0.008 C 
ATOM     14  C   UNL     1     -37.307  38.485  42.328  1.00  0.00     0.017 C 
ATOM     15  C   UNL     1     -37.183  39.456  44.784  1.00  0.00    -0.020 C 
ATOM     16  C   UNL     1     -35.208  37.752  44.937  1.00  0.00     0.032 C 
ATOM     17  C   UNL     1     -36.725  37.999  45.222  1.00  0.00     0.006 C 
ATOM     18  C   UNL     1     -38.725  39.639  45.001  1.00  0.00     0.008 C 
ATOM     19  C   UNL     1     -36.470  40.549  45.656  1.00  0.00     0.012 C 
ATOM     20  C   UNL     1     -37.249  37.500  46.637  1.00  0.00    -0.025 C 
ATOM     21  C   UNL     1     -39.252  39.135  46.361  1.00  0.00     0.005 C 
ATOM     22  C   UNL     1     -38.823  37.666  46.590  1.00  0.00     0.003 C 
ATOM     23  C   UNL     1     -36.905  35.970  46.860  1.00  0.00     0.010 C 
ATOM     24  C   UNL     1     -36.577  38.310  47.806  1.00  0.00     0.012 C 
ATOM     25  C   UNL     1     -39.604  36.824  47.669  1.00  0.00    -0.006 C 
ATOM     26  C   UNL     1     -38.056  35.011  46.545  1.00  0.00     0.033 C 
ATOM     27  C   UNL     1     -39.304  35.286  47.427  1.00  0.00     0.120 C 
ATOM     28  C   UNL     1     -41.135  37.031  47.522  1.00  0.00     0.014 C 
ATOM     29  C   UNL     1     -39.237  37.258  49.112  1.00  0.00     0.014 C 
ENDROOT
BRANCH   1  30
ATOM     30  C   UNL     1     -35.133  42.811  43.117  1.00  0.00     0.048 C 
ATOM     31  O   UNL     1     -34.424  42.603  44.137  1.00  0.00    -0.550 OA
ATOM     32  O   UNL     1     -35.892  43.975  43.060  1.00  0.00    -0.550 OA
ENDBRANCH   1  30
BRANCH  27  33
ATOM     33  O   UNL     1     -39.187  34.593  48.648  1.00  0.00    -0.393 OA
ATOM     34  H   UNL     1     -39.743  35.073  49.316  1.00  0.00     0.210 HD
ENDBRANCH  27  33
TORSDOF 2
ENDMDL
MODEL 4
REMARK VINA RESULT:    -8.996      1.943      3.951
REMARK INTER + INTRA:          -9.906
REMARK INTER:                  -9.875
REMARK INTRA:                  -0.031
REMARK UNBOUND:                -0.122
REMARK SMILES C[C@H]1[C@H](C)CC[C@@]2(C(=O)[O-])CC[C@@]3(C)C(=CC[C@H]4[C@]5(C)CC[C@@H](O)C(C)(C)[C@H]5CC[C@@]43C)[C@@H]12
REMARK SMILES IDX 7 1 6 2 11 3 33 4 5 5 12 6 15 7 2 8 3 9 13 10 16 11 1 12
REMARK SMILES IDX 4 13 14 14 31 15 17 16 18 17 30 18 32 19 19 20 29 21 28 22
REMARK SMILES IDX 21 23 20 24 25 25 22 26 23 27 26 28 27 29 8 30 9 31 10 32
REMARK SMILES IDX 24 33
REMARK H PARENT 24 34
REMARK Flexibility Score: inf
ROOT
ATOM      1  C   UNL     1     -37.566  39.121  45.293  1.00  0.00     0.017 C 
ATOM      2  C   UNL     1     -38.249  38.298  46.422  1.00  0.00     0.014 C 
ATOM      3  C   UNL     1     -37.420  40.599  45.722  1.00  0.00     0.014 C 
ATOM      4  C   UNL     1     -36.151  38.546  44.902  1.00  0.00     0.030 C 
ATOM      5  C   UNL     1     -37.321  37.925  47.576  1.00  0.00     0.004 C 
ATOM      6  C   UNL     1     -36.931  41.481  44.565  1.00  0.00     0.013 C 
ATOM      7  C   UNL     1     -35.345  39.495  43.994  1.00  0.00    -0.063 C 
ATOM      8  C   UNL     1     -35.275  37.946  46.069  1.00  0.00    -0.003 C 
ATOM      9  C   UNL     1     -36.104  37.128  47.091  1.00  0.00    -0.011 C 
ATOM     10  C   UNL     1     -35.569  41.024  43.931  1.00  0.00    -0.006 C 
ATOM     11  C   UNL     1     -34.387  38.938  43.210  1.00  0.00    -0.027 C 
ATOM     12  C   UNL     1     -34.357  38.943  46.800  1.00  0.00     0.008 C 
ATOM     13  C   UNL     1     -36.491  35.741  46.542  1.00  0.00     0.008 C 
ATOM     14  C   UNL     1     -34.456  41.676  44.820  1.00  0.00     0.017 C 
ATOM     15  C   UNL     1     -35.464  41.461  42.385  1.00  0.00    -0.020 C 
ATOM     16  C   UNL     1     -33.561  39.682  42.179  1.00  0.00     0.032 C 
ATOM     17  C   UNL     1     -33.976  41.165  41.911  1.00  0.00     0.006 C 
ATOM     18  C   UNL     1     -35.817  42.975  42.184  1.00  0.00     0.008 C 
ATOM     19  C   UNL     1     -36.494  40.638  41.532  1.00  0.00     0.012 C 
ATOM     20  C   UNL     1     -33.569  41.747  40.490  1.00  0.00    -0.025 C 
ATOM     21  C   UNL     1     -35.405  43.560  40.817  1.00  0.00     0.005 C 
ATOM     22  C   UNL     1     -33.903  43.294  40.552  1.00  0.00     0.003 C 
ATOM     23  C   UNL     1     -32.017  41.572  40.230  1.00  0.00     0.010 C 
ATOM     24  C   UNL     1     -34.329  40.997  39.333  1.00  0.00     0.012 C 
ATOM     25  C   UNL     1     -33.176  44.167  39.460  1.00  0.00    -0.006 C 
ATOM     26  C   UNL     1     -31.181  42.818  40.532  1.00  0.00     0.033 C 
ATOM     27  C   UNL     1     -31.610  44.033  39.666  1.00  0.00     0.120 C 
ATOM     28  C   UNL     1     -33.544  45.665  39.624  1.00  0.00     0.014 C 
ATOM     29  C   UNL     1     -33.601  43.762  38.025  1.00  0.00     0.014 C 
ENDROOT
BRANCH   1  30
ATOM     30  C   UNL     1     -38.539  39.052  44.111  1.00  0.00     0.048 C 
ATOM     31  O   UNL     1     -38.247  38.437  43.051  1.00  0.00    -0.550 OA
ATOM     32  O   UNL     1     -39.809  39.606  44.231  1.00  0.00    -0.550 OA
ENDBRANCH   1  30
BRANCH  27  33
ATOM     33  O   UNL     1     -30.935  43.998  38.429  1.00  0.00    -0.393 OA
ATOM     34  H   UNL     1     -31.011  43.073  38.078  1.00  0.00     0.210 HD
ENDBRANCH  27  33
TORSDOF 2
ENDMDL
