MODEL 1
REMARK VINA RESULT:    -5.380      0.000      0.000
REMARK INTER + INTRA:          -7.494
REMARK INTER:                  -7.582
REMARK INTRA:                   0.089
REMARK UNBOUND:                 0.089
REMARK SMILES CC1=CCC(=C(C)C)C(=O)CC(C)=CCC1
REMARK SMILES IDX 12 1 14 2 13 3 15 4 16 5 2 6 1 7 3 8 11 10 9 11 10 12 5 13
REMARK SMILES IDX 6 14 7 15 8 16 4 17
REMARK H PARENT
REMARK Flexibility Score: 60.00
ROOT
ATOM      1  C   UNL     1     -12.857 -15.592  29.207  1.00  0.00    -0.070 C 
ATOM      2  C   UNL     1     -13.642 -15.452  30.314  1.00  0.00    -0.027 C 
ATOM      3  C   UNL     1     -13.544 -15.449  27.869  1.00  0.00     0.039 C 
ENDROOT
BRANCH   2   4
ATOM      4  C   UNL     1     -13.328 -15.585  31.800  1.00  0.00     0.032 C 
BRANCH   4   5
ATOM      5  C   UNL     1     -12.567 -16.838  32.248  1.00  0.00     0.034 C 
BRANCH   5   6
ATOM      6  C   UNL     1     -11.050 -16.724  32.457  1.00  0.00    -0.077 C 
ATOM      7  C   UNL     1     -10.641 -15.615  33.403  1.00  0.00     0.039 C 
ATOM      8  C   UNL     1     -10.045 -17.393  31.814  1.00  0.00    -0.023 CG0
ATOM      9  G   UNL     1     -10.099 -18.534  30.816  1.00  0.00     0.000 G0
ENDBRANCH   5   6
ENDBRANCH   4   5
ENDBRANCH   2   4
BRANCH   1  10
ATOM     10  C   UNL     1     -11.360 -15.867  29.176  1.00  0.00     0.111 C 
BRANCH  10  11
ATOM     11  C   UNL     1     -11.061 -17.287  28.806  1.00  0.00     0.163 C 
ATOM     12  O   UNL     1     -10.711 -17.551  27.624  1.00  0.00    -0.294 OA
BRANCH  11  13
ATOM     13  C   UNL     1     -11.214 -18.377  29.803  1.00  0.00    -0.002 C 
ATOM     14  C   UNL     1     -12.319 -19.178  29.821  1.00  0.00    -0.069 C 
ATOM     15  C   UNL     1     -12.529 -20.216  30.900  1.00  0.00     0.039 C 
ATOM     16  C   UNL     1     -13.378 -19.071  28.747  1.00  0.00     0.039 C 
BRANCH  13  17
ATOM     17  C   UNL     1     -10.086 -18.526  30.802  1.00  0.00     0.066 CG0
ATOM     18  G   UNL     1     -10.051 -17.386  31.803  1.00  0.00     0.000 G0
ENDBRANCH  13  17
ENDBRANCH  11  13
ENDBRANCH  10  11
ENDBRANCH   1  10
TORSDOF 0
ENDMDL
MODEL 2
REMARK VINA RESULT:    -4.920      1.975      4.244
REMARK INTER + INTRA:          -6.845
REMARK INTER:                  -7.120
REMARK INTRA:                   0.275
REMARK UNBOUND:                 0.089
REMARK SMILES CC1=CCC(=C(C)C)C(=O)CC(C)=CCC1
REMARK SMILES IDX 12 1 14 2 13 3 15 4 16 5 2 6 1 7 3 8 11 10 9 11 10 12 5 13
REMARK SMILES IDX 6 14 7 15 8 16 4 17
REMARK H PARENT
REMARK Flexibility Score: 60.00
ROOT
ATOM      1  C   UNL     1     -12.750 -19.102  29.048  1.00  0.00    -0.070 C 
ATOM      2  C   UNL     1     -12.346 -18.189  28.119  1.00  0.00    -0.027 C 
ATOM      3  C   UNL     1     -13.935 -19.964  28.678  1.00  0.00     0.039 C 
ENDROOT
BRANCH   2   4
ATOM      4  C   UNL     1     -11.252 -17.127  28.153  1.00  0.00     0.032 C 
BRANCH   4   5
ATOM      5  C   UNL     1     -11.478 -15.916  29.065  1.00  0.00     0.034 C 
BRANCH   5   6
ATOM      6  C   UNL     1     -12.924 -15.520  29.393  1.00  0.00    -0.077 C 
ATOM      7  C   UNL     1     -13.672 -14.904  28.229  1.00  0.00     0.039 C 
ATOM      8  C   UNL     1     -13.561 -15.532  30.603  1.00  0.00    -0.023 CG0
ATOM      9  G   UNL     1     -13.109 -16.057  31.953  1.00  0.00     0.000 G0
ENDBRANCH   5   6
ENDBRANCH   4   5
ENDBRANCH   2   4
BRANCH   1  10
ATOM     10  C   UNL     1     -12.128 -19.355  30.414  1.00  0.00     0.111 C 
BRANCH  10  11
ATOM     11  C   UNL     1     -12.761 -18.515  31.480  1.00  0.00     0.163 C 
ATOM     12  O   UNL     1     -13.835 -18.908  32.012  1.00  0.00    -0.294 OA
BRANCH  11  13
ATOM     13  C   UNL     1     -12.160 -17.216  31.878  1.00  0.00    -0.002 C 
ATOM     14  C   UNL     1     -10.829 -17.103  32.159  1.00  0.00    -0.069 C 
ATOM     15  C   UNL     1     -10.234 -15.810  32.670  1.00  0.00     0.039 C 
ATOM     16  C   UNL     1      -9.886 -18.267  31.956  1.00  0.00     0.039 C 
BRANCH  13  17
ATOM     17  C   UNL     1     -13.114 -16.044  31.971  1.00  0.00     0.066 CG0
ATOM     18  G   UNL     1     -13.534 -15.536  30.605  1.00  0.00     0.000 G0
ENDBRANCH  13  17
ENDBRANCH  11  13
ENDBRANCH  10  11
ENDBRANCH   1  10
TORSDOF 0
ENDMDL
MODEL 3
REMARK VINA RESULT:    -4.916      1.896      4.373
REMARK INTER + INTRA:          -6.840
REMARK INTER:                  -7.152
REMARK INTRA:                   0.313
REMARK UNBOUND:                 0.089
REMARK SMILES CC1=CCC(=C(C)C)C(=O)CC(C)=CCC1
REMARK SMILES IDX 12 1 14 2 13 3 15 4 16 5 2 6 1 7 3 8 11 10 9 11 10 12 5 13
REMARK SMILES IDX 6 14 7 15 8 16 4 17
REMARK H PARENT
REMARK Flexibility Score: 60.00
ROOT
ATOM      1  C   UNL     1     -12.111 -16.762  31.991  1.00  0.00    -0.070 C 
ATOM      2  C   UNL     1     -12.292 -18.102  32.168  1.00  0.00    -0.027 C 
ATOM      3  C   UNL     1     -11.230 -16.060  32.998  1.00  0.00     0.039 C 
ENDROOT
BRANCH   2   4
ATOM      4  C   UNL     1     -13.140 -19.118  31.409  1.00  0.00     0.032 C 
BRANCH   4   5
ATOM      5  C   UNL     1     -12.476 -19.850  30.237  1.00  0.00     0.034 C 
BRANCH   5   6
ATOM      6  C   UNL     1     -13.086 -19.675  28.839  1.00  0.00    -0.077 C 
ATOM      7  C   UNL     1     -14.132 -20.713  28.490  1.00  0.00     0.039 C 
ATOM      8  C   UNL     1     -12.721 -18.805  27.849  1.00  0.00    -0.023 CG0
ATOM      9  G   UNL     1     -11.719 -17.665  27.855  1.00  0.00     0.000 G0
ENDBRANCH   5   6
ENDBRANCH   4   5
ENDBRANCH   2   4
BRANCH   1  10
ATOM     10  C   UNL     1     -12.694 -15.899  30.881  1.00  0.00     0.111 C 
BRANCH  10  11
ATOM     11  C   UNL     1     -11.823 -15.894  29.662  1.00  0.00     0.163 C 
ATOM     12  O   UNL     1     -10.651 -15.436  29.749  1.00  0.00    -0.294 OA
BRANCH  11  13
ATOM     13  C   UNL     1     -12.342 -16.380  28.358  1.00  0.00    -0.002 C 
ATOM     14  C   UNL     1     -13.324 -15.711  27.687  1.00  0.00    -0.069 C 
ATOM     15  C   UNL     1     -13.931 -16.260  26.416  1.00  0.00     0.039 C 
ATOM     16  C   UNL     1     -13.838 -14.377  28.180  1.00  0.00     0.039 C 
BRANCH  13  17
ATOM     17  C   UNL     1     -11.733 -17.665  27.839  1.00  0.00     0.066 CG0
ATOM     18  G   UNL     1     -12.724 -18.814  27.847  1.00  0.00     0.000 G0
ENDBRANCH  13  17
ENDBRANCH  11  13
ENDBRANCH  10  11
ENDBRANCH   1  10
TORSDOF 0
ENDMDL
MODEL 4
REMARK VINA RESULT:    -4.909      1.971      4.593
REMARK INTER + INTRA:          -6.829
REMARK INTER:                  -7.135
REMARK INTRA:                   0.306
REMARK UNBOUND:                 0.089
REMARK SMILES CC1=CCC(=C(C)C)C(=O)CC(C)=CCC1
REMARK SMILES IDX 12 1 14 2 13 3 15 4 16 5 2 6 1 7 3 8 11 10 9 11 10 12 5 13
REMARK SMILES IDX 6 14 7 15 8 16 4 17
REMARK H PARENT
REMARK Flexibility Score: 60.00
ROOT
ATOM      1  C   UNL     1     -12.469 -19.655  30.326  1.00  0.00    -0.070 C 
ATOM      2  C   UNL     1     -13.499 -19.748  29.437  1.00  0.00    -0.027 C 
ATOM      3  C   UNL     1     -12.625 -20.414  31.624  1.00  0.00     0.039 C 
ENDROOT
BRANCH   2   4
ATOM      4  C   UNL     1     -13.726 -19.092  28.080  1.00  0.00     0.032 C 
BRANCH   4   5
ATOM      5  C   UNL     1     -12.642 -18.133  27.574  1.00  0.00     0.034 C 
BRANCH   5   6
ATOM      6  C   UNL     1     -12.977 -16.636  27.510  1.00  0.00    -0.077 C 
ATOM      7  C   UNL     1     -13.893 -16.258  26.365  1.00  0.00     0.039 C 
ATOM      8  C   UNL     1     -12.462 -15.612  28.256  1.00  0.00    -0.023 CG0
ATOM      9  G   UNL     1     -11.527 -15.632  29.451  1.00  0.00     0.000 G0
ENDBRANCH   5   6
ENDBRANCH   4   5
ENDBRANCH   2   4
BRANCH   1  10
ATOM     10  C   UNL     1     -11.173 -18.877  30.147  1.00  0.00     0.111 C 
BRANCH  10  11
ATOM     11  C   UNL     1     -11.158 -17.621  30.964  1.00  0.00     0.163 C 
ATOM     12  O   UNL     1     -10.428 -17.568  31.990  1.00  0.00    -0.294 OA
BRANCH  11  13
ATOM     13  C   UNL     1     -12.022 -16.470  30.598  1.00  0.00    -0.002 C 
ATOM     14  C   UNL     1     -13.201 -16.229  31.242  1.00  0.00    -0.069 C 
ATOM     15  C   UNL     1     -14.134 -15.125  30.801  1.00  0.00     0.039 C 
ATOM     16  C   UNL     1     -13.618 -17.053  32.440  1.00  0.00     0.039 C 
BRANCH  13  17
ATOM     17  C   UNL     1     -11.525 -15.602  29.462  1.00  0.00     0.066 CG0
ATOM     18  G   UNL     1     -12.460 -15.629  28.267  1.00  0.00     0.000 G0
ENDBRANCH  13  17
ENDBRANCH  11  13
ENDBRANCH  10  11
ENDBRANCH   1  10
TORSDOF 0
ENDMDL
MODEL 5
REMARK VINA RESULT:    -4.866      1.851      3.780
REMARK INTER + INTRA:          -6.768
REMARK INTER:                  -6.954
REMARK INTRA:                   0.186
REMARK UNBOUND:                 0.089
REMARK SMILES CC1=CCC(=C(C)C)C(=O)CC(C)=CCC1
REMARK SMILES IDX 12 1 14 2 13 3 15 4 16 5 2 6 1 7 3 8 11 10 9 11 10 12 5 13
REMARK SMILES IDX 6 14 7 15 8 16 4 17
REMARK H PARENT
REMARK Flexibility Score: 60.00
ROOT
ATOM      1  C   UNL     1     -11.448 -16.246  31.579  1.00  0.00    -0.070 C 
ATOM      2  C   UNL     1     -12.734 -15.832  31.384  1.00  0.00    -0.027 C 
ATOM      3  C   UNL     1     -10.950 -16.259  33.005  1.00  0.00     0.039 C 
ENDROOT
BRANCH   2   4
ATOM      4  C   UNL     1     -13.551 -15.633  30.113  1.00  0.00     0.032 C 
BRANCH   4   5
ATOM      5  C   UNL     1     -12.781 -15.306  28.828  1.00  0.00     0.034 C 
BRANCH   5   6
ATOM      6  C   UNL     1     -13.101 -16.122  27.568  1.00  0.00    -0.077 C 
ATOM      7  C   UNL     1     -14.274 -15.591  26.772  1.00  0.00     0.039 C 
ATOM      8  C   UNL     1     -12.559 -17.308  27.157  1.00  0.00    -0.023 CG0
ATOM      9  G   UNL     1     -11.400 -18.112  27.716  1.00  0.00     0.000 G0
ENDBRANCH   5   6
ENDBRANCH   4   5
ENDBRANCH   2   4
BRANCH   1  10
ATOM     10  C   UNL     1     -10.464 -16.707  30.513  1.00  0.00     0.111 C 
BRANCH  10  11
ATOM     11  C   UNL     1     -10.649 -18.153  30.169  1.00  0.00     0.163 C 
ATOM     12  O   UNL     1      -9.907 -19.012  30.718  1.00  0.00    -0.294 OA
BRANCH  11  13
ATOM     13  C   UNL     1     -11.662 -18.569  29.166  1.00  0.00    -0.002 C 
ATOM     14  C   UNL     1     -12.743 -19.326  29.516  1.00  0.00    -0.069 C 
ATOM     15  C   UNL     1     -13.716 -19.843  28.481  1.00  0.00     0.039 C 
ATOM     16  C   UNL     1     -13.022 -19.668  30.962  1.00  0.00     0.039 C 
BRANCH  13  17
ATOM     17  C   UNL     1     -11.409 -18.123  27.742  1.00  0.00     0.066 CG0
ATOM     18  G   UNL     1     -12.561 -17.310  27.181  1.00  0.00     0.000 G0
ENDBRANCH  13  17
ENDBRANCH  11  13
ENDBRANCH  10  11
ENDBRANCH   1  10
TORSDOF 0
ENDMDL
MODEL 6
REMARK VINA RESULT:    -4.821      1.754      3.579
REMARK INTER + INTRA:          -6.705
REMARK INTER:                  -6.887
REMARK INTRA:                   0.181
REMARK UNBOUND:                 0.089
REMARK SMILES CC1=CCC(=C(C)C)C(=O)CC(C)=CCC1
REMARK SMILES IDX 12 1 14 2 13 3 15 4 16 5 2 6 1 7 3 8 11 10 9 11 10 12 5 13
REMARK SMILES IDX 6 14 7 15 8 16 4 17
REMARK H PARENT
REMARK Flexibility Score: 60.00
ROOT
ATOM      1  C   UNL     1     -12.830 -19.385  29.338  1.00  0.00    -0.070 C 
ATOM      2  C   UNL     1     -13.223 -19.618  30.623  1.00  0.00    -0.027 C 
ATOM      3  C   UNL     1     -13.784 -19.821  28.250  1.00  0.00     0.039 C 
ENDROOT
BRANCH   2   4
ATOM      4  C   UNL     1     -12.520 -19.378  31.955  1.00  0.00     0.032 C 
BRANCH   4   5
ATOM      5  C   UNL     1     -12.140 -17.933  32.297  1.00  0.00     0.034 C 
BRANCH   5   6
ATOM      6  C   UNL     1     -13.115 -16.817  31.897  1.00  0.00    -0.077 C 
ATOM      7  C   UNL     1     -14.350 -16.736  32.771  1.00  0.00     0.039 C 
ATOM      8  C   UNL     1     -13.074 -15.995  30.805  1.00  0.00    -0.023 CG0
ATOM      9  G   UNL     1     -12.010 -15.824  29.736  1.00  0.00     0.000 G0
ENDBRANCH   5   6
ENDBRANCH   4   5
ENDBRANCH   2   4
BRANCH   1  10
ATOM     10  C   UNL     1     -11.537 -18.724  28.882  1.00  0.00     0.111 C 
BRANCH  10  11
ATOM     11  C   UNL     1     -11.792 -17.599  27.926  1.00  0.00     0.163 C 
ATOM     12  O   UNL     1     -11.400 -17.708  26.733  1.00  0.00    -0.294 OA
BRANCH  11  13
ATOM     13  C   UNL     1     -12.459 -16.353  28.385  1.00  0.00    -0.002 C 
ATOM     14  C   UNL     1     -13.404 -15.728  27.623  1.00  0.00    -0.069 C 
ATOM     15  C   UNL     1     -14.005 -14.404  28.035  1.00  0.00     0.039 C 
ATOM     16  C   UNL     1     -13.903 -16.346  26.336  1.00  0.00     0.039 C 
BRANCH  13  17
ATOM     17  C   UNL     1     -12.011 -15.816  29.727  1.00  0.00     0.066 CG0
ATOM     18  G   UNL     1     -13.070 -15.994  30.799  1.00  0.00     0.000 G0
ENDBRANCH  13  17
ENDBRANCH  11  13
ENDBRANCH  10  11
ENDBRANCH   1  10
TORSDOF 0
ENDMDL
MODEL 7
REMARK VINA RESULT:    -4.620      2.121      3.967
REMARK INTER + INTRA:          -6.422
REMARK INTER:                  -6.879
REMARK INTRA:                   0.457
REMARK UNBOUND:                 0.089
REMARK SMILES CC1=CCC(=C(C)C)C(=O)CC(C)=CCC1
REMARK SMILES IDX 12 1 14 2 13 3 15 4 16 5 2 6 1 7 3 8 11 10 9 11 10 12 5 13
REMARK SMILES IDX 6 14 7 15 8 16 4 17
REMARK H PARENT
REMARK Flexibility Score: 60.00
ROOT
ATOM      1  C   UNL     1     -14.059 -15.144  31.163  1.00  0.00    -0.070 C 
ATOM      2  C   UNL     1     -14.067 -14.884  29.824  1.00  0.00    -0.027 C 
ATOM      3  C   UNL     1     -15.286 -14.727  31.940  1.00  0.00     0.039 C 
ENDROOT
BRANCH   2   4
ATOM      4  C   UNL     1     -13.012 -15.100  28.745  1.00  0.00     0.032 C 
BRANCH   4   5
ATOM      5  C   UNL     1     -13.237 -16.257  27.765  1.00  0.00     0.034 C 
BRANCH   5   6
ATOM      6  C   UNL     1     -12.199 -17.387  27.733  1.00  0.00    -0.077 C 
ATOM      7  C   UNL     1     -11.310 -17.373  26.507  1.00  0.00     0.039 C 
ATOM      8  C   UNL     1     -12.066 -18.451  28.582  1.00  0.00    -0.023 CG0
ATOM      9  G   UNL     1     -12.787 -18.778  29.876  1.00  0.00     0.000 G0
ENDBRANCH   5   6
ENDBRANCH   4   5
ENDBRANCH   2   4
BRANCH   1  10
ATOM     10  C   UNL     1     -12.950 -15.820  31.957  1.00  0.00     0.111 C 
BRANCH  10  11
ATOM     11  C   UNL     1     -13.074 -17.313  31.929  1.00  0.00     0.163 C 
ATOM     12  O   UNL     1     -13.943 -17.869  32.654  1.00  0.00    -0.294 OA
BRANCH  11  13
ATOM     13  C   UNL     1     -12.159 -18.133  31.094  1.00  0.00    -0.002 C 
ATOM     14  C   UNL     1     -10.834 -18.257  31.398  1.00  0.00    -0.069 C 
ATOM     15  C   UNL     1      -9.879 -18.999  30.492  1.00  0.00     0.039 C 
ATOM     16  C   UNL     1     -10.266 -17.668  32.670  1.00  0.00     0.039 C 
BRANCH  13  17
ATOM     17  C   UNL     1     -12.780 -18.795  29.883  1.00  0.00     0.066 CG0
ATOM     18  G   UNL     1     -12.068 -18.424  28.596  1.00  0.00     0.000 G0
ENDBRANCH  13  17
ENDBRANCH  11  13
ENDBRANCH  10  11
ENDBRANCH   1  10
TORSDOF 0
ENDMDL
MODEL 8
REMARK VINA RESULT:    -4.522      1.714      3.767
REMARK INTER + INTRA:          -6.283
REMARK INTER:                  -6.468
REMARK INTRA:                   0.185
REMARK UNBOUND:                 0.089
REMARK SMILES CC1=CCC(=C(C)C)C(=O)CC(C)=CCC1
REMARK SMILES IDX 12 1 14 2 13 3 15 4 16 5 2 6 1 7 3 8 11 10 9 11 10 12 5 13
REMARK SMILES IDX 6 14 7 15 8 16 4 17
REMARK H PARENT
REMARK Flexibility Score: 60.00
ROOT
ATOM      1  C   UNL     1     -12.604 -18.033  28.239  1.00  0.00    -0.070 C 
ATOM      2  C   UNL     1     -12.371 -19.268  28.770  1.00  0.00    -0.027 C 
ATOM      3  C   UNL     1     -11.778 -17.650  27.032  1.00  0.00     0.039 C 
ENDROOT
BRANCH   2   4
ATOM      4  C   UNL     1     -12.952 -19.968  29.994  1.00  0.00     0.032 C 
BRANCH   4   5
ATOM      5  C   UNL     1     -12.104 -19.965  31.271  1.00  0.00     0.034 C 
BRANCH   5   6
ATOM      6  C   UNL     1     -11.389 -18.663  31.659  1.00  0.00    -0.077 C 
ATOM      7  C   UNL     1      -9.881 -18.785  31.725  1.00  0.00     0.039 C 
ATOM      8  C   UNL     1     -11.933 -17.477  32.068  1.00  0.00    -0.023 CG0
ATOM      9  G   UNL     1     -13.380 -17.025  32.135  1.00  0.00     0.000 G0
ENDBRANCH   5   6
ENDBRANCH   4   5
ENDBRANCH   2   4
BRANCH   1  10
ATOM     10  C   UNL     1     -13.613 -17.003  28.725  1.00  0.00     0.111 C 
BRANCH  10  11
ATOM     11  C   UNL     1     -13.038 -16.114  29.784  1.00  0.00     0.163 C 
ATOM     12  O   UNL     1     -11.951 -15.517  29.558  1.00  0.00    -0.294 OA
BRANCH  11  13
ATOM     13  C   UNL     1     -13.714 -15.969  31.099  1.00  0.00    -0.002 C 
ATOM     14  C   UNL     1     -14.565 -14.933  31.353  1.00  0.00    -0.069 C 
ATOM     15  C   UNL     1     -15.168 -14.720  32.723  1.00  0.00     0.039 C 
ATOM     16  C   UNL     1     -14.955 -13.958  30.265  1.00  0.00     0.039 C 
BRANCH  13  17
ATOM     17  C   UNL     1     -13.382 -17.021  32.135  1.00  0.00     0.066 CG0
ATOM     18  G   UNL     1     -11.935 -17.470  32.054  1.00  0.00     0.000 G0
ENDBRANCH  13  17
ENDBRANCH  11  13
ENDBRANCH  10  11
ENDBRANCH   1  10
TORSDOF 0
ENDMDL
MODEL 9
REMARK VINA RESULT:    -4.380      2.205      4.948
REMARK INTER + INTRA:          -6.084
REMARK INTER:                  -6.167
REMARK INTRA:                   0.084
REMARK UNBOUND:                 0.089
REMARK SMILES CC1=CCC(=C(C)C)C(=O)CC(C)=CCC1
REMARK SMILES IDX 12 1 14 2 13 3 15 4 16 5 2 6 1 7 3 8 11 10 9 11 10 12 5 13
REMARK SMILES IDX 6 14 7 15 8 16 4 17
REMARK H PARENT
REMARK Flexibility Score: 60.00
ROOT
ATOM      1  C   UNL     1     -10.390 -17.380  31.930  1.00  0.00    -0.070 C 
ATOM      2  C   UNL     1      -9.880 -17.609  30.686  1.00  0.00    -0.027 C 
ATOM      3  C   UNL     1      -9.933 -18.309  33.031  1.00  0.00     0.039 C 
ENDROOT
BRANCH   2   4
ATOM      4  C   UNL     1     -10.145 -16.935  29.344  1.00  0.00     0.032 C 
BRANCH   4   5
ATOM      5  C   UNL     1     -10.956 -17.725  28.311  1.00  0.00     0.034 C 
BRANCH   5   6
ATOM      6  C   UNL     1     -12.403 -18.098  28.662  1.00  0.00    -0.077 C 
ATOM      7  C   UNL     1     -12.785 -19.512  28.278  1.00  0.00     0.039 C 
ATOM      8  C   UNL     1     -13.400 -17.296  29.144  1.00  0.00    -0.023 CG0
ATOM      9  G   UNL     1     -13.369 -15.852  29.610  1.00  0.00     0.000 G0
ENDBRANCH   5   6
ENDBRANCH   4   5
ENDBRANCH   2   4
BRANCH   1  10
ATOM     10  C   UNL     1     -11.365 -16.281  32.331  1.00  0.00     0.111 C 
BRANCH  10  11
ATOM     11  C   UNL     1     -12.777 -16.628  31.971  1.00  0.00     0.163 C 
ATOM     12  O   UNL     1     -13.261 -17.719  32.376  1.00  0.00    -0.294 OA
BRANCH  11  13
ATOM     13  C   UNL     1     -13.584 -15.722  31.114  1.00  0.00    -0.002 C 
ATOM     14  C   UNL     1     -14.477 -14.841  31.651  1.00  0.00    -0.069 C 
ATOM     15  C   UNL     1     -15.379 -13.996  30.780  1.00  0.00     0.039 C 
ATOM     16  C   UNL     1     -14.593 -14.661  33.148  1.00  0.00     0.039 C 
BRANCH  13  17
ATOM     17  C   UNL     1     -13.369 -15.854  29.622  1.00  0.00     0.066 CG0
ATOM     18  G   UNL     1     -13.392 -17.300  29.164  1.00  0.00     0.000 G0
ENDBRANCH  13  17
ENDBRANCH  11  13
ENDBRANCH  10  11
ENDBRANCH   1  10
TORSDOF 0
ENDMDL
