MODEL 1
REMARK VINA RESULT:    -5.890      0.000      0.000
REMARK INTER + INTRA:          -9.444
REMARK INTER:                  -8.989
REMARK INTRA:                  -0.455
REMARK UNBOUND:                -0.455
REMARK SMILES O=C([O-])CCCCCCCCC(=O)[O-]
REMARK SMILES IDX 7 1 6 2 5 3 4 4 2 5 1 6 3 7 8 8 9 9 10 10 11 11 12 12 13 13
REMARK SMILES IDX 14 14
REMARK H PARENT
REMARK Flexibility Score: inf
ROOT
ATOM      1  C   UNL     1      29.512  -0.291  40.543  1.00  0.00     0.000 C 
ENDROOT
BRANCH   1   2
ATOM      2  C   UNL     1      30.745  -1.028  41.088  1.00  0.00     0.000 C 
BRANCH   2   3
ATOM      3  C   UNL     1      32.036  -0.303  40.694  1.00  0.00     0.006 C 
BRANCH   3   4
ATOM      4  C   UNL     1      32.107  -0.091  39.179  1.00  0.00     0.053 C 
BRANCH   4   5
ATOM      5  C   UNL     1      32.016   1.366  38.848  1.00  0.00     0.041 C 
ATOM      6  O   UNL     1      32.123   1.752  37.655  1.00  0.00    -0.550 OA
ATOM      7  O   UNL     1      31.761   2.292  39.851  1.00  0.00    -0.550 OA
ENDBRANCH   4   5
ENDBRANCH   3   4
ENDBRANCH   2   3
ENDBRANCH   1   2
BRANCH   1   8
ATOM      8  C   UNL     1      28.222  -0.665  41.292  1.00  0.00     0.000 C 
BRANCH   8   9
ATOM      9  C   UNL     1      28.457  -1.725  42.382  1.00  0.00     0.000 C 
BRANCH   9  10
ATOM     10  C   UNL     1      28.343  -1.146  43.801  1.00  0.00     0.006 C 
BRANCH  10  11
ATOM     11  C   UNL     1      29.040  -2.020  44.852  1.00  0.00     0.053 C 
BRANCH  11  12
ATOM     12  C   UNL     1      30.241  -1.320  45.401  1.00  0.00     0.041 C 
ATOM     13  O   UNL     1      31.041  -0.730  44.627  1.00  0.00    -0.550 OA
ATOM     14  O   UNL     1      30.508  -1.361  46.764  1.00  0.00    -0.550 OA
ENDBRANCH  11  12
ENDBRANCH  10  11
ENDBRANCH   9  10
ENDBRANCH   8   9
ENDBRANCH   1   8
TORSDOF 9
ENDMDL
MODEL 2
REMARK VINA RESULT:    -5.794      1.541      1.726
REMARK INTER + INTRA:          -9.297
REMARK INTER:                  -8.719
REMARK INTRA:                  -0.578
REMARK UNBOUND:                -0.455
REMARK SMILES O=C([O-])CCCCCCCCC(=O)[O-]
REMARK SMILES IDX 7 1 6 2 5 3 4 4 2 5 1 6 3 7 8 8 9 9 10 10 11 11 12 12 13 13
REMARK SMILES IDX 14 14
REMARK H PARENT
REMARK Flexibility Score: inf
ROOT
ATOM      1  C   UNL     1      30.991  -1.020  41.531  1.00  0.00     0.000 C 
ENDROOT
BRANCH   1   2
ATOM      2  C   UNL     1      31.934  -0.364  40.510  1.00  0.00     0.000 C 
BRANCH   2   3
ATOM      3  C   UNL     1      31.323   0.927  39.951  1.00  0.00     0.006 C 
BRANCH   3   4
ATOM      4  C   UNL     1      31.185   0.854  38.428  1.00  0.00     0.053 C 
BRANCH   4   5
ATOM      5  C   UNL     1      29.743   0.765  38.036  1.00  0.00     0.041 C 
ATOM      6  O   UNL     1      29.406   0.128  37.004  1.00  0.00    -0.550 OA
ATOM      7  O   UNL     1      28.767   1.342  38.838  1.00  0.00    -0.550 OA
ENDBRANCH   4   5
ENDBRANCH   3   4
ENDBRANCH   2   3
ENDBRANCH   1   2
BRANCH   1   8
ATOM      8  C   UNL     1      29.651  -0.277  41.660  1.00  0.00     0.000 C 
BRANCH   8   9
ATOM      9  C   UNL     1      28.555  -1.143  42.305  1.00  0.00     0.000 C 
BRANCH   9  10
ATOM     10  C   UNL     1      28.371  -0.843  43.802  1.00  0.00     0.006 C 
BRANCH  10  11
ATOM     11  C   UNL     1      28.893  -1.972  44.698  1.00  0.00     0.053 C 
BRANCH  11  12
ATOM     12  C   UNL     1      30.049  -1.497  45.519  1.00  0.00     0.041 C 
ATOM     13  O   UNL     1      30.949  -0.788  44.996  1.00  0.00    -0.550 OA
ATOM     14  O   UNL     1      30.162  -1.880  46.849  1.00  0.00    -0.550 OA
ENDBRANCH  11  12
ENDBRANCH  10  11
ENDBRANCH   9  10
ENDBRANCH   8   9
ENDBRANCH   1   8
TORSDOF 9
ENDMDL
MODEL 3
REMARK VINA RESULT:    -5.792      0.394      6.074
REMARK INTER + INTRA:          -9.294
REMARK INTER:                  -8.821
REMARK INTRA:                  -0.473
REMARK UNBOUND:                -0.455
REMARK SMILES O=C([O-])CCCCCCCCC(=O)[O-]
REMARK SMILES IDX 7 1 6 2 5 3 4 4 2 5 1 6 3 7 8 8 9 9 10 10 11 11 12 12 13 13
REMARK SMILES IDX 14 14
REMARK H PARENT
REMARK Flexibility Score: inf
ROOT
ATOM      1  C   UNL     1      28.362  -0.663  41.519  1.00  0.00     0.000 C 
ENDROOT
BRANCH   1   2
ATOM      2  C   UNL     1      28.333  -1.760  42.594  1.00  0.00     0.000 C 
BRANCH   2   3
ATOM      3  C   UNL     1      28.362  -1.149  44.000  1.00  0.00     0.006 C 
BRANCH   3   4
ATOM      4  C   UNL     1      29.018  -2.104  45.001  1.00  0.00     0.053 C 
BRANCH   4   5
ATOM      5  C   UNL     1      30.255  -1.492  45.578  1.00  0.00     0.041 C 
ATOM      6  O   UNL     1      30.622  -1.787  46.746  1.00  0.00    -0.550 OA
ATOM      7  O   UNL     1      31.031  -0.635  44.809  1.00  0.00    -0.550 OA
ENDBRANCH   4   5
ENDBRANCH   3   4
ENDBRANCH   2   3
ENDBRANCH   1   2
BRANCH   1   8
ATOM      8  C   UNL     1      29.574  -0.789  40.580  1.00  0.00     0.000 C 
BRANCH   8   9
ATOM      9  C   UNL     1      30.893  -1.002  41.344  1.00  0.00     0.000 C 
BRANCH   9  10
ATOM     10  C   UNL     1      32.121  -0.548  40.538  1.00  0.00     0.006 C 
BRANCH  10  11
ATOM     11  C   UNL     1      31.742   0.089  39.195  1.00  0.00     0.053 C 
BRANCH  11  12
ATOM     12  C   UNL     1      31.855   1.578  39.272  1.00  0.00     0.041 C 
ATOM     13  O   UNL     1      31.662   2.173  40.365  1.00  0.00    -0.550 OA
ATOM     14  O   UNL     1      32.124   2.315  38.127  1.00  0.00    -0.550 OA
ENDBRANCH  11  12
ENDBRANCH  10  11
ENDBRANCH   9  10
ENDBRANCH   8   9
ENDBRANCH   1   8
TORSDOF 9
ENDMDL
MODEL 4
REMARK VINA RESULT:    -5.507      1.322      5.713
REMARK INTER + INTRA:          -8.859
REMARK INTER:                  -8.700
REMARK INTRA:                  -0.159
REMARK UNBOUND:                -0.455
REMARK SMILES O=C([O-])CCCCCCCCC(=O)[O-]
REMARK SMILES IDX 7 1 6 2 5 3 4 4 2 5 1 6 3 7 8 8 9 9 10 10 11 11 12 12 13 13
REMARK SMILES IDX 14 14
REMARK H PARENT
REMARK Flexibility Score: inf
ROOT
ATOM      1  C   UNL     1      29.058  -0.718  40.886  1.00  0.00     0.000 C 
ENDROOT
BRANCH   1   2
ATOM      2  C   UNL     1      27.933  -1.501  41.580  1.00  0.00     0.000 C 
BRANCH   2   3
ATOM      3  C   UNL     1      28.300  -1.811  43.037  1.00  0.00     0.006 C 
BRANCH   3   4
ATOM      4  C   UNL     1      28.837  -0.564  43.745  1.00  0.00     0.053 C 
BRANCH   4   5
ATOM      5  C   UNL     1      30.138  -0.864  44.421  1.00  0.00     0.041 C 
ATOM      6  O   UNL     1      31.226  -0.597  43.847  1.00  0.00    -0.550 OA
ATOM      7  O   UNL     1      30.149  -1.392  45.705  1.00  0.00    -0.550 OA
ENDBRANCH   4   5
ENDBRANCH   3   4
ENDBRANCH   2   3
ENDBRANCH   1   2
BRANCH   1   8
ATOM      8  C   UNL     1      28.861  -0.628  39.363  1.00  0.00     0.000 C 
BRANCH   8   9
ATOM      9  C   UNL     1      29.051   0.802  38.826  1.00  0.00     0.000 C 
BRANCH   9  10
ATOM     10  C   UNL     1      29.981   0.853  37.602  1.00  0.00     0.006 C 
BRANCH  10  11
ATOM     11  C   UNL     1      31.464   0.866  37.989  1.00  0.00     0.053 C 
BRANCH  11  12
ATOM     12  C   UNL     1      31.641   1.427  39.364  1.00  0.00     0.041 C 
ATOM     13  O   UNL     1      31.400   2.642  39.589  1.00  0.00    -0.550 OA
ATOM     14  O   UNL     1      32.121   0.620  40.388  1.00  0.00    -0.550 OA
ENDBRANCH  11  12
ENDBRANCH  10  11
ENDBRANCH   9  10
ENDBRANCH   8   9
ENDBRANCH   1   8
TORSDOF 9
ENDMDL
MODEL 5
REMARK VINA RESULT:    -4.848      2.288      3.138
REMARK INTER + INTRA:          -7.854
REMARK INTER:                  -7.322
REMARK INTRA:                  -0.532
REMARK UNBOUND:                -0.455
REMARK SMILES O=C([O-])CCCCCCCCC(=O)[O-]
REMARK SMILES IDX 7 1 6 2 5 3 4 4 2 5 1 6 3 7 8 8 9 9 10 10 11 11 12 12 13 13
REMARK SMILES IDX 14 14
REMARK H PARENT
REMARK Flexibility Score: inf
ROOT
ATOM      1  C   UNL     1      31.885   1.122  40.613  1.00  0.00     0.000 C 
ENDROOT
BRANCH   1   2
ATOM      2  C   UNL     1      31.991   1.659  39.177  1.00  0.00     0.000 C 
BRANCH   2   3
ATOM      3  C   UNL     1      31.700   0.554  38.155  1.00  0.00     0.006 C 
BRANCH   3   4
ATOM      4  C   UNL     1      30.363   0.797  37.449  1.00  0.00     0.053 C 
BRANCH   4   5
ATOM      5  C   UNL     1      29.223   0.550  38.386  1.00  0.00     0.041 C 
ATOM      6  O   UNL     1      28.557   1.517  38.841  1.00  0.00    -0.550 OA
ATOM      7  O   UNL     1      28.863  -0.749  38.717  1.00  0.00    -0.550 OA
ENDBRANCH   4   5
ENDBRANCH   3   4
ENDBRANCH   2   3
ENDBRANCH   1   2
BRANCH   1   8
ATOM      8  C   UNL     1      31.918  -0.415  40.672  1.00  0.00     0.000 C 
BRANCH   8   9
ATOM      9  C   UNL     1      30.701  -1.005  41.405  1.00  0.00     0.000 C 
BRANCH   9  10
ATOM     10  C   UNL     1      30.872  -0.996  42.933  1.00  0.00     0.006 C 
BRANCH  10  11
ATOM     11  C   UNL     1      29.775  -0.194  43.644  1.00  0.00     0.053 C 
BRANCH  11  12
ATOM     12  C   UNL     1      28.541  -1.023  43.803  1.00  0.00     0.041 C 
ATOM     13  O   UNL     1      27.515  -0.770  43.118  1.00  0.00    -0.550 OA
ATOM     14  O   UNL     1      28.505  -2.044  44.743  1.00  0.00    -0.550 OA
ENDBRANCH  11  12
ENDBRANCH  10  11
ENDBRANCH   9  10
ENDBRANCH   8   9
ENDBRANCH   1   8
TORSDOF 9
ENDMDL
MODEL 6
REMARK VINA RESULT:    -4.570      1.404      6.459
REMARK INTER + INTRA:          -7.430
REMARK INTER:                  -7.244
REMARK INTRA:                  -0.186
REMARK UNBOUND:                -0.455
REMARK SMILES O=C([O-])CCCCCCCCC(=O)[O-]
REMARK SMILES IDX 7 1 6 2 5 3 4 4 2 5 1 6 3 7 8 8 9 9 10 10 11 11 12 12 13 13
REMARK SMILES IDX 14 14
REMARK H PARENT
REMARK Flexibility Score: inf
ROOT
ATOM      1  C   UNL     1      28.559  -1.550  42.561  1.00  0.00     0.000 C 
ENDROOT
BRANCH   1   2
ATOM      2  C   UNL     1      28.818  -1.017  43.978  1.00  0.00     0.000 C 
BRANCH   2   3
ATOM      3  C   UNL     1      29.735  -1.965  44.760  1.00  0.00     0.006 C 
BRANCH   3   4
ATOM      4  C   UNL     1      29.257  -2.123  46.206  1.00  0.00     0.053 C 
BRANCH   4   5
ATOM      5  C   UNL     1      30.345  -1.749  47.163  1.00  0.00     0.041 C 
ATOM      6  O   UNL     1      31.463  -1.364  46.731  1.00  0.00    -0.550 OA
ATOM      7  O   UNL     1      30.108  -1.777  48.531  1.00  0.00    -0.550 OA
ENDBRANCH   4   5
ENDBRANCH   3   4
ENDBRANCH   2   3
ENDBRANCH   1   2
BRANCH   1   8
ATOM      8  C   UNL     1      29.108  -0.616  41.469  1.00  0.00     0.000 C 
BRANCH   8   9
ATOM      9  C   UNL     1      28.403  -0.812  40.115  1.00  0.00     0.000 C 
BRANCH   9  10
ATOM     10  C   UNL     1      29.235  -0.281  38.936  1.00  0.00     0.006 C 
BRANCH  10  11
ATOM     11  C   UNL     1      29.891   1.072  39.239  1.00  0.00     0.053 C 
BRANCH  11  12
ATOM     12  C   UNL     1      31.378   0.928  39.306  1.00  0.00     0.041 C 
ATOM     13  O   UNL     1      32.124   1.878  38.950  1.00  0.00    -0.550 OA
ATOM     14  O   UNL     1      31.944  -0.273  39.713  1.00  0.00    -0.550 OA
ENDBRANCH  11  12
ENDBRANCH  10  11
ENDBRANCH   9  10
ENDBRANCH   8   9
ENDBRANCH   1   8
TORSDOF 9
ENDMDL
MODEL 7
REMARK VINA RESULT:    -3.377     15.895     16.501
REMARK INTER + INTRA:          -5.609
REMARK INTER:                  -4.625
REMARK INTRA:                  -0.983
REMARK UNBOUND:                -0.455
REMARK SMILES O=C([O-])CCCCCCCCC(=O)[O-]
REMARK SMILES IDX 7 1 6 2 5 3 4 4 2 5 1 6 3 7 8 8 9 9 10 10 11 11 12 12 13 13
REMARK SMILES IDX 14 14
REMARK H PARENT
REMARK Flexibility Score: inf
ROOT
ATOM      1  C   UNL     1      29.260  16.331  47.910  1.00  0.00     0.000 C 
ENDROOT
BRANCH   1   2
ATOM      2  C   UNL     1      30.254  16.086  49.055  1.00  0.00     0.000 C 
BRANCH   2   3
ATOM      3  C   UNL     1      31.337  15.084  48.637  1.00  0.00     0.006 C 
BRANCH   3   4
ATOM      4  C   UNL     1      30.936  13.654  49.008  1.00  0.00     0.053 C 
BRANCH   4   5
ATOM      5  C   UNL     1      30.728  12.831  47.776  1.00  0.00     0.041 C 
ATOM      6  O   UNL     1      31.632  12.052  47.375  1.00  0.00    -0.550 OA
ATOM      7  O   UNL     1      29.516  12.884  47.100  1.00  0.00    -0.550 OA
ENDBRANCH   4   5
ENDBRANCH   3   4
ENDBRANCH   2   3
ENDBRANCH   1   2
BRANCH   1   8
ATOM      8  C   UNL     1      27.840  15.848  48.248  1.00  0.00     0.000 C 
BRANCH   8   9
ATOM      9  C   UNL     1      27.695  15.422  49.719  1.00  0.00     0.000 C 
BRANCH   9  10
ATOM     10  C   UNL     1      27.321  13.938  49.869  1.00  0.00     0.006 C 
BRANCH  10  11
ATOM     11  C   UNL     1      26.516  13.410  48.675  1.00  0.00     0.053 C 
BRANCH  11  12
ATOM     12  C   UNL     1      25.099  13.149  49.075  1.00  0.00     0.041 C 
ATOM     13  O   UNL     1      24.698  11.969  49.255  1.00  0.00    -0.550 OA
ATOM     14  O   UNL     1      24.205  14.205  49.199  1.00  0.00    -0.550 OA
ENDBRANCH  11  12
ENDBRANCH  10  11
ENDBRANCH   9  10
ENDBRANCH   8   9
ENDBRANCH   1   8
TORSDOF 9
ENDMDL
MODEL 8
REMARK VINA RESULT:    -3.374     15.954     16.965
REMARK INTER + INTRA:          -5.604
REMARK INTER:                  -4.603
REMARK INTRA:                  -1.001
REMARK UNBOUND:                -0.455
REMARK SMILES O=C([O-])CCCCCCCCC(=O)[O-]
REMARK SMILES IDX 7 1 6 2 5 3 4 4 2 5 1 6 3 7 8 8 9 9 10 10 11 11 12 12 13 13
REMARK SMILES IDX 14 14
REMARK H PARENT
REMARK Flexibility Score: inf
ROOT
ATOM      1  C   UNL     1      27.947  15.855  48.268  1.00  0.00     0.000 C 
ENDROOT
BRANCH   1   2
ATOM      2  C   UNL     1      27.761  15.427  49.732  1.00  0.00     0.000 C 
BRANCH   2   3
ATOM      3  C   UNL     1      27.357  13.951  49.824  1.00  0.00     0.006 C 
BRANCH   3   4
ATOM      4  C   UNL     1      26.501  13.539  48.624  1.00  0.00     0.053 C 
BRANCH   4   5
ATOM      5  C   UNL     1      25.046  13.604  48.969  1.00  0.00     0.041 C 
ATOM      6  O   UNL     1      24.409  14.681  48.826  1.00  0.00    -0.550 OA
ATOM      7  O   UNL     1      24.382  12.464  49.401  1.00  0.00    -0.550 OA
ENDBRANCH   4   5
ENDBRANCH   3   4
ENDBRANCH   2   3
ENDBRANCH   1   2
BRANCH   1   8
ATOM      8  C   UNL     1      29.379  16.332  47.970  1.00  0.00     0.000 C 
BRANCH   8   9
ATOM      9  C   UNL     1      30.355  16.024  49.119  1.00  0.00     0.000 C 
BRANCH   9  10
ATOM     10  C   UNL     1      31.412  14.977  48.729  1.00  0.00     0.006 C 
BRANCH  10  11
ATOM     11  C   UNL     1      30.971  13.545  49.053  1.00  0.00     0.053 C 
BRANCH  11  12
ATOM     12  C   UNL     1      30.737  12.773  47.794  1.00  0.00     0.041 C 
ATOM     13  O   UNL     1      31.657  12.066  47.304  1.00  0.00    -0.550 OA
ATOM     14  O   UNL     1      29.521  12.873  47.132  1.00  0.00    -0.550 OA
ENDBRANCH  11  12
ENDBRANCH  10  11
ENDBRANCH   9  10
ENDBRANCH   8   9
ENDBRANCH   1   8
TORSDOF 9
ENDMDL
