MODEL 1
REMARK VINA RESULT:    -4.303      0.000      0.000
REMARK INTER + INTRA:          -6.243
REMARK INTER:                  -5.812
REMARK INTRA:                  -0.431
REMARK UNBOUND:                -0.431
REMARK SMILES O=C[C@@H](O)[C@@H](O)[C@@H](O)CO
REMARK SMILES IDX 7 1 9 2 10 3 5 5 3 6 2 7 1 8 4 9 6 11 8 13
REMARK H PARENT 10 4 4 10 6 12 8 14
REMARK Flexibility Score: inf
ROOT
ATOM      1  C   UNL     1      35.865 -13.216 -17.757  1.00  0.00     0.171 C 
ENDROOT
BRANCH   1   2
ATOM      2  C   UNL     1      36.928 -12.192 -18.204  1.00  0.00     0.190 C 
BRANCH   2   3
ATOM      3  O   UNL     1      38.203 -12.774 -18.267  1.00  0.00    -0.394 OA
ATOM      4  H   UNL     1      38.303 -13.139 -19.184  1.00  0.00     0.210 HD
ENDBRANCH   2   3
ENDBRANCH   1   2
BRANCH   1   5
ATOM      5  C   UNL     1      35.005 -13.713 -18.950  1.00  0.00     0.181 C 
BRANCH   5   6
ATOM      6  C   UNL     1      34.289 -15.052 -18.639  1.00  0.00     0.209 C 
BRANCH   6   7
ATOM      7  C   UNL     1      33.141 -15.281 -19.587  1.00  0.00     0.258 C 
ATOM      8  O   UNL     1      32.114 -14.629 -19.487  1.00  0.00    -0.300 OA
ENDBRANCH   6   7
BRANCH   6   9
ATOM      9  O   UNL     1      35.194 -16.120 -18.747  1.00  0.00    -0.383 OA
ATOM     10  H   UNL     1      35.257 -16.347 -19.712  1.00  0.00     0.211 HD
ENDBRANCH   6   9
ENDBRANCH   5   6
BRANCH   5  11
ATOM     11  O   UNL     1      34.063 -12.735 -19.322  1.00  0.00    -0.387 OA
ATOM     12  H   UNL     1      33.531 -13.105 -20.075  1.00  0.00     0.211 HD
ENDBRANCH   5  11
ENDBRANCH   1   5
BRANCH   1  13
ATOM     13  O   UNL     1      36.518 -14.308 -17.164  1.00  0.00    -0.388 OA
ATOM     14  H   UNL     1      37.493 -14.124 -17.209  1.00  0.00     0.211 HD
ENDBRANCH   1  13
TORSDOF 8
ENDMDL
MODEL 2
REMARK VINA RESULT:    -4.139      1.344      2.025
REMARK INTER + INTRA:          -6.023
REMARK INTER:                  -5.526
REMARK INTRA:                  -0.497
REMARK UNBOUND:                -0.431
REMARK SMILES O=C[C@@H](O)[C@@H](O)[C@@H](O)CO
REMARK SMILES IDX 7 1 9 2 10 3 5 5 3 6 2 7 1 8 4 9 6 11 8 13
REMARK H PARENT 10 4 4 10 6 12 8 14
REMARK Flexibility Score: inf
ROOT
ATOM      1  C   UNL     1      34.593 -14.872 -17.739  1.00  0.00     0.171 C 
ENDROOT
BRANCH   1   2
ATOM      2  C   UNL     1      35.408 -13.827 -16.950  1.00  0.00     0.190 C 
BRANCH   2   3
ATOM      3  O   UNL     1      36.759 -13.845 -17.326  1.00  0.00    -0.394 OA
ATOM      4  H   UNL     1      36.880 -13.115 -17.987  1.00  0.00     0.210 HD
ENDBRANCH   2   3
ENDBRANCH   1   2
BRANCH   1   5
ATOM      5  C   UNL     1      34.057 -14.295 -19.077  1.00  0.00     0.181 C 
BRANCH   5   6
ATOM      6  C   UNL     1      32.594 -14.725 -19.357  1.00  0.00     0.209 C 
BRANCH   6   7
ATOM      7  C   UNL     1      32.128 -14.208 -20.693  1.00  0.00     0.258 C 
ATOM      8  O   UNL     1      32.856 -13.504 -21.375  1.00  0.00    -0.300 OA
ENDBRANCH   6   7
BRANCH   6   9
ATOM      9  O   UNL     1      32.492 -16.125 -19.346  1.00  0.00    -0.383 OA
ATOM     10  H   UNL     1      31.825 -16.370 -20.041  1.00  0.00     0.211 HD
ENDBRANCH   6   9
ENDBRANCH   5   6
BRANCH   5  11
ATOM     11  O   UNL     1      34.158 -12.891 -19.086  1.00  0.00    -0.387 OA
ATOM     12  H   UNL     1      33.255 -12.527 -19.279  1.00  0.00     0.211 HD
ENDBRANCH   5  11
ENDBRANCH   1   5
BRANCH   1  13
ATOM     13  O   UNL     1      35.418 -15.977 -18.003  1.00  0.00    -0.388 OA
ATOM     14  H   UNL     1      34.968 -16.513 -18.708  1.00  0.00     0.211 HD
ENDBRANCH   1  13
TORSDOF 8
ENDMDL
MODEL 3
REMARK VINA RESULT:    -3.972      1.416      4.205
REMARK INTER + INTRA:          -5.797
REMARK INTER:                  -5.384
REMARK INTRA:                  -0.412
REMARK UNBOUND:                -0.431
REMARK SMILES O=C[C@@H](O)[C@@H](O)[C@@H](O)CO
REMARK SMILES IDX 7 1 9 2 10 3 5 5 3 6 2 7 1 8 4 9 6 11 8 13
REMARK H PARENT 10 4 4 10 6 12 8 14
REMARK Flexibility Score: inf
ROOT
ATOM      1  C   UNL     1      34.499 -14.943 -19.232  1.00  0.00     0.171 C 
ENDROOT
BRANCH   1   2
ATOM      2  C   UNL     1      33.000 -15.309 -19.220  1.00  0.00     0.190 C 
BRANCH   2   3
ATOM      3  O   UNL     1      32.203 -14.204 -19.556  1.00  0.00    -0.394 OA
ATOM      4  H   UNL     1      32.035 -13.708 -18.713  1.00  0.00     0.210 HD
ENDBRANCH   2   3
ENDBRANCH   1   2
BRANCH   1   5
ATOM      5  C   UNL     1      34.929 -14.229 -17.922  1.00  0.00     0.181 C 
BRANCH   5   6
ATOM      6  C   UNL     1      35.775 -12.959 -18.198  1.00  0.00     0.209 C 
BRANCH   6   7
ATOM      7  C   UNL     1      36.892 -12.830 -17.196  1.00  0.00     0.258 C 
ATOM      8  O   UNL     1      37.374 -11.738 -16.939  1.00  0.00    -0.300 OA
ENDBRANCH   6   7
BRANCH   6   9
ATOM      9  O   UNL     1      36.321 -13.013 -19.489  1.00  0.00    -0.383 OA
ATOM     10  H   UNL     1      36.186 -12.117 -19.896  1.00  0.00     0.211 HD
ENDBRANCH   6   9
ENDBRANCH   5   6
BRANCH   5  11
ATOM     11  O   UNL     1      33.802 -13.900 -17.145  1.00  0.00    -0.387 OA
ATOM     12  H   UNL     1      33.389 -13.090 -17.545  1.00  0.00     0.211 HD
ENDBRANCH   5  11
ENDBRANCH   1   5
BRANCH   1  13
ATOM     13  O   UNL     1      35.246 -16.121 -19.389  1.00  0.00    -0.388 OA
ATOM     14  H   UNL     1      34.690 -16.866 -19.039  1.00  0.00     0.211 HD
ENDBRANCH   1  13
TORSDOF 8
ENDMDL
MODEL 4
REMARK VINA RESULT:    -3.962      2.538      4.965
REMARK INTER + INTRA:          -5.783
REMARK INTER:                  -5.419
REMARK INTRA:                  -0.363
REMARK UNBOUND:                -0.431
REMARK SMILES O=C[C@@H](O)[C@@H](O)[C@@H](O)CO
REMARK SMILES IDX 7 1 9 2 10 3 5 5 3 6 2 7 1 8 4 9 6 11 8 13
REMARK H PARENT 10 4 4 10 6 12 8 14
REMARK Flexibility Score: inf
ROOT
ATOM      1  C   UNL     1      36.456 -12.305 -18.415  1.00  0.00     0.171 C 
ENDROOT
BRANCH   1   2
ATOM      2  C   UNL     1      36.514 -13.091 -17.089  1.00  0.00     0.190 C 
BRANCH   2   3
ATOM      3  O   UNL     1      36.532 -14.475 -17.317  1.00  0.00    -0.394 OA
ATOM      4  H   UNL     1      36.916 -14.892 -16.503  1.00  0.00     0.210 HD
ENDBRANCH   2   3
ENDBRANCH   1   2
BRANCH   1   5
ATOM      5  C   UNL     1      37.873 -11.902 -18.909  1.00  0.00     0.181 C 
BRANCH   5   6
ATOM      6  C   UNL     1      38.203 -10.420 -18.595  1.00  0.00     0.209 C 
BRANCH   6   7
ATOM      7  C   UNL     1      36.982  -9.553 -18.754  1.00  0.00     0.258 C 
ATOM      8  O   UNL     1      36.805  -8.590 -18.024  1.00  0.00    -0.300 OA
ENDBRANCH   6   7
BRANCH   6   9
ATOM      9  O   UNL     1      38.684 -10.299 -17.282  1.00  0.00    -0.383 OA
ATOM     10  H   UNL     1      37.901 -10.396 -16.679  1.00  0.00     0.211 HD
ENDBRANCH   6   9
ENDBRANCH   5   6
BRANCH   5  11
ATOM     11  O   UNL     1      38.851 -12.745 -18.347  1.00  0.00    -0.387 OA
ATOM     12  H   UNL     1      38.671 -13.666 -18.670  1.00  0.00     0.211 HD
ENDBRANCH   5  11
ENDBRANCH   1   5
BRANCH   1  13
ATOM     13  O   UNL     1      35.834 -13.108 -19.384  1.00  0.00    -0.388 OA
ATOM     14  H   UNL     1      36.507 -13.773 -19.686  1.00  0.00     0.211 HD
ENDBRANCH   1  13
TORSDOF 8
ENDMDL
MODEL 5
REMARK VINA RESULT:    -3.912      2.066      3.571
REMARK INTER + INTRA:          -5.716
REMARK INTER:                  -5.390
REMARK INTRA:                  -0.326
REMARK UNBOUND:                -0.431
REMARK SMILES O=C[C@@H](O)[C@@H](O)[C@@H](O)CO
REMARK SMILES IDX 7 1 9 2 10 3 5 5 3 6 2 7 1 8 4 9 6 11 8 13
REMARK H PARENT 10 4 4 10 6 12 8 14
REMARK Flexibility Score: inf
ROOT
ATOM      1  C   UNL     1      37.630 -10.602 -18.221  1.00  0.00     0.171 C 
ENDROOT
BRANCH   1   2
ATOM      2  C   UNL     1      38.981 -10.033 -18.701  1.00  0.00     0.190 C 
BRANCH   2   3
ATOM      3  O   UNL     1      39.969 -10.159 -17.712  1.00  0.00    -0.394 OA
ATOM      4  H   UNL     1      40.094 -11.132 -17.559  1.00  0.00     0.210 HD
ENDBRANCH   2   3
ENDBRANCH   1   2
BRANCH   1   5
ATOM      5  C   UNL     1      37.787 -12.023 -17.614  1.00  0.00     0.181 C 
BRANCH   5   6
ATOM      6  C   UNL     1      36.440 -12.789 -17.559  1.00  0.00     0.209 C 
BRANCH   6   7
ATOM      7  C   UNL     1      35.694 -12.656 -18.861  1.00  0.00     0.258 C 
ATOM      8  O   UNL     1      34.685 -13.311 -19.068  1.00  0.00    -0.300 OA
ENDBRANCH   6   7
BRANCH   6   9
ATOM      9  O   UNL     1      36.667 -14.149 -17.297  1.00  0.00    -0.383 OA
ATOM     10  H   UNL     1      36.471 -14.292 -16.334  1.00  0.00     0.211 HD
ENDBRANCH   6   9
ENDBRANCH   5   6
BRANCH   5  11
ATOM     11  O   UNL     1      38.738 -12.768 -18.337  1.00  0.00    -0.387 OA
ATOM     12  H   UNL     1      39.621 -12.331 -18.207  1.00  0.00     0.211 HD
ENDBRANCH   5  11
ENDBRANCH   1   5
BRANCH   1  13
ATOM     13  O   UNL     1      37.098  -9.736 -17.252  1.00  0.00    -0.388 OA
ATOM     14  H   UNL     1      36.291  -9.316 -17.650  1.00  0.00     0.211 HD
ENDBRANCH   1  13
TORSDOF 8
ENDMDL
MODEL 6
REMARK VINA RESULT:    -3.879      8.922     11.429
REMARK INTER + INTRA:          -5.670
REMARK INTER:                  -5.045
REMARK INTRA:                  -0.625
REMARK UNBOUND:                -0.431
REMARK SMILES O=C[C@@H](O)[C@@H](O)[C@@H](O)CO
REMARK SMILES IDX 7 1 9 2 10 3 5 5 3 6 2 7 1 8 4 9 6 11 8 13
REMARK H PARENT 10 4 4 10 6 12 8 14
REMARK Flexibility Score: inf
ROOT
ATOM      1  C   UNL     1      24.326 -13.422 -23.709  1.00  0.00     0.171 C 
ENDROOT
BRANCH   1   2
ATOM      2  C   UNL     1      23.840 -14.668 -24.477  1.00  0.00     0.190 C 
BRANCH   2   3
ATOM      3  O   UNL     1      22.920 -15.408 -23.718  1.00  0.00    -0.394 OA
ATOM      4  H   UNL     1      22.073 -15.422 -24.235  1.00  0.00     0.210 HD
ENDBRANCH   2   3
ENDBRANCH   1   2
BRANCH   1   5
ATOM      5  C   UNL     1      25.343 -13.793 -22.595  1.00  0.00     0.181 C 
BRANCH   5   6
ATOM      6  C   UNL     1      26.396 -12.677 -22.368  1.00  0.00     0.209 C 
BRANCH   6   7
ATOM      7  C   UNL     1      27.082 -12.847 -21.038  1.00  0.00     0.258 C 
ATOM      8  O   UNL     1      26.648 -12.294 -20.040  1.00  0.00    -0.300 OA
ENDBRANCH   6   7
BRANCH   6   9
ATOM      9  O   UNL     1      27.360 -12.707 -23.388  1.00  0.00    -0.383 OA
ATOM     10  H   UNL     1      28.190 -12.312 -23.012  1.00  0.00     0.211 HD
ENDBRANCH   6   9
ENDBRANCH   5   6
BRANCH   5  11
ATOM     11  O   UNL     1      24.675 -14.079 -21.389  1.00  0.00    -0.387 OA
ATOM     12  H   UNL     1      23.702 -14.105 -21.587  1.00  0.00     0.211 HD
ENDBRANCH   5  11
ENDBRANCH   1   5
BRANCH   1  13
ATOM     13  O   UNL     1      24.931 -12.542 -24.620  1.00  0.00    -0.388 OA
ATOM     14  H   UNL     1      25.844 -12.891 -24.798  1.00  0.00     0.211 HD
ENDBRANCH   1  13
TORSDOF 8
ENDMDL
MODEL 7
REMARK VINA RESULT:    -3.863      2.483      3.636
REMARK INTER + INTRA:          -5.649
REMARK INTER:                  -4.984
REMARK INTRA:                  -0.664
REMARK UNBOUND:                -0.431
REMARK SMILES O=C[C@@H](O)[C@@H](O)[C@@H](O)CO
REMARK SMILES IDX 7 1 9 2 10 3 5 5 3 6 2 7 1 8 4 9 6 11 8 13
REMARK H PARENT 10 4 4 10 6 12 8 14
REMARK Flexibility Score: inf
ROOT
ATOM      1  C   UNL     1      38.814 -12.181 -17.686  1.00  0.00     0.171 C 
ENDROOT
BRANCH   1   2
ATOM      2  C   UNL     1      39.886 -11.161 -17.250  1.00  0.00     0.190 C 
BRANCH   2   3
ATOM      3  O   UNL     1      39.792  -9.974 -17.991  1.00  0.00    -0.394 OA
ATOM      4  H   UNL     1      40.720  -9.708 -18.220  1.00  0.00     0.210 HD
ENDBRANCH   2   3
ENDBRANCH   1   2
BRANCH   1   5
ATOM      5  C   UNL     1      37.417 -11.518 -17.839  1.00  0.00     0.181 C 
BRANCH   5   6
ATOM      6  C   UNL     1      36.266 -12.552 -17.746  1.00  0.00     0.209 C 
BRANCH   6   7
ATOM      7  C   UNL     1      35.616 -12.755 -19.090  1.00  0.00     0.258 C 
ATOM      8  O   UNL     1      36.186 -12.413 -20.114  1.00  0.00    -0.300 OA
ENDBRANCH   6   7
BRANCH   6   9
ATOM      9  O   UNL     1      36.756 -13.783 -17.283  1.00  0.00    -0.383 OA
ATOM     10  H   UNL     1      36.116 -14.479 -17.584  1.00  0.00     0.211 HD
ENDBRANCH   6   9
ENDBRANCH   5   6
BRANCH   5  11
ATOM     11  O   UNL     1      37.240 -10.508 -16.875  1.00  0.00    -0.387 OA
ATOM     12  H   UNL     1      38.121 -10.347 -16.446  1.00  0.00     0.211 HD
ENDBRANCH   5  11
ENDBRANCH   1   5
BRANCH   1  13
ATOM     13  O   UNL     1      39.202 -12.742 -18.913  1.00  0.00    -0.388 OA
ATOM     14  H   UNL     1      38.591 -13.505 -19.089  1.00  0.00     0.211 HD
ENDBRANCH   1  13
TORSDOF 8
ENDMDL
MODEL 8
REMARK VINA RESULT:    -3.795      1.558      2.348
REMARK INTER + INTRA:          -5.557
REMARK INTER:                  -4.874
REMARK INTRA:                  -0.683
REMARK UNBOUND:                -0.431
REMARK SMILES O=C[C@@H](O)[C@@H](O)[C@@H](O)CO
REMARK SMILES IDX 7 1 9 2 10 3 5 5 3 6 2 7 1 8 4 9 6 11 8 13
REMARK H PARENT 10 4 4 10 6 12 8 14
REMARK Flexibility Score: inf
ROOT
ATOM      1  C   UNL     1      37.491 -11.913 -17.930  1.00  0.00     0.171 C 
ENDROOT
BRANCH   1   2
ATOM      2  C   UNL     1      37.788 -10.454 -18.334  1.00  0.00     0.190 C 
BRANCH   2   3
ATOM      3  O   UNL     1      37.101  -9.547 -17.513  1.00  0.00    -0.394 OA
ATOM      4  H   UNL     1      36.499 -10.086 -16.936  1.00  0.00     0.210 HD
ENDBRANCH   2   3
ENDBRANCH   1   2
BRANCH   1   5
ATOM      5  C   UNL     1      36.311 -12.508 -18.745  1.00  0.00     0.181 C 
BRANCH   5   6
ATOM      6  C   UNL     1      35.469 -13.509 -17.912  1.00  0.00     0.209 C 
BRANCH   6   7
ATOM      7  C   UNL     1      34.452 -14.206 -18.777  1.00  0.00     0.258 C 
ATOM      8  O   UNL     1      34.448 -14.041 -19.987  1.00  0.00    -0.300 OA
ENDBRANCH   6   7
BRANCH   6   9
ATOM      9  O   UNL     1      36.305 -14.470 -17.322  1.00  0.00    -0.383 OA
ATOM     10  H   UNL     1      36.155 -15.322 -17.811  1.00  0.00     0.211 HD
ENDBRANCH   6   9
ENDBRANCH   5   6
BRANCH   5  11
ATOM     11  O   UNL     1      35.487 -11.482 -19.246  1.00  0.00    -0.387 OA
ATOM     12  H   UNL     1      35.747 -11.326 -20.191  1.00  0.00     0.211 HD
ENDBRANCH   5  11
ENDBRANCH   1   5
BRANCH   1  13
ATOM     13  O   UNL     1      38.645 -12.682 -18.147  1.00  0.00    -0.388 OA
ATOM     14  H   UNL     1      38.480 -13.230 -18.959  1.00  0.00     0.211 HD
ENDBRANCH   1  13
TORSDOF 8
ENDMDL
MODEL 9
REMARK VINA RESULT:    -3.746      3.188      5.776
REMARK INTER + INTRA:          -5.491
REMARK INTER:                  -5.193
REMARK INTRA:                  -0.299
REMARK UNBOUND:                -0.431
REMARK SMILES O=C[C@@H](O)[C@@H](O)[C@@H](O)CO
REMARK SMILES IDX 7 1 9 2 10 3 5 5 3 6 2 7 1 8 4 9 6 11 8 13
REMARK H PARENT 10 4 4 10 6 12 8 14
REMARK Flexibility Score: inf
ROOT
ATOM      1  C   UNL     1      37.483 -11.928 -18.185  1.00  0.00     0.171 C 
ENDROOT
BRANCH   1   2
ATOM      2  C   UNL     1      36.826 -12.670 -17.003  1.00  0.00     0.190 C 
BRANCH   2   3
ATOM      3  O   UNL     1      36.747 -14.050 -17.248  1.00  0.00    -0.394 OA
ATOM      4  H   UNL     1      35.801 -14.244 -17.474  1.00  0.00     0.210 HD
ENDBRANCH   2   3
ENDBRANCH   1   2
BRANCH   1   5
ATOM      5  C   UNL     1      38.117 -10.582 -17.739  1.00  0.00     0.181 C 
BRANCH   5   6
ATOM      6  C   UNL     1      38.919  -9.907 -18.881  1.00  0.00     0.209 C 
BRANCH   6   7
ATOM      7  C   UNL     1      38.124  -8.794 -19.511  1.00  0.00     0.258 C 
ATOM      8  O   UNL     1      38.176  -7.660 -19.062  1.00  0.00    -0.300 OA
ENDBRANCH   6   7
BRANCH   6   9
ATOM      9  O   UNL     1      40.123  -9.384 -18.382  1.00  0.00    -0.383 OA
ATOM     10  H   UNL     1      40.404  -9.974 -17.633  1.00  0.00     0.211 HD
ENDBRANCH   6   9
ENDBRANCH   5   6
BRANCH   5  11
ATOM     11  O   UNL     1      37.127  -9.704 -17.259  1.00  0.00    -0.387 OA
ATOM     12  H   UNL     1      36.256 -10.008 -17.625  1.00  0.00     0.211 HD
ENDBRANCH   5  11
ENDBRANCH   1   5
BRANCH   1  13
ATOM     13  O   UNL     1      38.477 -12.754 -18.735  1.00  0.00    -0.388 OA
ATOM     14  H   UNL     1      38.036 -13.604 -18.996  1.00  0.00     0.211 HD
ENDBRANCH   1  13
TORSDOF 8
ENDMDL
