MODEL 1
REMARK VINA RESULT:    -5.713      0.000      0.000
REMARK INTER + INTRA:          -8.539
REMARK INTER:                  -7.716
REMARK INTRA:                  -0.822
REMARK UNBOUND:                -0.822
REMARK SMILES CC(=O)CCC=C(C)CCC=C(C)C
REMARK SMILES IDX 7 1 6 2 8 3 9 4 10 5 11 6 13 7 12 8 14 9 5 10 4 11 2 12 3 13
REMARK SMILES IDX 1 14
REMARK H PARENT
REMARK Flexibility Score: inf
ROOT
ATOM      1  C   UNL     1     -13.600 -16.717  31.955  1.00  0.00    -0.077 C 
ATOM      2  C   UNL     1     -13.252 -18.021  32.044  1.00  0.00    -0.028 C 
ATOM      3  C   UNL     1     -13.177 -15.855  30.789  1.00  0.00     0.039 C 
ENDROOT
BRANCH   1   4
ATOM      4  C   UNL     1     -14.454 -16.109  33.046  1.00  0.00     0.034 C 
BRANCH   4   5
ATOM      5  C   UNL     1     -14.035 -14.661  33.324  1.00  0.00     0.032 C 
BRANCH   5   6
ATOM      6  C   UNL     1     -13.517 -14.515  34.734  1.00  0.00    -0.028 C 
ATOM      7  C   UNL     1     -11.171 -15.130  34.105  1.00  0.00     0.039 C 
ATOM      8  C   UNL     1     -12.238 -14.753  35.103  1.00  0.00    -0.080 C 
ATOM      9  C   UNL     1     -11.836 -14.602  36.548  1.00  0.00     0.039 C 
ENDBRANCH   5   6
ENDBRANCH   4   5
ENDBRANCH   1   4
BRANCH   2  10
ATOM     10  C   UNL     1     -12.379 -18.742  31.047  1.00  0.00     0.035 C 
BRANCH  10  11
ATOM     11  C   UNL     1     -13.139 -19.903  30.396  1.00  0.00     0.079 C 
BRANCH  11  12
ATOM     12  C   UNL     1     -13.508 -19.567  28.976  1.00  0.00     0.130 C 
ATOM     13  O   UNL     1     -14.229 -20.327  28.347  1.00  0.00    -0.300 OA
ATOM     14  C   UNL     1     -13.020 -18.312  28.316  1.00  0.00     0.087 C 
ENDBRANCH  11  12
ENDBRANCH  10  11
ENDBRANCH   2  10
TORSDOF 6
ENDMDL
MODEL 2
REMARK VINA RESULT:    -5.703      2.632      6.470
REMARK INTER + INTRA:          -8.526
REMARK INTER:                  -7.635
REMARK INTRA:                  -0.890
REMARK UNBOUND:                -0.822
REMARK SMILES CC(=O)CCC=C(C)CCC=C(C)C
REMARK SMILES IDX 7 1 6 2 8 3 9 4 10 5 11 6 13 7 12 8 14 9 5 10 4 11 2 12 3 13
REMARK SMILES IDX 1 14
REMARK H PARENT
REMARK Flexibility Score: inf
ROOT
ATOM      1  C   UNL     1     -12.828 -15.969  31.105  1.00  0.00    -0.077 C 
ATOM      2  C   UNL     1     -13.998 -15.696  31.726  1.00  0.00    -0.028 C 
ATOM      3  C   UNL     1     -11.608 -16.431  31.866  1.00  0.00     0.039 C 
ENDROOT
BRANCH   1   4
ATOM      4  C   UNL     1     -12.745 -15.827  29.601  1.00  0.00     0.034 C 
BRANCH   4   5
ATOM      5  C   UNL     1     -12.011 -17.021  28.980  1.00  0.00     0.032 C 
BRANCH   5   6
ATOM      6  C   UNL     1     -12.993 -18.063  28.502  1.00  0.00    -0.028 C 
ATOM      7  C   UNL     1     -12.483 -19.635  30.386  1.00  0.00     0.039 C 
ATOM      8  C   UNL     1     -13.191 -19.256  29.108  1.00  0.00    -0.080 C 
ATOM      9  C   UNL     1     -14.179 -20.235  28.529  1.00  0.00     0.039 C 
ENDBRANCH   5   6
ENDBRANCH   4   5
ENDBRANCH   1   4
BRANCH   2  10
ATOM     10  C   UNL     1     -14.208 -15.763  33.218  1.00  0.00     0.035 C 
BRANCH  10  11
ATOM     11  C   UNL     1     -14.257 -14.358  33.825  1.00  0.00     0.079 C 
BRANCH  11  12
ATOM     12  C   UNL     1     -13.199 -14.199  34.885  1.00  0.00     0.130 C 
ATOM     13  O   UNL     1     -12.309 -15.030  34.976  1.00  0.00    -0.300 OA
ATOM     14  C   UNL     1     -13.206 -13.032  35.828  1.00  0.00     0.087 C 
ENDBRANCH  11  12
ENDBRANCH  10  11
ENDBRANCH   2  10
TORSDOF 6
ENDMDL
MODEL 3
REMARK VINA RESULT:    -5.688      1.464      2.191
REMARK INTER + INTRA:          -8.506
REMARK INTER:                  -7.708
REMARK INTRA:                  -0.798
REMARK UNBOUND:                -0.822
REMARK SMILES CC(=O)CCC=C(C)CCC=C(C)C
REMARK SMILES IDX 7 1 6 2 8 3 9 4 10 5 11 6 13 7 12 8 14 9 5 10 4 11 2 12 3 13
REMARK SMILES IDX 1 14
REMARK H PARENT
REMARK Flexibility Score: inf
ROOT
ATOM      1  C   UNL     1     -13.230 -16.837  31.832  1.00  0.00    -0.077 C 
ATOM      2  C   UNL     1     -12.578 -15.996  30.997  1.00  0.00    -0.028 C 
ATOM      3  C   UNL     1     -12.930 -18.317  31.871  1.00  0.00     0.039 C 
ENDROOT
BRANCH   1   4
ATOM      4  C   UNL     1     -14.276 -16.275  32.769  1.00  0.00     0.034 C 
BRANCH   4   5
ATOM      5  C   UNL     1     -13.983 -14.806  33.097  1.00  0.00     0.032 C 
BRANCH   5   6
ATOM      6  C   UNL     1     -13.652 -14.639  34.559  1.00  0.00    -0.028 C 
ATOM      7  C   UNL     1     -11.201 -15.030  34.210  1.00  0.00     0.039 C 
ATOM      8  C   UNL     1     -12.409 -14.769  35.077  1.00  0.00    -0.080 C 
ATOM      9  C   UNL     1     -12.195 -14.608  36.560  1.00  0.00     0.039 C 
ENDBRANCH   5   6
ENDBRANCH   4   5
ENDBRANCH   1   4
BRANCH   2  10
ATOM     10  C   UNL     1     -11.540 -16.427  29.991  1.00  0.00     0.035 C 
BRANCH  10  11
ATOM     11  C   UNL     1     -11.895 -15.918  28.590  1.00  0.00     0.079 C 
BRANCH  11  12
ATOM     12  C   UNL     1     -12.084 -17.069  27.638  1.00  0.00     0.130 C 
ATOM     13  O   UNL     1     -12.825 -17.990  27.947  1.00  0.00    -0.300 OA
ATOM     14  C   UNL     1     -11.393 -17.105  26.307  1.00  0.00     0.087 C 
ENDBRANCH  11  12
ENDBRANCH  10  11
ENDBRANCH   2  10
TORSDOF 6
ENDMDL
MODEL 4
REMARK VINA RESULT:    -5.654      3.490      7.104
REMARK INTER + INTRA:          -8.459
REMARK INTER:                  -8.097
REMARK INTRA:                  -0.362
REMARK UNBOUND:                -0.822
REMARK SMILES CC(=O)CCC=C(C)CCC=C(C)C
REMARK SMILES IDX 7 1 6 2 8 3 9 4 10 5 11 6 13 7 12 8 14 9 5 10 4 11 2 12 3 13
REMARK SMILES IDX 1 14
REMARK H PARENT
REMARK Flexibility Score: inf
ROOT
ATOM      1  C   UNL     1     -13.556 -15.626  32.047  1.00  0.00    -0.077 C 
ATOM      2  C   UNL     1     -12.740 -15.650  33.125  1.00  0.00    -0.028 C 
ATOM      3  C   UNL     1     -14.800 -14.771  32.006  1.00  0.00     0.039 C 
ENDROOT
BRANCH   1   4
ATOM      4  C   UNL     1     -13.200 -16.464  30.839  1.00  0.00     0.034 C 
BRANCH   4   5
ATOM      5  C   UNL     1     -12.992 -15.579  29.603  1.00  0.00     0.032 C 
BRANCH   5   6
ATOM      6  C   UNL     1     -12.014 -16.216  28.648  1.00  0.00    -0.028 C 
ATOM      7  C   UNL     1     -13.618 -16.164  26.723  1.00  0.00     0.039 C 
ATOM      8  C   UNL     1     -12.294 -16.513  27.358  1.00  0.00    -0.080 C 
ATOM      9  C   UNL     1     -11.248 -17.175  26.498  1.00  0.00     0.039 C 
ENDBRANCH   5   6
ENDBRANCH   4   5
ENDBRANCH   1   4
BRANCH   2  10
ATOM     10  C   UNL     1     -12.993 -14.892  34.405  1.00  0.00     0.035 C 
BRANCH  10  11
ATOM     11  C   UNL     1     -11.673 -14.454  35.048  1.00  0.00     0.079 C 
BRANCH  11  12
ATOM     12  C   UNL     1     -11.929 -13.699  36.326  1.00  0.00     0.130 C 
ATOM     13  O   UNL     1     -12.163 -14.317  37.353  1.00  0.00    -0.300 OA
ATOM     14  C   UNL     1     -11.890 -12.200  36.370  1.00  0.00     0.087 C 
ENDBRANCH  11  12
ENDBRANCH  10  11
ENDBRANCH   2  10
TORSDOF 6
ENDMDL
MODEL 5
REMARK VINA RESULT:    -5.653      2.402      5.806
REMARK INTER + INTRA:          -8.458
REMARK INTER:                  -7.652
REMARK INTRA:                  -0.806
REMARK UNBOUND:                -0.822
REMARK SMILES CC(=O)CCC=C(C)CCC=C(C)C
REMARK SMILES IDX 7 1 6 2 8 3 9 4 10 5 11 6 13 7 12 8 14 9 5 10 4 11 2 12 3 13
REMARK SMILES IDX 1 14
REMARK H PARENT
REMARK Flexibility Score: inf
ROOT
ATOM      1  C   UNL     1     -12.359 -18.117  31.540  1.00  0.00    -0.077 C 
ATOM      2  C   UNL     1     -13.120 -17.140  32.083  1.00  0.00    -0.028 C 
ATOM      3  C   UNL     1     -10.851 -18.102  31.637  1.00  0.00     0.039 C 
ENDROOT
BRANCH   1   4
ATOM      4  C   UNL     1     -13.038 -19.270  30.834  1.00  0.00     0.034 C 
BRANCH   4   5
ATOM      5  C   UNL     1     -12.569 -19.369  29.377  1.00  0.00     0.032 C 
BRANCH   5   6
ATOM      6  C   UNL     1     -13.238 -18.318  28.527  1.00  0.00    -0.028 C 
ATOM      7  C   UNL     1     -11.095 -17.104  28.064  1.00  0.00     0.039 C 
ATOM      8  C   UNL     1     -12.591 -17.276  27.956  1.00  0.00    -0.080 C 
ATOM      9  C   UNL     1     -13.364 -16.267  27.147  1.00  0.00     0.039 C 
ENDBRANCH   5   6
ENDBRANCH   4   5
ENDBRANCH   1   4
BRANCH   2  10
ATOM     10  C   UNL     1     -12.573 -15.921  32.783  1.00  0.00     0.035 C 
BRANCH  10  11
ATOM     11  C   UNL     1     -13.689 -15.162  33.509  1.00  0.00     0.079 C 
BRANCH  11  12
ATOM     12  C   UNL     1     -14.914 -15.058  32.640  1.00  0.00     0.130 C 
ATOM     13  O   UNL     1     -15.969 -15.539  33.026  1.00  0.00    -0.300 OA
ATOM     14  C   UNL     1     -14.874 -14.363  31.312  1.00  0.00     0.087 C 
ENDBRANCH  11  12
ENDBRANCH  10  11
ENDBRANCH   2  10
TORSDOF 6
ENDMDL
MODEL 6
REMARK VINA RESULT:    -5.625      2.347      4.105
REMARK INTER + INTRA:          -8.420
REMARK INTER:                  -7.282
REMARK INTRA:                  -1.138
REMARK UNBOUND:                -0.822
REMARK SMILES CC(=O)CCC=C(C)CCC=C(C)C
REMARK SMILES IDX 7 1 6 2 8 3 9 4 10 5 11 6 13 7 12 8 14 9 5 10 4 11 2 12 3 13
REMARK SMILES IDX 1 14
REMARK H PARENT
REMARK Flexibility Score: inf
ROOT
ATOM      1  C   UNL     1     -12.807 -19.301  29.525  1.00  0.00    -0.077 C 
ATOM      2  C   UNL     1     -11.772 -18.490  29.208  1.00  0.00    -0.028 C 
ATOM      3  C   UNL     1     -13.986 -19.491  28.601  1.00  0.00     0.039 C 
ENDROOT
BRANCH   1   4
ATOM      4  C   UNL     1     -12.771 -20.057  30.835  1.00  0.00     0.034 C 
BRANCH   4   5
ATOM      5  C   UNL     1     -12.470 -19.111  32.004  1.00  0.00     0.032 C 
BRANCH   5   6
ATOM      6  C   UNL     1     -13.405 -17.927  31.988  1.00  0.00    -0.028 C 
ATOM      7  C   UNL     1     -11.546 -16.257  32.166  1.00  0.00     0.039 C 
ATOM      8  C   UNL     1     -13.003 -16.639  32.093  1.00  0.00    -0.080 C 
ATOM      9  C   UNL     1     -14.027 -15.534  32.094  1.00  0.00     0.039 C 
ENDBRANCH   5   6
ENDBRANCH   4   5
ENDBRANCH   1   4
BRANCH   2  10
ATOM     10  C   UNL     1     -11.695 -17.655  27.954  1.00  0.00     0.035 C 
BRANCH  10  11
ATOM     11  C   UNL     1     -11.885 -16.169  28.277  1.00  0.00     0.079 C 
BRANCH  11  12
ATOM     12  C   UNL     1     -13.188 -15.665  27.718  1.00  0.00     0.130 C 
ATOM     13  O   UNL     1     -13.682 -16.220  26.748  1.00  0.00    -0.300 OA
ATOM     14  C   UNL     1     -13.904 -14.499  28.333  1.00  0.00     0.087 C 
ENDBRANCH  11  12
ENDBRANCH  10  11
ENDBRANCH   2  10
TORSDOF 6
ENDMDL
MODEL 7
REMARK VINA RESULT:    -5.594      3.776      7.119
REMARK INTER + INTRA:          -8.378
REMARK INTER:                  -7.958
REMARK INTRA:                  -0.420
REMARK UNBOUND:                -0.822
REMARK SMILES CC(=O)CCC=C(C)CCC=C(C)C
REMARK SMILES IDX 7 1 6 2 8 3 9 4 10 5 11 6 13 7 12 8 14 9 5 10 4 11 2 12 3 13
REMARK SMILES IDX 1 14
REMARK H PARENT
REMARK Flexibility Score: inf
ROOT
ATOM      1  C   UNL     1     -13.864 -15.520  33.103  1.00  0.00    -0.077 C 
ATOM      2  C   UNL     1     -13.046 -15.128  34.106  1.00  0.00    -0.028 C 
ATOM      3  C   UNL     1     -15.124 -14.762  32.757  1.00  0.00     0.039 C 
ENDROOT
BRANCH   1   4
ATOM      4  C   UNL     1     -13.496 -16.742  32.290  1.00  0.00     0.034 C 
BRANCH   4   5
ATOM      5  C   UNL     1     -12.419 -16.402  31.252  1.00  0.00     0.032 C 
BRANCH   5   6
ATOM      6  C   UNL     1     -12.988 -16.452  29.856  1.00  0.00    -0.028 C 
ATOM      7  C   UNL     1     -10.829 -15.769  28.783  1.00  0.00     0.039 C 
ATOM      8  C   UNL     1     -12.291 -16.139  28.739  1.00  0.00    -0.080 C 
ATOM      9  C   UNL     1     -12.968 -16.196  27.394  1.00  0.00     0.039 C 
ENDBRANCH   5   6
ENDBRANCH   4   5
ENDBRANCH   1   4
BRANCH   2  10
ATOM     10  C   UNL     1     -13.310 -13.952  35.013  1.00  0.00     0.035 C 
BRANCH  10  11
ATOM     11  C   UNL     1     -12.298 -13.913  36.162  1.00  0.00     0.079 C 
BRANCH  11  12
ATOM     12  C   UNL     1     -12.191 -12.522  36.730  1.00  0.00     0.130 C 
ATOM     13  O   UNL     1     -12.903 -12.199  37.668  1.00  0.00    -0.300 OA
ATOM     14  C   UNL     1     -11.217 -11.524  36.176  1.00  0.00     0.087 C 
ENDBRANCH  11  12
ENDBRANCH  10  11
ENDBRANCH   2  10
TORSDOF 6
ENDMDL
MODEL 8
REMARK VINA RESULT:    -5.546      1.641      2.271
REMARK INTER + INTRA:          -8.314
REMARK INTER:                  -7.759
REMARK INTRA:                  -0.555
REMARK UNBOUND:                -0.822
REMARK SMILES CC(=O)CCC=C(C)CCC=C(C)C
REMARK SMILES IDX 7 1 6 2 8 3 9 4 10 5 11 6 13 7 12 8 14 9 5 10 4 11 2 12 3 13
REMARK SMILES IDX 1 14
REMARK H PARENT
REMARK Flexibility Score: inf
ROOT
ATOM      1  C   UNL     1     -14.144 -15.272  31.883  1.00  0.00    -0.077 C 
ATOM      2  C   UNL     1     -13.241 -16.210  31.515  1.00  0.00    -0.028 C 
ATOM      3  C   UNL     1     -14.805 -14.361  30.876  1.00  0.00     0.039 C 
ENDROOT
BRANCH   1   4
ATOM      4  C   UNL     1     -14.517 -15.147  33.344  1.00  0.00     0.034 C 
BRANCH   4   5
ATOM      5  C   UNL     1     -13.264 -15.121  34.227  1.00  0.00     0.032 C 
BRANCH   5   6
ATOM      6  C   UNL     1     -13.240 -13.881  35.086  1.00  0.00    -0.028 C 
ATOM      7  C   UNL     1     -11.457 -14.774  36.603  1.00  0.00     0.039 C 
ATOM      8  C   UNL     1     -12.455 -13.725  36.176  1.00  0.00    -0.080 C 
ATOM      9  C   UNL     1     -12.532 -12.452  36.979  1.00  0.00     0.039 C 
ENDBRANCH   5   6
ENDBRANCH   4   5
ENDBRANCH   1   4
BRANCH   2  10
ATOM     10  C   UNL     1     -12.755 -16.418  30.102  1.00  0.00     0.035 C 
BRANCH  10  11
ATOM     11  C   UNL     1     -13.027 -17.853  29.639  1.00  0.00     0.079 C 
BRANCH  11  12
ATOM     12  C   UNL     1     -12.190 -18.832  30.418  1.00  0.00     0.130 C 
ATOM     13  O   UNL     1     -10.973 -18.728  30.405  1.00  0.00    -0.300 OA
ATOM     14  C   UNL     1     -12.819 -19.930  31.224  1.00  0.00     0.087 C 
ENDBRANCH  11  12
ENDBRANCH  10  11
ENDBRANCH   2  10
TORSDOF 6
ENDMDL
MODEL 9
REMARK VINA RESULT:    -5.506      2.444      3.245
REMARK INTER + INTRA:          -8.260
REMARK INTER:                  -7.681
REMARK INTRA:                  -0.579
REMARK UNBOUND:                -0.822
REMARK SMILES CC(=O)CCC=C(C)CCC=C(C)C
REMARK SMILES IDX 7 1 6 2 8 3 9 4 10 5 11 6 13 7 12 8 14 9 5 10 4 11 2 12 3 13
REMARK SMILES IDX 1 14
REMARK H PARENT
REMARK Flexibility Score: inf
ROOT
ATOM      1  C   UNL     1     -13.769 -15.047  33.190  1.00  0.00    -0.077 C 
ATOM      2  C   UNL     1     -12.768 -15.879  32.823  1.00  0.00    -0.028 C 
ATOM      3  C   UNL     1     -14.955 -14.780  32.293  1.00  0.00     0.039 C 
ENDROOT
BRANCH   1   4
ATOM      4  C   UNL     1     -13.710 -14.380  34.546  1.00  0.00     0.034 C 
BRANCH   4   5
ATOM      5  C   UNL     1     -12.438 -14.789  35.300  1.00  0.00     0.032 C 
BRANCH   5   6
ATOM      6  C   UNL     1     -11.458 -13.644  35.356  1.00  0.00    -0.028 C 
ATOM      7  C   UNL     1     -12.630 -12.526  37.267  1.00  0.00     0.039 C 
ATOM      8  C   UNL     1     -11.551 -12.603  36.215  1.00  0.00    -0.080 C 
ATOM      9  C   UNL     1     -10.529 -11.497  36.165  1.00  0.00     0.039 C 
ENDBRANCH   5   6
ENDBRANCH   4   5
ENDBRANCH   1   4
BRANCH   2  10
ATOM     10  C   UNL     1     -12.685 -16.579  31.490  1.00  0.00     0.035 C 
BRANCH  10  11
ATOM     11  C   UNL     1     -11.383 -16.220  30.766  1.00  0.00     0.079 C 
BRANCH  11  12
ATOM     12  C   UNL     1     -11.643 -15.939  29.310  1.00  0.00     0.130 C 
ATOM     13  O   UNL     1     -10.760 -16.141  28.491  1.00  0.00    -0.300 OA
ATOM     14  C   UNL     1     -12.971 -15.425  28.838  1.00  0.00     0.087 C 
ENDBRANCH  11  12
ENDBRANCH  10  11
ENDBRANCH   2  10
TORSDOF 6
ENDMDL
