MODEL 1
REMARK VINA RESULT:    -4.567      0.000      0.000
REMARK INTER + INTRA:          -6.132
REMARK INTER:                  -6.436
REMARK INTRA:                   0.303
REMARK UNBOUND:                 0.303
REMARK SMILES CC1=CCC(=C(C)C)C(=O)CC(C)=CCC1
REMARK SMILES IDX 12 1 14 2 13 3 15 4 16 5 2 6 1 7 3 8 11 10 9 11 10 12 5 13
REMARK SMILES IDX 6 14 7 15 8 16 4 17
REMARK H PARENT
REMARK Flexibility Score: 60.00
ROOT
ATOM      1  C   UNL     1     -15.979  14.613 -30.198  1.00  0.00    -0.070 C 
ATOM      2  C   UNL     1     -16.613  14.331 -29.038  1.00  0.00    -0.027 C 
ATOM      3  C   UNL     1     -14.868  15.631 -30.165  1.00  0.00     0.039 C 
ENDROOT
BRANCH   2   4
ATOM      4  C   UNL     1     -17.809  13.416 -28.886  1.00  0.00     0.032 C 
BRANCH   4   5
ATOM      5  C   UNL     1     -17.491  11.911 -28.993  1.00  0.00     0.034 C 
BRANCH   5   6
ATOM      6  C   UNL     1     -16.139  11.542 -28.407  1.00  0.00    -0.077 C 
ATOM      7  C   UNL     1     -15.993  11.579 -26.906  1.00  0.00     0.039 C 
ATOM      8  C   UNL     1     -15.040  11.250 -29.143  1.00  0.00    -0.023 CG0
ATOM      9  G   UNL     1     -14.956  11.137 -30.653  1.00  0.00     0.000 G0
ENDBRANCH   5   6
ENDBRANCH   4   5
ENDBRANCH   2   4
BRANCH   1  10
ATOM     10  C   UNL     1     -16.390  14.027 -31.534  1.00  0.00     0.111 C 
BRANCH  10  11
ATOM     11  C   UNL     1     -15.287  13.200 -32.140  1.00  0.00     0.163 C 
ATOM     12  O   UNL     1     -15.181  13.182 -33.396  1.00  0.00    -0.294 OA
BRANCH  11  13
ATOM     13  C   UNL     1     -14.369  12.360 -31.315  1.00  0.00    -0.002 C 
ATOM     14  C   UNL     1     -13.036  12.654 -31.236  1.00  0.00    -0.069 C 
ATOM     15  C   UNL     1     -12.473  13.918 -31.848  1.00  0.00     0.039 C 
ATOM     16  C   UNL     1     -12.054  11.736 -30.540  1.00  0.00     0.039 C 
BRANCH  13  17
ATOM     17  C   UNL     1     -14.961  11.126 -30.653  1.00  0.00     0.066 CG0
ATOM     18  G   UNL     1     -15.056  11.270 -29.147  1.00  0.00     0.000 G0
ENDBRANCH  13  17
ENDBRANCH  11  13
ENDBRANCH  10  11
ENDBRANCH   1  10
TORSDOF 0
ENDMDL
MODEL 2
REMARK VINA RESULT:    -3.935      2.117      3.697
REMARK INTER + INTRA:          -5.242
REMARK INTER:                  -5.466
REMARK INTRA:                   0.224
REMARK UNBOUND:                 0.303
REMARK SMILES CC1=CCC(=C(C)C)C(=O)CC(C)=CCC1
REMARK SMILES IDX 12 1 14 2 13 3 15 4 16 5 2 6 1 7 3 8 11 10 9 11 10 12 5 13
REMARK SMILES IDX 6 14 7 15 8 16 4 17
REMARK H PARENT
REMARK Flexibility Score: 60.00
ROOT
ATOM      1  C   UNL     1     -13.597  11.639 -27.438  1.00  0.00    -0.070 C 
ATOM      2  C   UNL     1     -14.463  10.912 -26.697  1.00  0.00    -0.027 C 
ATOM      3  C   UNL     1     -12.506  12.387 -26.716  1.00  0.00     0.039 C 
ENDROOT
BRANCH   2   4
ATOM      4  C   UNL     1     -15.675  10.175 -27.225  1.00  0.00     0.032 C 
BRANCH   4   5
ATOM      5  C   UNL     1     -17.010  10.930 -27.071  1.00  0.00     0.034 C 
BRANCH   5   6
ATOM      6  C   UNL     1     -17.795  11.028 -28.367  1.00  0.00    -0.077 C 
ATOM      7  C   UNL     1     -18.703   9.878 -28.724  1.00  0.00     0.039 C 
ATOM      8  C   UNL     1     -17.682  12.046 -29.255  1.00  0.00    -0.023 CG0
ATOM      9  G   UNL     1     -16.852  13.305 -29.100  1.00  0.00     0.000 G0
ENDBRANCH   5   6
ENDBRANCH   4   5
ENDBRANCH   2   4
BRANCH   1  10
ATOM     10  C   UNL     1     -13.727  11.810 -28.938  1.00  0.00     0.111 C 
BRANCH  10  11
ATOM     11  C   UNL     1     -14.285  13.162 -29.297  1.00  0.00     0.163 C 
ATOM     12  O   UNL     1     -13.626  14.184 -28.960  1.00  0.00    -0.294 OA
BRANCH  11  13
ATOM     13  C   UNL     1     -15.605  13.331 -29.973  1.00  0.00    -0.002 C 
ATOM     14  C   UNL     1     -15.676  13.575 -31.316  1.00  0.00    -0.069 C 
ATOM     15  C   UNL     1     -14.441  13.528 -32.188  1.00  0.00     0.039 C 
ATOM     16  C   UNL     1     -16.984  13.907 -32.001  1.00  0.00     0.039 C 
BRANCH  13  17
ATOM     17  C   UNL     1     -16.844  13.313 -29.092  1.00  0.00     0.066 CG0
ATOM     18  G   UNL     1     -17.655  12.044 -29.264  1.00  0.00     0.000 G0
ENDBRANCH  13  17
ENDBRANCH  11  13
ENDBRANCH  10  11
ENDBRANCH   1  10
TORSDOF 0
ENDMDL
MODEL 3
REMARK VINA RESULT:    -3.817      9.089     11.090
REMARK INTER + INTRA:          -5.075
REMARK INTER:                  -5.429
REMARK INTRA:                   0.353
REMARK UNBOUND:                 0.303
REMARK SMILES CC1=CCC(=C(C)C)C(=O)CC(C)=CCC1
REMARK SMILES IDX 12 1 14 2 13 3 15 4 16 5 2 6 1 7 3 8 11 10 9 11 10 12 5 13
REMARK SMILES IDX 6 14 7 15 8 16 4 17
REMARK H PARENT
REMARK Flexibility Score: 60.00
ROOT
ATOM      1  C   UNL     1     -28.712  12.417 -28.960  1.00  0.00    -0.070 C 
ATOM      2  C   UNL     1     -28.743  11.232 -28.311  1.00  0.00    -0.027 C 
ATOM      3  C   UNL     1     -29.950  12.846 -29.705  1.00  0.00     0.039 C 
ENDROOT
BRANCH   2   4
ATOM      4  C   UNL     1     -27.576  10.587 -27.593  1.00  0.00     0.032 C 
BRANCH   4   5
ATOM      5  C   UNL     1     -26.484  10.013 -28.518  1.00  0.00     0.034 C 
BRANCH   5   6
ATOM      6  C   UNL     1     -25.076  10.353 -28.063  1.00  0.00    -0.077 C 
ATOM      7  C   UNL     1     -24.655   9.897 -26.688  1.00  0.00     0.039 C 
ATOM      8  C   UNL     1     -24.198  11.097 -28.780  1.00  0.00    -0.023 CG0
ATOM      9  G   UNL     1     -24.395  11.642 -30.181  1.00  0.00     0.000 G0
ENDBRANCH   5   6
ENDBRANCH   4   5
ENDBRANCH   2   4
BRANCH   1  10
ATOM     10  C   UNL     1     -27.472  13.283 -29.050  1.00  0.00     0.111 C 
BRANCH  10  11
ATOM     11  C   UNL     1     -26.624  12.918 -30.240  1.00  0.00     0.163 C 
ATOM     12  O   UNL     1     -27.207  12.498 -31.277  1.00  0.00    -0.294 OA
BRANCH  11  13
ATOM     13  C   UNL     1     -25.133  12.975 -30.210  1.00  0.00    -0.002 C 
ATOM     14  C   UNL     1     -24.478  14.172 -30.282  1.00  0.00    -0.069 C 
ATOM     15  C   UNL     1     -25.232  15.483 -30.238  1.00  0.00     0.039 C 
ATOM     16  C   UNL     1     -22.972  14.254 -30.413  1.00  0.00     0.039 C 
BRANCH  13  17
ATOM     17  C   UNL     1     -24.387  11.650 -30.190  1.00  0.00     0.066 CG0
ATOM     18  G   UNL     1     -24.218  11.104 -28.786  1.00  0.00     0.000 G0
ENDBRANCH  13  17
ENDBRANCH  11  13
ENDBRANCH  10  11
ENDBRANCH   1  10
TORSDOF 0
ENDMDL
MODEL 4
REMARK VINA RESULT:    -3.435      1.460      2.668
REMARK INTER + INTRA:          -4.538
REMARK INTER:                  -5.782
REMARK INTRA:                   1.244
REMARK UNBOUND:                 0.303
REMARK SMILES CC1=CCC(=C(C)C)C(=O)CC(C)=CCC1
REMARK SMILES IDX 12 1 14 2 13 3 15 4 16 5 2 6 1 7 3 8 11 10 9 11 10 12 5 13
REMARK SMILES IDX 6 14 7 15 8 16 4 17
REMARK H PARENT
REMARK Flexibility Score: 60.00
ROOT
ATOM      1  C   UNL     1     -18.608  12.039 -29.314  1.00  0.00    -0.070 C 
ATOM      2  C   UNL     1     -18.453  10.733 -28.999  1.00  0.00    -0.027 C 
ATOM      3  C   UNL     1     -19.953  12.486 -29.825  1.00  0.00     0.039 C 
ENDROOT
BRANCH   2   4
ATOM      4  C   UNL     1     -17.160  10.076 -28.566  1.00  0.00     0.032 C 
BRANCH   4   5
ATOM      5  C   UNL     1     -16.219  10.980 -27.744  1.00  0.00     0.034 C 
BRANCH   5   6
ATOM      6  C   UNL     1     -14.750  10.762 -28.064  1.00  0.00    -0.077 C 
ATOM      7  C   UNL     1     -13.831  10.400 -26.925  1.00  0.00     0.039 C 
ATOM      8  C   UNL     1     -14.201  10.938 -29.290  1.00  0.00    -0.023 CG0
ATOM      9  G   UNL     1     -14.927  11.280 -30.577  1.00  0.00     0.000 G0
ENDBRANCH   5   6
ENDBRANCH   4   5
ENDBRANCH   2   4
BRANCH   1  10
ATOM     10  C   UNL     1     -17.476  13.045 -29.265  1.00  0.00     0.111 C 
BRANCH  10  11
ATOM     11  C   UNL     1     -16.726  13.101 -30.569  1.00  0.00     0.163 C 
ATOM     12  O   UNL     1     -17.367  13.409 -31.610  1.00  0.00    -0.294 OA
BRANCH  11  13
ATOM     13  C   UNL     1     -15.280  12.746 -30.678  1.00  0.00    -0.002 C 
ATOM     14  C   UNL     1     -14.341  13.708 -30.930  1.00  0.00    -0.069 C 
ATOM     15  C   UNL     1     -14.709  15.175 -30.953  1.00  0.00     0.039 C 
ATOM     16  C   UNL     1     -12.894  13.362 -31.202  1.00  0.00     0.039 C 
BRANCH  13  17
ATOM     17  C   UNL     1     -14.917  11.272 -30.590  1.00  0.00     0.066 CG0
ATOM     18  G   UNL     1     -14.183  10.935 -29.307  1.00  0.00     0.000 G0
ENDBRANCH  13  17
ENDBRANCH  11  13
ENDBRANCH  10  11
ENDBRANCH   1  10
TORSDOF 0
ENDMDL
MODEL 5
REMARK VINA RESULT:    -3.319      9.857     11.897
REMARK INTER + INTRA:          -4.374
REMARK INTER:                  -5.889
REMARK INTRA:                   1.515
REMARK UNBOUND:                 0.303
REMARK SMILES CC1=CCC(=C(C)C)C(=O)CC(C)=CCC1
REMARK SMILES IDX 12 1 14 2 13 3 15 4 16 5 2 6 1 7 3 8 11 10 9 11 10 12 5 13
REMARK SMILES IDX 6 14 7 15 8 16 4 17
REMARK H PARENT
REMARK Flexibility Score: 60.00
ROOT
ATOM      1  C   UNL     1     -24.477  13.685 -30.303  1.00  0.00    -0.070 C 
ATOM      2  C   UNL     1     -23.957  12.574 -29.735  1.00  0.00    -0.027 C 
ATOM      3  C   UNL     1     -23.520  14.744 -30.787  1.00  0.00     0.039 C 
ENDROOT
BRANCH   2   4
ATOM      4  C   UNL     1     -24.751  11.450 -29.104  1.00  0.00     0.032 C 
BRANCH   4   5
ATOM      5  C   UNL     1     -25.538  11.845 -27.838  1.00  0.00     0.034 C 
BRANCH   5   6
ATOM      6  C   UNL     1     -26.802  11.026 -27.641  1.00  0.00    -0.077 C 
ATOM      7  C   UNL     1     -26.748   9.879 -26.663  1.00  0.00     0.039 C 
ATOM      8  C   UNL     1     -27.952  11.215 -28.334  1.00  0.00    -0.023 CG0
ATOM      9  G   UNL     1     -28.240  12.307 -29.345  1.00  0.00     0.000 G0
ENDBRANCH   5   6
ENDBRANCH   4   5
ENDBRANCH   2   4
BRANCH   1  10
ATOM     10  C   UNL     1     -25.966  13.954 -30.392  1.00  0.00     0.111 C 
BRANCH  10  11
ATOM     11  C   UNL     1     -26.662  12.941 -31.261  1.00  0.00     0.163 C 
ATOM     12  O   UNL     1     -26.402  12.939 -32.495  1.00  0.00    -0.294 OA
BRANCH  11  13
ATOM     13  C   UNL     1     -27.684  11.993 -30.727  1.00  0.00    -0.002 C 
ATOM     14  C   UNL     1     -28.131  10.947 -31.485  1.00  0.00    -0.069 C 
ATOM     15  C   UNL     1     -27.500  10.619 -32.820  1.00  0.00     0.039 C 
ATOM     16  C   UNL     1     -29.276  10.065 -31.036  1.00  0.00     0.039 C 
BRANCH  13  17
ATOM     17  C   UNL     1     -28.266  12.299 -29.355  1.00  0.00     0.066 CG0
ATOM     18  G   UNL     1     -27.950  11.217 -28.341  1.00  0.00     0.000 G0
ENDBRANCH  13  17
ENDBRANCH  11  13
ENDBRANCH  10  11
ENDBRANCH   1  10
TORSDOF 0
ENDMDL
MODEL 6
REMARK VINA RESULT:    -3.201      9.290     11.488
REMARK INTER + INTRA:          -4.207
REMARK INTER:                  -5.039
REMARK INTRA:                   0.832
REMARK UNBOUND:                 0.303
REMARK SMILES CC1=CCC(=C(C)C)C(=O)CC(C)=CCC1
REMARK SMILES IDX 12 1 14 2 13 3 15 4 16 5 2 6 1 7 3 8 11 10 9 11 10 12 5 13
REMARK SMILES IDX 6 14 7 15 8 16 4 17
REMARK H PARENT
REMARK Flexibility Score: 60.00
ROOT
ATOM      1  C   UNL     1     -25.162  10.328 -28.148  1.00  0.00    -0.070 C 
ATOM      2  C   UNL     1     -26.333   9.925 -27.605  1.00  0.00    -0.027 C 
ATOM      3  C   UNL     1     -23.957  10.407 -27.247  1.00  0.00     0.039 C 
ENDROOT
BRANCH   2   4
ATOM      4  C   UNL     1     -27.666   9.875 -28.319  1.00  0.00     0.032 C 
BRANCH   4   5
ATOM      5  C   UNL     1     -28.517  11.155 -28.192  1.00  0.00     0.034 C 
BRANCH   5   6
ATOM      6  C   UNL     1     -28.585  11.958 -29.479  1.00  0.00    -0.077 C 
ATOM      7  C   UNL     1     -29.677  11.616 -30.462  1.00  0.00     0.039 C 
ATOM      8  C   UNL     1     -27.690  12.912 -29.834  1.00  0.00    -0.023 CG0
ATOM      9  G   UNL     1     -26.531  13.430 -29.004  1.00  0.00     0.000 G0
ENDBRANCH   5   6
ENDBRANCH   4   5
ENDBRANCH   2   4
BRANCH   1  10
ATOM     10  C   UNL     1     -25.028  10.788 -29.585  1.00  0.00     0.111 C 
BRANCH  10  11
ATOM     11  C   UNL     1     -24.396  12.152 -29.675  1.00  0.00     0.163 C 
ATOM     12  O   UNL     1     -23.137  12.227 -29.634  1.00  0.00    -0.294 OA
BRANCH  11  13
ATOM     13  C   UNL     1     -25.202  13.406 -29.747  1.00  0.00    -0.002 C 
ATOM     14  C   UNL     1     -24.721  14.510 -30.394  1.00  0.00    -0.069 C 
ATOM     15  C   UNL     1     -23.434  14.456 -31.188  1.00  0.00     0.039 C 
ATOM     16  C   UNL     1     -25.440  15.841 -30.350  1.00  0.00     0.039 C 
BRANCH  13  17
ATOM     17  C   UNL     1     -26.524  13.427 -28.996  1.00  0.00     0.066 CG0
ATOM     18  G   UNL     1     -27.672  12.903 -29.836  1.00  0.00     0.000 G0
ENDBRANCH  13  17
ENDBRANCH  11  13
ENDBRANCH  10  11
ENDBRANCH   1  10
TORSDOF 0
ENDMDL
MODEL 7
REMARK VINA RESULT:    -3.158      1.713      3.350
REMARK INTER + INTRA:          -4.147
REMARK INTER:                  -5.671
REMARK INTRA:                   1.524
REMARK UNBOUND:                 0.303
REMARK SMILES CC1=CCC(=C(C)C)C(=O)CC(C)=CCC1
REMARK SMILES IDX 12 1 14 2 13 3 15 4 16 5 2 6 1 7 3 8 11 10 9 11 10 12 5 13
REMARK SMILES IDX 6 14 7 15 8 16 4 17
REMARK H PARENT
REMARK Flexibility Score: 60.00
ROOT
ATOM      1  C   UNL     1     -13.878  13.483 -31.710  1.00  0.00    -0.070 C 
ATOM      2  C   UNL     1     -15.041  13.481 -32.400  1.00  0.00    -0.027 C 
ATOM      3  C   UNL     1     -12.598  13.653 -32.486  1.00  0.00     0.039 C 
ENDROOT
BRANCH   2   4
ATOM      4  C   UNL     1     -16.414  13.228 -31.816  1.00  0.00     0.032 C 
BRANCH   4   5
ATOM      5  C   UNL     1     -16.498  13.350 -30.281  1.00  0.00     0.034 C 
BRANCH   5   6
ATOM      6  C   UNL     1     -17.447  12.346 -29.652  1.00  0.00    -0.077 C 
ATOM      7  C   UNL     1     -18.830  12.823 -29.286  1.00  0.00     0.039 C 
ATOM      8  C   UNL     1     -17.111  11.071 -29.334  1.00  0.00    -0.023 CG0
ATOM      9  G   UNL     1     -15.796  10.375 -29.622  1.00  0.00     0.000 G0
ENDBRANCH   5   6
ENDBRANCH   4   5
ENDBRANCH   2   4
BRANCH   1  10
ATOM     10  C   UNL     1     -13.797  13.232 -30.218  1.00  0.00     0.111 C 
BRANCH  10  11
ATOM     11  C   UNL     1     -13.658  11.765 -29.908  1.00  0.00     0.163 C 
ATOM     12  O   UNL     1     -12.746  11.119 -30.494  1.00  0.00    -0.294 OA
BRANCH  11  13
ATOM     13  C   UNL     1     -14.591  11.047 -28.991  1.00  0.00    -0.002 C 
ATOM     14  C   UNL     1     -14.318  10.945 -27.655  1.00  0.00    -0.069 C 
ATOM     15  C   UNL     1     -13.152  11.682 -27.035  1.00  0.00     0.039 C 
ATOM     16  C   UNL     1     -15.158  10.092 -26.729  1.00  0.00     0.039 C 
BRANCH  13  17
ATOM     17  C   UNL     1     -15.794  10.362 -29.620  1.00  0.00     0.066 CG0
ATOM     18  G   UNL     1     -17.095  11.070 -29.295  1.00  0.00     0.000 G0
ENDBRANCH  13  17
ENDBRANCH  11  13
ENDBRANCH  10  11
ENDBRANCH   1  10
TORSDOF 0
ENDMDL
MODEL 8
REMARK VINA RESULT:    -2.446      9.860     12.066
REMARK INTER + INTRA:          -3.143
REMARK INTER:                  -3.849
REMARK INTRA:                   0.706
REMARK UNBOUND:                 0.303
REMARK SMILES CC1=CCC(=C(C)C)C(=O)CC(C)=CCC1
REMARK SMILES IDX 12 1 14 2 13 3 15 4 16 5 2 6 1 7 3 8 11 10 9 11 10 12 5 13
REMARK SMILES IDX 6 14 7 15 8 16 4 17
REMARK H PARENT
REMARK Flexibility Score: 60.00
ROOT
ATOM      1  C   UNL     1     -25.547  13.031 -30.386  1.00  0.00    -0.070 C 
ATOM      2  C   UNL     1     -24.466  12.860 -29.591  1.00  0.00    -0.027 C 
ATOM      3  C   UNL     1     -26.298  14.334 -30.283  1.00  0.00     0.039 C 
ENDROOT
BRANCH   2   4
ATOM      4  C   UNL     1     -23.644  11.594 -29.480  1.00  0.00     0.032 C 
BRANCH   4   5
ATOM      5  C   UNL     1     -24.467  10.295 -29.372  1.00  0.00     0.034 C 
BRANCH   5   6
ATOM      6  C   UNL     1     -25.289  10.212 -28.098  1.00  0.00    -0.077 C 
ATOM      7  C   UNL     1     -24.556  10.305 -26.783  1.00  0.00     0.039 C 
ATOM      8  C   UNL     1     -26.626   9.990 -28.064  1.00  0.00    -0.023 CG0
ATOM      9  G   UNL     1     -27.565   9.882 -29.249  1.00  0.00     0.000 G0
ENDBRANCH   5   6
ENDBRANCH   4   5
ENDBRANCH   2   4
BRANCH   1  10
ATOM     10  C   UNL     1     -26.086  11.950 -31.299  1.00  0.00     0.111 C 
BRANCH  10  11
ATOM     11  C   UNL     1     -27.553  11.705 -31.064  1.00  0.00     0.163 C 
ATOM     12  O   UNL     1     -28.357  11.973 -31.998  1.00  0.00    -0.294 OA
BRANCH  11  13
ATOM     13  C   UNL     1     -28.085  11.221 -29.756  1.00  0.00    -0.002 C 
ATOM     14  C   UNL     1     -28.923  12.003 -29.010  1.00  0.00    -0.069 C 
ATOM     15  C   UNL     1     -29.462  13.310 -29.547  1.00  0.00     0.039 C 
ATOM     16  C   UNL     1     -29.353  11.609 -27.613  1.00  0.00     0.039 C 
BRANCH  13  17
ATOM     17  C   UNL     1     -27.583   9.876 -29.256  1.00  0.00     0.066 CG0
ATOM     18  G   UNL     1     -26.636  10.015 -28.080  1.00  0.00     0.000 G0
ENDBRANCH  13  17
ENDBRANCH  11  13
ENDBRANCH  10  11
ENDBRANCH   1  10
TORSDOF 0
ENDMDL
MODEL 9
REMARK VINA RESULT:    -2.287      9.666     11.725
REMARK INTER + INTRA:          -2.919
REMARK INTER:                  -3.721
REMARK INTRA:                   0.802
REMARK UNBOUND:                 0.303
REMARK SMILES CC1=CCC(=C(C)C)C(=O)CC(C)=CCC1
REMARK SMILES IDX 12 1 14 2 13 3 15 4 16 5 2 6 1 7 3 8 11 10 9 11 10 12 5 13
REMARK SMILES IDX 6 14 7 15 8 16 4 17
REMARK H PARENT
REMARK Flexibility Score: 60.00
ROOT
ATOM      1  C   UNL     1     -26.170  10.072 -30.850  1.00  0.00    -0.070 C 
ATOM      2  C   UNL     1     -27.344  10.219 -31.504  1.00  0.00    -0.027 C 
ATOM      3  C   UNL     1     -24.924   9.876 -31.675  1.00  0.00     0.039 C 
ENDROOT
BRANCH   2   4
ATOM      4  C   UNL     1     -28.708  10.329 -30.856  1.00  0.00     0.032 C 
BRANCH   4   5
ATOM      5  C   UNL     1     -29.129  11.763 -30.475  1.00  0.00     0.034 C 
BRANCH   5   6
ATOM      6  C   UNL     1     -28.725  12.150 -29.064  1.00  0.00    -0.077 C 
ATOM      7  C   UNL     1     -29.679  11.817 -27.945  1.00  0.00     0.039 C 
ATOM      8  C   UNL     1     -27.598  12.836 -28.752  1.00  0.00    -0.023 CG0
ATOM      9  G   UNL     1     -26.493  13.257 -29.701  1.00  0.00     0.000 G0
ENDBRANCH   5   6
ENDBRANCH   4   5
ENDBRANCH   2   4
BRANCH   1  10
ATOM     10  C   UNL     1     -26.062  10.006 -29.340  1.00  0.00     0.111 C 
BRANCH  10  11
ATOM     11  C   UNL     1     -25.301  11.180 -28.786  1.00  0.00     0.163 C 
ATOM     12  O   UNL     1     -24.778  11.063 -27.644  1.00  0.00    -0.294 OA
BRANCH  11  13
ATOM     13  C   UNL     1     -25.201  12.483 -29.506  1.00  0.00    -0.002 C 
ATOM     14  C   UNL     1     -23.985  12.979 -29.890  1.00  0.00    -0.069 C 
ATOM     15  C   UNL     1     -22.722  12.160 -29.739  1.00  0.00     0.039 C 
ATOM     16  C   UNL     1     -23.835  14.365 -30.478  1.00  0.00     0.039 C 
BRANCH  13  17
ATOM     17  C   UNL     1     -26.488  13.268 -29.707  1.00  0.00     0.066 CG0
ATOM     18  G   UNL     1     -27.584  12.829 -28.756  1.00  0.00     0.000 G0
ENDBRANCH  13  17
ENDBRANCH  11  13
ENDBRANCH  10  11
ENDBRANCH   1  10
TORSDOF 0
ENDMDL
