MODEL 1
REMARK VINA RESULT:    -3.118      0.000      0.000
REMARK INTER + INTRA:          -3.494
REMARK INTER:                  -3.483
REMARK INTRA:                  -0.011
REMARK UNBOUND:                -0.011
REMARK SMILES CCCC(=O)[O-]
REMARK SMILES IDX 3 1 4 2 5 3 6 4 2 5 1 6
REMARK H PARENT
REMARK Flexibility Score: inf
ROOT
ATOM      1  C   UNL     1      -5.688 -11.177   4.765  1.00  0.00     0.052 C 
ENDROOT
BRANCH   1   2
ATOM      2  C   UNL     1      -5.144 -10.731   3.443  1.00  0.00     0.041 C 
ATOM      3  O   UNL     1      -5.890 -10.700   2.428  1.00  0.00    -0.550 OA
ATOM      4  O   UNL     1      -3.822 -10.315   3.337  1.00  0.00    -0.550 OA
ENDBRANCH   1   2
BRANCH   1   5
ATOM      5  C   UNL     1      -7.052 -11.863   4.617  1.00  0.00     0.003 C 
ATOM      6  C   UNL     1      -7.722 -12.125   5.966  1.00  0.00     0.004 C 
ENDBRANCH   1   5
TORSDOF 2
ENDMDL
MODEL 2
REMARK VINA RESULT:    -3.098     19.644     20.388
REMARK INTER + INTRA:          -3.471
REMARK INTER:                  -3.464
REMARK INTRA:                  -0.007
REMARK UNBOUND:                -0.011
REMARK SMILES CCCC(=O)[O-]
REMARK SMILES IDX 3 1 4 2 5 3 6 4 2 5 1 6
REMARK H PARENT
REMARK Flexibility Score: inf
ROOT
ATOM      1  C   UNL     1       4.646   6.474   1.439  1.00  0.00     0.052 C 
ENDROOT
BRANCH   1   2
ATOM      2  C   UNL     1       3.293   7.092   1.616  1.00  0.00     0.041 C 
ATOM      3  O   UNL     1       2.534   6.700   2.542  1.00  0.00    -0.550 OA
ATOM      4  O   UNL     1       2.884   8.124   0.782  1.00  0.00    -0.550 OA
ENDBRANCH   1   2
BRANCH   1   5
ATOM      5  C   UNL     1       4.577   4.942   1.448  1.00  0.00     0.003 C 
ATOM      6  C   UNL     1       5.905   4.297   1.048  1.00  0.00     0.004 C 
ENDBRANCH   1   5
TORSDOF 2
ENDMDL
MODEL 3
REMARK VINA RESULT:    -3.097     19.483     20.118
REMARK INTER + INTRA:          -3.470
REMARK INTER:                  -3.434
REMARK INTRA:                  -0.036
REMARK UNBOUND:                -0.011
REMARK SMILES CCCC(=O)[O-]
REMARK SMILES IDX 3 1 4 2 5 3 6 4 2 5 1 6
REMARK H PARENT
REMARK Flexibility Score: inf
ROOT
ATOM      1  C   UNL     1       4.798   4.720   0.382  1.00  0.00     0.052 C 
ENDROOT
BRANCH   1   2
ATOM      2  C   UNL     1       4.118   5.674   1.315  1.00  0.00     0.041 C 
ATOM      3  O   UNL     1       3.621   5.258   2.396  1.00  0.00    -0.550 OA
ATOM      4  O   UNL     1       4.062   7.028   1.009  1.00  0.00    -0.550 OA
ENDBRANCH   1   2
BRANCH   1   5
ATOM      5  C   UNL     1       5.996   4.031   1.047  1.00  0.00     0.003 C 
ATOM      6  C   UNL     1       7.315   4.747   0.755  1.00  0.00     0.004 C 
ENDBRANCH   1   5
TORSDOF 2
ENDMDL
MODEL 4
REMARK VINA RESULT:    -3.091     19.486     20.105
REMARK INTER + INTRA:          -3.464
REMARK INTER:                  -3.429
REMARK INTRA:                  -0.035
REMARK UNBOUND:                -0.011
REMARK SMILES CCCC(=O)[O-]
REMARK SMILES IDX 3 1 4 2 5 3 6 4 2 5 1 6
REMARK H PARENT
REMARK Flexibility Score: inf
ROOT
ATOM      1  C   UNL     1       4.839   4.732   0.378  1.00  0.00     0.052 C 
ENDROOT
BRANCH   1   2
ATOM      2  C   UNL     1       4.171   5.687   1.319  1.00  0.00     0.041 C 
ATOM      3  O   UNL     1       4.071   6.907   1.019  1.00  0.00    -0.550 OA
ATOM      4  O   UNL     1       3.629   5.227   2.513  1.00  0.00    -0.550 OA
ENDBRANCH   1   2
BRANCH   1   5
ATOM      5  C   UNL     1       6.012   4.004   1.044  1.00  0.00     0.003 C 
ATOM      6  C   UNL     1       7.348   4.707   0.801  1.00  0.00     0.004 C 
ENDBRANCH   1   5
TORSDOF 2
ENDMDL
MODEL 5
REMARK VINA RESULT:    -3.040     19.342     19.996
REMARK INTER + INTRA:          -3.407
REMARK INTER:                  -3.400
REMARK INTRA:                  -0.006
REMARK UNBOUND:                -0.011
REMARK SMILES CCCC(=O)[O-]
REMARK SMILES IDX 3 1 4 2 5 3 6 4 2 5 1 6
REMARK H PARENT
REMARK Flexibility Score: inf
ROOT
ATOM      1  C   UNL     1       5.828   5.482   1.450  1.00  0.00     0.052 C 
ENDROOT
BRANCH   1   2
ATOM      2  C   UNL     1       4.371   5.136   1.422  1.00  0.00     0.041 C 
ATOM      3  O   UNL     1       3.859   4.632   0.386  1.00  0.00    -0.550 OA
ATOM      4  O   UNL     1       3.584   5.337   2.549  1.00  0.00    -0.550 OA
ENDBRANCH   1   2
BRANCH   1   5
ATOM      5  C   UNL     1       6.706   4.274   1.101  1.00  0.00     0.003 C 
ATOM      6  C   UNL     1       8.039   4.287   1.850  1.00  0.00     0.004 C 
ENDBRANCH   1   5
TORSDOF 2
ENDMDL
MODEL 6
REMARK VINA RESULT:    -3.032     19.708     20.373
REMARK INTER + INTRA:          -3.398
REMARK INTER:                  -3.391
REMARK INTRA:                  -0.006
REMARK UNBOUND:                -0.011
REMARK SMILES CCCC(=O)[O-]
REMARK SMILES IDX 3 1 4 2 5 3 6 4 2 5 1 6
REMARK H PARENT
REMARK Flexibility Score: inf
ROOT
ATOM      1  C   UNL     1       4.560   6.500   1.351  1.00  0.00     0.052 C 
ENDROOT
BRANCH   1   2
ATOM      2  C   UNL     1       3.249   7.187   1.585  1.00  0.00     0.041 C 
ATOM      3  O   UNL     1       2.851   8.081   0.791  1.00  0.00    -0.550 OA
ATOM      4  O   UNL     1       2.450   6.817   2.659  1.00  0.00    -0.550 OA
ENDBRANCH   1   2
BRANCH   1   5
ATOM      5  C   UNL     1       4.369   5.041   0.922  1.00  0.00     0.003 C 
ATOM      6  C   UNL     1       5.664   4.233   1.014  1.00  0.00     0.004 C 
ENDBRANCH   1   5
TORSDOF 2
ENDMDL
MODEL 7
REMARK VINA RESULT:    -2.912     19.760     20.308
REMARK INTER + INTRA:          -3.264
REMARK INTER:                  -3.222
REMARK INTRA:                  -0.042
REMARK UNBOUND:                -0.011
REMARK SMILES CCCC(=O)[O-]
REMARK SMILES IDX 3 1 4 2 5 3 6 4 2 5 1 6
REMARK H PARENT
REMARK Flexibility Score: inf
ROOT
ATOM      1  C   UNL     1       5.234   4.356   0.700  1.00  0.00     0.052 C 
ENDROOT
BRANCH   1   2
ATOM      2  C   UNL     1       6.679   4.745   0.753  1.00  0.00     0.041 C 
ATOM      3  O   UNL     1       7.430   4.274   1.649  1.00  0.00    -0.550 OA
ATOM      4  O   UNL     1       7.206   5.601  -0.206  1.00  0.00    -0.550 OA
ENDBRANCH   1   2
BRANCH   1   5
ATOM      5  C   UNL     1       4.425   5.016   1.823  1.00  0.00     0.003 C 
ATOM      6  C   UNL     1       3.851   6.371   1.408  1.00  0.00     0.004 C 
ENDBRANCH   1   5
TORSDOF 2
ENDMDL
MODEL 8
REMARK VINA RESULT:    -2.779     19.564     20.059
REMARK INTER + INTRA:          -3.116
REMARK INTER:                  -3.106
REMARK INTRA:                  -0.009
REMARK UNBOUND:                -0.011
REMARK SMILES CCCC(=O)[O-]
REMARK SMILES IDX 3 1 4 2 5 3 6 4 2 5 1 6
REMARK H PARENT
REMARK Flexibility Score: inf
ROOT
ATOM      1  C   UNL     1       4.403   5.088   1.588  1.00  0.00     0.052 C 
ENDROOT
BRANCH   1   2
ATOM      2  C   UNL     1       5.565   4.819   0.681  1.00  0.00     0.041 C 
ATOM      3  O   UNL     1       5.674   5.438  -0.411  1.00  0.00    -0.550 OA
ATOM      4  O   UNL     1       6.546   3.909   1.056  1.00  0.00    -0.550 OA
ENDBRANCH   1   2
BRANCH   1   5
ATOM      5  C   UNL     1       3.831   6.495   1.376  1.00  0.00     0.003 C 
ATOM      6  C   UNL     1       2.976   6.960   2.556  1.00  0.00     0.004 C 
ENDBRANCH   1   5
TORSDOF 2
ENDMDL
MODEL 9
REMARK VINA RESULT:    -2.666     20.189     20.624
REMARK INTER + INTRA:          -2.989
REMARK INTER:                  -2.917
REMARK INTRA:                  -0.072
REMARK UNBOUND:                -0.011
REMARK SMILES CCCC(=O)[O-]
REMARK SMILES IDX 3 1 4 2 5 3 6 4 2 5 1 6
REMARK H PARENT
REMARK Flexibility Score: inf
ROOT
ATOM      1  C   UNL     1       4.437   5.149   1.642  1.00  0.00     0.052 C 
ENDROOT
BRANCH   1   2
ATOM      2  C   UNL     1       4.809   6.599   1.599  1.00  0.00     0.041 C 
ATOM      3  O   UNL     1       5.137   7.201   2.656  1.00  0.00    -0.550 OA
ATOM      4  O   UNL     1       4.826   7.279   0.387  1.00  0.00    -0.550 OA
ENDBRANCH   1   2
BRANCH   1   5
ATOM      5  C   UNL     1       5.357   4.299   0.756  1.00  0.00     0.003 C 
ATOM      6  C   UNL     1       6.814   4.349   1.214  1.00  0.00     0.004 C 
ENDBRANCH   1   5
TORSDOF 2
ENDMDL
