MODEL 1
REMARK VINA RESULT:    -4.140      0.000      0.000
REMARK INTER + INTRA:          -7.165
REMARK INTER:                  -6.560
REMARK INTRA:                  -0.605
REMARK UNBOUND:                -0.605
REMARK SMILES CCCCCCCCCCCC(=O)[O-]
REMARK SMILES IDX 7 1 8 2 9 3 10 4 11 5 12 6 13 7 14 8 6 9 5 10 4 11 3 12 2 13
REMARK SMILES IDX 1 14
REMARK H PARENT
REMARK Flexibility Score: inf
ROOT
ATOM      1  C   UNL     1      10.888  79.576  41.091  1.00  0.00     0.000 C 
ENDROOT
BRANCH   1   2
ATOM      2  C   UNL     1      11.698  79.643  42.396  1.00  0.00     0.000 C 
BRANCH   2   3
ATOM      3  C   UNL     1      12.228  81.061  42.640  1.00  0.00     0.000 C 
BRANCH   3   4
ATOM      4  C   UNL     1      11.603  81.672  43.903  1.00  0.00     0.006 C 
BRANCH   4   5
ATOM      5  C   UNL     1      10.717  80.671  44.656  1.00  0.00     0.053 C 
BRANCH   5   6
ATOM      6  C   UNL     1       9.268  81.041  44.572  1.00  0.00     0.041 C 
ATOM      7  O   UNL     1       8.854  81.784  43.644  1.00  0.00    -0.550 OA
ATOM      8  O   UNL     1       8.379  80.589  45.539  1.00  0.00    -0.550 OA
ENDBRANCH   5   6
ENDBRANCH   4   5
ENDBRANCH   3   4
ENDBRANCH   2   3
ENDBRANCH   1   2
BRANCH   1   9
ATOM      9  C   UNL     1      11.436  80.513  40.003  1.00  0.00     0.000 C 
BRANCH   9  10
ATOM     10  C   UNL     1      10.568  80.515  38.733  1.00  0.00    -0.000 C 
BRANCH  10  11
ATOM     11  C   UNL     1       9.640  79.292  38.649  1.00  0.00    -0.000 C 
BRANCH  11  12
ATOM     12  C   UNL     1       9.101  79.057  37.227  1.00  0.00    -0.000 C 
BRANCH  12  13
ATOM     13  C   UNL     1       9.112  77.571  36.831  1.00  0.00    -0.003 C 
ATOM     14  C   UNL     1      10.443  77.129  36.222  1.00  0.00     0.004 C 
ENDBRANCH  12  13
ENDBRANCH  11  12
ENDBRANCH  10  11
ENDBRANCH   9  10
ENDBRANCH   1   9
TORSDOF 10
ENDMDL
MODEL 2
REMARK VINA RESULT:    -4.133      2.861      4.839
REMARK INTER + INTRA:          -7.154
REMARK INTER:                  -5.761
REMARK INTRA:                  -1.393
REMARK UNBOUND:                -0.605
REMARK SMILES CCCCCCCCCCCC(=O)[O-]
REMARK SMILES IDX 7 1 8 2 9 3 10 4 11 5 12 6 13 7 14 8 6 9 5 10 4 11 3 12 2 13
REMARK SMILES IDX 1 14
REMARK H PARENT
REMARK Flexibility Score: inf
ROOT
ATOM      1  C   UNL     1       8.393  78.081  36.605  1.00  0.00     0.000 C 
ENDROOT
BRANCH   1   2
ATOM      2  C   UNL     1       9.713  78.196  37.383  1.00  0.00     0.000 C 
BRANCH   2   3
ATOM      3  C   UNL     1       9.694  79.412  38.318  1.00  0.00     0.000 C 
BRANCH   3   4
ATOM      4  C   UNL     1       9.478  78.981  39.776  1.00  0.00     0.006 C 
BRANCH   4   5
ATOM      5  C   UNL     1       9.744  80.123  40.766  1.00  0.00     0.053 C 
BRANCH   5   6
ATOM      6  C   UNL     1      11.098  80.006  41.396  1.00  0.00     0.041 C 
ATOM      7  O   UNL     1      11.361  79.042  42.163  1.00  0.00    -0.550 OA
ATOM      8  O   UNL     1      12.060  80.980  41.161  1.00  0.00    -0.550 OA
ENDBRANCH   5   6
ENDBRANCH   4   5
ENDBRANCH   3   4
ENDBRANCH   2   3
ENDBRANCH   1   2
BRANCH   1   9
ATOM      9  C   UNL     1       7.594  79.394  36.592  1.00  0.00     0.000 C 
BRANCH   9  10
ATOM     10  C   UNL     1       6.120  79.194  36.986  1.00  0.00    -0.000 C 
BRANCH  10  11
ATOM     11  C   UNL     1       5.726  80.007  38.231  1.00  0.00    -0.000 C 
BRANCH  11  12
ATOM     12  C   UNL     1       5.691  79.150  39.508  1.00  0.00    -0.000 C 
BRANCH  12  13
ATOM     13  C   UNL     1       5.397  77.670  39.215  1.00  0.00    -0.003 C 
ATOM     14  C   UNL     1       6.537  76.743  39.639  1.00  0.00     0.004 C 
ENDBRANCH  12  13
ENDBRANCH  11  12
ENDBRANCH  10  11
ENDBRANCH   9  10
ENDBRANCH   1   9
TORSDOF 10
ENDMDL
MODEL 3
REMARK VINA RESULT:    -4.127      5.321      7.150
REMARK INTER + INTRA:          -7.144
REMARK INTER:                  -5.555
REMARK INTRA:                  -1.589
REMARK UNBOUND:                -0.605
REMARK SMILES CCCCCCCCCCCC(=O)[O-]
REMARK SMILES IDX 7 1 8 2 9 3 10 4 11 5 12 6 13 7 14 8 6 9 5 10 4 11 3 12 2 13
REMARK SMILES IDX 1 14
REMARK H PARENT
REMARK Flexibility Score: inf
ROOT
ATOM      1  C   UNL     1       5.238  79.186  39.195  1.00  0.00     0.000 C 
ENDROOT
BRANCH   1   2
ATOM      2  C   UNL     1       6.329  78.473  40.010  1.00  0.00     0.000 C 
BRANCH   2   3
ATOM      3  C   UNL     1       6.429  76.994  39.615  1.00  0.00     0.000 C 
BRANCH   3   4
ATOM      4  C   UNL     1       5.104  76.493  39.021  1.00  0.00     0.006 C 
BRANCH   4   5
ATOM      5  C   UNL     1       5.303  75.782  37.676  1.00  0.00     0.053 C 
BRANCH   5   6
ATOM      6  C   UNL     1       6.251  74.628  37.793  1.00  0.00     0.041 C 
ATOM      7  O   UNL     1       5.965  73.643  38.523  1.00  0.00    -0.550 OA
ATOM      8  O   UNL     1       7.466  74.656  37.119  1.00  0.00    -0.550 OA
ENDBRANCH   5   6
ENDBRANCH   4   5
ENDBRANCH   3   4
ENDBRANCH   2   3
ENDBRANCH   1   2
BRANCH   1   9
ATOM      9  C   UNL     1       5.814  80.090  38.093  1.00  0.00     0.000 C 
BRANCH   9  10
ATOM     10  C   UNL     1       5.986  79.353  36.754  1.00  0.00    -0.000 C 
BRANCH  10  11
ATOM     11  C   UNL     1       7.435  79.390  36.241  1.00  0.00    -0.000 C 
BRANCH  11  12
ATOM     12  C   UNL     1       8.216  78.109  36.585  1.00  0.00    -0.000 C 
BRANCH  12  13
ATOM     13  C   UNL     1       9.592  78.407  37.200  1.00  0.00    -0.003 C 
ATOM     14  C   UNL     1       9.556  79.555  38.209  1.00  0.00     0.004 C 
ENDBRANCH  12  13
ENDBRANCH  11  12
ENDBRANCH  10  11
ENDBRANCH   9  10
ENDBRANCH   1   9
TORSDOF 10
ENDMDL
MODEL 4
REMARK VINA RESULT:    -4.125      2.623      4.324
REMARK INTER + INTRA:          -7.141
REMARK INTER:                  -6.025
REMARK INTRA:                  -1.115
REMARK UNBOUND:                -0.605
REMARK SMILES CCCCCCCCCCCC(=O)[O-]
REMARK SMILES IDX 7 1 8 2 9 3 10 4 11 5 12 6 13 7 14 8 6 9 5 10 4 11 3 12 2 13
REMARK SMILES IDX 1 14
REMARK H PARENT
REMARK Flexibility Score: inf
ROOT
ATOM      1  C   UNL     1       9.319  78.466  38.042  1.00  0.00     0.000 C 
ENDROOT
BRANCH   1   2
ATOM      2  C   UNL     1      10.095  79.787  38.158  1.00  0.00     0.000 C 
BRANCH   2   3
ATOM      3  C   UNL     1       9.361  80.776  39.071  1.00  0.00     0.000 C 
BRANCH   3   4
ATOM      4  C   UNL     1       9.881  80.684  40.514  1.00  0.00     0.006 C 
BRANCH   4   5
ATOM      5  C   UNL     1      11.411  80.781  40.587  1.00  0.00     0.053 C 
BRANCH   5   6
ATOM      6  C   UNL     1      11.932  80.339  41.920  1.00  0.00     0.041 C 
ATOM      7  O   UNL     1      12.575  81.139  42.648  1.00  0.00    -0.550 OA
ATOM      8  O   UNL     1      11.732  79.031  42.344  1.00  0.00    -0.550 OA
ENDBRANCH   5   6
ENDBRANCH   4   5
ENDBRANCH   3   4
ENDBRANCH   2   3
ENDBRANCH   1   2
BRANCH   1   9
ATOM      9  C   UNL     1       8.827  78.190  36.612  1.00  0.00     0.000 C 
BRANCH   9  10
ATOM     10  C   UNL     1       7.679  79.123  36.191  1.00  0.00    -0.000 C 
BRANCH  10  11
ATOM     11  C   UNL     1       6.362  78.805  36.918  1.00  0.00    -0.000 C 
BRANCH  11  12
ATOM     12  C   UNL     1       5.874  79.973  37.793  1.00  0.00    -0.000 C 
BRANCH  12  13
ATOM     13  C   UNL     1       5.540  79.533  39.228  1.00  0.00    -0.003 C 
ATOM     14  C   UNL     1       5.848  78.057  39.483  1.00  0.00     0.004 C 
ENDBRANCH  12  13
ENDBRANCH  11  12
ENDBRANCH  10  11
ENDBRANCH   9  10
ENDBRANCH   1   9
TORSDOF 10
ENDMDL
MODEL 5
REMARK VINA RESULT:    -4.103      5.432      7.548
REMARK INTER + INTRA:          -7.106
REMARK INTER:                  -5.988
REMARK INTRA:                  -1.118
REMARK UNBOUND:                -0.605
REMARK SMILES CCCCCCCCCCCC(=O)[O-]
REMARK SMILES IDX 7 1 8 2 9 3 10 4 11 5 12 6 13 7 14 8 6 9 5 10 4 11 3 12 2 13
REMARK SMILES IDX 1 14
REMARK H PARENT
REMARK Flexibility Score: inf
ROOT
ATOM      1  C   UNL     1       5.981  77.911  39.790  1.00  0.00     0.000 C 
ENDROOT
BRANCH   1   2
ATOM      2  C   UNL     1       4.882  76.974  39.265  1.00  0.00     0.000 C 
BRANCH   2   3
ATOM      3  C   UNL     1       5.431  76.035  38.185  1.00  0.00     0.000 C 
BRANCH   3   4
ATOM      4  C   UNL     1       4.734  74.667  38.238  1.00  0.00     0.006 C 
BRANCH   4   5
ATOM      5  C   UNL     1       4.466  74.208  39.678  1.00  0.00     0.053 C 
BRANCH   5   6
ATOM      6  C   UNL     1       5.412  73.126  40.100  1.00  0.00     0.041 C 
ATOM      7  O   UNL     1       5.142  71.919  39.864  1.00  0.00    -0.550 OA
ATOM      8  O   UNL     1       6.578  73.449  40.782  1.00  0.00    -0.550 OA
ENDBRANCH   5   6
ENDBRANCH   4   5
ENDBRANCH   3   4
ENDBRANCH   2   3
ENDBRANCH   1   2
BRANCH   1   9
ATOM      9  C   UNL     1       5.601  79.396  39.676  1.00  0.00     0.000 C 
BRANCH   9  10
ATOM     10  C   UNL     1       5.578  79.891  38.220  1.00  0.00    -0.000 C 
BRANCH  10  11
ATOM     11  C   UNL     1       6.988  80.056  37.629  1.00  0.00    -0.000 C 
BRANCH  11  12
ATOM     12  C   UNL     1       7.234  79.132  36.423  1.00  0.00    -0.000 C 
BRANCH  12  13
ATOM     13  C   UNL     1       8.368  78.125  36.676  1.00  0.00    -0.003 C 
ATOM     14  C   UNL     1       9.240  78.501  37.874  1.00  0.00     0.004 C 
ENDBRANCH  12  13
ENDBRANCH  11  12
ENDBRANCH  10  11
ENDBRANCH   9  10
ENDBRANCH   1   9
TORSDOF 10
ENDMDL
MODEL 6
REMARK VINA RESULT:    -4.067      3.015      4.980
REMARK INTER + INTRA:          -7.050
REMARK INTER:                  -5.866
REMARK INTRA:                  -1.184
REMARK UNBOUND:                -0.605
REMARK SMILES CCCCCCCCCCCC(=O)[O-]
REMARK SMILES IDX 7 1 8 2 9 3 10 4 11 5 12 6 13 7 14 8 6 9 5 10 4 11 3 12 2 13
REMARK SMILES IDX 1 14
REMARK H PARENT
REMARK Flexibility Score: inf
ROOT
ATOM      1  C   UNL     1       8.222  81.212  42.105  1.00  0.00     0.000 C 
ENDROOT
BRANCH   1   2
ATOM      2  C   UNL     1       8.666  82.479  42.854  1.00  0.00     0.000 C 
BRANCH   2   3
ATOM      3  C   UNL     1       8.124  82.486  44.288  1.00  0.00     0.000 C 
BRANCH   3   4
ATOM      4  C   UNL     1       8.182  81.080  44.905  1.00  0.00     0.006 C 
BRANCH   4   5
ATOM      5  C   UNL     1       7.225  80.929  46.095  1.00  0.00     0.053 C 
BRANCH   5   6
ATOM      6  C   UNL     1       7.180  79.517  46.594  1.00  0.00     0.041 C 
ATOM      7  O   UNL     1       8.199  78.781  46.512  1.00  0.00    -0.550 OA
ATOM      8  O   UNL     1       6.002  79.003  47.121  1.00  0.00    -0.550 OA
ENDBRANCH   5   6
ENDBRANCH   4   5
ENDBRANCH   3   4
ENDBRANCH   2   3
ENDBRANCH   1   2
BRANCH   1   9
ATOM      9  C   UNL     1       9.076  80.929  40.858  1.00  0.00     0.000 C 
BRANCH   9  10
ATOM     10  C   UNL     1      10.430  81.658  40.890  1.00  0.00    -0.000 C 
BRANCH  10  11
ATOM     11  C   UNL     1      11.614  80.698  41.094  1.00  0.00    -0.000 C 
BRANCH  11  12
ATOM     12  C   UNL     1      12.003  80.548  42.576  1.00  0.00    -0.000 C 
BRANCH  12  13
ATOM     13  C   UNL     1      12.371  81.892  43.226  1.00  0.00    -0.003 C 
ATOM     14  C   UNL     1      11.852  82.020  44.658  1.00  0.00     0.004 C 
ENDBRANCH  12  13
ENDBRANCH  11  12
ENDBRANCH  10  11
ENDBRANCH   9  10
ENDBRANCH   1   9
TORSDOF 10
ENDMDL
MODEL 7
REMARK VINA RESULT:    -4.048      4.560      6.829
REMARK INTER + INTRA:          -7.019
REMARK INTER:                  -5.713
REMARK INTRA:                  -1.306
REMARK UNBOUND:                -0.605
REMARK SMILES CCCCCCCCCCCC(=O)[O-]
REMARK SMILES IDX 7 1 8 2 9 3 10 4 11 5 12 6 13 7 14 8 6 9 5 10 4 11 3 12 2 13
REMARK SMILES IDX 1 14
REMARK H PARENT
REMARK Flexibility Score: inf
ROOT
ATOM      1  C   UNL     1       6.078  78.944  36.946  1.00  0.00     0.000 C 
ENDROOT
BRANCH   1   2
ATOM      2  C   UNL     1       5.851  79.830  38.181  1.00  0.00     0.000 C 
BRANCH   2   3
ATOM      3  C   UNL     1       5.199  79.031  39.316  1.00  0.00     0.000 C 
BRANCH   3   4
ATOM      4  C   UNL     1       5.773  77.608  39.388  1.00  0.00     0.006 C 
BRANCH   4   5
ATOM      5  C   UNL     1       4.691  76.535  39.208  1.00  0.00     0.053 C 
BRANCH   5   6
ATOM      6  C   UNL     1       5.285  75.168  39.054  1.00  0.00     0.041 C 
ATOM      7  O   UNL     1       6.032  74.907  38.074  1.00  0.00    -0.550 OA
ATOM      8  O   UNL     1       4.988  74.174  39.977  1.00  0.00    -0.550 OA
ENDBRANCH   5   6
ENDBRANCH   4   5
ENDBRANCH   3   4
ENDBRANCH   2   3
ENDBRANCH   1   2
BRANCH   1   9
ATOM      9  C   UNL     1       7.495  79.085  36.365  1.00  0.00     0.000 C 
BRANCH   9  10
ATOM     10  C   UNL     1       8.395  77.885  36.704  1.00  0.00    -0.000 C 
BRANCH  10  11
ATOM     11  C   UNL     1       9.791  78.311  37.189  1.00  0.00    -0.000 C 
BRANCH  11  12
ATOM     12  C   UNL     1       9.739  79.501  38.163  1.00  0.00    -0.000 C 
BRANCH  12  13
ATOM     13  C   UNL     1       9.362  79.076  39.591  1.00  0.00    -0.003 C 
ATOM     14  C   UNL     1       8.782  80.223  40.419  1.00  0.00     0.004 C 
ENDBRANCH  12  13
ENDBRANCH  11  12
ENDBRANCH  10  11
ENDBRANCH   9  10
ENDBRANCH   1   9
TORSDOF 10
ENDMDL
MODEL 8
REMARK VINA RESULT:    -4.047      3.309      5.564
REMARK INTER + INTRA:          -7.018
REMARK INTER:                  -5.432
REMARK INTRA:                  -1.586
REMARK UNBOUND:                -0.605
REMARK SMILES CCCCCCCCCCCC(=O)[O-]
REMARK SMILES IDX 7 1 8 2 9 3 10 4 11 5 12 6 13 7 14 8 6 9 5 10 4 11 3 12 2 13
REMARK SMILES IDX 1 14
REMARK H PARENT
REMARK Flexibility Score: inf
ROOT
ATOM      1  C   UNL     1       5.865  79.579  37.739  1.00  0.00     0.000 C 
ENDROOT
BRANCH   1   2
ATOM      2  C   UNL     1       7.321  80.068  37.693  1.00  0.00     0.000 C 
BRANCH   2   3
ATOM      3  C   UNL     1       8.241  78.995  37.098  1.00  0.00     0.000 C 
BRANCH   3   4
ATOM      4  C   UNL     1       9.553  78.894  37.892  1.00  0.00     0.006 C 
BRANCH   4   5
ATOM      5  C   UNL     1       9.309  78.701  39.394  1.00  0.00     0.053 C 
BRANCH   5   6
ATOM      6  C   UNL     1      10.062  79.706  40.211  1.00  0.00     0.041 C 
ATOM      7  O   UNL     1      10.776  79.332  41.179  1.00  0.00    -0.550 OA
ATOM      8  O   UNL     1       9.949  81.061  39.923  1.00  0.00    -0.550 OA
ENDBRANCH   5   6
ENDBRANCH   4   5
ENDBRANCH   3   4
ENDBRANCH   2   3
ENDBRANCH   1   2
BRANCH   1   9
ATOM      9  C   UNL     1       5.226  79.741  39.127  1.00  0.00     0.000 C 
BRANCH   9  10
ATOM     10  C   UNL     1       5.596  78.595  40.085  1.00  0.00    -0.000 C 
BRANCH  10  11
ATOM     11  C   UNL     1       5.202  77.214  39.535  1.00  0.00    -0.000 C 
BRANCH  11  12
ATOM     12  C   UNL     1       6.385  76.231  39.505  1.00  0.00    -0.000 C 
BRANCH  12  13
ATOM     13  C   UNL     1       6.752  75.795  38.077  1.00  0.00    -0.003 C 
ATOM     14  C   UNL     1       5.586  75.932  37.097  1.00  0.00     0.004 C 
ENDBRANCH  12  13
ENDBRANCH  11  12
ENDBRANCH  10  11
ENDBRANCH   9  10
ENDBRANCH   1   9
TORSDOF 10
ENDMDL
MODEL 9
REMARK VINA RESULT:    -4.046      8.186     10.534
REMARK INTER + INTRA:          -7.017
REMARK INTER:                  -6.285
REMARK INTRA:                  -0.731
REMARK UNBOUND:                -0.605
REMARK SMILES CCCCCCCCCCCC(=O)[O-]
REMARK SMILES IDX 7 1 8 2 9 3 10 4 11 5 12 6 13 7 14 8 6 9 5 10 4 11 3 12 2 13
REMARK SMILES IDX 1 14
REMARK H PARENT
REMARK Flexibility Score: inf
ROOT
ATOM      1  C   UNL     1       5.939  74.139  39.929  1.00  0.00     0.000 C 
ENDROOT
BRANCH   1   2
ATOM      2  C   UNL     1       6.299  72.646  39.980  1.00  0.00     0.000 C 
BRANCH   2   3
ATOM      3  C   UNL     1       5.069  71.776  39.690  1.00  0.00     0.000 C 
BRANCH   3   4
ATOM      4  C   UNL     1       5.268  70.954  38.407  1.00  0.00     0.006 C 
BRANCH   4   5
ATOM      5  C   UNL     1       6.395  69.923  38.546  1.00  0.00     0.053 C 
BRANCH   5   6
ATOM      6  C   UNL     1       5.861  68.526  38.642  1.00  0.00     0.041 C 
ATOM      7  O   UNL     1       6.166  67.669  37.772  1.00  0.00    -0.550 OA
ATOM      8  O   UNL     1       5.000  68.182  39.677  1.00  0.00    -0.550 OA
ENDBRANCH   5   6
ENDBRANCH   4   5
ENDBRANCH   3   4
ENDBRANCH   2   3
ENDBRANCH   1   2
BRANCH   1   9
ATOM      9  C   UNL     1       4.439  74.382  39.699  1.00  0.00     0.000 C 
BRANCH   9  10
ATOM     10  C   UNL     1       4.157  75.729  39.011  1.00  0.00    -0.000 C 
BRANCH  10  11
ATOM     11  C   UNL     1       5.327  76.199  38.130  1.00  0.00    -0.000 C 
BRANCH  11  12
ATOM     12  C   UNL     1       5.802  77.618  38.490  1.00  0.00    -0.000 C 
BRANCH  12  13
ATOM     13  C   UNL     1       5.605  77.945  39.979  1.00  0.00    -0.003 C 
ATOM     14  C   UNL     1       4.920  79.292  40.205  1.00  0.00     0.004 C 
ENDBRANCH  12  13
ENDBRANCH  11  12
ENDBRANCH  10  11
ENDBRANCH   9  10
ENDBRANCH   1   9
TORSDOF 10
ENDMDL
