MODEL 1
REMARK VINA RESULT:    -3.936      0.000      0.000
REMARK INTER + INTRA:          -4.411
REMARK INTER:                  -4.396
REMARK INTRA:                  -0.015
REMARK UNBOUND:                -0.015
REMARK SMILES CCCC(=O)[O-]
REMARK SMILES IDX 3 1 4 2 5 3 6 4 2 5 1 6
REMARK H PARENT
REMARK Flexibility Score: inf
ROOT
ATOM      1  C   UNL     1      20.934  -0.747  28.042  1.00  0.00     0.052 C 
ENDROOT
BRANCH   1   2
ATOM      2  C   UNL     1      21.287  -1.769  29.076  1.00  0.00     0.041 C 
ATOM      3  O   UNL     1      20.942  -2.971  28.924  1.00  0.00    -0.550 OA
ATOM      4  O   UNL     1      22.039  -1.404  30.186  1.00  0.00    -0.550 OA
ENDBRANCH   1   2
BRANCH   1   5
ATOM      5  C   UNL     1      21.308  -1.249  26.645  1.00  0.00     0.003 C 
ATOM      6  C   UNL     1      22.315  -0.317  25.976  1.00  0.00     0.004 C 
ENDBRANCH   1   5
TORSDOF 2
ENDMDL
MODEL 2
REMARK VINA RESULT:    -3.696     14.066     14.549
REMARK INTER + INTRA:          -4.143
REMARK INTER:                  -4.117
REMARK INTRA:                  -0.026
REMARK UNBOUND:                -0.015
REMARK SMILES CCCC(=O)[O-]
REMARK SMILES IDX 3 1 4 2 5 3 6 4 2 5 1 6
REMARK H PARENT
REMARK Flexibility Score: inf
ROOT
ATOM      1  C   UNL     1      35.535   0.396  32.486  1.00  0.00     0.052 C 
ENDROOT
BRANCH   1   2
ATOM      2  C   UNL     1      35.133  -0.111  33.835  1.00  0.00     0.041 C 
ATOM      3  O   UNL     1      35.486  -1.260  34.212  1.00  0.00    -0.550 OA
ATOM      4  O   UNL     1      34.409   0.704  34.696  1.00  0.00    -0.550 OA
ENDBRANCH   1   2
BRANCH   1   5
ATOM      5  C   UNL     1      35.635  -0.761  31.489  1.00  0.00     0.003 C 
ATOM      6  C   UNL     1      34.540  -0.671  30.429  1.00  0.00     0.004 C 
ENDBRANCH   1   5
TORSDOF 2
ENDMDL
MODEL 3
REMARK VINA RESULT:    -3.521     13.907     14.467
REMARK INTER + INTRA:          -3.948
REMARK INTER:                  -3.933
REMARK INTRA:                  -0.015
REMARK UNBOUND:                -0.015
REMARK SMILES CCCC(=O)[O-]
REMARK SMILES IDX 3 1 4 2 5 3 6 4 2 5 1 6
REMARK H PARENT
REMARK Flexibility Score: inf
ROOT
ATOM      1  C   UNL     1      34.956  -0.125  34.102  1.00  0.00     0.052 C 
ENDROOT
BRANCH   1   2
ATOM      2  C   UNL     1      33.919   0.811  34.636  1.00  0.00     0.041 C 
ATOM      3  O   UNL     1      34.226   1.995  34.936  1.00  0.00    -0.550 OA
ATOM      4  O   UNL     1      32.600   0.390  34.759  1.00  0.00    -0.550 OA
ENDBRANCH   1   2
BRANCH   1   5
ATOM      5  C   UNL     1      35.646   0.484  32.878  1.00  0.00     0.003 C 
ATOM      6  C   UNL     1      35.446  -0.389  31.642  1.00  0.00     0.004 C 
ENDBRANCH   1   5
TORSDOF 2
ENDMDL
MODEL 4
REMARK VINA RESULT:    -3.509      1.449      2.053
REMARK INTER + INTRA:          -3.934
REMARK INTER:                  -3.908
REMARK INTRA:                  -0.026
REMARK UNBOUND:                -0.015
REMARK SMILES CCCC(=O)[O-]
REMARK SMILES IDX 3 1 4 2 5 3 6 4 2 5 1 6
REMARK H PARENT
REMARK Flexibility Score: inf
ROOT
ATOM      1  C   UNL     1      21.622  -1.284  26.360  1.00  0.00     0.052 C 
ENDROOT
BRANCH   1   2
ATOM      2  C   UNL     1      20.986  -1.121  27.704  1.00  0.00     0.041 C 
ATOM      3  O   UNL     1      20.440  -0.031  28.021  1.00  0.00    -0.550 OA
ATOM      4  O   UNL     1      20.952  -2.191  28.591  1.00  0.00    -0.550 OA
ENDBRANCH   1   2
BRANCH   1   5
ATOM      5  C   UNL     1      22.234   0.041  25.895  1.00  0.00     0.003 C 
ATOM      6  C   UNL     1      23.758  -0.036  25.871  1.00  0.00     0.004 C 
ENDBRANCH   1   5
TORSDOF 2
ENDMDL
MODEL 5
REMARK VINA RESULT:    -3.408      2.804      3.640
REMARK INTER + INTRA:          -3.822
REMARK INTER:                  -3.816
REMARK INTRA:                  -0.006
REMARK UNBOUND:                -0.015
REMARK SMILES CCCC(=O)[O-]
REMARK SMILES IDX 3 1 4 2 5 3 6 4 2 5 1 6
REMARK H PARENT
REMARK Flexibility Score: inf
ROOT
ATOM      1  C   UNL     1      21.569  -1.229  26.669  1.00  0.00     0.052 C 
ENDROOT
BRANCH   1   2
ATOM      2  C   UNL     1      22.433  -0.137  26.122  1.00  0.00     0.041 C 
ATOM      3  O   UNL     1      21.928   0.970  25.796  1.00  0.00    -0.550 OA
ATOM      4  O   UNL     1      23.806  -0.325  26.016  1.00  0.00    -0.550 OA
ENDBRANCH   1   2
BRANCH   1   5
ATOM      5  C   UNL     1      21.172  -0.921  28.116  1.00  0.00     0.003 C 
ATOM      6  C   UNL     1      20.942  -2.206  28.908  1.00  0.00     0.004 C 
ENDBRANCH   1   5
TORSDOF 2
ENDMDL
MODEL 6
REMARK VINA RESULT:    -3.369      2.189      3.143
REMARK INTER + INTRA:          -3.777
REMARK INTER:                  -3.728
REMARK INTRA:                  -0.049
REMARK UNBOUND:                -0.015
REMARK SMILES CCCC(=O)[O-]
REMARK SMILES IDX 3 1 4 2 5 3 6 4 2 5 1 6
REMARK H PARENT
REMARK Flexibility Score: inf
ROOT
ATOM      1  C   UNL     1      21.173  -2.161  28.064  1.00  0.00     0.052 C 
ENDROOT
BRANCH   1   2
ATOM      2  C   UNL     1      21.283  -0.908  27.255  1.00  0.00     0.041 C 
ATOM      3  O   UNL     1      22.009  -0.877  26.226  1.00  0.00    -0.550 OA
ATOM      4  O   UNL     1      20.545   0.215  27.609  1.00  0.00    -0.550 OA
ENDBRANCH   1   2
BRANCH   1   5
ATOM      5  C   UNL     1      20.977  -1.826  29.544  1.00  0.00     0.003 C 
ATOM      6  C   UNL     1      22.318  -1.638  30.249  1.00  0.00     0.004 C 
ENDBRANCH   1   5
TORSDOF 2
ENDMDL
MODEL 7
REMARK VINA RESULT:    -3.309      1.373      2.134
REMARK INTER + INTRA:          -3.711
REMARK INTER:                  -3.684
REMARK INTRA:                  -0.026
REMARK UNBOUND:                -0.015
REMARK SMILES CCCC(=O)[O-]
REMARK SMILES IDX 3 1 4 2 5 3 6 4 2 5 1 6
REMARK H PARENT
REMARK Flexibility Score: inf
ROOT
ATOM      1  C   UNL     1      21.067  -2.290  29.279  1.00  0.00     0.052 C 
ENDROOT
BRANCH   1   2
ATOM      2  C   UNL     1      22.233  -2.329  30.215  1.00  0.00     0.041 C 
ATOM      3  O   UNL     1      22.826  -1.265  30.536  1.00  0.00    -0.550 OA
ATOM      4  O   UNL     1      22.637  -3.537  30.772  1.00  0.00    -0.550 OA
ENDBRANCH   1   2
BRANCH   1   5
ATOM      5  C   UNL     1      21.088  -1.001  28.453  1.00  0.00     0.003 C 
ATOM      6  C   UNL     1      21.189  -1.305  26.961  1.00  0.00     0.004 C 
ENDBRANCH   1   5
TORSDOF 2
ENDMDL
MODEL 8
REMARK VINA RESULT:    -3.049     11.227     12.046
REMARK INTER + INTRA:          -3.420
REMARK INTER:                  -3.415
REMARK INTRA:                  -0.005
REMARK UNBOUND:                -0.015
REMARK SMILES CCCC(=O)[O-]
REMARK SMILES IDX 3 1 4 2 5 3 6 4 2 5 1 6
REMARK H PARENT
REMARK Flexibility Score: inf
ROOT
ATOM      1  C   UNL     1      27.471   7.806  30.375  1.00  0.00     0.052 C 
ENDROOT
BRANCH   1   2
ATOM      2  C   UNL     1      28.352   8.972  30.055  1.00  0.00     0.041 C 
ATOM      3  O   UNL     1      29.049   9.507  30.957  1.00  0.00    -0.550 OA
ATOM      4  O   UNL     1      28.442   9.438  28.748  1.00  0.00    -0.550 OA
ENDBRANCH   1   2
BRANCH   1   5
ATOM      5  C   UNL     1      28.235   6.492  30.192  1.00  0.00     0.003 C 
ATOM      6  C   UNL     1      27.325   5.289  30.425  1.00  0.00     0.004 C 
ENDBRANCH   1   5
TORSDOF 2
ENDMDL
MODEL 9
REMARK VINA RESULT:    -3.034     10.798     11.341
REMARK INTER + INTRA:          -3.403
REMARK INTER:                  -3.397
REMARK INTRA:                  -0.006
REMARK UNBOUND:                -0.015
REMARK SMILES CCCC(=O)[O-]
REMARK SMILES IDX 3 1 4 2 5 3 6 4 2 5 1 6
REMARK H PARENT
REMARK Flexibility Score: inf
ROOT
ATOM      1  C   UNL     1      27.797   7.750  30.333  1.00  0.00     0.052 C 
ENDROOT
BRANCH   1   2
ATOM      2  C   UNL     1      26.703   8.747  30.550  1.00  0.00     0.041 C 
ATOM      3  O   UNL     1      26.229   9.391  29.576  1.00  0.00    -0.550 OA
ATOM      4  O   UNL     1      26.172   8.932  31.821  1.00  0.00    -0.550 OA
ENDBRANCH   1   2
BRANCH   1   5
ATOM      5  C   UNL     1      27.261   6.325  30.494  1.00  0.00     0.003 C 
ATOM      6  C   UNL     1      28.401   5.311  30.550  1.00  0.00     0.004 C 
ENDBRANCH   1   5
TORSDOF 2
ENDMDL
