MODEL 1
REMARK VINA RESULT:    -3.517      0.000      0.000
REMARK INTER + INTRA:          -4.740
REMARK INTER:                  -4.339
REMARK INTRA:                  -0.401
REMARK UNBOUND:                -0.401
REMARK SMILES CCCCC(=O)CC
REMARK SMILES IDX 4 1 3 2 2 3 1 4 5 5 6 6 7 7 8 8
REMARK H PARENT
REMARK Flexibility Score: inf
ROOT
ATOM      1  C   UNL     1     118.142 119.387 117.485  1.00  0.00     0.075 C 
ENDROOT
BRANCH   1   2
ATOM      2  C   UNL     1     119.669 119.400 117.639  1.00  0.00     0.008 C 
BRANCH   2   3
ATOM      3  C   UNL     1     120.107 119.878 119.032  1.00  0.00    -0.003 C 
ATOM      4  C   UNL     1     119.798 121.359 119.228  1.00  0.00     0.004 C 
ENDBRANCH   2   3
ENDBRANCH   1   2
BRANCH   1   5
ATOM      5  C   UNL     1     117.481 118.463 118.476  1.00  0.00     0.132 C 
ATOM      6  O   UNL     1     117.707 117.263 118.422  1.00  0.00    -0.300 OA
BRANCH   5   7
ATOM      7  C   UNL     1     116.542 118.996 119.524  1.00  0.00     0.072 C 
ATOM      8  C   UNL     1     116.095 120.416 119.190  1.00  0.00     0.012 C 
ENDBRANCH   5   7
ENDBRANCH   1   5
TORSDOF 4
ENDMDL
MODEL 2
REMARK VINA RESULT:    -3.516      1.779      2.780
REMARK INTER + INTRA:          -4.739
REMARK INTER:                  -4.355
REMARK INTRA:                  -0.384
REMARK UNBOUND:                -0.401
REMARK SMILES CCCCC(=O)CC
REMARK SMILES IDX 4 1 3 2 2 3 1 4 5 5 6 6 7 7 8 8
REMARK H PARENT
REMARK Flexibility Score: inf
ROOT
ATOM      1  C   UNL     1     119.399 119.419 117.383  1.00  0.00     0.075 C 
ENDROOT
BRANCH   1   2
ATOM      2  C   UNL     1     119.554 117.898 117.514  1.00  0.00     0.008 C 
BRANCH   2   3
ATOM      3  C   UNL     1     119.924 117.474 118.944  1.00  0.00    -0.003 C 
ATOM      4  C   UNL     1     121.385 117.784 119.249  1.00  0.00     0.004 C 
ENDBRANCH   2   3
ENDBRANCH   1   2
BRANCH   1   5
ATOM      5  C   UNL     1     118.420 119.977 118.383  1.00  0.00     0.132 C 
ATOM      6  O   UNL     1     117.240 119.665 118.309  1.00  0.00    -0.300 OA
BRANCH   5   7
ATOM      7  C   UNL     1     118.871 120.917 119.467  1.00  0.00     0.072 C 
ATOM      8  C   UNL     1     120.279 121.438 119.191  1.00  0.00     0.012 C 
ENDBRANCH   5   7
ENDBRANCH   1   5
TORSDOF 4
ENDMDL
MODEL 3
REMARK VINA RESULT:    -3.503      2.107      3.991
REMARK INTER + INTRA:          -4.723
REMARK INTER:                  -4.354
REMARK INTRA:                  -0.369
REMARK UNBOUND:                -0.401
REMARK SMILES CCCCC(=O)CC
REMARK SMILES IDX 4 1 3 2 2 3 1 4 5 5 6 6 7 7 8 8
REMARK H PARENT
REMARK Flexibility Score: inf
ROOT
ATOM      1  C   UNL     1     119.544 118.289 117.375  1.00  0.00     0.075 C 
ENDROOT
BRANCH   1   2
ATOM      2  C   UNL     1     118.023 118.100 117.452  1.00  0.00     0.008 C 
BRANCH   2   3
ATOM      3  C   UNL     1     117.553 117.748 118.872  1.00  0.00    -0.003 C 
ATOM      4  C   UNL     1     117.647 116.247 119.125  1.00  0.00     0.004 C 
ENDBRANCH   2   3
ENDBRANCH   1   2
BRANCH   1   5
ATOM      5  C   UNL     1     120.043 119.287 118.387  1.00  0.00     0.132 C 
ATOM      6  O   UNL     1     119.716 120.461 118.286  1.00  0.00    -0.300 OA
BRANCH   5   7
ATOM      7  C   UNL     1     120.944 118.863 119.515  1.00  0.00     0.072 C 
ATOM      8  C   UNL     1     121.385 117.411 119.349  1.00  0.00     0.012 C 
ENDBRANCH   5   7
ENDBRANCH   1   5
TORSDOF 4
ENDMDL
MODEL 4
REMARK VINA RESULT:    -3.471      1.913      2.322
REMARK INTER + INTRA:          -4.683
REMARK INTER:                  -4.306
REMARK INTRA:                  -0.377
REMARK UNBOUND:                -0.401
REMARK SMILES CCCCC(=O)CC
REMARK SMILES IDX 4 1 3 2 2 3 1 4 5 5 6 6 7 7 8 8
REMARK H PARENT
REMARK Flexibility Score: inf
ROOT
ATOM      1  C   UNL     1     117.873 119.667 117.568  1.00  0.00     0.075 C 
ENDROOT
BRANCH   1   2
ATOM      2  C   UNL     1     119.371 119.401 117.366  1.00  0.00     0.008 C 
BRANCH   2   3
ATOM      3  C   UNL     1     119.758 117.960 117.733  1.00  0.00    -0.003 C 
ATOM      4  C   UNL     1     120.732 117.934 118.906  1.00  0.00     0.004 C 
ENDBRANCH   2   3
ENDBRANCH   1   2
BRANCH   1   5
ATOM      5  C   UNL     1     117.544 119.983 119.004  1.00  0.00     0.132 C 
ATOM      6  O   UNL     1     118.218 120.802 119.611  1.00  0.00    -0.300 OA
BRANCH   5   7
ATOM      7  C   UNL     1     116.400 119.299 119.705  1.00  0.00     0.072 C 
ATOM      8  C   UNL     1     116.723 117.833 119.978  1.00  0.00     0.012 C 
ENDBRANCH   5   7
ENDBRANCH   1   5
TORSDOF 4
ENDMDL
MODEL 5
REMARK VINA RESULT:    -3.466      1.891      3.134
REMARK INTER + INTRA:          -4.678
REMARK INTER:                  -4.300
REMARK INTRA:                  -0.378
REMARK UNBOUND:                -0.401
REMARK SMILES CCCCC(=O)CC
REMARK SMILES IDX 4 1 3 2 2 3 1 4 5 5 6 6 7 7 8 8
REMARK H PARENT
REMARK Flexibility Score: inf
ROOT
ATOM      1  C   UNL     1     119.694 119.732 117.532  1.00  0.00     0.075 C 
ENDROOT
BRANCH   1   2
ATOM      2  C   UNL     1     119.405 118.236 117.344  1.00  0.00     0.008 C 
BRANCH   2   3
ATOM      3  C   UNL     1     117.959 117.874 117.716  1.00  0.00    -0.003 C 
ATOM      4  C   UNL     1     117.922 116.871 118.864  1.00  0.00     0.004 C 
ENDBRANCH   2   3
ENDBRANCH   1   2
BRANCH   1   5
ATOM      5  C   UNL     1     119.952 120.082 118.974  1.00  0.00     0.132 C 
ATOM      6  O   UNL     1     120.741 119.412 119.625  1.00  0.00    -0.300 OA
BRANCH   5   7
ATOM      7  C   UNL     1     119.247 121.240 119.628  1.00  0.00     0.072 C 
ATOM      8  C   UNL     1     117.811 120.874 119.991  1.00  0.00     0.012 C 
ENDBRANCH   5   7
ENDBRANCH   1   5
TORSDOF 4
ENDMDL
MODEL 6
REMARK VINA RESULT:    -3.460      1.738      2.508
REMARK INTER + INTRA:          -4.670
REMARK INTER:                  -4.302
REMARK INTRA:                  -0.368
REMARK UNBOUND:                -0.401
REMARK SMILES CCCCC(=O)CC
REMARK SMILES IDX 4 1 3 2 2 3 1 4 5 5 6 6 7 7 8 8
REMARK H PARENT
REMARK Flexibility Score: inf
ROOT
ATOM      1  C   UNL     1     117.958 117.864 117.587  1.00  0.00     0.075 C 
ENDROOT
BRANCH   1   2
ATOM      2  C   UNL     1     118.190 119.371 117.416  1.00  0.00     0.008 C 
BRANCH   2   3
ATOM      3  C   UNL     1     119.635 119.777 117.746  1.00  0.00    -0.003 C 
ATOM      4  C   UNL     1     119.678 120.751 118.918  1.00  0.00     0.004 C 
ENDBRANCH   2   3
ENDBRANCH   1   2
BRANCH   1   5
ATOM      5  C   UNL     1     117.688 117.492 119.022  1.00  0.00     0.132 C 
ATOM      6  O   UNL     1     116.885 118.145 119.672  1.00  0.00    -0.300 OA
BRANCH   5   7
ATOM      7  C   UNL     1     118.398 116.333 119.669  1.00  0.00     0.072 C 
ATOM      8  C   UNL     1     119.836 116.699 120.023  1.00  0.00     0.012 C 
ENDBRANCH   5   7
ENDBRANCH   1   5
TORSDOF 4
ENDMDL
MODEL 7
REMARK VINA RESULT:    -3.454      2.299      3.245
REMARK INTER + INTRA:          -4.662
REMARK INTER:                  -4.294
REMARK INTRA:                  -0.367
REMARK UNBOUND:                -0.401
REMARK SMILES CCCCC(=O)CC
REMARK SMILES IDX 4 1 3 2 2 3 1 4 5 5 6 6 7 7 8 8
REMARK H PARENT
REMARK Flexibility Score: inf
ROOT
ATOM      1  C   UNL     1     119.954 117.951 117.773  1.00  0.00     0.075 C 
ENDROOT
BRANCH   1   2
ATOM      2  C   UNL     1     119.504 119.401 117.549  1.00  0.00     0.008 C 
BRANCH   2   3
ATOM      3  C   UNL     1     117.977 119.523 117.433  1.00  0.00    -0.003 C 
ATOM      4  C   UNL     1     117.354 119.915 118.768  1.00  0.00     0.004 C 
ENDBRANCH   2   3
ENDBRANCH   1   2
BRANCH   1   5
ATOM      5  C   UNL     1     120.418 117.714 119.187  1.00  0.00     0.132 C 
ATOM      6  O   UNL     1     121.346 118.373 119.634  1.00  0.00    -0.300 OA
BRANCH   5   7
ATOM      7  C   UNL     1     119.762 116.673 120.054  1.00  0.00     0.072 C 
ATOM      8  C   UNL     1     118.347 116.369 119.570  1.00  0.00     0.012 C 
ENDBRANCH   5   7
ENDBRANCH   1   5
TORSDOF 4
ENDMDL
MODEL 8
REMARK VINA RESULT:    -3.447      1.576      3.227
REMARK INTER + INTRA:          -4.654
REMARK INTER:                  -4.275
REMARK INTRA:                  -0.379
REMARK UNBOUND:                -0.401
REMARK SMILES CCCCC(=O)CC
REMARK SMILES IDX 4 1 3 2 2 3 1 4 5 5 6 6 7 7 8 8
REMARK H PARENT
REMARK Flexibility Score: inf
ROOT
ATOM      1  C   UNL     1     119.728 117.926 117.542  1.00  0.00     0.075 C 
ENDROOT
BRANCH   1   2
ATOM      2  C   UNL     1     118.243 118.242 117.314  1.00  0.00     0.008 C 
BRANCH   2   3
ATOM      3  C   UNL     1     117.893 119.689 117.694  1.00  0.00    -0.003 C 
ATOM      4  C   UNL     1     116.892 119.729 118.843  1.00  0.00     0.004 C 
ENDBRANCH   2   3
ENDBRANCH   1   2
BRANCH   1   5
ATOM      5  C   UNL     1     120.023 117.602 118.984  1.00  0.00     0.132 C 
ATOM      6  O   UNL     1     119.324 116.791 119.574  1.00  0.00    -0.300 OA
BRANCH   5   7
ATOM      7  C   UNL     1     121.161 118.267 119.710  1.00  0.00     0.072 C 
ATOM      8  C   UNL     1     120.839 119.728 120.013  1.00  0.00     0.012 C 
ENDBRANCH   5   7
ENDBRANCH   1   5
TORSDOF 4
ENDMDL
MODEL 9
REMARK VINA RESULT:    -3.432      1.722      3.422
REMARK INTER + INTRA:          -4.636
REMARK INTER:                  -4.255
REMARK INTRA:                  -0.381
REMARK UNBOUND:                -0.401
REMARK SMILES CCCCC(=O)CC
REMARK SMILES IDX 4 1 3 2 2 3 1 4 5 5 6 6 7 7 8 8
REMARK H PARENT
REMARK Flexibility Score: inf
ROOT
ATOM      1  C   UNL     1     119.346 120.512 118.633  1.00  0.00     0.075 C 
ENDROOT
BRANCH   1   2
ATOM      2  C   UNL     1     118.257 120.619 119.709  1.00  0.00     0.008 C 
BRANCH   2   3
ATOM      3  C   UNL     1     116.871 120.229 119.174  1.00  0.00    -0.003 C 
ATOM      4  C   UNL     1     116.415 118.893 119.752  1.00  0.00     0.004 C 
ENDBRANCH   2   3
ENDBRANCH   1   2
BRANCH   1   5
ATOM      5  C   UNL     1     120.036 119.172 118.656  1.00  0.00     0.132 C 
ATOM      6  O   UNL     1     120.915 118.963 119.478  1.00  0.00    -0.300 OA
BRANCH   5   7
ATOM      7  C   UNL     1     119.663 118.092 117.677  1.00  0.00     0.072 C 
ATOM      8  C   UNL     1     118.891 118.667 116.493  1.00  0.00     0.012 C 
ENDBRANCH   5   7
ENDBRANCH   1   5
TORSDOF 4
ENDMDL
