MODEL 1
REMARK VINA RESULT:    -5.474      0.000      0.000
REMARK INTER + INTRA:          -7.106
REMARK INTER:                  -6.755
REMARK INTRA:                  -0.352
REMARK UNBOUND:                -0.352
REMARK SMILES COc1cc(-c2oc3cc(O)cc(O)c3c(=O)c2O)ccc1O
REMARK SMILES IDX 6 1 18 2 16 3 17 4 15 5 13 6 12 7 10 8 9 9 8 10 7 11 5 12
REMARK SMILES IDX 3 13 22 14 4 15 21 16 20 17 2 18 1 19 23 20 19 22 14 24
REMARK SMILES IDX 11 26
REMARK H PARENT 23 21 19 23 14 25 11 27
REMARK Flexibility Score: inf
ROOT
ATOM      1  C   UNL     1     175.628 168.467 170.825  1.00  0.00     0.180 A 
ATOM      2  C   UNL     1     174.576 168.618 171.745  1.00  0.00     0.208 A 
ATOM      3  C   UNL     1     174.621 169.680 172.662  1.00  0.00     0.238 A 
ATOM      4  O   UNL     1     173.704 169.778 173.519  1.00  0.00    -0.285 OA
ATOM      5  C   UNL     1     175.707 170.587 172.637  1.00  0.00     0.111 A 
ATOM      6  C   UNL     1     175.836 171.723 173.492  1.00  0.00     0.134 A 
ATOM      7  C   UNL     1     177.016 172.477 173.468  1.00  0.00     0.093 A 
ATOM      8  C   UNL     1     178.042 172.176 172.574  1.00  0.00     0.123 A 
ATOM      9  C   UNL     1     177.904 171.105 171.693  1.00  0.00     0.094 A 
ATOM     10  C   UNL     1     176.753 170.312 171.717  1.00  0.00     0.146 A 
ATOM     11  O   UNL     1     176.665 169.295 170.869  1.00  0.00    -0.452 OA
ENDROOT
BRANCH   1  12
ATOM     12  C   UNL     1     175.639 167.386 169.812  1.00  0.00     0.025 A 
ATOM     13  C   UNL     1     176.586 165.285 168.994  1.00  0.00     0.161 A 
ATOM     14  C   UNL     1     175.735 165.345 167.876  1.00  0.00     0.157 A 
ATOM     15  C   UNL     1     176.537 166.316 169.954  1.00  0.00     0.062 A 
ATOM     16  C   UNL     1     174.856 166.422 167.725  1.00  0.00     0.051 A 
ATOM     17  C   UNL     1     174.811 167.439 168.679  1.00  0.00     0.016 A 
BRANCH  13  18
ATOM     18  O   UNL     1     177.465 164.195 169.117  1.00  0.00    -0.493 OA
ATOM     19  C   UNL     1     178.867 164.257 168.875  1.00  0.00     0.278 C 
ENDBRANCH  13  18
BRANCH  14  20
ATOM     20  O   UNL     1     175.749 164.347 166.903  1.00  0.00    -0.504 OA
ATOM     21  H   UNL     1     176.340 163.527 166.979  1.00  0.00     0.293 HD
ENDBRANCH  14  20
ENDBRANCH   1  12
BRANCH   2  22
ATOM     22  O   UNL     1     173.524 167.698 171.767  1.00  0.00    -0.502 OA
ATOM     23  H   UNL     1     173.463 166.958 172.457  1.00  0.00     0.293 HD
ENDBRANCH   2  22
BRANCH   6  24
ATOM     24  O   UNL     1     174.830 172.165 174.358  1.00  0.00    -0.507 OA
ATOM     25  H   UNL     1     173.860 171.898 174.296  1.00  0.00     0.293 HD
ENDBRANCH   6  24
BRANCH   8  26
ATOM     26  O   UNL     1     179.196 172.957 172.567  1.00  0.00    -0.508 OA
ATOM     27  H   UNL     1     180.040 172.654 172.093  1.00  0.00     0.293 HD
ENDBRANCH   8  26
TORSDOF 6
ENDMDL
MODEL 2
REMARK VINA RESULT:    -5.464      3.792      6.972
REMARK INTER + INTRA:          -7.094
REMARK INTER:                  -6.774
REMARK INTRA:                  -0.320
REMARK UNBOUND:                -0.352
REMARK SMILES COc1cc(-c2oc3cc(O)cc(O)c3c(=O)c2O)ccc1O
REMARK SMILES IDX 6 1 18 2 16 3 17 4 15 5 13 6 12 7 10 8 9 9 8 10 7 11 5 12
REMARK SMILES IDX 3 13 22 14 4 15 21 16 20 17 2 18 1 19 23 20 19 22 14 24
REMARK SMILES IDX 11 26
REMARK H PARENT 23 21 19 23 14 25 11 27
REMARK Flexibility Score: inf
ROOT
ATOM      1  C   UNL     1     173.887 170.122 169.726  1.00  0.00     0.180 A 
ATOM      2  C   UNL     1     172.569 169.674 169.920  1.00  0.00     0.208 A 
ATOM      3  C   UNL     1     171.703 169.611 168.816  1.00  0.00     0.238 A 
ATOM      4  O   UNL     1     170.508 169.262 169.006  1.00  0.00    -0.285 OA
ATOM      5  C   UNL     1     172.169 169.978 167.532  1.00  0.00     0.111 A 
ATOM      6  C   UNL     1     171.390 169.914 166.337  1.00  0.00     0.134 A 
ATOM      7  C   UNL     1     171.913 170.426 165.143  1.00  0.00     0.093 A 
ATOM      8  C   UNL     1     173.208 170.939 165.086  1.00  0.00     0.123 A 
ATOM      9  C   UNL     1     174.000 170.953 166.234  1.00  0.00     0.094 A 
ATOM     10  C   UNL     1     173.494 170.482 167.448  1.00  0.00     0.146 A 
ATOM     11  O   UNL     1     174.276 170.522 168.520  1.00  0.00    -0.452 OA
ENDROOT
BRANCH   1  12
ATOM     12  C   UNL     1     174.866 170.194 170.835  1.00  0.00     0.025 A 
ATOM     13  C   UNL     1     176.265 171.546 172.316  1.00  0.00     0.161 A 
ATOM     14  C   UNL     1     176.771 170.370 172.898  1.00  0.00     0.157 A 
ATOM     15  C   UNL     1     175.317 171.448 171.278  1.00  0.00     0.062 A 
ATOM     16  C   UNL     1     176.337 169.121 172.442  1.00  0.00     0.051 A 
ATOM     17  C   UNL     1     175.398 169.031 171.415  1.00  0.00     0.016 A 
BRANCH  13  18
ATOM     18  O   UNL     1     176.724 172.787 172.789  1.00  0.00    -0.493 OA
ATOM     19  C   UNL     1     177.790 173.530 172.205  1.00  0.00     0.278 C 
ENDBRANCH  13  18
BRANCH  14  20
ATOM     20  O   UNL     1     177.710 170.421 173.929  1.00  0.00    -0.504 OA
ATOM     21  H   UNL     1     177.832 169.659 174.586  1.00  0.00     0.293 HD
ENDBRANCH  14  20
ENDBRANCH   1  12
BRANCH   2  22
ATOM     22  O   UNL     1     172.122 169.338 171.200  1.00  0.00    -0.502 OA
ATOM     23  H   UNL     1     172.719 168.887 171.884  1.00  0.00     0.293 HD
ENDBRANCH   2  22
BRANCH   6  24
ATOM     24  O   UNL     1     170.119 169.336 166.264  1.00  0.00    -0.507 OA
ATOM     25  H   UNL     1     169.941 168.350 166.161  1.00  0.00     0.293 HD
ENDBRANCH   6  24
BRANCH   8  26
ATOM     26  O   UNL     1     173.702 171.426 163.878  1.00  0.00    -0.508 OA
ATOM     27  H   UNL     1     174.445 172.115 163.847  1.00  0.00     0.293 HD
ENDBRANCH   8  26
TORSDOF 6
ENDMDL
MODEL 3
REMARK VINA RESULT:    -5.461      3.023      5.863
REMARK INTER + INTRA:          -7.089
REMARK INTER:                  -6.736
REMARK INTRA:                  -0.354
REMARK UNBOUND:                -0.352
REMARK SMILES COc1cc(-c2oc3cc(O)cc(O)c3c(=O)c2O)ccc1O
REMARK SMILES IDX 6 1 18 2 16 3 17 4 15 5 13 6 12 7 10 8 9 9 8 10 7 11 5 12
REMARK SMILES IDX 3 13 22 14 4 15 21 16 20 17 2 18 1 19 23 20 19 22 14 24
REMARK SMILES IDX 11 26
REMARK H PARENT 23 21 19 23 14 25 11 27
REMARK Flexibility Score: inf
ROOT
ATOM      1  C   UNL     1     173.848 169.629 172.160  1.00  0.00     0.180 A 
ATOM      2  C   UNL     1     174.610 169.127 171.092  1.00  0.00     0.208 A 
ATOM      3  C   UNL     1     175.915 169.607 170.902  1.00  0.00     0.238 A 
ATOM      4  O   UNL     1     176.574 169.194 169.911  1.00  0.00    -0.285 OA
ATOM      5  C   UNL     1     176.449 170.570 171.791  1.00  0.00     0.111 A 
ATOM      6  C   UNL     1     177.773 171.097 171.718  1.00  0.00     0.134 A 
ATOM      7  C   UNL     1     178.150 172.142 172.572  1.00  0.00     0.093 A 
ATOM      8  C   UNL     1     177.273 172.632 173.538  1.00  0.00     0.123 A 
ATOM      9  C   UNL     1     175.996 172.085 173.658  1.00  0.00     0.094 A 
ATOM     10  C   UNL     1     175.579 171.067 172.798  1.00  0.00     0.146 A 
ATOM     11  O   UNL     1     174.352 170.580 172.938  1.00  0.00    -0.452 OA
ENDROOT
BRANCH   1  12
ATOM     12  C   UNL     1     172.473 169.155 172.439  1.00  0.00     0.025 A 
ATOM     13  C   UNL     1     170.064 169.575 172.429  1.00  0.00     0.161 A 
ATOM     14  C   UNL     1     169.849 168.313 173.011  1.00  0.00     0.157 A 
ATOM     15  C   UNL     1     171.382 169.991 172.154  1.00  0.00     0.062 A 
ATOM     16  C   UNL     1     170.937 167.489 173.314  1.00  0.00     0.051 A 
ATOM     17  C   UNL     1     172.240 167.906 173.038  1.00  0.00     0.016 A 
BRANCH  13  18
ATOM     18  O   UNL     1     168.952 170.386 172.142  1.00  0.00    -0.493 OA
ATOM     19  C   UNL     1     168.431 171.381 173.017  1.00  0.00     0.278 C 
ENDBRANCH  13  18
BRANCH  14  20
ATOM     20  O   UNL     1     168.562 167.860 173.300  1.00  0.00    -0.504 OA
ATOM     21  H   UNL     1     167.736 168.283 172.891  1.00  0.00     0.293 HD
ENDBRANCH  14  20
ENDBRANCH   1  12
BRANCH   2  22
ATOM     22  O   UNL     1     174.057 168.193 170.212  1.00  0.00    -0.502 OA
ATOM     23  H   UNL     1     173.499 168.464 169.411  1.00  0.00     0.293 HD
ENDBRANCH   2  22
BRANCH   6  24
ATOM     24  O   UNL     1     178.758 170.614 170.851  1.00  0.00    -0.507 OA
ATOM     25  H   UNL     1     179.376 169.845 171.054  1.00  0.00     0.293 HD
ENDBRANCH   6  24
BRANCH   8  26
ATOM     26  O   UNL     1     177.687 173.662 174.381  1.00  0.00    -0.508 OA
ATOM     27  H   UNL     1     177.096 174.004 175.131  1.00  0.00     0.293 HD
ENDBRANCH   8  26
TORSDOF 6
ENDMDL
MODEL 4
REMARK VINA RESULT:    -5.396      1.459      7.046
REMARK INTER + INTRA:          -7.010
REMARK INTER:                  -6.685
REMARK INTRA:                  -0.324
REMARK UNBOUND:                -0.352
REMARK SMILES COc1cc(-c2oc3cc(O)cc(O)c3c(=O)c2O)ccc1O
REMARK SMILES IDX 6 1 18 2 16 3 17 4 15 5 13 6 12 7 10 8 9 9 8 10 7 11 5 12
REMARK SMILES IDX 3 13 22 14 4 15 21 16 20 17 2 18 1 19 23 20 19 22 14 24
REMARK SMILES IDX 11 26
REMARK H PARENT 23 21 19 23 14 25 11 27
REMARK Flexibility Score: inf
ROOT
ATOM      1  C   UNL     1     175.976 168.145 170.055  1.00  0.00     0.180 A 
ATOM      2  C   UNL     1     175.004 167.993 169.052  1.00  0.00     0.208 A 
ATOM      3  C   UNL     1     175.096 166.901 168.174  1.00  0.00     0.238 A 
ATOM      4  O   UNL     1     174.254 166.801 167.243  1.00  0.00    -0.285 OA
ATOM      5  C   UNL     1     176.148 165.966 168.320  1.00  0.00     0.111 A 
ATOM      6  C   UNL     1     176.317 164.801 167.512  1.00  0.00     0.134 A 
ATOM      7  C   UNL     1     177.467 164.017 167.662  1.00  0.00     0.093 A 
ATOM      8  C   UNL     1     178.422 164.318 168.632  1.00  0.00     0.123 A 
ATOM      9  C   UNL     1     178.240 165.420 169.466  1.00  0.00     0.094 A 
ATOM     10  C   UNL     1     177.120 166.242 169.318  1.00  0.00     0.146 A 
ATOM     11  O   UNL     1     176.988 167.287 170.125  1.00  0.00    -0.452 OA
ENDROOT
BRANCH   1  12
ATOM     12  C   UNL     1     175.933 169.257 171.033  1.00  0.00     0.025 A 
ATOM     13  C   UNL     1     176.916 171.313 171.920  1.00  0.00     0.161 A 
ATOM     14  C   UNL     1     175.920 171.351 172.912  1.00  0.00     0.157 A 
ATOM     15  C   UNL     1     176.919 170.255 170.988  1.00  0.00     0.062 A 
ATOM     16  C   UNL     1     174.950 170.345 172.969  1.00  0.00     0.051 A 
ATOM     17  C   UNL     1     174.959 169.302 172.043  1.00  0.00     0.016 A 
BRANCH  13  18
ATOM     18  O   UNL     1     177.882 172.332 171.890  1.00  0.00    -0.493 OA
ATOM     19  C   UNL     1     179.180 172.233 172.467  1.00  0.00     0.278 C 
ENDBRANCH  13  18
BRANCH  14  20
ATOM     20  O   UNL     1     175.878 172.379 173.853  1.00  0.00    -0.504 OA
ATOM     21  H   UNL     1     175.828 173.356 173.585  1.00  0.00     0.293 HD
ENDBRANCH  14  20
ENDBRANCH   1  12
BRANCH   2  22
ATOM     22  O   UNL     1     173.986 168.939 168.911  1.00  0.00    -0.502 OA
ATOM     23  H   UNL     1     174.037 169.698 168.241  1.00  0.00     0.293 HD
ENDBRANCH   2  22
BRANCH   6  24
ATOM     24  O   UNL     1     175.377 164.358 166.576  1.00  0.00    -0.507 OA
ATOM     25  H   UNL     1     175.041 163.411 166.503  1.00  0.00     0.293 HD
ENDBRANCH   6  24
BRANCH   8  26
ATOM     26  O   UNL     1     179.547 163.507 168.763  1.00  0.00    -0.508 OA
ATOM     27  H   UNL     1     180.181 163.601 169.548  1.00  0.00     0.293 HD
ENDBRANCH   8  26
TORSDOF 6
ENDMDL
MODEL 5
REMARK VINA RESULT:    -5.361      3.448      6.737
REMARK INTER + INTRA:          -6.967
REMARK INTER:                  -6.632
REMARK INTRA:                  -0.334
REMARK UNBOUND:                -0.352
REMARK SMILES COc1cc(-c2oc3cc(O)cc(O)c3c(=O)c2O)ccc1O
REMARK SMILES IDX 6 1 18 2 16 3 17 4 15 5 13 6 12 7 10 8 9 9 8 10 7 11 5 12
REMARK SMILES IDX 3 13 22 14 4 15 21 16 20 17 2 18 1 19 23 20 19 22 14 24
REMARK SMILES IDX 11 26
REMARK H PARENT 23 21 19 23 14 25 11 27
REMARK Flexibility Score: inf
ROOT
ATOM      1  C   UNL     1     173.443 169.599 172.661  1.00  0.00     0.180 A 
ATOM      2  C   UNL     1     173.108 168.285 173.030  1.00  0.00     0.208 A 
ATOM      3  C   UNL     1     171.762 167.968 173.273  1.00  0.00     0.238 A 
ATOM      4  O   UNL     1     171.475 166.804 173.657  1.00  0.00    -0.285 OA
ATOM      5  C   UNL     1     170.766 168.963 173.127  1.00  0.00     0.111 A 
ATOM      6  C   UNL     1     169.368 168.744 173.308  1.00  0.00     0.134 A 
ATOM      7  C   UNL     1     168.486 169.832 173.265  1.00  0.00     0.093 A 
ATOM      8  C   UNL     1     168.944 171.118 172.983  1.00  0.00     0.123 A 
ATOM      9  C   UNL     1     170.301 171.335 172.746  1.00  0.00     0.094 A 
ATOM     10  C   UNL     1     171.210 170.276 172.817  1.00  0.00     0.146 A 
ATOM     11  O   UNL     1     172.494 170.526 172.596  1.00  0.00    -0.452 OA
ENDROOT
BRANCH   1  12
ATOM     12  C   UNL     1     174.837 170.004 172.366  1.00  0.00     0.025 A 
ATOM     13  C   UNL     1     176.824 171.291 172.977  1.00  0.00     0.161 A 
ATOM     14  C   UNL     1     177.464 170.844 171.807  1.00  0.00     0.157 A 
ATOM     15  C   UNL     1     175.506 170.871 173.244  1.00  0.00     0.062 A 
ATOM     16  C   UNL     1     176.790 169.997 170.921  1.00  0.00     0.051 A 
ATOM     17  C   UNL     1     175.485 169.584 171.193  1.00  0.00     0.016 A 
BRANCH  13  18
ATOM     18  O   UNL     1     177.522 172.147 173.845  1.00  0.00    -0.493 OA
ATOM     19  C   UNL     1     177.251 173.536 174.001  1.00  0.00     0.278 C 
ENDBRANCH  13  18
BRANCH  14  20
ATOM     20  O   UNL     1     178.768 171.233 171.504  1.00  0.00    -0.504 OA
ATOM     21  H   UNL     1     178.970 172.011 170.886  1.00  0.00     0.293 HD
ENDBRANCH  14  20
ENDBRANCH   1  12
BRANCH   2  22
ATOM     22  O   UNL     1     174.109 167.323 173.191  1.00  0.00    -0.502 OA
ATOM     23  H   UNL     1     174.225 166.797 174.049  1.00  0.00     0.293 HD
ENDBRANCH   2  22
BRANCH   6  24
ATOM     24  O   UNL     1     168.794 167.483 173.503  1.00  0.00    -0.507 OA
ATOM     25  H   UNL     1     168.983 166.672 172.935  1.00  0.00     0.293 HD
ENDBRANCH   6  24
BRANCH   8  26
ATOM     26  O   UNL     1     168.037 172.174 172.933  1.00  0.00    -0.508 OA
ATOM     27  H   UNL     1     167.165 172.101 172.422  1.00  0.00     0.293 HD
ENDBRANCH   8  26
TORSDOF 6
ENDMDL
MODEL 6
REMARK VINA RESULT:    -5.361      2.963      3.991
REMARK INTER + INTRA:          -6.966
REMARK INTER:                  -6.633
REMARK INTRA:                  -0.333
REMARK UNBOUND:                -0.352
REMARK SMILES COc1cc(-c2oc3cc(O)cc(O)c3c(=O)c2O)ccc1O
REMARK SMILES IDX 6 1 18 2 16 3 17 4 15 5 13 6 12 7 10 8 9 9 8 10 7 11 5 12
REMARK SMILES IDX 3 13 22 14 4 15 21 16 20 17 2 18 1 19 23 20 19 22 14 24
REMARK SMILES IDX 11 26
REMARK H PARENT 23 21 19 23 14 25 11 27
REMARK Flexibility Score: inf
ROOT
ATOM      1  C   UNL     1     175.134 168.519 172.270  1.00  0.00     0.180 A 
ATOM      2  C   UNL     1     174.383 169.297 171.373  1.00  0.00     0.208 A 
ATOM      3  C   UNL     1     174.760 170.630 171.146  1.00  0.00     0.238 A 
ATOM      4  O   UNL     1     174.051 171.338 170.383  1.00  0.00    -0.285 OA
ATOM      5  C   UNL     1     175.894 171.164 171.804  1.00  0.00     0.111 A 
ATOM      6  C   UNL     1     176.391 172.489 171.619  1.00  0.00     0.134 A 
ATOM      7  C   UNL     1     177.442 172.951 172.421  1.00  0.00     0.093 A 
ATOM      8  C   UNL     1     178.055 172.117 173.354  1.00  0.00     0.123 A 
ATOM      9  C   UNL     1     177.617 170.802 173.503  1.00  0.00     0.094 A 
ATOM     10  C   UNL     1     176.547 170.322 172.743  1.00  0.00     0.146 A 
ATOM     11  O   UNL     1     176.153 169.068 172.922  1.00  0.00    -0.452 OA
ENDROOT
BRANCH   1  12
ATOM     12  C   UNL     1     174.813 167.100 172.543  1.00  0.00     0.025 A 
ATOM     13  C   UNL     1     173.987 165.393 174.088  1.00  0.00     0.161 A 
ATOM     14  C   UNL     1     174.246 164.404 173.122  1.00  0.00     0.157 A 
ATOM     15  C   UNL     1     174.281 166.739 173.792  1.00  0.00     0.062 A 
ATOM     16  C   UNL     1     174.795 164.761 171.886  1.00  0.00     0.051 A 
ATOM     17  C   UNL     1     175.083 166.096 171.599  1.00  0.00     0.016 A 
BRANCH  13  18
ATOM     18  O   UNL     1     173.442 165.006 175.324  1.00  0.00    -0.493 OA
ATOM     19  C   UNL     1     173.882 165.491 176.588  1.00  0.00     0.278 C 
ENDBRANCH  13  18
BRANCH  14  20
ATOM     20  O   UNL     1     173.969 163.061 173.372  1.00  0.00    -0.504 OA
ATOM     21  H   UNL     1     173.061 162.652 173.181  1.00  0.00     0.293 HD
ENDBRANCH  14  20
ENDBRANCH   1  12
BRANCH   2  22
ATOM     22  O   UNL     1     173.254 168.758 170.750  1.00  0.00    -0.502 OA
ATOM     23  H   UNL     1     172.883 169.127 169.882  1.00  0.00     0.293 HD
ENDBRANCH   2  22
BRANCH   6  24
ATOM     24  O   UNL     1     175.910 173.374 170.648  1.00  0.00    -0.507 OA
ATOM     25  H   UNL     1     176.426 173.671 169.835  1.00  0.00     0.293 HD
ENDBRANCH   6  24
BRANCH   8  26
ATOM     26  O   UNL     1     179.109 172.606 174.124  1.00  0.00    -0.508 OA
ATOM     27  H   UNL     1     179.571 173.479 173.899  1.00  0.00     0.293 HD
ENDBRANCH   8  26
TORSDOF 6
ENDMDL
MODEL 7
REMARK VINA RESULT:    -5.340      3.434      6.886
REMARK INTER + INTRA:          -6.940
REMARK INTER:                  -6.683
REMARK INTRA:                  -0.257
REMARK UNBOUND:                -0.352
REMARK SMILES COc1cc(-c2oc3cc(O)cc(O)c3c(=O)c2O)ccc1O
REMARK SMILES IDX 6 1 18 2 16 3 17 4 15 5 13 6 12 7 10 8 9 9 8 10 7 11 5 12
REMARK SMILES IDX 3 13 22 14 4 15 21 16 20 17 2 18 1 19 23 20 19 22 14 24
REMARK SMILES IDX 11 26
REMARK H PARENT 23 21 19 23 14 25 11 27
REMARK Flexibility Score: inf
ROOT
ATOM      1  C   UNL     1     175.238 167.872 172.713  1.00  0.00     0.180 A 
ATOM      2  C   UNL     1     175.244 166.828 171.773  1.00  0.00     0.208 A 
ATOM      3  C   UNL     1     174.852 165.543 172.180  1.00  0.00     0.238 A 
ATOM      4  O   UNL     1     174.912 164.600 171.347  1.00  0.00    -0.285 OA
ATOM      5  C   UNL     1     174.442 165.321 173.516  1.00  0.00     0.111 A 
ATOM      6  C   UNL     1     173.986 164.069 174.028  1.00  0.00     0.134 A 
ATOM      7  C   UNL     1     173.730 163.934 175.398  1.00  0.00     0.093 A 
ATOM      8  C   UNL     1     173.850 165.021 176.263  1.00  0.00     0.123 A 
ATOM      9  C   UNL     1     174.238 166.265 175.764  1.00  0.00     0.094 A 
ATOM     10  C   UNL     1     174.535 166.422 174.408  1.00  0.00     0.146 A 
ATOM     11  O   UNL     1     174.911 167.619 173.975  1.00  0.00    -0.452 OA
ENDROOT
BRANCH   1  12
ATOM     12  C   UNL     1     175.615 169.259 172.354  1.00  0.00     0.025 A 
ATOM     13  C   UNL     1     177.191 171.120 172.535  1.00  0.00     0.161 A 
ATOM     14  C   UNL     1     176.337 171.909 171.744  1.00  0.00     0.157 A 
ATOM     15  C   UNL     1     176.817 169.796 172.842  1.00  0.00     0.062 A 
ATOM     16  C   UNL     1     175.130 171.380 171.275  1.00  0.00     0.051 A 
ATOM     17  C   UNL     1     174.767 170.069 171.582  1.00  0.00     0.016 A 
BRANCH  13  18
ATOM     18  O   UNL     1     178.394 171.679 172.998  1.00  0.00    -0.493 OA
ATOM     19  C   UNL     1     178.495 172.579 174.098  1.00  0.00     0.278 C 
ENDBRANCH  13  18
BRANCH  14  20
ATOM     20  O   UNL     1     176.668 173.223 171.415  1.00  0.00    -0.504 OA
ATOM     21  H   UNL     1     177.589 173.608 171.589  1.00  0.00     0.293 HD
ENDBRANCH  14  20
ENDBRANCH   1  12
BRANCH   2  22
ATOM     22  O   UNL     1     175.674 167.063 170.464  1.00  0.00    -0.502 OA
ATOM     23  H   UNL     1     176.386 167.748 170.240  1.00  0.00     0.293 HD
ENDBRANCH   2  22
BRANCH   6  24
ATOM     24  O   UNL     1     173.743 162.943 173.234  1.00  0.00    -0.507 OA
ATOM     25  H   UNL     1     173.829 161.989 173.548  1.00  0.00     0.293 HD
ENDBRANCH   6  24
BRANCH   8  26
ATOM     26  O   UNL     1     173.572 164.855 177.618  1.00  0.00    -0.508 OA
ATOM     27  H   UNL     1     173.238 163.972 177.987  1.00  0.00     0.293 HD
ENDBRANCH   8  26
TORSDOF 6
ENDMDL
MODEL 8
REMARK VINA RESULT:    -5.320      2.998      5.220
REMARK INTER + INTRA:          -6.915
REMARK INTER:                  -6.560
REMARK INTRA:                  -0.355
REMARK UNBOUND:                -0.352
REMARK SMILES COc1cc(-c2oc3cc(O)cc(O)c3c(=O)c2O)ccc1O
REMARK SMILES IDX 6 1 18 2 16 3 17 4 15 5 13 6 12 7 10 8 9 9 8 10 7 11 5 12
REMARK SMILES IDX 3 13 22 14 4 15 21 16 20 17 2 18 1 19 23 20 19 22 14 24
REMARK SMILES IDX 11 26
REMARK H PARENT 23 21 19 23 14 25 11 27
REMARK Flexibility Score: inf
ROOT
ATOM      1  C   UNL     1     173.944 169.529 172.320  1.00  0.00     0.180 A 
ATOM      2  C   UNL     1     174.702 169.009 171.257  1.00  0.00     0.208 A 
ATOM      3  C   UNL     1     175.983 169.531 171.016  1.00  0.00     0.238 A 
ATOM      4  O   UNL     1     176.636 169.099 170.029  1.00  0.00    -0.285 OA
ATOM      5  C   UNL     1     176.497 170.552 171.849  1.00  0.00     0.111 A 
ATOM      6  C   UNL     1     177.798 171.126 171.722  1.00  0.00     0.134 A 
ATOM      7  C   UNL     1     178.152 172.221 172.521  1.00  0.00     0.093 A 
ATOM      8  C   UNL     1     177.278 172.720 173.485  1.00  0.00     0.123 A 
ATOM      9  C   UNL     1     176.026 172.130 173.659  1.00  0.00     0.094 A 
ATOM     10  C   UNL     1     175.631 171.059 172.854  1.00  0.00     0.146 A 
ATOM     11  O   UNL     1     174.428 170.532 173.044  1.00  0.00    -0.452 OA
ENDROOT
BRANCH   1  12
ATOM     12  C   UNL     1     172.595 169.014 172.651  1.00  0.00     0.025 A 
ATOM     13  C   UNL     1     171.199 167.274 173.652  1.00  0.00     0.161 A 
ATOM     14  C   UNL     1     170.049 167.974 173.244  1.00  0.00     0.157 A 
ATOM     15  C   UNL     1     172.470 167.799 173.343  1.00  0.00     0.062 A 
ATOM     16  C   UNL     1     170.174 169.174 172.537  1.00  0.00     0.051 A 
ATOM     17  C   UNL     1     171.436 169.688 172.236  1.00  0.00     0.016 A 
BRANCH  13  18
ATOM     18  O   UNL     1     171.043 166.067 174.354  1.00  0.00    -0.493 OA
ATOM     19  C   UNL     1     171.957 165.577 175.330  1.00  0.00     0.278 C 
ENDBRANCH  13  18
BRANCH  14  20
ATOM     20  O   UNL     1     168.772 167.492 173.529  1.00  0.00    -0.504 OA
ATOM     21  H   UNL     1     168.062 167.386 172.813  1.00  0.00     0.293 HD
ENDBRANCH  14  20
ENDBRANCH   1  12
BRANCH   2  22
ATOM     22  O   UNL     1     174.168 168.016 170.432  1.00  0.00    -0.502 OA
ATOM     23  H   UNL     1     173.242 168.086 170.026  1.00  0.00     0.293 HD
ENDBRANCH   2  22
BRANCH   6  24
ATOM     24  O   UNL     1     178.782 170.643 170.853  1.00  0.00    -0.507 OA
ATOM     25  H   UNL     1     178.762 169.740 170.408  1.00  0.00     0.293 HD
ENDBRANCH   6  24
BRANCH   8  26
ATOM     26  O   UNL     1     177.668 173.801 174.272  1.00  0.00    -0.508 OA
ATOM     27  H   UNL     1     177.533 174.758 173.965  1.00  0.00     0.293 HD
ENDBRANCH   8  26
TORSDOF 6
ENDMDL
MODEL 9
REMARK VINA RESULT:    -5.299      3.863      6.644
REMARK INTER + INTRA:          -6.890
REMARK INTER:                  -6.716
REMARK INTRA:                  -0.174
REMARK UNBOUND:                -0.352
REMARK SMILES COc1cc(-c2oc3cc(O)cc(O)c3c(=O)c2O)ccc1O
REMARK SMILES IDX 6 1 18 2 16 3 17 4 15 5 13 6 12 7 10 8 9 9 8 10 7 11 5 12
REMARK SMILES IDX 3 13 22 14 4 15 21 16 20 17 2 18 1 19 23 20 19 22 14 24
REMARK SMILES IDX 11 26
REMARK H PARENT 23 21 19 23 14 25 11 27
REMARK Flexibility Score: inf
ROOT
ATOM      1  C   UNL     1     173.949 170.343 169.698  1.00  0.00     0.180 A 
ATOM      2  C   UNL     1     172.637 169.897 169.936  1.00  0.00     0.208 A 
ATOM      3  C   UNL     1     171.750 169.784 168.854  1.00  0.00     0.238 A 
ATOM      4  O   UNL     1     170.561 169.436 169.081  1.00  0.00    -0.285 OA
ATOM      5  C   UNL     1     172.189 170.101 167.546  1.00  0.00     0.111 A 
ATOM      6  C   UNL     1     171.388 169.984 166.371  1.00  0.00     0.134 A 
ATOM      7  C   UNL     1     171.884 170.449 165.146  1.00  0.00     0.093 A 
ATOM      8  C   UNL     1     173.175 170.966 165.044  1.00  0.00     0.123 A 
ATOM      9  C   UNL     1     173.988 171.031 166.174  1.00  0.00     0.094 A 
ATOM     10  C   UNL     1     173.509 170.607 167.416  1.00  0.00     0.146 A 
ATOM     11  O   UNL     1     174.311 170.695 168.470  1.00  0.00    -0.452 OA
ENDROOT
BRANCH   1  12
ATOM     12  C   UNL     1     174.948 170.466 170.784  1.00  0.00     0.025 A 
ATOM     13  C   UNL     1     176.235 169.421 172.582  1.00  0.00     0.161 A 
ATOM     14  C   UNL     1     176.798 170.672 172.895  1.00  0.00     0.157 A 
ATOM     15  C   UNL     1     175.304 169.329 171.528  1.00  0.00     0.062 A 
ATOM     16  C   UNL     1     176.427 171.807 172.168  1.00  0.00     0.051 A 
ATOM     17  C   UNL     1     175.505 171.709 171.125  1.00  0.00     0.016 A 
BRANCH  13  18
ATOM     18  O   UNL     1     176.620 168.298 173.334  1.00  0.00    -0.493 OA
ATOM     19  C   UNL     1     175.786 167.172 173.589  1.00  0.00     0.278 C 
ENDBRANCH  13  18
BRANCH  14  20
ATOM     20  O   UNL     1     177.724 170.808 173.929  1.00  0.00    -0.504 OA
ATOM     21  H   UNL     1     177.489 170.607 174.895  1.00  0.00     0.293 HD
ENDBRANCH  14  20
ENDBRANCH   1  12
BRANCH   2  22
ATOM     22  O   UNL     1     172.217 169.611 171.238  1.00  0.00    -0.502 OA
ATOM     23  H   UNL     1     172.065 168.664 171.564  1.00  0.00     0.293 HD
ENDBRANCH   2  22
BRANCH   6  24
ATOM     24  O   UNL     1     170.118 169.396 166.347  1.00  0.00    -0.507 OA
ATOM     25  H   UNL     1     169.373 169.664 165.724  1.00  0.00     0.293 HD
ENDBRANCH   6  24
BRANCH   8  26
ATOM     26  O   UNL     1     173.641 171.406 163.807  1.00  0.00    -0.508 OA
ATOM     27  H   UNL     1     173.211 171.106 162.939  1.00  0.00     0.293 HD
ENDBRANCH   8  26
TORSDOF 6
ENDMDL
