MODEL 1
REMARK VINA RESULT:    -6.461      0.000      0.000
REMARK INTER + INTRA:         -10.380
REMARK INTER:                  -9.106
REMARK INTRA:                  -1.274
REMARK UNBOUND:                -1.274
REMARK SMILES COc1c(O[C@H]2O[C@H](C(=O)[O-])[C@H](O)[C@@H](O)[C@@H]2O)cc(O)c2c(=O)cc(-c3ccccc3)oc12
REMARK SMILES IDX 5 1 6 2 8 3 12 4 7 5 14 6 16 7 9 8 10 9 11 10 13 11 15 13
REMARK SMILES IDX 17 15 4 17 3 18 18 19 33 20 19 21 21 22 32 23 22 24 25 25
REMARK SMILES IDX 24 26 23 27 2 28 1 29 20 30 26 32 27 33 31 34 28 35 30 36
REMARK SMILES IDX 29 37
REMARK H PARENT 13 12 15 14 17 16 20 31
REMARK Flexibility Score: inf
ROOT
ATOM      1  O   UNL     1      43.617  16.584  -3.422  1.00  0.00    -0.458 OA
ENDROOT
BRANCH   1   2
ATOM      2  C   UNL     1      43.241  17.425  -2.323  1.00  0.00     0.339 C 
ATOM      3  C   UNL     1      42.395  19.088  -3.747  1.00  0.00     0.199 C 
ATOM      4  C   UNL     1      40.938  18.899  -3.274  1.00  0.00     0.180 C 
ATOM      5  O   UNL     1      43.308  18.791  -2.703  1.00  0.00    -0.328 OA
ATOM      6  C   UNL     1      40.737  17.455  -2.786  1.00  0.00     0.181 C 
ATOM      7  C   UNL     1      41.838  17.057  -1.782  1.00  0.00     0.214 C 
BRANCH   3   8
ATOM      8  C   UNL     1      42.618  20.500  -4.206  1.00  0.00     0.073 C 
ATOM      9  O   UNL     1      43.771  20.879  -4.543  1.00  0.00    -0.547 OA
ATOM     10  O   UNL     1      41.547  21.382  -4.310  1.00  0.00    -0.547 OA
ENDBRANCH   3   8
BRANCH   4  11
ATOM     11  O   UNL     1      40.641  19.790  -2.225  1.00  0.00    -0.387 OA
ATOM     12  H   UNL     1      41.005  20.677  -2.486  1.00  0.00     0.211 HD
ENDBRANCH   4  11
BRANCH   6  13
ATOM     13  O   UNL     1      40.752  16.587  -3.891  1.00  0.00    -0.387 OA
ATOM     14  H   UNL     1      40.297  15.751  -3.609  1.00  0.00     0.211 HD
ENDBRANCH   6  13
BRANCH   7  15
ATOM     15  O   UNL     1      41.616  17.713  -0.560  1.00  0.00    -0.384 OA
ATOM     16  H   UNL     1      41.371  18.650  -0.779  1.00  0.00     0.211 HD
ENDBRANCH   7  15
ENDBRANCH   1   2
BRANCH   1  17
ATOM     17  C   UNL     1      44.539  15.523  -3.381  1.00  0.00     0.172 A 
ATOM     18  C   UNL     1      45.827  15.757  -3.885  1.00  0.00     0.205 A 
ATOM     19  C   UNL     1      44.212  14.265  -2.847  1.00  0.00     0.097 A 
ATOM     20  C   UNL     1      46.796  14.722  -3.843  1.00  0.00     0.188 A 
ATOM     21  C   UNL     1      45.158  13.237  -2.796  1.00  0.00     0.134 A 
ATOM     22  C   UNL     1      46.462  13.459  -3.289  1.00  0.00     0.111 A 
ATOM     23  O   UNL     1      48.024  14.931  -4.312  1.00  0.00    -0.452 OA
ATOM     24  C   UNL     1      47.464  12.467  -3.253  1.00  0.00     0.197 A 
ATOM     25  C   UNL     1      48.993  14.019  -4.283  1.00  0.00     0.138 A 
ATOM     26  C   UNL     1      48.733  12.752  -3.750  1.00  0.00     0.100 A 
ATOM     27  O   UNL     1      47.239  11.320  -2.780  1.00  0.00    -0.289 OA
BRANCH  18  28
ATOM     28  O   UNL     1      46.076  17.041  -4.405  1.00  0.00    -0.490 OA
ATOM     29  C   UNL     1      45.998  17.432  -5.772  1.00  0.00     0.278 C 
ENDBRANCH  18  28
BRANCH  21  30
ATOM     30  O   UNL     1      44.796  12.004  -2.251  1.00  0.00    -0.507 OA
ATOM     31  H   UNL     1      44.657  11.184  -2.829  1.00  0.00     0.293 HD
ENDBRANCH  21  30
BRANCH  25  32
ATOM     32  C   UNL     1      50.326  14.370  -4.827  1.00  0.00     0.017 A 
ATOM     33  C   UNL     1      51.164  13.359  -5.328  1.00  0.00     0.012 A 
ATOM     34  C   UNL     1      50.769  15.708  -4.877  1.00  0.00     0.012 A 
ATOM     35  C   UNL     1      52.420  13.674  -5.856  1.00  0.00     0.001 A 
ATOM     36  C   UNL     1      52.025  16.017  -5.407  1.00  0.00     0.001 A 
ATOM     37  C   UNL     1      52.851  15.002  -5.895  1.00  0.00     0.000 A 
ENDBRANCH  25  32
ENDBRANCH   1  17
TORSDOF 9
ENDMDL
MODEL 2
REMARK VINA RESULT:    -5.832      1.079      1.937
REMARK INTER + INTRA:          -9.493
REMARK INTER:                  -8.235
REMARK INTRA:                  -1.258
REMARK UNBOUND:                -1.274
REMARK SMILES COc1c(O[C@H]2O[C@H](C(=O)[O-])[C@H](O)[C@@H](O)[C@@H]2O)cc(O)c2c(=O)cc(-c3ccccc3)oc12
REMARK SMILES IDX 5 1 6 2 8 3 12 4 7 5 14 6 16 7 9 8 10 9 11 10 13 11 15 13
REMARK SMILES IDX 17 15 4 17 3 18 18 19 33 20 19 21 21 22 32 23 22 24 25 25
REMARK SMILES IDX 24 26 23 27 2 28 1 29 20 30 26 32 27 33 31 34 28 35 30 36
REMARK SMILES IDX 29 37
REMARK H PARENT 13 12 15 14 17 16 20 31
REMARK Flexibility Score: inf
ROOT
ATOM      1  O   UNL     1      44.156  16.981  -3.345  1.00  0.00    -0.458 OA
ENDROOT
BRANCH   1   2
ATOM      2  C   UNL     1      42.756  16.991  -3.654  1.00  0.00     0.339 C 
ATOM      3  C   UNL     1      42.440  19.088  -2.649  1.00  0.00     0.199 C 
ATOM      4  C   UNL     1      42.090  19.791  -3.977  1.00  0.00     0.180 C 
ATOM      5  O   UNL     1      42.040  17.728  -2.675  1.00  0.00    -0.328 OA
ATOM      6  C   UNL     1      42.772  19.057  -5.144  1.00  0.00     0.181 C 
ATOM      7  C   UNL     1      42.494  17.542  -5.077  1.00  0.00     0.214 C 
BRANCH   3   8
ATOM      8  C   UNL     1      41.763  19.776  -1.499  1.00  0.00     0.073 C 
ATOM      9  O   UNL     1      42.442  20.448  -0.677  1.00  0.00    -0.547 OA
ATOM     10  O   UNL     1      40.380  19.720  -1.362  1.00  0.00    -0.547 OA
ENDBRANCH   3   8
BRANCH   4  11
ATOM     11  O   UNL     1      40.697  19.793  -4.182  1.00  0.00    -0.387 OA
ATOM     12  H   UNL     1      40.337  18.980  -3.738  1.00  0.00     0.211 HD
ENDBRANCH   4  11
BRANCH   6  13
ATOM     13  O   UNL     1      44.157  19.298  -5.095  1.00  0.00    -0.387 OA
ATOM     14  H   UNL     1      44.604  18.487  -5.452  1.00  0.00     0.211 HD
ENDBRANCH   6  13
BRANCH   7  15
ATOM     15  O   UNL     1      41.159  17.296  -5.441  1.00  0.00    -0.384 OA
ATOM     16  H   UNL     1      40.906  17.999  -6.094  1.00  0.00     0.211 HD
ENDBRANCH   7  15
ENDBRANCH   1   2
BRANCH   1  17
ATOM     17  C   UNL     1      44.993  15.852  -3.313  1.00  0.00     0.172 A 
ATOM     18  C   UNL     1      46.278  15.976  -3.861  1.00  0.00     0.205 A 
ATOM     19  C   UNL     1      44.587  14.633  -2.745  1.00  0.00     0.097 A 
ATOM     20  C   UNL     1      47.164  14.869  -3.830  1.00  0.00     0.188 A 
ATOM     21  C   UNL     1      45.452  13.535  -2.704  1.00  0.00     0.134 A 
ATOM     22  C   UNL     1      46.752  13.645  -3.242  1.00  0.00     0.111 A 
ATOM     23  O   UNL     1      48.389  14.973  -4.342  1.00  0.00    -0.452 OA
ATOM     24  C   UNL     1      47.674  12.579  -3.219  1.00  0.00     0.197 A 
ATOM     25  C   UNL     1      49.285  13.990  -4.326  1.00  0.00     0.138 A 
ATOM     26  C   UNL     1      48.945  12.755  -3.761  1.00  0.00     0.100 A 
ATOM     27  O   UNL     1      47.377  11.461  -2.717  1.00  0.00    -0.289 OA
BRANCH  18  28
ATOM     28  O   UNL     1      46.609  17.228  -4.414  1.00  0.00    -0.490 OA
ATOM     29  C   UNL     1      46.884  17.505  -5.782  1.00  0.00     0.278 C 
ENDBRANCH  18  28
BRANCH  21  30
ATOM     30  O   UNL     1      45.013  12.343  -2.124  1.00  0.00    -0.507 OA
ATOM     31  H   UNL     1      44.088  11.970  -2.302  1.00  0.00     0.293 HD
ENDBRANCH  21  30
BRANCH  25  32
ATOM     32  C   UNL     1      50.623  14.226  -4.918  1.00  0.00     0.017 A 
ATOM     33  C   UNL     1      51.404  13.135  -5.335  1.00  0.00     0.012 A 
ATOM     34  C   UNL     1      51.125  15.531  -5.097  1.00  0.00     0.012 A 
ATOM     35  C   UNL     1      52.664  13.341  -5.908  1.00  0.00     0.001 A 
ATOM     36  C   UNL     1      52.384  15.731  -5.671  1.00  0.00     0.001 A 
ATOM     37  C   UNL     1      53.154  14.638  -6.075  1.00  0.00     0.000 A 
ENDBRANCH  25  32
ENDBRANCH   1  17
TORSDOF 9
ENDMDL
MODEL 3
REMARK VINA RESULT:    -5.694      1.142      2.691
REMARK INTER + INTRA:          -9.298
REMARK INTER:                  -7.983
REMARK INTRA:                  -1.316
REMARK UNBOUND:                -1.274
REMARK SMILES COc1c(O[C@H]2O[C@H](C(=O)[O-])[C@H](O)[C@@H](O)[C@@H]2O)cc(O)c2c(=O)cc(-c3ccccc3)oc12
REMARK SMILES IDX 5 1 6 2 8 3 12 4 7 5 14 6 16 7 9 8 10 9 11 10 13 11 15 13
REMARK SMILES IDX 17 15 4 17 3 18 18 19 33 20 19 21 21 22 32 23 22 24 25 25
REMARK SMILES IDX 24 26 23 27 2 28 1 29 20 30 26 32 27 33 31 34 28 35 30 36
REMARK SMILES IDX 29 37
REMARK H PARENT 13 12 15 14 17 16 20 31
REMARK Flexibility Score: inf
ROOT
ATOM      1  O   UNL     1      44.208  16.722  -3.249  1.00  0.00    -0.458 OA
ENDROOT
BRANCH   1   2
ATOM      2  C   UNL     1      43.238  17.065  -4.248  1.00  0.00     0.339 C 
ATOM      3  C   UNL     1      41.444  16.743  -2.770  1.00  0.00     0.199 C 
ATOM      4  C   UNL     1      41.037  18.232  -2.773  1.00  0.00     0.180 C 
ATOM      5  O   UNL     1      42.021  16.374  -4.012  1.00  0.00    -0.328 OA
ATOM      6  C   UNL     1      42.269  19.103  -3.068  1.00  0.00     0.181 C 
ATOM      7  C   UNL     1      43.014  18.595  -4.319  1.00  0.00     0.214 C 
BRANCH   3   8
ATOM      8  C   UNL     1      40.248  15.874  -2.508  1.00  0.00     0.073 C 
ATOM      9  O   UNL     1      39.198  16.374  -2.023  1.00  0.00    -0.547 OA
ATOM     10  O   UNL     1      40.274  14.524  -2.844  1.00  0.00    -0.547 OA
ENDBRANCH   3   8
BRANCH   4  11
ATOM     11  O   UNL     1      40.054  18.472  -3.752  1.00  0.00    -0.387 OA
ATOM     12  H   UNL     1      39.996  17.653  -4.313  1.00  0.00     0.211 HD
ENDBRANCH   4  11
BRANCH   6  13
ATOM     13  O   UNL     1      43.126  19.084  -1.953  1.00  0.00    -0.387 OA
ATOM     14  H   UNL     1      43.327  18.132  -1.759  1.00  0.00     0.211 HD
ENDBRANCH   6  13
BRANCH   7  15
ATOM     15  O   UNL     1      42.268  18.911  -5.467  1.00  0.00    -0.384 OA
ATOM     16  H   UNL     1      41.962  18.050  -5.855  1.00  0.00     0.211 HD
ENDBRANCH   7  15
ENDBRANCH   1   2
BRANCH   1  17
ATOM     17  C   UNL     1      45.065  15.607  -3.268  1.00  0.00     0.172 A 
ATOM     18  C   UNL     1      46.340  15.774  -3.828  1.00  0.00     0.205 A 
ATOM     19  C   UNL     1      44.688  14.362  -2.739  1.00  0.00     0.097 A 
ATOM     20  C   UNL     1      47.246  14.683  -3.848  1.00  0.00     0.188 A 
ATOM     21  C   UNL     1      45.572  13.279  -2.748  1.00  0.00     0.134 A 
ATOM     22  C   UNL     1      46.864  13.432  -3.299  1.00  0.00     0.111 A 
ATOM     23  O   UNL     1      48.462  14.828  -4.371  1.00  0.00    -0.452 OA
ATOM     24  C   UNL     1      47.804  12.382  -3.326  1.00  0.00     0.197 A 
ATOM     25  C   UNL     1      49.375  13.860  -4.402  1.00  0.00     0.138 A 
ATOM     26  C   UNL     1      49.064  12.600  -3.878  1.00  0.00     0.100 A 
ATOM     27  O   UNL     1      47.533  11.241  -2.861  1.00  0.00    -0.289 OA
BRANCH  18  28
ATOM     28  O   UNL     1      46.641  17.051  -4.339  1.00  0.00    -0.490 OA
ATOM     29  C   UNL     1      46.657  17.433  -5.710  1.00  0.00     0.278 C 
ENDBRANCH  18  28
BRANCH  21  30
ATOM     30  O   UNL     1      45.163  12.059  -2.207  1.00  0.00    -0.507 OA
ATOM     31  H   UNL     1      45.388  11.794  -1.255  1.00  0.00     0.293 HD
ENDBRANCH  21  30
BRANCH  25  32
ATOM     32  C   UNL     1      50.700  14.142  -5.003  1.00  0.00     0.017 A 
ATOM     33  C   UNL     1      51.146  15.470  -5.118  1.00  0.00     0.012 A 
ATOM     34  C   UNL     1      51.542  13.100  -5.442  1.00  0.00     0.012 A 
ATOM     35  C   UNL     1      52.400  15.752  -5.670  1.00  0.00     0.001 A 
ATOM     36  C   UNL     1      52.795  13.388  -5.992  1.00  0.00     0.001 A 
ATOM     37  C   UNL     1      53.223  14.713  -6.108  1.00  0.00     0.000 A 
ENDBRANCH  25  32
ENDBRANCH   1  17
TORSDOF 9
ENDMDL
MODEL 4
REMARK VINA RESULT:    -5.275      1.427      1.758
REMARK INTER + INTRA:          -8.707
REMARK INTER:                  -7.589
REMARK INTRA:                  -1.118
REMARK UNBOUND:                -1.274
REMARK SMILES COc1c(O[C@H]2O[C@H](C(=O)[O-])[C@H](O)[C@@H](O)[C@@H]2O)cc(O)c2c(=O)cc(-c3ccccc3)oc12
REMARK SMILES IDX 5 1 6 2 8 3 12 4 7 5 14 6 16 7 9 8 10 9 11 10 13 11 15 13
REMARK SMILES IDX 17 15 4 17 3 18 18 19 33 20 19 21 21 22 32 23 22 24 25 25
REMARK SMILES IDX 24 26 23 27 2 28 1 29 20 30 26 32 27 33 31 34 28 35 30 36
REMARK SMILES IDX 29 37
REMARK H PARENT 13 12 15 14 17 16 20 31
REMARK Flexibility Score: inf
ROOT
ATOM      1  O   UNL     1      42.176  16.471  -3.458  1.00  0.00    -0.458 OA
ENDROOT
BRANCH   1   2
ATOM      2  C   UNL     1      41.316  16.730  -2.340  1.00  0.00     0.339 C 
ATOM      3  C   UNL     1      41.671  19.047  -2.466  1.00  0.00     0.199 C 
ATOM      4  C   UNL     1      40.209  19.356  -2.850  1.00  0.00     0.180 C 
ATOM      5  O   UNL     1      41.745  17.892  -1.646  1.00  0.00    -0.328 OA
ATOM      6  C   UNL     1      39.599  18.146  -3.577  1.00  0.00     0.181 C 
ATOM      7  C   UNL     1      39.836  16.849  -2.778  1.00  0.00     0.214 C 
BRANCH   3   8
ATOM      8  C   UNL     1      42.277  20.208  -1.733  1.00  0.00     0.073 C 
ATOM      9  O   UNL     1      43.248  20.835  -2.235  1.00  0.00    -0.547 OA
ATOM     10  O   UNL     1      41.741  20.631  -0.522  1.00  0.00    -0.547 OA
ENDBRANCH   3   8
BRANCH   4  11
ATOM     11  O   UNL     1      39.447  19.639  -1.701  1.00  0.00    -0.387 OA
ATOM     12  H   UNL     1      38.685  19.001  -1.693  1.00  0.00     0.211 HD
ENDBRANCH   4  11
BRANCH   6  13
ATOM     13  O   UNL     1      40.172  18.039  -4.857  1.00  0.00    -0.387 OA
ATOM     14  H   UNL     1      39.484  17.638  -5.449  1.00  0.00     0.211 HD
ENDBRANCH   6  13
BRANCH   7  15
ATOM     15  O   UNL     1      39.005  16.840  -1.646  1.00  0.00    -0.384 OA
ATOM     16  H   UNL     1      39.173  17.689  -1.160  1.00  0.00     0.211 HD
ENDBRANCH   7  15
ENDBRANCH   1   2
BRANCH   1  17
ATOM     17  C   UNL     1      43.198  15.508  -3.517  1.00  0.00     0.172 A 
ATOM     18  C   UNL     1      44.467  15.927  -3.943  1.00  0.00     0.205 A 
ATOM     19  C   UNL     1      42.988  14.167  -3.152  1.00  0.00     0.097 A 
ATOM     20  C   UNL     1      45.533  14.994  -3.996  1.00  0.00     0.188 A 
ATOM     21  C   UNL     1      44.031  13.238  -3.195  1.00  0.00     0.134 A 
ATOM     22  C   UNL     1      45.317  13.644  -3.613  1.00  0.00     0.111 A 
ATOM     23  O   UNL     1      46.744  15.378  -4.394  1.00  0.00    -0.452 OA
ATOM     24  C   UNL     1      46.411  12.757  -3.666  1.00  0.00     0.197 A 
ATOM     25  C   UNL     1      47.799  14.568  -4.445  1.00  0.00     0.138 A 
ATOM     26  C   UNL     1      47.656  13.224  -4.081  1.00  0.00     0.100 A 
ATOM     27  O   UNL     1      46.293  11.544  -3.345  1.00  0.00    -0.289 OA
BRANCH  18  28
ATOM     28  O   UNL     1      44.597  17.284  -4.293  1.00  0.00    -0.490 OA
ATOM     29  C   UNL     1      45.030  17.799  -5.548  1.00  0.00     0.278 C 
ENDBRANCH  18  28
BRANCH  21  30
ATOM     30  O   UNL     1      43.783  11.916  -2.819  1.00  0.00    -0.507 OA
ATOM     31  H   UNL     1      43.296  11.687  -1.960  1.00  0.00     0.293 HD
ENDBRANCH  21  30
BRANCH  25  32
ATOM     32  C   UNL     1      49.102  15.112  -4.896  1.00  0.00     0.017 A 
ATOM     33  C   UNL     1      50.292  14.454  -4.542  1.00  0.00     0.012 A 
ATOM     34  C   UNL     1      49.175  16.269  -5.698  1.00  0.00     0.012 A 
ATOM     35  C   UNL     1      51.530  14.947  -4.970  1.00  0.00     0.001 A 
ATOM     36  C   UNL     1      50.415  16.756  -6.124  1.00  0.00     0.001 A 
ATOM     37  C   UNL     1      51.591  16.097  -5.759  1.00  0.00     0.000 A 
ENDBRANCH  25  32
ENDBRANCH   1  17
TORSDOF 9
ENDMDL
MODEL 5
REMARK VINA RESULT:    -5.240      2.483      8.626
REMARK INTER + INTRA:          -8.659
REMARK INTER:                  -7.074
REMARK INTRA:                  -1.584
REMARK UNBOUND:                -1.274
REMARK SMILES COc1c(O[C@H]2O[C@H](C(=O)[O-])[C@H](O)[C@@H](O)[C@@H]2O)cc(O)c2c(=O)cc(-c3ccccc3)oc12
REMARK SMILES IDX 5 1 6 2 8 3 12 4 7 5 14 6 16 7 9 8 10 9 11 10 13 11 15 13
REMARK SMILES IDX 17 15 4 17 3 18 18 19 33 20 19 21 21 22 32 23 22 24 25 25
REMARK SMILES IDX 24 26 23 27 2 28 1 29 20 30 26 32 27 33 31 34 28 35 30 36
REMARK SMILES IDX 29 37
REMARK H PARENT 13 12 15 14 17 16 20 31
REMARK Flexibility Score: inf
ROOT
ATOM      1  O   UNL     1      45.397  13.531  -4.207  1.00  0.00    -0.458 OA
ENDROOT
BRANCH   1   2
ATOM      2  C   UNL     1      46.075  12.303  -3.905  1.00  0.00     0.339 C 
ATOM      3  C   UNL     1      48.179  13.222  -4.391  1.00  0.00     0.199 C 
ATOM      4  C   UNL     1      48.679  13.115  -2.936  1.00  0.00     0.180 C 
ATOM      5  O   UNL     1      47.255  12.187  -4.686  1.00  0.00    -0.328 OA
ATOM      6  C   UNL     1      47.482  13.181  -1.973  1.00  0.00     0.181 C 
ATOM      7  C   UNL     1      46.384  12.183  -2.393  1.00  0.00     0.214 C 
BRANCH   3   8
ATOM      8  C   UNL     1      49.332  13.135  -5.349  1.00  0.00     0.073 C 
ATOM      9  O   UNL     1      49.733  14.168  -5.949  1.00  0.00    -0.547 OA
ATOM     10  O   UNL     1      49.997  11.929  -5.541  1.00  0.00    -0.547 OA
ENDBRANCH   3   8
BRANCH   4  11
ATOM     11  O   UNL     1      49.368  11.903  -2.738  1.00  0.00    -0.387 OA
ATOM     12  H   UNL     1      50.008  12.050  -1.992  1.00  0.00     0.211 HD
ENDBRANCH   4  11
BRANCH   6  13
ATOM     13  O   UNL     1      46.969  14.490  -1.962  1.00  0.00    -0.387 OA
ATOM     14  H   UNL     1      46.443  14.601  -2.796  1.00  0.00     0.211 HD
ENDBRANCH   6  13
BRANCH   7  15
ATOM     15  O   UNL     1      46.805  10.875  -2.100  1.00  0.00    -0.384 OA
ATOM     16  H   UNL     1      47.688  10.753  -2.535  1.00  0.00     0.211 HD
ENDBRANCH   7  15
ENDBRANCH   1   2
BRANCH   1  17
ATOM     17  C   UNL     1      44.058  13.838  -3.906  1.00  0.00     0.172 A 
ATOM     18  C   UNL     1      43.788  15.091  -3.339  1.00  0.00     0.205 A 
ATOM     19  C   UNL     1      43.007  12.944  -4.168  1.00  0.00     0.097 A 
ATOM     20  C   UNL     1      42.449  15.453  -3.041  1.00  0.00     0.188 A 
ATOM     21  C   UNL     1      41.682  13.289  -3.883  1.00  0.00     0.134 A 
ATOM     22  C   UNL     1      41.390  14.550  -3.321  1.00  0.00     0.111 A 
ATOM     23  O   UNL     1      42.176  16.642  -2.507  1.00  0.00    -0.452 OA
ATOM     24  C   UNL     1      40.075  14.961  -3.023  1.00  0.00     0.197 A 
ATOM     25  C   UNL     1      40.946  17.062  -2.224  1.00  0.00     0.138 A 
ATOM     26  C   UNL     1      39.854  16.222  -2.476  1.00  0.00     0.100 A 
ATOM     27  O   UNL     1      39.085  14.210  -3.240  1.00  0.00    -0.289 OA
BRANCH  18  28
ATOM     28  O   UNL     1      44.895  15.929  -3.105  1.00  0.00    -0.490 OA
ATOM     29  C   UNL     1      45.413  16.917  -3.989  1.00  0.00     0.278 C 
ENDBRANCH  18  28
BRANCH  21  30
ATOM     30  O   UNL     1      40.664  12.375  -4.164  1.00  0.00    -0.507 OA
ATOM     31  H   UNL     1      40.211  12.341  -5.069  1.00  0.00     0.293 HD
ENDBRANCH  21  30
BRANCH  25  32
ATOM     32  C   UNL     1      40.763  18.412  -1.640  1.00  0.00     0.017 A 
ATOM     33  C   UNL     1      39.484  18.992  -1.611  1.00  0.00     0.012 A 
ATOM     34  C   UNL     1      41.847  19.124  -1.087  1.00  0.00     0.012 A 
ATOM     35  C   UNL     1      39.292  20.260  -1.052  1.00  0.00     0.001 A 
ATOM     36  C   UNL     1      41.649  20.390  -0.528  1.00  0.00     0.001 A 
ATOM     37  C   UNL     1      40.374  20.959  -0.512  1.00  0.00     0.000 A 
ENDBRANCH  25  32
ENDBRANCH   1  17
TORSDOF 9
ENDMDL
MODEL 6
REMARK VINA RESULT:    -5.228      2.335      3.892
REMARK INTER + INTRA:          -8.641
REMARK INTER:                  -7.718
REMARK INTRA:                  -0.923
REMARK UNBOUND:                -1.274
REMARK SMILES COc1c(O[C@H]2O[C@H](C(=O)[O-])[C@H](O)[C@@H](O)[C@@H]2O)cc(O)c2c(=O)cc(-c3ccccc3)oc12
REMARK SMILES IDX 5 1 6 2 8 3 12 4 7 5 14 6 16 7 9 8 10 9 11 10 13 11 15 13
REMARK SMILES IDX 17 15 4 17 3 18 18 19 33 20 19 21 21 22 32 23 22 24 25 25
REMARK SMILES IDX 24 26 23 27 2 28 1 29 20 30 26 32 27 33 31 34 28 35 30 36
REMARK SMILES IDX 29 37
REMARK H PARENT 13 12 15 14 17 16 20 31
REMARK Flexibility Score: inf
ROOT
ATOM      1  O   UNL     1      41.685  16.793  -4.008  1.00  0.00    -0.458 OA
ENDROOT
BRANCH   1   2
ATOM      2  C   UNL     1      41.019  16.820  -2.738  1.00  0.00     0.339 C 
ATOM      3  C   UNL     1      41.089  19.164  -2.631  1.00  0.00     0.199 C 
ATOM      4  C   UNL     1      39.556  19.319  -2.723  1.00  0.00     0.180 C 
ATOM      5  O   UNL     1      41.437  17.950  -1.986  1.00  0.00    -0.328 OA
ATOM      6  C   UNL     1      38.961  18.122  -3.483  1.00  0.00     0.181 C 
ATOM      7  C   UNL     1      39.480  16.791  -2.903  1.00  0.00     0.214 C 
BRANCH   3   8
ATOM      8  C   UNL     1      41.687  20.312  -1.871  1.00  0.00     0.073 C 
ATOM      9  O   UNL     1      42.449  21.127  -2.455  1.00  0.00    -0.547 OA
ATOM     10  O   UNL     1      41.364  20.512  -0.533  1.00  0.00    -0.547 OA
ENDBRANCH   3   8
BRANCH   4  11
ATOM     11  O   UNL     1      38.990  19.380  -1.435  1.00  0.00    -0.387 OA
ATOM     12  H   UNL     1      38.197  18.779  -1.438  1.00  0.00     0.211 HD
ENDBRANCH   4  11
BRANCH   6  13
ATOM     13  O   UNL     1      39.300  18.223  -4.843  1.00  0.00    -0.387 OA
ATOM     14  H   UNL     1      39.882  17.448  -5.055  1.00  0.00     0.211 HD
ENDBRANCH   6  13
BRANCH   7  15
ATOM     15  O   UNL     1      38.875  16.556  -1.658  1.00  0.00    -0.384 OA
ATOM     16  H   UNL     1      38.308  15.748  -1.762  1.00  0.00     0.211 HD
ENDBRANCH   7  15
ENDBRANCH   1   2
BRANCH   1  17
ATOM     17  C   UNL     1      43.074  16.747  -4.219  1.00  0.00     0.172 A 
ATOM     18  C   UNL     1      43.778  15.652  -3.698  1.00  0.00     0.205 A 
ATOM     19  C   UNL     1      43.757  17.743  -4.937  1.00  0.00     0.097 A 
ATOM     20  C   UNL     1      45.177  15.553  -3.907  1.00  0.00     0.188 A 
ATOM     21  C   UNL     1      45.135  17.656  -5.154  1.00  0.00     0.134 A 
ATOM     22  C   UNL     1      45.858  16.556  -4.644  1.00  0.00     0.111 A 
ATOM     23  O   UNL     1      45.858  14.516  -3.422  1.00  0.00    -0.452 OA
ATOM     24  C   UNL     1      47.246  16.405  -4.841  1.00  0.00     0.197 A 
ATOM     25  C   UNL     1      47.165  14.341  -3.599  1.00  0.00     0.138 A 
ATOM     26  C   UNL     1      47.898  15.292  -4.318  1.00  0.00     0.100 A 
ATOM     27  O   UNL     1      47.917  17.259  -5.481  1.00  0.00    -0.289 OA
BRANCH  18  28
ATOM     28  O   UNL     1      43.023  14.698  -2.989  1.00  0.00    -0.490 OA
ATOM     29  C   UNL     1      42.550  13.451  -3.487  1.00  0.00     0.278 C 
ENDBRANCH  18  28
BRANCH  21  30
ATOM     30  O   UNL     1      45.776  18.664  -5.877  1.00  0.00    -0.507 OA
ATOM     31  H   UNL     1      46.232  18.478  -6.763  1.00  0.00     0.293 HD
ENDBRANCH  21  30
BRANCH  25  32
ATOM     32  C   UNL     1      47.814  13.140  -3.021  1.00  0.00     0.017 A 
ATOM     33  C   UNL     1      48.747  12.417  -3.782  1.00  0.00     0.012 A 
ATOM     34  C   UNL     1      47.533  12.717  -1.706  1.00  0.00     0.012 A 
ATOM     35  C   UNL     1      49.379  11.289  -3.247  1.00  0.00     0.001 A 
ATOM     36  C   UNL     1      48.168  11.590  -1.175  1.00  0.00     0.001 A 
ATOM     37  C   UNL     1      49.088  10.875  -1.945  1.00  0.00     0.000 A 
ENDBRANCH  25  32
ENDBRANCH   1  17
TORSDOF 9
ENDMDL
MODEL 7
REMARK VINA RESULT:    -5.223      2.419      8.464
REMARK INTER + INTRA:          -8.634
REMARK INTER:                  -7.842
REMARK INTRA:                  -0.791
REMARK UNBOUND:                -1.274
REMARK SMILES COc1c(O[C@H]2O[C@H](C(=O)[O-])[C@H](O)[C@@H](O)[C@@H]2O)cc(O)c2c(=O)cc(-c3ccccc3)oc12
REMARK SMILES IDX 5 1 6 2 8 3 12 4 7 5 14 6 16 7 9 8 10 9 11 10 13 11 15 13
REMARK SMILES IDX 17 15 4 17 3 18 18 19 33 20 19 21 21 22 32 23 22 24 25 25
REMARK SMILES IDX 24 26 23 27 2 28 1 29 20 30 26 32 27 33 31 34 28 35 30 36
REMARK SMILES IDX 29 37
REMARK H PARENT 13 12 15 14 17 16 20 31
REMARK Flexibility Score: inf
ROOT
ATOM      1  O   UNL     1      46.615  13.682  -4.493  1.00  0.00    -0.458 OA
ENDROOT
BRANCH   1   2
ATOM      2  C   UNL     1      47.759  13.726  -3.630  1.00  0.00     0.339 C 
ATOM      3  C   UNL     1      47.120  11.767  -2.506  1.00  0.00     0.199 C 
ATOM      4  C   UNL     1      48.329  10.955  -3.014  1.00  0.00     0.180 C 
ATOM      5  O   UNL     1      47.451  13.140  -2.374  1.00  0.00    -0.328 OA
ATOM      6  C   UNL     1      48.800  11.521  -4.364  1.00  0.00     0.181 C 
ATOM      7  C   UNL     1      48.989  13.049  -4.282  1.00  0.00     0.214 C 
BRANCH   3   8
ATOM      8  C   UNL     1      46.659  11.245  -1.176  1.00  0.00     0.073 C 
ATOM      9  O   UNL     1      45.464  10.875  -1.022  1.00  0.00    -0.547 OA
ATOM     10  O   UNL     1      47.558  11.117  -0.122  1.00  0.00    -0.547 OA
ENDBRANCH   3   8
BRANCH   4  11
ATOM     11  O   UNL     1      49.388  11.017  -2.089  1.00  0.00    -0.387 OA
ATOM     12  H   UNL     1      50.210  11.238  -2.603  1.00  0.00     0.211 HD
ENDBRANCH   4  11
BRANCH   6  13
ATOM     13  O   UNL     1      47.855  11.201  -5.354  1.00  0.00    -0.387 OA
ATOM     14  H   UNL     1      47.003  11.636  -5.092  1.00  0.00     0.211 HD
ENDBRANCH   6  13
BRANCH   7  15
ATOM     15  O   UNL     1      50.141  13.338  -3.532  1.00  0.00    -0.384 OA
ATOM     16  H   UNL     1      50.136  14.317  -3.365  1.00  0.00     0.211 HD
ENDBRANCH   7  15
ENDBRANCH   1   2
BRANCH   1  17
ATOM     17  C   UNL     1      45.286  13.963  -4.131  1.00  0.00     0.172 A 
ATOM     18  C   UNL     1      44.993  15.258  -3.680  1.00  0.00     0.205 A 
ATOM     19  C   UNL     1      44.265  13.003  -4.220  1.00  0.00     0.097 A 
ATOM     20  C   UNL     1      43.662  15.594  -3.325  1.00  0.00     0.188 A 
ATOM     21  C   UNL     1      42.947  13.321  -3.878  1.00  0.00     0.134 A 
ATOM     22  C   UNL     1      42.632  14.623  -3.431  1.00  0.00     0.111 A 
ATOM     23  O   UNL     1      43.367  16.821  -2.900  1.00  0.00    -0.452 OA
ATOM     24  C   UNL     1      41.321  15.007  -3.084  1.00  0.00     0.197 A 
ATOM     25  C   UNL     1      42.139  17.217  -2.575  1.00  0.00     0.138 A 
ATOM     26  C   UNL     1      41.076  16.310  -2.657  1.00  0.00     0.100 A 
ATOM     27  O   UNL     1      40.357  14.197  -3.148  1.00  0.00    -0.289 OA
BRANCH  18  28
ATOM     28  O   UNL     1      46.071  16.162  -3.616  1.00  0.00    -0.490 OA
ATOM     29  C   UNL     1      46.461  17.090  -4.623  1.00  0.00     0.278 C 
ENDBRANCH  18  28
BRANCH  21  30
ATOM     30  O   UNL     1      41.959  12.341  -3.987  1.00  0.00    -0.507 OA
ATOM     31  H   UNL     1      41.814  11.645  -3.264  1.00  0.00     0.293 HD
ENDBRANCH  21  30
BRANCH  25  32
ATOM     32  C   UNL     1      41.930  18.613  -2.124  1.00  0.00     0.017 A 
ATOM     33  C   UNL     1      41.236  18.863  -0.928  1.00  0.00     0.012 A 
ATOM     34  C   UNL     1      42.436  19.704  -2.859  1.00  0.00     0.012 A 
ATOM     35  C   UNL     1      41.042  20.175  -0.481  1.00  0.00     0.001 A 
ATOM     36  C   UNL     1      42.240  21.013  -2.408  1.00  0.00     0.001 A 
ATOM     37  C   UNL     1      41.542  21.249  -1.221  1.00  0.00     0.000 A 
ENDBRANCH  25  32
ENDBRANCH   1  17
TORSDOF 9
ENDMDL
MODEL 8
REMARK VINA RESULT:    -5.097      2.172      8.345
REMARK INTER + INTRA:          -8.457
REMARK INTER:                  -7.075
REMARK INTRA:                  -1.382
REMARK UNBOUND:                -1.274
REMARK SMILES COc1c(O[C@H]2O[C@H](C(=O)[O-])[C@H](O)[C@@H](O)[C@@H]2O)cc(O)c2c(=O)cc(-c3ccccc3)oc12
REMARK SMILES IDX 5 1 6 2 8 3 12 4 7 5 14 6 16 7 9 8 10 9 11 10 13 11 15 13
REMARK SMILES IDX 17 15 4 17 3 18 18 19 33 20 19 21 21 22 32 23 22 24 25 25
REMARK SMILES IDX 24 26 23 27 2 28 1 29 20 30 26 32 27 33 31 34 28 35 30 36
REMARK SMILES IDX 29 37
REMARK H PARENT 13 12 15 14 17 16 20 31
REMARK Flexibility Score: inf
ROOT
ATOM      1  O   UNL     1      46.817  13.389  -3.848  1.00  0.00    -0.458 OA
ENDROOT
BRANCH   1   2
ATOM      2  C   UNL     1      47.368  12.901  -5.079  1.00  0.00     0.339 C 
ATOM      3  C   UNL     1      49.332  14.160  -4.824  1.00  0.00     0.199 C 
ATOM      4  C   UNL     1      50.234  12.918  -4.666  1.00  0.00     0.180 C 
ATOM      5  O   UNL     1      48.221  13.877  -5.659  1.00  0.00    -0.328 OA
ATOM      6  C   UNL     1      49.413  11.756  -4.083  1.00  0.00     0.181 C 
ATOM      7  C   UNL     1      48.106  11.555  -4.876  1.00  0.00     0.214 C 
BRANCH   3   8
ATOM      8  C   UNL     1      50.110  15.301  -5.415  1.00  0.00     0.073 C 
ATOM      9  O   UNL     1      49.507  16.247  -5.988  1.00  0.00    -0.547 OA
ATOM     10  O   UNL     1      51.494  15.346  -5.290  1.00  0.00    -0.547 OA
ENDBRANCH   3   8
BRANCH   4  11
ATOM     11  O   UNL     1      50.765  12.533  -5.911  1.00  0.00    -0.387 OA
ATOM     12  H   UNL     1      51.454  13.206  -6.154  1.00  0.00     0.211 HD
ENDBRANCH   4  11
BRANCH   6  13
ATOM     13  O   UNL     1      49.125  12.025  -2.733  1.00  0.00    -0.387 OA
ATOM     14  H   UNL     1      49.533  11.294  -2.200  1.00  0.00     0.211 HD
ENDBRANCH   6  13
BRANCH   7  15
ATOM     15  O   UNL     1      48.400  10.984  -6.125  1.00  0.00    -0.384 OA
ATOM     16  H   UNL     1      48.148  11.653  -6.813  1.00  0.00     0.211 HD
ENDBRANCH   7  15
ENDBRANCH   1   2
BRANCH   1  17
ATOM     17  C   UNL     1      45.471  13.716  -3.611  1.00  0.00     0.172 A 
ATOM     18  C   UNL     1      45.169  15.047  -3.286  1.00  0.00     0.205 A 
ATOM     19  C   UNL     1      44.441  12.765  -3.702  1.00  0.00     0.097 A 
ATOM     20  C   UNL     1      43.822  15.426  -3.061  1.00  0.00     0.188 A 
ATOM     21  C   UNL     1      43.107  13.126  -3.486  1.00  0.00     0.134 A 
ATOM     22  C   UNL     1      42.784  14.463  -3.168  1.00  0.00     0.111 A 
ATOM     23  O   UNL     1      43.519  16.687  -2.757  1.00  0.00    -0.452 OA
ATOM     24  C   UNL     1      41.459  14.891  -2.952  1.00  0.00     0.197 A 
ATOM     25  C   UNL     1      42.278  17.123  -2.558  1.00  0.00     0.138 A 
ATOM     26  C   UNL     1      41.207  16.227  -2.649  1.00  0.00     0.100 A 
ATOM     27  O   UNL     1      40.487  14.091  -3.026  1.00  0.00    -0.289 OA
BRANCH  18  28
ATOM     28  O   UNL     1      46.256  15.939  -3.212  1.00  0.00    -0.490 OA
ATOM     29  C   UNL     1      46.677  16.849  -4.222  1.00  0.00     0.278 C 
ENDBRANCH  18  28
BRANCH  21  30
ATOM     30  O   UNL     1      42.112  12.153  -3.592  1.00  0.00    -0.507 OA
ATOM     31  H   UNL     1      41.266  12.309  -4.129  1.00  0.00     0.293 HD
ENDBRANCH  21  30
BRANCH  25  32
ATOM     32  C   UNL     1      42.063  18.554  -2.235  1.00  0.00     0.017 A 
ATOM     33  C   UNL     1      41.287  18.907  -1.117  1.00  0.00     0.012 A 
ATOM     34  C   UNL     1      42.642  19.577  -3.012  1.00  0.00     0.012 A 
ATOM     35  C   UNL     1      41.084  20.253  -0.791  1.00  0.00     0.001 A 
ATOM     36  C   UNL     1      42.438  20.919  -2.681  1.00  0.00     0.001 A 
ATOM     37  C   UNL     1      41.658  21.258  -1.572  1.00  0.00     0.000 A 
ENDBRANCH  25  32
ENDBRANCH   1  17
TORSDOF 9
ENDMDL
MODEL 9
REMARK VINA RESULT:    -4.986      1.927      8.186
REMARK INTER + INTRA:          -8.300
REMARK INTER:                  -7.026
REMARK INTRA:                  -1.274
REMARK UNBOUND:                -1.274
REMARK SMILES COc1c(O[C@H]2O[C@H](C(=O)[O-])[C@H](O)[C@@H](O)[C@@H]2O)cc(O)c2c(=O)cc(-c3ccccc3)oc12
REMARK SMILES IDX 5 1 6 2 8 3 12 4 7 5 14 6 16 7 9 8 10 9 11 10 13 11 15 13
REMARK SMILES IDX 17 15 4 17 3 18 18 19 33 20 19 21 21 22 32 23 22 24 25 25
REMARK SMILES IDX 24 26 23 27 2 28 1 29 20 30 26 32 27 33 31 34 28 35 30 36
REMARK SMILES IDX 29 37
REMARK H PARENT 13 12 15 14 17 16 20 31
REMARK Flexibility Score: inf
ROOT
ATOM      1  O   UNL     1      46.873  14.579  -3.828  1.00  0.00    -0.458 OA
ENDROOT
BRANCH   1   2
ATOM      2  C   UNL     1      47.432  13.889  -4.954  1.00  0.00     0.339 C 
ATOM      3  C   UNL     1      49.551  14.840  -4.622  1.00  0.00     0.199 C 
ATOM      4  C   UNL     1      50.218  13.493  -4.272  1.00  0.00     0.180 C 
ATOM      5  O   UNL     1      48.479  14.653  -5.531  1.00  0.00    -0.328 OA
ATOM      6  C   UNL     1      49.171  12.540  -3.672  1.00  0.00     0.181 C 
ATOM      7  C   UNL     1      47.916  12.470  -4.566  1.00  0.00     0.214 C 
BRANCH   3   8
ATOM      8  C   UNL     1      50.553  15.778  -5.232  1.00  0.00     0.073 C 
ATOM      9  O   UNL     1      51.779  15.648  -4.972  1.00  0.00    -0.547 OA
ATOM     10  O   UNL     1      50.142  16.761  -6.125  1.00  0.00    -0.547 OA
ENDBRANCH   3   8
BRANCH   4  11
ATOM     11  O   UNL     1      50.775  12.906  -5.423  1.00  0.00    -0.387 OA
ATOM     12  H   UNL     1      50.876  11.935  -5.234  1.00  0.00     0.211 HD
ENDBRANCH   4  11
BRANCH   6  13
ATOM     13  O   UNL     1      48.824  12.985  -2.384  1.00  0.00    -0.387 OA
ATOM     14  H   UNL     1      48.544  12.186  -1.867  1.00  0.00     0.211 HD
ENDBRANCH   6  13
BRANCH   7  15
ATOM     15  O   UNL     1      48.211  11.737  -5.727  1.00  0.00    -0.384 OA
ATOM     16  H   UNL     1      47.596  12.063  -6.435  1.00  0.00     0.211 HD
ENDBRANCH   7  15
ENDBRANCH   1   2
BRANCH   1  17
ATOM     17  C   UNL     1      45.582  15.131  -3.746  1.00  0.00     0.172 A 
ATOM     18  C   UNL     1      45.405  16.446  -4.198  1.00  0.00     0.205 A 
ATOM     19  C   UNL     1      44.487  14.407  -3.247  1.00  0.00     0.097 A 
ATOM     20  C   UNL     1      44.116  17.035  -4.156  1.00  0.00     0.188 A 
ATOM     21  C   UNL     1      43.210  14.973  -3.203  1.00  0.00     0.134 A 
ATOM     22  C   UNL     1      43.011  16.293  -3.663  1.00  0.00     0.111 A 
ATOM     23  O   UNL     1      43.931  18.282  -4.586  1.00  0.00    -0.452 OA
ATOM     24  C   UNL     1      41.746  16.915  -3.657  1.00  0.00     0.197 A 
ATOM     25  C   UNL     1      42.749  18.892  -4.602  1.00  0.00     0.138 A 
ATOM     26  C   UNL     1      41.616  18.218  -4.131  1.00  0.00     0.100 A 
ATOM     27  O   UNL     1      40.720  16.318  -3.229  1.00  0.00    -0.289 OA
BRANCH  18  28
ATOM     28  O   UNL     1      46.551  17.106  -4.681  1.00  0.00    -0.490 OA
ATOM     29  C   UNL     1      46.775  17.550  -6.015  1.00  0.00     0.278 C 
ENDBRANCH  18  28
BRANCH  21  30
ATOM     30  O   UNL     1      42.146  14.218  -2.706  1.00  0.00    -0.507 OA
ATOM     31  H   UNL     1      41.314  14.653  -2.324  1.00  0.00     0.293 HD
ENDBRANCH  21  30
BRANCH  25  32
ATOM     32  C   UNL     1      42.663  20.280  -5.115  1.00  0.00     0.017 A 
ATOM     33  C   UNL     1      43.814  20.909  -5.620  1.00  0.00     0.012 A 
ATOM     34  C   UNL     1      41.442  20.983  -5.129  1.00  0.00     0.012 A 
ATOM     35  C   UNL     1      43.749  22.214  -6.120  1.00  0.00     0.001 A 
ATOM     36  C   UNL     1      41.381  22.286  -5.631  1.00  0.00     0.001 A 
ATOM     37  C   UNL     1      42.534  22.903  -6.124  1.00  0.00     0.000 A 
ENDBRANCH  25  32
ENDBRANCH   1  17
TORSDOF 9
ENDMDL
