MODEL 1
REMARK VINA RESULT:    -6.629      0.000      0.000
REMARK INTER + INTRA:         -10.652
REMARK INTER:                  -9.341
REMARK INTRA:                  -1.311
REMARK UNBOUND:                -1.311
REMARK SMILES C=C(CC[C@H](C(=O)[O-])[C@@H]1[C@H](O)C[C@@]2(C)C3=C(CC[C@@]12C)[C@]1(C)CC[C@@H](O)C(C)(C)[C@H]1CC3)C(C)C
REMARK SMILES IDX 4 1 5 2 6 3 7 4 8 5 9 6 10 7 19 8 12 9 13 10 18 11 20 12
REMARK SMILES IDX 14 13 15 14 17 15 16 16 32 17 21 18 31 19 30 20 23 21 22 22
REMARK SMILES IDX 27 23 24 24 25 25 28 26 29 27 11 28 26 30 3 32 2 33 1 34
REMARK SMILES IDX 33 35 34 36 35 37
REMARK H PARENT 11 29 26 31
REMARK Flexibility Score: inf
ROOT
ATOM      1  C   UNL     1      -9.449  38.405   0.564  1.00  0.00     0.014 C 
ENDROOT
BRANCH   1   2
ATOM      2  C   UNL     1      -8.649  37.097   0.846  1.00  0.00     0.042 C 
BRANCH   2   3
ATOM      3  C   UNL     1      -9.541  36.032   1.449  1.00  0.00     0.045 C 
ATOM      4  O   UNL     1      -9.849  36.082   2.669  1.00  0.00    -0.550 OA
ATOM      5  O   UNL     1      -9.982  34.960   0.682  1.00  0.00    -0.550 OA
ENDBRANCH   2   3
BRANCH   2   6
ATOM      6  C   UNL     1      -7.284  37.220   1.632  1.00  0.00     0.033 C 
ATOM      7  C   UNL     1      -6.563  38.569   1.649  1.00  0.00     0.119 C 
ATOM      8  C   UNL     1      -6.168  36.126   1.419  1.00  0.00    -0.017 C 
ATOM      9  C   UNL     1      -5.250  38.246   2.353  1.00  0.00     0.043 C 
ATOM     10  C   UNL     1      -4.803  36.851   1.841  1.00  0.00    -0.003 C 
ATOM     11  C   UNL     1      -6.458  34.890   2.314  1.00  0.00     0.012 C 
ATOM     12  C   UNL     1      -6.156  35.587  -0.044  1.00  0.00     0.013 C 
ATOM     13  C   UNL     1      -3.848  37.090   0.624  1.00  0.00     0.017 C 
ATOM     14  C   UNL     1      -4.015  36.148   2.994  1.00  0.00    -0.064 C 
ATOM     15  C   UNL     1      -6.140  35.127   3.785  1.00  0.00     0.032 C 
ATOM     16  C   UNL     1      -4.678  35.464   3.981  1.00  0.00    -0.064 C 
ATOM     17  C   UNL     1      -2.516  36.451   3.116  1.00  0.00     0.032 C 
ATOM     18  C   UNL     1      -3.966  34.925   5.247  1.00  0.00    -0.008 C 
ATOM     19  C   UNL     1      -1.791  35.810   4.299  1.00  0.00     0.009 C 
ATOM     20  C   UNL     1      -2.702  35.813   5.533  1.00  0.00     0.007 C 
ATOM     21  C   UNL     1      -4.908  35.037   6.483  1.00  0.00     0.014 C 
ATOM     22  C   UNL     1      -3.653  33.432   4.960  1.00  0.00     0.016 C 
ATOM     23  C   UNL     1      -1.965  35.620   6.924  1.00  0.00    -0.006 C 
ATOM     24  C   UNL     1      -4.210  34.706   7.806  1.00  0.00     0.033 C 
ATOM     25  C   UNL     1      -3.026  35.647   8.069  1.00  0.00     0.120 C 
ATOM     26  C   UNL     1      -1.010  36.825   7.166  1.00  0.00     0.014 C 
ATOM     27  C   UNL     1      -1.097  34.333   7.000  1.00  0.00     0.014 C 
BRANCH   7  28
ATOM     28  O   UNL     1      -6.298  39.036   0.355  1.00  0.00    -0.393 OA
ATOM     29  H   UNL     1      -5.826  39.904   0.457  1.00  0.00     0.210 HD
ENDBRANCH   7  28
BRANCH  25  30
ATOM     30  O   UNL     1      -2.430  35.317   9.300  1.00  0.00    -0.393 OA
ATOM     31  H   UNL     1      -3.163  35.048   9.914  1.00  0.00     0.210 HD
ENDBRANCH  25  30
ENDBRANCH   2   6
ENDBRANCH   1   2
BRANCH   1  32
ATOM     32  C   UNL     1      -9.550  38.810  -0.922  1.00  0.00     0.031 C 
BRANCH  32  33
ATOM     33  C   UNL     1     -10.154  37.700  -1.761  1.00  0.00    -0.075 C 
ATOM     34  C   UNL     1     -11.434  37.342  -1.555  1.00  0.00     0.008 C 
BRANCH  33  35
ATOM     35  C   UNL     1      -9.321  36.953  -2.795  1.00  0.00     0.008 C 
ATOM     36  C   UNL     1      -7.873  37.457  -2.810  1.00  0.00     0.012 C 
ATOM     37  C   UNL     1      -9.955  37.051  -4.189  1.00  0.00     0.012 C 
ENDBRANCH  33  35
ENDBRANCH  32  33
ENDBRANCH   1  32
TORSDOF 8
ENDMDL
MODEL 2
REMARK VINA RESULT:    -6.584      2.126      9.662
REMARK INTER + INTRA:         -10.589
REMARK INTER:                  -9.853
REMARK INTRA:                  -0.737
REMARK UNBOUND:                -1.311
REMARK SMILES C=C(CC[C@H](C(=O)[O-])[C@@H]1[C@H](O)C[C@@]2(C)C3=C(CC[C@@]12C)[C@]1(C)CC[C@@H](O)C(C)(C)[C@H]1CC3)C(C)C
REMARK SMILES IDX 4 1 5 2 6 3 7 4 8 5 9 6 10 7 19 8 12 9 13 10 18 11 20 12
REMARK SMILES IDX 14 13 15 14 17 15 16 16 32 17 21 18 31 19 30 20 23 21 22 22
REMARK SMILES IDX 27 23 24 24 25 25 28 26 29 27 11 28 26 30 3 32 2 33 1 34
REMARK SMILES IDX 33 35 34 36 35 37
REMARK H PARENT 11 29 26 31
REMARK Flexibility Score: inf
ROOT
ATOM      1  C   UNL     1      -5.448  35.023   3.057  1.00  0.00     0.014 C 
ENDROOT
BRANCH   1   2
ATOM      2  C   UNL     1      -6.742  35.878   2.898  1.00  0.00     0.042 C 
BRANCH   2   3
ATOM      3  C   UNL     1      -7.886  35.285   3.693  1.00  0.00     0.045 C 
ATOM      4  O   UNL     1      -8.996  35.067   3.137  1.00  0.00    -0.550 OA
ATOM      5  O   UNL     1      -7.747  35.029   5.052  1.00  0.00    -0.550 OA
ENDBRANCH   2   3
BRANCH   2   6
ATOM      6  C   UNL     1      -7.195  36.269   1.436  1.00  0.00     0.033 C 
ATOM      7  C   UNL     1      -6.313  35.856   0.257  1.00  0.00     0.119 C 
ATOM      8  C   UNL     1      -7.661  37.747   1.142  1.00  0.00    -0.017 C 
ATOM      9  C   UNL     1      -6.987  36.536  -0.929  1.00  0.00     0.043 C 
ATOM     10  C   UNL     1      -7.451  37.932  -0.437  1.00  0.00    -0.003 C 
ATOM     11  C   UNL     1      -9.151  37.924   1.544  1.00  0.00     0.012 C 
ATOM     12  C   UNL     1      -6.872  38.785   1.997  1.00  0.00     0.013 C 
ATOM     13  C   UNL     1      -6.308  38.945  -0.776  1.00  0.00     0.017 C 
ATOM     14  C   UNL     1      -8.742  38.315  -1.230  1.00  0.00    -0.064 C 
ATOM     15  C   UNL     1     -10.118  37.275   0.561  1.00  0.00     0.032 C 
ATOM     16  C   UNL     1      -9.975  37.870  -0.821  1.00  0.00    -0.064 C 
ATOM     17  C   UNL     1      -8.561  38.991  -2.595  1.00  0.00     0.032 C 
ATOM     18  C   UNL     1     -11.253  38.051  -1.678  1.00  0.00    -0.008 C 
ATOM     19  C   UNL     1      -9.840  39.281  -3.381  1.00  0.00     0.009 C 
ATOM     20  C   UNL     1     -10.841  38.134  -3.191  1.00  0.00     0.007 C 
ATOM     21  C   UNL     1     -12.189  36.815  -1.513  1.00  0.00     0.014 C 
ATOM     22  C   UNL     1     -11.960  39.320  -1.130  1.00  0.00     0.016 C 
ATOM     23  C   UNL     1     -11.996  38.053  -4.275  1.00  0.00    -0.006 C 
ATOM     24  C   UNL     1     -13.380  36.828  -2.477  1.00  0.00     0.033 C 
ATOM     25  C   UNL     1     -12.922  36.840  -3.941  1.00  0.00     0.120 C 
ATOM     26  C   UNL     1     -11.366  37.769  -5.670  1.00  0.00     0.014 C 
ATOM     27  C   UNL     1     -12.822  39.362  -4.411  1.00  0.00     0.014 C 
BRANCH   7  28
ATOM     28  O   UNL     1      -5.003  36.337   0.389  1.00  0.00    -0.393 OA
ATOM     29  H   UNL     1      -5.065  37.327   0.423  1.00  0.00     0.210 HD
ENDBRANCH   7  28
BRANCH  25  30
ATOM     30  O   UNL     1     -14.047  36.834  -4.785  1.00  0.00    -0.393 OA
ATOM     31  H   UNL     1     -14.781  36.387  -4.286  1.00  0.00     0.210 HD
ENDBRANCH  25  30
ENDBRANCH   2   6
ENDBRANCH   1   2
BRANCH   1  32
ATOM     32  C   UNL     1      -4.387  35.602   4.017  1.00  0.00     0.031 C 
BRANCH  32  33
ATOM     33  C   UNL     1      -3.864  34.544   4.971  1.00  0.00    -0.075 C 
ATOM     34  C   UNL     1      -2.553  34.520   5.271  1.00  0.00     0.008 C 
BRANCH  33  35
ATOM     35  C   UNL     1      -4.788  33.483   5.552  1.00  0.00     0.008 C 
ATOM     36  C   UNL     1      -4.958  33.663   7.066  1.00  0.00     0.012 C 
ATOM     37  C   UNL     1      -4.288  32.072   5.216  1.00  0.00     0.012 C 
ENDBRANCH  33  35
ENDBRANCH  32  33
ENDBRANCH   1  32
TORSDOF 8
ENDMDL
MODEL 3
REMARK VINA RESULT:    -6.529      6.114     10.012
REMARK INTER + INTRA:         -10.511
REMARK INTER:                  -9.530
REMARK INTRA:                  -0.981
REMARK UNBOUND:                -1.311
REMARK SMILES C=C(CC[C@H](C(=O)[O-])[C@@H]1[C@H](O)C[C@@]2(C)C3=C(CC[C@@]12C)[C@]1(C)CC[C@@H](O)C(C)(C)[C@H]1CC3)C(C)C
REMARK SMILES IDX 4 1 5 2 6 3 7 4 8 5 9 6 10 7 19 8 12 9 13 10 18 11 20 12
REMARK SMILES IDX 14 13 15 14 17 15 16 16 32 17 21 18 31 19 30 20 23 21 22 22
REMARK SMILES IDX 27 23 24 24 25 25 28 26 29 27 11 28 26 30 3 32 2 33 1 34
REMARK SMILES IDX 33 35 34 36 35 37
REMARK H PARENT 11 29 26 31
REMARK Flexibility Score: inf
ROOT
ATOM      1  C   UNL     1     -15.909  36.755   7.772  1.00  0.00     0.014 C 
ENDROOT
BRANCH   1   2
ATOM      2  C   UNL     1     -14.903  37.652   6.989  1.00  0.00     0.042 C 
BRANCH   2   3
ATOM      3  C   UNL     1     -15.605  38.838   6.362  1.00  0.00     0.045 C 
ATOM      4  O   UNL     1     -15.868  38.838   5.130  1.00  0.00    -0.550 OA
ATOM      5  O   UNL     1     -15.914  39.960   7.121  1.00  0.00    -0.550 OA
ENDBRANCH   2   3
BRANCH   2   6
ATOM      6  C   UNL     1     -13.929  36.948   5.964  1.00  0.00     0.033 C 
ATOM      7  C   UNL     1     -13.839  35.421   5.963  1.00  0.00     0.119 C 
ATOM      8  C   UNL     1     -12.451  37.478   5.814  1.00  0.00    -0.017 C 
ATOM      9  C   UNL     1     -12.711  35.146   4.975  1.00  0.00     0.043 C 
ATOM     10  C   UNL     1     -11.634  36.236   5.214  1.00  0.00    -0.003 C 
ATOM     11  C   UNL     1     -12.419  38.698   4.854  1.00  0.00     0.012 C 
ATOM     12  C   UNL     1     -11.881  37.997   7.169  1.00  0.00     0.013 C 
ATOM     13  C   UNL     1     -10.600  35.648   6.232  1.00  0.00     0.017 C 
ATOM     14  C   UNL     1     -10.923  36.515   3.850  1.00  0.00    -0.064 C 
ATOM     15  C   UNL     1     -12.577  38.313   3.389  1.00  0.00     0.032 C 
ATOM     16  C   UNL     1     -11.465  37.390   2.943  1.00  0.00    -0.064 C 
ATOM     17  C   UNL     1      -9.747  35.608   3.465  1.00  0.00     0.032 C 
ATOM     18  C   UNL     1     -10.913  37.549   1.504  1.00  0.00    -0.008 C 
ATOM     19  C   UNL     1      -9.124  35.856   2.091  1.00  0.00     0.009 C 
ATOM     20  C   UNL     1     -10.220  36.205   1.076  1.00  0.00     0.007 C 
ATOM     21  C   UNL     1     -12.082  37.813   0.506  1.00  0.00     0.014 C 
ATOM     22  C   UNL     1      -9.968  38.780   1.541  1.00  0.00     0.016 C 
ATOM     23  C   UNL     1      -9.815  36.038  -0.447  1.00  0.00    -0.006 C 
ATOM     24  C   UNL     1     -11.640  37.787  -0.961  1.00  0.00     0.033 C 
ATOM     25  C   UNL     1     -11.033  36.430  -1.343  1.00  0.00     0.120 C 
ATOM     26  C   UNL     1      -9.512  34.538  -0.732  1.00  0.00     0.014 C 
ATOM     27  C   UNL     1      -8.547  36.839  -0.851  1.00  0.00     0.014 C 
BRANCH   7  28
ATOM     28  O   UNL     1     -13.489  34.917   7.223  1.00  0.00    -0.393 OA
ATOM     29  H   UNL     1     -12.498  34.942   7.276  1.00  0.00     0.210 HD
ENDBRANCH   7  28
BRANCH  25  30
ATOM     30  O   UNL     1     -10.661  36.449  -2.699  1.00  0.00    -0.393 OA
ATOM     31  H   UNL     1     -10.604  35.503  -2.998  1.00  0.00     0.210 HD
ENDBRANCH  25  30
ENDBRANCH   2   6
ENDBRANCH   1   2
BRANCH   1  32
ATOM     32  C   UNL     1     -17.358  36.766   7.239  1.00  0.00     0.031 C 
BRANCH  32  33
ATOM     33  C   UNL     1     -17.679  35.496   6.473  1.00  0.00    -0.075 C 
ATOM     34  C   UNL     1     -17.341  35.409   5.174  1.00  0.00     0.008 C 
BRANCH  33  35
ATOM     35  C   UNL     1     -18.419  34.343   7.137  1.00  0.00     0.008 C 
ATOM     36  C   UNL     1     -17.621  33.037   7.031  1.00  0.00     0.012 C 
ATOM     37  C   UNL     1     -19.827  34.179   6.550  1.00  0.00     0.012 C 
ENDBRANCH  33  35
ENDBRANCH  32  33
ENDBRANCH   1  32
TORSDOF 8
ENDMDL
MODEL 4
REMARK VINA RESULT:    -6.479      2.744      9.707
REMARK INTER + INTRA:         -10.441
REMARK INTER:                 -10.266
REMARK INTRA:                  -0.174
REMARK UNBOUND:                -1.311
REMARK SMILES C=C(CC[C@H](C(=O)[O-])[C@@H]1[C@H](O)C[C@@]2(C)C3=C(CC[C@@]12C)[C@]1(C)CC[C@@H](O)C(C)(C)[C@H]1CC3)C(C)C
REMARK SMILES IDX 4 1 5 2 6 3 7 4 8 5 9 6 10 7 19 8 12 9 13 10 18 11 20 12
REMARK SMILES IDX 14 13 15 14 17 15 16 16 32 17 21 18 31 19 30 20 23 21 22 22
REMARK SMILES IDX 27 23 24 24 25 25 28 26 29 27 11 28 26 30 3 32 2 33 1 34
REMARK SMILES IDX 33 35 34 36 35 37
REMARK H PARENT 11 29 26 31
REMARK Flexibility Score: inf
ROOT
ATOM      1  C   UNL     1      -5.623  35.678   3.388  1.00  0.00     0.014 C 
ENDROOT
BRANCH   1   2
ATOM      2  C   UNL     1      -5.493  36.166   1.913  1.00  0.00     0.042 C 
BRANCH   2   3
ATOM      3  C   UNL     1      -4.136  36.788   1.664  1.00  0.00     0.045 C 
ATOM      4  O   UNL     1      -3.508  36.531   0.602  1.00  0.00    -0.550 OA
ATOM      5  O   UNL     1      -3.541  37.599   2.623  1.00  0.00    -0.550 OA
ENDBRANCH   2   3
BRANCH   2   6
ATOM      6  C   UNL     1      -6.656  37.060   1.326  1.00  0.00     0.033 C 
ATOM      7  C   UNL     1      -6.592  38.575   1.522  1.00  0.00     0.119 C 
ATOM      8  C   UNL     1      -8.156  36.644   1.585  1.00  0.00    -0.017 C 
ATOM      9  C   UNL     1      -7.931  39.048   0.970  1.00  0.00     0.043 C 
ATOM     10  C   UNL     1      -8.989  38.002   1.410  1.00  0.00    -0.003 C 
ATOM     11  C   UNL     1      -8.595  35.569   0.554  1.00  0.00     0.012 C 
ATOM     12  C   UNL     1      -8.340  35.980   2.984  1.00  0.00     0.013 C 
ATOM     13  C   UNL     1      -9.605  38.506   2.757  1.00  0.00     0.017 C 
ATOM     14  C   UNL     1     -10.100  37.954   0.312  1.00  0.00    -0.064 C 
ATOM     15  C   UNL     1      -8.847  36.139  -0.837  1.00  0.00     0.032 C 
ATOM     16  C   UNL     1      -9.945  37.179  -0.810  1.00  0.00    -0.064 C 
ATOM     17  C   UNL     1     -11.243  38.972   0.414  1.00  0.00     0.032 C 
ATOM     18  C   UNL     1     -10.916  37.250  -2.015  1.00  0.00    -0.008 C 
ATOM     19  C   UNL     1     -12.271  38.951  -0.717  1.00  0.00     0.009 C 
ATOM     20  C   UNL     1     -11.570  38.678  -2.054  1.00  0.00     0.007 C 
ATOM     21  C   UNL     1     -10.134  37.055  -3.349  1.00  0.00     0.014 C 
ATOM     22  C   UNL     1     -11.924  36.084  -1.823  1.00  0.00     0.016 C 
ATOM     23  C   UNL     1     -12.396  39.075  -3.349  1.00  0.00    -0.006 C 
ATOM     24  C   UNL     1     -10.991  37.306  -4.593  1.00  0.00     0.033 C 
ATOM     25  C   UNL     1     -11.548  38.736  -4.616  1.00  0.00     0.120 C 
ATOM     26  C   UNL     1     -12.621  40.615  -3.356  1.00  0.00     0.014 C 
ATOM     27  C   UNL     1     -13.799  38.413  -3.425  1.00  0.00     0.014 C 
BRANCH   7  28
ATOM     28  O   UNL     1      -6.495  38.923   2.876  1.00  0.00    -0.393 OA
ATOM     29  H   UNL     1      -5.529  38.909   3.106  1.00  0.00     0.210 HD
ENDBRANCH   7  28
BRANCH  25  30
ATOM     30  O   UNL     1     -12.311  38.923  -5.783  1.00  0.00    -0.393 OA
ATOM     31  H   UNL     1     -12.651  38.030  -6.053  1.00  0.00     0.210 HD
ENDBRANCH  25  30
ENDBRANCH   2   6
ENDBRANCH   1   2
BRANCH   1  32
ATOM     32  C   UNL     1      -4.601  34.605   3.821  1.00  0.00     0.031 C 
BRANCH  32  33
ATOM     33  C   UNL     1      -5.269  33.475   4.583  1.00  0.00    -0.075 C 
ATOM     34  C   UNL     1      -6.505  33.660   5.083  1.00  0.00     0.008 C 
BRANCH  33  35
ATOM     35  C   UNL     1      -4.546  32.158   4.831  1.00  0.00     0.008 C 
ATOM     36  C   UNL     1      -5.367  30.969   4.316  1.00  0.00     0.012 C 
ATOM     37  C   UNL     1      -4.201  31.990   6.316  1.00  0.00     0.012 C 
ENDBRANCH  33  35
ENDBRANCH  32  33
ENDBRANCH   1  32
TORSDOF 8
ENDMDL
MODEL 5
REMARK VINA RESULT:    -6.401      2.925     10.558
REMARK INTER + INTRA:         -10.331
REMARK INTER:                  -9.742
REMARK INTRA:                  -0.589
REMARK UNBOUND:                -1.311
REMARK SMILES C=C(CC[C@H](C(=O)[O-])[C@@H]1[C@H](O)C[C@@]2(C)C3=C(CC[C@@]12C)[C@]1(C)CC[C@@H](O)C(C)(C)[C@H]1CC3)C(C)C
REMARK SMILES IDX 4 1 5 2 6 3 7 4 8 5 9 6 10 7 19 8 12 9 13 10 18 11 20 12
REMARK SMILES IDX 14 13 15 14 17 15 16 16 32 17 21 18 31 19 30 20 23 21 22 22
REMARK SMILES IDX 27 23 24 24 25 25 28 26 29 27 11 28 26 30 3 32 2 33 1 34
REMARK SMILES IDX 33 35 34 36 35 37
REMARK H PARENT 11 29 26 31
REMARK Flexibility Score: inf
ROOT
ATOM      1  C   UNL     1      -6.543  36.547   2.330  1.00  0.00     0.014 C 
ENDROOT
BRANCH   1   2
ATOM      2  C   UNL     1      -7.019  36.321   0.863  1.00  0.00     0.042 C 
BRANCH   2   3
ATOM      3  C   UNL     1      -5.840  36.234  -0.084  1.00  0.00     0.045 C 
ATOM      4  O   UNL     1      -6.025  35.958  -1.299  1.00  0.00    -0.550 OA
ATOM      5  O   UNL     1      -4.542  36.396   0.385  1.00  0.00    -0.550 OA
ENDBRANCH   2   3
BRANCH   2   6
ATOM      6  C   UNL     1      -8.146  37.272   0.297  1.00  0.00     0.033 C 
ATOM      7  C   UNL     1      -8.275  38.684   0.870  1.00  0.00     0.119 C 
ATOM      8  C   UNL     1      -9.617  36.721   0.146  1.00  0.00    -0.017 C 
ATOM      9  C   UNL     1      -9.538  39.211   0.200  1.00  0.00     0.043 C 
ATOM     10  C   UNL     1     -10.542  38.030   0.151  1.00  0.00    -0.003 C 
ATOM     11  C   UNL     1      -9.754  35.931  -1.184  1.00  0.00     0.012 C 
ATOM     12  C   UNL     1      -9.974  35.705   1.274  1.00  0.00     0.013 C 
ATOM     13  C   UNL     1     -11.435  38.129   1.433  1.00  0.00     0.017 C 
ATOM     14  C   UNL     1     -11.432  38.209  -1.121  1.00  0.00    -0.064 C 
ATOM     15  C   UNL     1      -9.816  36.830  -2.412  1.00  0.00     0.032 C 
ATOM     16  C   UNL     1     -11.003  37.765  -2.346  1.00  0.00    -0.064 C 
ATOM     17  C   UNL     1     -12.674  39.102  -0.998  1.00  0.00     0.032 C 
ATOM     18  C   UNL     1     -11.749  38.096  -3.663  1.00  0.00    -0.008 C 
ATOM     19  C   UNL     1     -13.479  39.321  -2.279  1.00  0.00     0.009 C 
ATOM     20  C   UNL     1     -12.530  39.446  -3.477  1.00  0.00     0.007 C 
ATOM     21  C   UNL     1     -10.729  38.300  -4.823  1.00  0.00     0.014 C 
ATOM     22  C   UNL     1     -12.649  36.867  -3.966  1.00  0.00     0.016 C 
ATOM     23  C   UNL     1     -13.152  40.122  -4.770  1.00  0.00    -0.006 C 
ATOM     24  C   UNL     1     -11.375  38.820  -6.111  1.00  0.00     0.033 C 
ATOM     25  C   UNL     1     -12.064  40.173  -5.889  1.00  0.00     0.120 C 
ATOM     26  C   UNL     1     -13.531  41.596  -4.442  1.00  0.00     0.014 C 
ATOM     27  C   UNL     1     -14.444  39.427  -5.281  1.00  0.00     0.014 C 
BRANCH   7  28
ATOM     28  O   UNL     1      -8.454  38.670   2.260  1.00  0.00    -0.393 OA
ATOM     29  H   UNL     1      -9.325  38.226   2.431  1.00  0.00     0.210 HD
ENDBRANCH   7  28
BRANCH  25  30
ATOM     30  O   UNL     1     -12.625  40.618  -7.100  1.00  0.00    -0.393 OA
ATOM     31  H   UNL     1     -12.385  39.948  -7.794  1.00  0.00     0.210 HD
ENDBRANCH  25  30
ENDBRANCH   2   6
ENDBRANCH   1   2
BRANCH   1  32
ATOM     32  C   UNL     1      -6.987  35.468   3.342  1.00  0.00     0.031 C 
BRANCH  32  33
ATOM     33  C   UNL     1      -5.796  34.821   4.023  1.00  0.00    -0.075 C 
ATOM     34  C   UNL     1      -4.553  35.196   3.671  1.00  0.00     0.008 C 
BRANCH  33  35
ATOM     35  C   UNL     1      -5.984  33.721   5.060  1.00  0.00     0.008 C 
ATOM     36  C   UNL     1      -5.582  34.203   6.459  1.00  0.00     0.012 C 
ATOM     37  C   UNL     1      -5.212  32.455   4.667  1.00  0.00     0.012 C 
ENDBRANCH  33  35
ENDBRANCH  32  33
ENDBRANCH   1  32
TORSDOF 8
ENDMDL
MODEL 6
REMARK VINA RESULT:    -6.393      2.384      9.886
REMARK INTER + INTRA:         -10.320
REMARK INTER:                  -9.504
REMARK INTRA:                  -0.816
REMARK UNBOUND:                -1.311
REMARK SMILES C=C(CC[C@H](C(=O)[O-])[C@@H]1[C@H](O)C[C@@]2(C)C3=C(CC[C@@]12C)[C@]1(C)CC[C@@H](O)C(C)(C)[C@H]1CC3)C(C)C
REMARK SMILES IDX 4 1 5 2 6 3 7 4 8 5 9 6 10 7 19 8 12 9 13 10 18 11 20 12
REMARK SMILES IDX 14 13 15 14 17 15 16 16 32 17 21 18 31 19 30 20 23 21 22 22
REMARK SMILES IDX 27 23 24 24 25 25 28 26 29 27 11 28 26 30 3 32 2 33 1 34
REMARK SMILES IDX 33 35 34 36 35 37
REMARK H PARENT 11 29 26 31
REMARK Flexibility Score: inf
ROOT
ATOM      1  C   UNL     1      -4.904  37.083   2.788  1.00  0.00     0.014 C 
ENDROOT
BRANCH   1   2
ATOM      2  C   UNL     1      -5.234  37.259   1.274  1.00  0.00     0.042 C 
BRANCH   2   3
ATOM      3  C   UNL     1      -4.375  38.339   0.653  1.00  0.00     0.045 C 
ATOM      4  O   UNL     1      -4.913  39.348   0.124  1.00  0.00    -0.550 OA
ATOM      5  O   UNL     1      -2.992  38.204   0.604  1.00  0.00    -0.550 OA
ENDBRANCH   2   3
BRANCH   2   6
ATOM      6  C   UNL     1      -6.750  37.417   0.862  1.00  0.00     0.033 C 
ATOM      7  C   UNL     1      -7.797  37.603   1.961  1.00  0.00     0.119 C 
ATOM      8  C   UNL     1      -7.377  36.409  -0.178  1.00  0.00    -0.017 C 
ATOM      9  C   UNL     1      -9.112  37.558   1.192  1.00  0.00     0.043 C 
ATOM     10  C   UNL     1      -8.954  36.464   0.103  1.00  0.00    -0.003 C 
ATOM     11  C   UNL     1      -7.039  36.860  -1.625  1.00  0.00     0.012 C 
ATOM     12  C   UNL     1      -6.773  34.978  -0.035  1.00  0.00     0.013 C 
ATOM     13  C   UNL     1      -9.504  35.129   0.706  1.00  0.00     0.017 C 
ATOM     14  C   UNL     1      -9.825  36.882  -1.126  1.00  0.00    -0.064 C 
ATOM     15  C   UNL     1      -7.857  38.060  -2.085  1.00  0.00     0.032 C 
ATOM     16  C   UNL     1      -9.338  37.752  -2.068  1.00  0.00    -0.064 C 
ATOM     17  C   UNL     1     -11.307  36.484  -1.113  1.00  0.00     0.032 C 
ATOM     18  C   UNL     1     -10.224  38.352  -3.188  1.00  0.00    -0.008 C 
ATOM     19  C   UNL     1     -12.149  36.975  -2.290  1.00  0.00     0.009 C 
ATOM     20  C   UNL     1     -11.713  38.390  -2.690  1.00  0.00     0.007 C 
ATOM     21  C   UNL     1      -9.792  39.819  -3.488  1.00  0.00     0.014 C 
ATOM     22  C   UNL     1      -9.986  37.469  -4.443  1.00  0.00     0.016 C 
ATOM     23  C   UNL     1     -12.760  39.204  -3.558  1.00  0.00    -0.006 C 
ATOM     24  C   UNL     1     -10.744  40.545  -4.444  1.00  0.00     0.033 C 
ATOM     25  C   UNL     1     -12.168  40.614  -3.878  1.00  0.00     0.120 C 
ATOM     26  C   UNL     1     -14.048  39.438  -2.716  1.00  0.00     0.014 C 
ATOM     27  C   UNL     1     -13.198  38.477  -4.859  1.00  0.00     0.014 C 
BRANCH   7  28
ATOM     28  O   UNL     1      -7.766  36.559   2.896  1.00  0.00    -0.393 OA
ATOM     29  H   UNL     1      -8.316  36.852   3.669  1.00  0.00     0.210 HD
ENDBRANCH   7  28
BRANCH  25  30
ATOM     30  O   UNL     1     -12.998  41.303  -4.780  1.00  0.00    -0.393 OA
ATOM     31  H   UNL     1     -13.853  40.799  -4.831  1.00  0.00     0.210 HD
ENDBRANCH  25  30
ENDBRANCH   2   6
ENDBRANCH   1   2
BRANCH   1  32
ATOM     32  C   UNL     1      -4.122  35.801   3.149  1.00  0.00     0.031 C 
BRANCH  32  33
ATOM     33  C   UNL     1      -4.637  35.179   4.434  1.00  0.00    -0.075 C 
ATOM     34  C   UNL     1      -4.207  35.659   5.615  1.00  0.00     0.008 C 
BRANCH  33  35
ATOM     35  C   UNL     1      -5.592  33.993   4.406  1.00  0.00     0.008 C 
ATOM     36  C   UNL     1      -6.801  34.233   5.319  1.00  0.00     0.012 C 
ATOM     37  C   UNL     1      -4.867  32.693   4.779  1.00  0.00     0.012 C 
ENDBRANCH  33  35
ENDBRANCH  32  33
ENDBRANCH   1  32
TORSDOF 8
ENDMDL
MODEL 7
REMARK VINA RESULT:    -6.358      6.126     10.120
REMARK INTER + INTRA:         -10.271
REMARK INTER:                  -8.708
REMARK INTRA:                  -1.563
REMARK UNBOUND:                -1.311
REMARK SMILES C=C(CC[C@H](C(=O)[O-])[C@@H]1[C@H](O)C[C@@]2(C)C3=C(CC[C@@]12C)[C@]1(C)CC[C@@H](O)C(C)(C)[C@H]1CC3)C(C)C
REMARK SMILES IDX 4 1 5 2 6 3 7 4 8 5 9 6 10 7 19 8 12 9 13 10 18 11 20 12
REMARK SMILES IDX 14 13 15 14 17 15 16 16 32 17 21 18 31 19 30 20 23 21 22 22
REMARK SMILES IDX 27 23 24 24 25 25 28 26 29 27 11 28 26 30 3 32 2 33 1 34
REMARK SMILES IDX 33 35 34 36 35 37
REMARK H PARENT 11 29 26 31
REMARK Flexibility Score: inf
ROOT
ATOM      1  C   UNL     1     -15.937  37.594   7.488  1.00  0.00     0.014 C 
ENDROOT
BRANCH   1   2
ATOM      2  C   UNL     1     -14.630  38.244   6.939  1.00  0.00     0.042 C 
BRANCH   2   3
ATOM      3  C   UNL     1     -14.895  39.639   6.414  1.00  0.00     0.045 C 
ATOM      4  O   UNL     1     -14.660  40.642   7.139  1.00  0.00    -0.550 OA
ATOM      5  O   UNL     1     -15.454  39.827   5.155  1.00  0.00    -0.550 OA
ENDBRANCH   2   3
BRANCH   2   6
ATOM      6  C   UNL     1     -13.754  37.402   5.929  1.00  0.00     0.033 C 
ATOM      7  C   UNL     1     -13.844  35.876   5.971  1.00  0.00     0.119 C 
ATOM      8  C   UNL     1     -12.225  37.749   5.759  1.00  0.00    -0.017 C 
ATOM      9  C   UNL     1     -12.765  35.443   4.986  1.00  0.00     0.043 C 
ATOM     10  C   UNL     1     -11.565  36.403   5.190  1.00  0.00    -0.003 C 
ATOM     11  C   UNL     1     -12.056  38.931   4.765  1.00  0.00     0.012 C 
ATOM     12  C   UNL     1     -11.587  38.234   7.096  1.00  0.00     0.013 C 
ATOM     13  C   UNL     1     -10.600  35.726   6.219  1.00  0.00     0.017 C 
ATOM     14  C   UNL     1     -10.837  36.560   3.815  1.00  0.00    -0.064 C 
ATOM     15  C   UNL     1     -12.270  38.528   3.312  1.00  0.00     0.032 C 
ATOM     16  C   UNL     1     -11.279  37.468   2.886  1.00  0.00    -0.064 C 
ATOM     17  C   UNL     1      -9.779  35.510   3.450  1.00  0.00     0.032 C 
ATOM     18  C   UNL     1     -10.724  37.521   1.441  1.00  0.00    -0.008 C 
ATOM     19  C   UNL     1      -9.142  35.646   2.067  1.00  0.00     0.009 C 
ATOM     20  C   UNL     1     -10.197  36.095   1.048  1.00  0.00     0.007 C 
ATOM     21  C   UNL     1     -11.860  37.895   0.442  1.00  0.00     0.014 C 
ATOM     22  C   UNL     1      -9.639  38.632   1.439  1.00  0.00     0.016 C 
ATOM     23  C   UNL     1      -9.827  35.839  -0.473  1.00  0.00    -0.006 C 
ATOM     24  C   UNL     1     -11.436  37.777  -1.026  1.00  0.00     0.033 C 
ATOM     25  C   UNL     1     -10.997  36.348  -1.373  1.00  0.00     0.120 C 
ATOM     26  C   UNL     1      -9.705  34.306  -0.717  1.00  0.00     0.014 C 
ATOM     27  C   UNL     1      -8.476  36.473  -0.905  1.00  0.00     0.014 C 
BRANCH   7  28
ATOM     28  O   UNL     1     -13.547  35.368   7.243  1.00  0.00    -0.393 OA
ATOM     29  H   UNL     1     -12.862  34.661   7.115  1.00  0.00     0.210 HD
ENDBRANCH   7  28
BRANCH  25  30
ATOM     30  O   UNL     1     -10.636  36.286  -2.731  1.00  0.00    -0.393 OA
ATOM     31  H   UNL     1      -9.806  35.743  -2.786  1.00  0.00     0.210 HD
ENDBRANCH  25  30
ENDBRANCH   2   6
ENDBRANCH   1   2
BRANCH   1  32
ATOM     32  C   UNL     1     -15.876  37.130   8.960  1.00  0.00     0.031 C 
BRANCH  32  33
ATOM     33  C   UNL     1     -15.482  38.266   9.885  1.00  0.00    -0.075 C 
ATOM     34  C   UNL     1     -16.310  39.317  10.025  1.00  0.00     0.008 C 
BRANCH  33  35
ATOM     35  C   UNL     1     -14.146  38.257  10.616  1.00  0.00     0.008 C 
ATOM     36  C   UNL     1     -13.306  39.488  10.251  1.00  0.00     0.012 C 
ATOM     37  C   UNL     1     -13.374  36.960  10.340  1.00  0.00     0.012 C 
ENDBRANCH  33  35
ENDBRANCH  32  33
ENDBRANCH   1  32
TORSDOF 8
ENDMDL
MODEL 8
REMARK VINA RESULT:    -6.083      4.130      8.673
REMARK INTER + INTRA:          -9.884
REMARK INTER:                  -9.705
REMARK INTRA:                  -0.179
REMARK UNBOUND:                -1.311
REMARK SMILES C=C(CC[C@H](C(=O)[O-])[C@@H]1[C@H](O)C[C@@]2(C)C3=C(CC[C@@]12C)[C@]1(C)CC[C@@H](O)C(C)(C)[C@H]1CC3)C(C)C
REMARK SMILES IDX 4 1 5 2 6 3 7 4 8 5 9 6 10 7 19 8 12 9 13 10 18 11 20 12
REMARK SMILES IDX 14 13 15 14 17 15 16 16 32 17 21 18 31 19 30 20 23 21 22 22
REMARK SMILES IDX 27 23 24 24 25 25 28 26 29 27 11 28 26 30 3 32 2 33 1 34
REMARK SMILES IDX 33 35 34 36 35 37
REMARK H PARENT 11 29 26 31
REMARK Flexibility Score: inf
ROOT
ATOM      1  C   UNL     1      -6.231  36.292   2.316  1.00  0.00     0.014 C 
ENDROOT
BRANCH   1   2
ATOM      2  C   UNL     1      -7.249  36.038   1.163  1.00  0.00     0.042 C 
BRANCH   2   3
ATOM      3  C   UNL     1      -6.813  36.732  -0.110  1.00  0.00     0.045 C 
ATOM      4  O   UNL     1      -6.739  36.085  -1.189  1.00  0.00    -0.550 OA
ATOM      5  O   UNL     1      -6.433  38.069  -0.094  1.00  0.00    -0.550 OA
ENDBRANCH   2   3
BRANCH   2   6
ATOM      6  C   UNL     1      -8.780  36.285   1.461  1.00  0.00     0.033 C 
ATOM      7  C   UNL     1      -9.748  36.416   0.284  1.00  0.00     0.119 C 
ATOM      8  C   UNL     1      -9.195  37.398   2.500  1.00  0.00    -0.017 C 
ATOM      9  C   UNL     1     -11.060  36.795   0.961  1.00  0.00     0.043 C 
ATOM     10  C   UNL     1     -10.702  37.777   2.107  1.00  0.00    -0.003 C 
ATOM     11  C   UNL     1      -9.106  36.835   3.945  1.00  0.00     0.012 C 
ATOM     12  C   UNL     1      -8.221  38.615   2.465  1.00  0.00     0.013 C 
ATOM     13  C   UNL     1     -10.826  39.226   1.530  1.00  0.00     0.017 C 
ATOM     14  C   UNL     1     -11.748  37.579   3.252  1.00  0.00    -0.064 C 
ATOM     15  C   UNL     1     -10.249  35.889   4.291  1.00  0.00     0.032 C 
ATOM     16  C   UNL     1     -11.587  36.586   4.186  1.00  0.00    -0.064 C 
ATOM     17  C   UNL     1     -13.064  38.363   3.155  1.00  0.00     0.032 C 
ATOM     18  C   UNL     1     -12.687  36.219   5.213  1.00  0.00    -0.008 C 
ATOM     19  C   UNL     1     -14.097  38.087   4.247  1.00  0.00     0.009 C 
ATOM     20  C   UNL     1     -14.088  36.597   4.611  1.00  0.00     0.007 C 
ATOM     21  C   UNL     1     -12.688  34.683   5.474  1.00  0.00     0.014 C 
ATOM     22  C   UNL     1     -12.322  36.973   6.520  1.00  0.00     0.016 C 
ATOM     23  C   UNL     1     -15.380  36.074   5.366  1.00  0.00    -0.006 C 
ATOM     24  C   UNL     1     -13.872  34.216   6.328  1.00  0.00     0.033 C 
ATOM     25  C   UNL     1     -15.213  34.549   5.661  1.00  0.00     0.120 C 
ATOM     26  C   UNL     1     -16.613  36.218   4.427  1.00  0.00     0.014 C 
ATOM     27  C   UNL     1     -15.709  36.859   6.666  1.00  0.00     0.014 C 
BRANCH   7  28
ATOM     28  O   UNL     1      -9.366  37.436  -0.597  1.00  0.00    -0.393 OA
ATOM     29  H   UNL     1      -8.387  37.339  -0.738  1.00  0.00     0.210 HD
ENDBRANCH   7  28
BRANCH  25  30
ATOM     30  O   UNL     1     -16.266  34.087   6.472  1.00  0.00    -0.393 OA
ATOM     31  H   UNL     1     -17.072  34.614   6.228  1.00  0.00     0.210 HD
ENDBRANCH  25  30
ENDBRANCH   2   6
ENDBRANCH   1   2
BRANCH   1  32
ATOM     32  C   UNL     1      -5.321  35.096   2.670  1.00  0.00     0.031 C 
BRANCH  32  33
ATOM     33  C   UNL     1      -4.990  35.067   4.150  1.00  0.00    -0.075 C 
ATOM     34  C   UNL     1      -4.122  35.967   4.647  1.00  0.00     0.008 C 
BRANCH  33  35
ATOM     35  C   UNL     1      -5.585  34.009   5.069  1.00  0.00     0.008 C 
ATOM     36  C   UNL     1      -5.202  32.597   4.610  1.00  0.00     0.012 C 
ATOM     37  C   UNL     1      -7.108  34.162   5.173  1.00  0.00     0.012 C 
ENDBRANCH  33  35
ENDBRANCH  32  33
ENDBRANCH   1  32
TORSDOF 8
ENDMDL
MODEL 9
REMARK VINA RESULT:    -5.986      2.016      3.204
REMARK INTER + INTRA:          -9.747
REMARK INTER:                  -8.583
REMARK INTRA:                  -1.164
REMARK UNBOUND:                -1.311
REMARK SMILES C=C(CC[C@H](C(=O)[O-])[C@@H]1[C@H](O)C[C@@]2(C)C3=C(CC[C@@]12C)[C@]1(C)CC[C@@H](O)C(C)(C)[C@H]1CC3)C(C)C
REMARK SMILES IDX 4 1 5 2 6 3 7 4 8 5 9 6 10 7 19 8 12 9 13 10 18 11 20 12
REMARK SMILES IDX 14 13 15 14 17 15 16 16 32 17 21 18 31 19 30 20 23 21 22 22
REMARK SMILES IDX 27 23 24 24 25 25 28 26 29 27 11 28 26 30 3 32 2 33 1 34
REMARK SMILES IDX 33 35 34 36 35 37
REMARK H PARENT 11 29 26 31
REMARK Flexibility Score: inf
ROOT
ATOM      1  C   UNL     1      -7.665  38.980  -1.662  1.00  0.00     0.014 C 
ENDROOT
BRANCH   1   2
ATOM      2  C   UNL     1      -6.227  38.559  -1.230  1.00  0.00     0.042 C 
BRANCH   2   3
ATOM      3  C   UNL     1      -5.772  37.328  -1.985  1.00  0.00     0.045 C 
ATOM      4  O   UNL     1      -5.295  37.439  -3.146  1.00  0.00    -0.550 OA
ATOM      5  O   UNL     1      -5.927  36.061  -1.435  1.00  0.00    -0.550 OA
ENDBRANCH   2   3
BRANCH   2   6
ATOM      6  C   UNL     1      -5.927  38.433   0.315  1.00  0.00     0.033 C 
ATOM      7  C   UNL     1      -6.611  39.403   1.280  1.00  0.00     0.119 C 
ATOM      8  C   UNL     1      -4.431  38.307   0.803  1.00  0.00    -0.017 C 
ATOM      9  C   UNL     1      -5.959  39.071   2.617  1.00  0.00     0.043 C 
ATOM     10  C   UNL     1      -4.459  38.803   2.328  1.00  0.00    -0.003 C 
ATOM     11  C   UNL     1      -3.960  36.831   0.693  1.00  0.00     0.012 C 
ATOM     12  C   UNL     1      -3.456  39.125  -0.097  1.00  0.00     0.013 C 
ATOM     13  C   UNL     1      -3.700  40.156   2.533  1.00  0.00     0.017 C 
ATOM     14  C   UNL     1      -3.950  37.755   3.369  1.00  0.00    -0.064 C 
ATOM     15  C   UNL     1      -4.538  35.934   1.780  1.00  0.00     0.032 C 
ATOM     16  C   UNL     1      -4.130  36.411   3.157  1.00  0.00    -0.064 C 
ATOM     17  C   UNL     1      -3.469  38.280   4.728  1.00  0.00     0.032 C 
ATOM     18  C   UNL     1      -3.828  35.347   4.242  1.00  0.00    -0.008 C 
ATOM     19  C   UNL     1      -3.052  37.225   5.751  1.00  0.00     0.009 C 
ATOM     20  C   UNL     1      -3.983  36.009   5.657  1.00  0.00     0.007 C 
ATOM     21  C   UNL     1      -4.860  34.182   4.153  1.00  0.00     0.014 C 
ATOM     22  C   UNL     1      -2.405  34.810   3.932  1.00  0.00     0.016 C 
ATOM     23  C   UNL     1      -3.983  35.053   6.922  1.00  0.00    -0.006 C 
ATOM     24  C   UNL     1      -4.749  33.188   5.314  1.00  0.00     0.033 C 
ATOM     25  C   UNL     1      -4.976  33.875   6.668  1.00  0.00     0.120 C 
ATOM     26  C   UNL     1      -4.523  35.838   8.154  1.00  0.00     0.014 C 
ATOM     27  C   UNL     1      -2.575  34.521   7.308  1.00  0.00     0.014 C 
BRANCH   7  28
ATOM     28  O   UNL     1      -6.350  40.740   0.951  1.00  0.00    -0.393 OA
ATOM     29  H   UNL     1      -5.420  40.929   1.245  1.00  0.00     0.210 HD
ENDBRANCH   7  28
BRANCH  25  30
ATOM     30  O   UNL     1      -4.882  32.921   7.698  1.00  0.00    -0.393 OA
ATOM     31  H   UNL     1      -4.622  33.410   8.523  1.00  0.00     0.210 HD
ENDBRANCH  25  30
ENDBRANCH   2   6
ENDBRANCH   1   2
BRANCH   1  32
ATOM     32  C   UNL     1      -8.661  37.818  -1.867  1.00  0.00     0.031 C 
BRANCH  32  33
ATOM     33  C   UNL     1      -9.212  37.319  -0.544  1.00  0.00    -0.075 C 
ATOM     34  C   UNL     1     -10.019  38.119   0.176  1.00  0.00     0.008 C 
BRANCH  33  35
ATOM     35  C   UNL     1      -8.828  35.950   0.002  1.00  0.00     0.008 C 
ATOM     36  C   UNL     1      -9.970  34.942  -0.174  1.00  0.00     0.012 C 
ATOM     37  C   UNL     1      -8.395  36.045   1.471  1.00  0.00     0.012 C 
ENDBRANCH  33  35
ENDBRANCH  32  33
ENDBRANCH   1  32
TORSDOF 8
ENDMDL
