MODEL 1
REMARK VINA RESULT:    -4.404      0.000      0.000
REMARK INTER + INTRA:          -5.192
REMARK INTER:                  -5.047
REMARK INTRA:                  -0.145
REMARK UNBOUND:                -0.145
REMARK SMILES O=C([O-])C=Cc1ccc(O)cc1
REMARK SMILES IDX 6 1 7 2 12 3 8 4 11 5 9 6 5 7 4 8 2 9 1 10 3 11 10 12
REMARK H PARENT 10 13
REMARK Flexibility Score: inf
ROOT
ATOM      1  C   UNL     1     -11.770   4.214  -2.229  1.00  0.00    -0.025 A 
ATOM      2  C   UNL     1     -11.199   3.591  -3.351  1.00  0.00     0.012 A 
ATOM      3  C   UNL     1     -12.102   3.425  -1.108  1.00  0.00     0.012 A 
ATOM      4  C   UNL     1     -10.988   2.208  -3.366  1.00  0.00     0.047 A 
ATOM      5  C   UNL     1     -11.888   2.043  -1.127  1.00  0.00     0.047 A 
ATOM      6  C   UNL     1     -11.333   1.432  -2.254  1.00  0.00     0.115 A 
ENDROOT
BRANCH   1   7
ATOM      7  C   UNL     1     -11.966   5.685  -2.256  1.00  0.00     0.010 C 
ATOM      8  C   UNL     1     -11.059   6.549  -2.735  1.00  0.00     0.025 C 
BRANCH   8   9
ATOM      9  C   UNL     1     -11.283   8.004  -2.734  1.00  0.00     0.064 C 
ATOM     10  O   UNL     1     -12.121   8.536  -3.511  1.00  0.00    -0.545 OA
ATOM     11  O   UNL     1     -10.557   8.806  -1.864  1.00  0.00    -0.545 OA
ENDBRANCH   8   9
ENDBRANCH   1   7
BRANCH   6  12
ATOM     12  O   UNL     1     -11.128   0.053  -2.259  1.00  0.00    -0.508 OA
ATOM     13  H   UNL     1     -10.541  -0.392  -2.953  1.00  0.00     0.293 HD
ENDBRANCH   6  12
TORSDOF 3
ENDMDL
MODEL 2
REMARK VINA RESULT:    -3.737      3.763      6.105
REMARK INTER + INTRA:          -4.428
REMARK INTER:                  -4.296
REMARK INTRA:                  -0.132
REMARK UNBOUND:                -0.145
REMARK SMILES O=C([O-])C=Cc1ccc(O)cc1
REMARK SMILES IDX 6 1 7 2 12 3 8 4 11 5 9 6 5 7 4 8 2 9 1 10 3 11 10 12
REMARK H PARENT 10 13
REMARK Flexibility Score: inf
ROOT
ATOM      1  C   UNL     1     -11.999   2.938  -5.972  1.00  0.00    -0.025 A 
ATOM      2  C   UNL     1     -11.795   2.104  -7.084  1.00  0.00     0.012 A 
ATOM      3  C   UNL     1     -12.111   4.328  -6.177  1.00  0.00     0.012 A 
ATOM      4  C   UNL     1     -11.680   2.645  -8.368  1.00  0.00     0.047 A 
ATOM      5  C   UNL     1     -11.997   4.866  -7.463  1.00  0.00     0.047 A 
ATOM      6  C   UNL     1     -11.779   4.029  -8.559  1.00  0.00     0.115 A 
ENDROOT
BRANCH   1   7
ATOM      7  C   UNL     1     -12.125   2.315  -4.630  1.00  0.00     0.010 C 
ATOM      8  C   UNL     1     -11.123   2.249  -3.742  1.00  0.00     0.025 C 
BRANCH   8   9
ATOM      9  C   UNL     1     -11.282   1.611  -2.424  1.00  0.00     0.064 C 
ATOM     10  O   UNL     1     -11.000   0.396  -2.250  1.00  0.00    -0.545 OA
ATOM     11  O   UNL     1     -11.754   2.362  -1.356  1.00  0.00    -0.545 OA
ENDBRANCH   8   9
ENDBRANCH   1   7
BRANCH   6  12
ATOM     12  O   UNL     1     -11.665   4.579  -9.834  1.00  0.00    -0.508 OA
ATOM     13  H   UNL     1     -12.060   4.121 -10.647  1.00  0.00     0.293 HD
ENDBRANCH   6  12
TORSDOF 3
ENDMDL
MODEL 3
REMARK VINA RESULT:    -3.712      3.691      5.083
REMARK INTER + INTRA:          -4.399
REMARK INTER:                  -4.249
REMARK INTRA:                  -0.150
REMARK UNBOUND:                -0.145
REMARK SMILES O=C([O-])C=Cc1ccc(O)cc1
REMARK SMILES IDX 6 1 7 2 12 3 8 4 11 5 9 6 5 7 4 8 2 9 1 10 3 11 10 12
REMARK H PARENT 10 13
REMARK Flexibility Score: inf
ROOT
ATOM      1  C   UNL     1     -11.760   3.199  -4.536  1.00  0.00    -0.025 A 
ATOM      2  C   UNL     1     -11.374   1.955  -4.008  1.00  0.00     0.012 A 
ATOM      3  C   UNL     1     -12.124   4.231  -3.647  1.00  0.00     0.012 A 
ATOM      4  C   UNL     1     -11.377   1.736  -2.627  1.00  0.00     0.047 A 
ATOM      5  C   UNL     1     -12.125   4.008  -2.267  1.00  0.00     0.047 A 
ATOM      6  C   UNL     1     -11.755   2.763  -1.753  1.00  0.00     0.115 A 
ENDROOT
BRANCH   1   7
ATOM      7  C   UNL     1     -11.730   3.386  -6.008  1.00  0.00     0.010 C 
ATOM      8  C   UNL     1     -11.893   2.389  -6.890  1.00  0.00     0.025 C 
BRANCH   8   9
ATOM      9  C   UNL     1     -11.845   2.611  -8.345  1.00  0.00     0.064 C 
ATOM     10  O   UNL     1     -11.891   3.773  -8.829  1.00  0.00    -0.545 OA
ATOM     11  O   UNL     1     -11.750   1.520  -9.198  1.00  0.00    -0.545 OA
ENDBRANCH   8   9
ENDBRANCH   1   7
BRANCH   6  12
ATOM     12  O   UNL     1     -11.762   2.556  -0.376  1.00  0.00    -0.508 OA
ATOM     13  H   UNL     1     -11.616   3.318   0.276  1.00  0.00     0.293 HD
ENDBRANCH   6  12
TORSDOF 3
ENDMDL
MODEL 4
REMARK VINA RESULT:    -3.577     16.583     17.345
REMARK INTER + INTRA:          -4.245
REMARK INTER:                  -4.110
REMARK INTRA:                  -0.135
REMARK UNBOUND:                -0.145
REMARK SMILES O=C([O-])C=Cc1ccc(O)cc1
REMARK SMILES IDX 6 1 7 2 12 3 8 4 11 5 9 6 5 7 4 8 2 9 1 10 3 11 10 12
REMARK H PARENT 10 13
REMARK Flexibility Score: inf
ROOT
ATOM      1  C   UNL     1       4.065   5.444  -8.793  1.00  0.00    -0.025 A 
ATOM      2  C   UNL     1       3.512   6.630  -9.305  1.00  0.00     0.012 A 
ATOM      3  C   UNL     1       3.266   4.283  -8.755  1.00  0.00     0.012 A 
ATOM      4  C   UNL     1       2.185   6.664  -9.745  1.00  0.00     0.047 A 
ATOM      5  C   UNL     1       1.939   4.321  -9.197  1.00  0.00     0.047 A 
ATOM      6  C   UNL     1       1.395   5.509  -9.690  1.00  0.00     0.115 A 
ENDROOT
BRANCH   1   7
ATOM      7  C   UNL     1       5.481   5.454  -8.349  1.00  0.00     0.010 C 
ATOM      8  C   UNL     1       5.864   5.292  -7.074  1.00  0.00     0.025 C 
BRANCH   8   9
ATOM      9  C   UNL     1       7.278   5.321  -6.669  1.00  0.00     0.064 C 
ATOM     10  O   UNL     1       8.095   6.115  -7.208  1.00  0.00    -0.545 OA
ATOM     11  O   UNL     1       7.722   4.457  -5.676  1.00  0.00    -0.545 OA
ENDBRANCH   8   9
ENDBRANCH   1   7
BRANCH   6  12
ATOM     12  O   UNL     1       0.072   5.532 -10.124  1.00  0.00    -0.508 OA
ATOM     13  H   UNL     1      -0.600   6.189  -9.744  1.00  0.00     0.293 HD
ENDBRANCH   6  12
TORSDOF 3
ENDMDL
MODEL 5
REMARK VINA RESULT:    -3.476     10.726     11.802
REMARK INTER + INTRA:          -4.128
REMARK INTER:                  -3.993
REMARK INTRA:                  -0.135
REMARK UNBOUND:                -0.145
REMARK SMILES O=C([O-])C=Cc1ccc(O)cc1
REMARK SMILES IDX 6 1 7 2 12 3 8 4 11 5 9 6 5 7 4 8 2 9 1 10 3 11 10 12
REMARK H PARENT 10 13
REMARK Flexibility Score: inf
ROOT
ATOM      1  C   UNL     1      -9.015   1.250   8.737  1.00  0.00    -0.025 A 
ATOM      2  C   UNL     1      -8.957   0.157   7.855  1.00  0.00     0.012 A 
ATOM      3  C   UNL     1      -8.178   1.252   9.872  1.00  0.00     0.012 A 
ATOM      4  C   UNL     1      -8.103  -0.920   8.112  1.00  0.00     0.047 A 
ATOM      5  C   UNL     1      -7.325   0.173  10.125  1.00  0.00     0.047 A 
ATOM      6  C   UNL     1      -7.286  -0.914   9.249  1.00  0.00     0.115 A 
ENDROOT
BRANCH   1   7
ATOM      7  C   UNL     1      -9.930   2.374   8.416  1.00  0.00     0.010 C 
ATOM      8  C   UNL     1      -9.517   3.629   8.187  1.00  0.00     0.025 C 
BRANCH   8   9
ATOM      9  C   UNL     1     -10.455   4.721   7.883  1.00  0.00     0.064 C 
ATOM     10  O   UNL     1     -10.917   5.457   8.796  1.00  0.00    -0.545 OA
ATOM     11  O   UNL     1     -10.840   4.944   6.568  1.00  0.00    -0.545 OA
ENDBRANCH   8   9
ENDBRANCH   1   7
BRANCH   6  12
ATOM     12  O   UNL     1      -6.433  -1.983   9.516  1.00  0.00    -0.508 OA
ATOM     13  H   UNL     1      -6.593  -2.901   9.118  1.00  0.00     0.293 HD
ENDBRANCH   6  12
TORSDOF 3
ENDMDL
MODEL 6
REMARK VINA RESULT:    -3.424     14.307     16.013
REMARK INTER + INTRA:          -4.069
REMARK INTER:                  -3.919
REMARK INTRA:                  -0.151
REMARK UNBOUND:                -0.145
REMARK SMILES O=C([O-])C=Cc1ccc(O)cc1
REMARK SMILES IDX 6 1 7 2 12 3 8 4 11 5 9 6 5 7 4 8 2 9 1 10 3 11 10 12
REMARK H PARENT 10 13
REMARK Flexibility Score: inf
ROOT
ATOM      1  C   UNL     1       1.120  -2.616  -8.648  1.00  0.00    -0.025 A 
ATOM      2  C   UNL     1       0.119  -1.687  -8.315  1.00  0.00     0.012 A 
ATOM      3  C   UNL     1       0.744  -3.827  -9.263  1.00  0.00     0.012 A 
ATOM      4  C   UNL     1      -1.227  -1.970  -8.566  1.00  0.00     0.047 A 
ATOM      5  C   UNL     1      -0.603  -4.107  -9.513  1.00  0.00     0.047 A 
ATOM      6  C   UNL     1      -1.591  -3.182  -9.165  1.00  0.00     0.115 A 
ENDROOT
BRANCH   1   7
ATOM      7  C   UNL     1       2.535  -2.265  -8.371  1.00  0.00     0.010 C 
ATOM      8  C   UNL     1       2.912  -1.291  -7.531  1.00  0.00     0.025 C 
BRANCH   8   9
ATOM      9  C   UNL     1       4.326  -0.963  -7.291  1.00  0.00     0.064 C 
ATOM     10  O   UNL     1       5.122  -0.769  -8.249  1.00  0.00    -0.545 OA
ATOM     11  O   UNL     1       4.794  -0.869  -5.987  1.00  0.00    -0.545 OA
ENDBRANCH   8   9
ENDBRANCH   1   7
BRANCH   6  12
ATOM     12  O   UNL     1      -2.929  -3.476  -9.418  1.00  0.00    -0.508 OA
ATOM     13  H   UNL     1      -3.232  -4.415  -9.648  1.00  0.00     0.293 HD
ENDBRANCH   6  12
TORSDOF 3
ENDMDL
MODEL 7
REMARK VINA RESULT:    -3.364     15.531     17.302
REMARK INTER + INTRA:          -4.000
REMARK INTER:                  -3.862
REMARK INTRA:                  -0.138
REMARK UNBOUND:                -0.145
REMARK SMILES O=C([O-])C=Cc1ccc(O)cc1
REMARK SMILES IDX 6 1 7 2 12 3 8 4 11 5 9 6 5 7 4 8 2 9 1 10 3 11 10 12
REMARK H PARENT 10 13
REMARK Flexibility Score: inf
ROOT
ATOM      1  C   UNL     1       1.968  -4.038  -8.215  1.00  0.00    -0.025 A 
ATOM      2  C   UNL     1       2.462  -2.723  -8.254  1.00  0.00     0.012 A 
ATOM      3  C   UNL     1       2.691  -5.014  -7.499  1.00  0.00     0.012 A 
ATOM      4  C   UNL     1       3.662  -2.394  -7.615  1.00  0.00     0.047 A 
ATOM      5  C   UNL     1       3.890  -4.681  -6.861  1.00  0.00     0.047 A 
ATOM      6  C   UNL     1       4.379  -3.374  -6.919  1.00  0.00     0.115 A 
ENDROOT
BRANCH   1   7
ATOM      7  C   UNL     1       0.685  -4.336  -8.899  1.00  0.00     0.010 C 
ATOM      8  C   UNL     1      -0.369  -4.902  -8.294  1.00  0.00     0.025 C 
BRANCH   8   9
ATOM      9  C   UNL     1      -1.622  -5.194  -9.009  1.00  0.00     0.064 C 
ATOM     10  O   UNL     1      -2.388  -6.120  -8.630  1.00  0.00    -0.545 OA
ATOM     11  O   UNL     1      -1.965  -4.437 -10.121  1.00  0.00    -0.545 OA
ENDBRANCH   8   9
ENDBRANCH   1   7
BRANCH   6  12
ATOM     12  O   UNL     1       5.577  -3.058  -6.280  1.00  0.00    -0.508 OA
ATOM     13  H   UNL     1       6.067  -3.735  -5.708  1.00  0.00     0.293 HD
ENDBRANCH   6  12
TORSDOF 3
ENDMDL
MODEL 8
REMARK VINA RESULT:    -3.355     15.237     17.540
REMARK INTER + INTRA:          -3.989
REMARK INTER:                  -3.844
REMARK INTRA:                  -0.145
REMARK UNBOUND:                -0.145
REMARK SMILES O=C([O-])C=Cc1ccc(O)cc1
REMARK SMILES IDX 6 1 7 2 12 3 8 4 11 5 9 6 5 7 4 8 2 9 1 10 3 11 10 12
REMARK H PARENT 10 13
REMARK Flexibility Score: inf
ROOT
ATOM      1  C   UNL     1       1.058  -5.216  -8.253  1.00  0.00    -0.025 A 
ATOM      2  C   UNL     1       0.923  -3.875  -8.651  1.00  0.00     0.012 A 
ATOM      3  C   UNL     1      -0.082  -6.047  -8.267  1.00  0.00     0.012 A 
ATOM      4  C   UNL     1      -0.324  -3.367  -9.030  1.00  0.00     0.047 A 
ATOM      5  C   UNL     1      -1.327  -5.535  -8.646  1.00  0.00     0.047 A 
ATOM      6  C   UNL     1      -1.452  -4.196  -9.026  1.00  0.00     0.115 A 
ENDROOT
BRANCH   1   7
ATOM      7  C   UNL     1       2.403  -5.712  -7.871  1.00  0.00     0.010 C 
ATOM      8  C   UNL     1       3.264  -5.022  -7.109  1.00  0.00     0.025 C 
BRANCH   8   9
ATOM      9  C   UNL     1       4.596  -5.541  -6.760  1.00  0.00     0.064 C 
ATOM     10  O   UNL     1       5.313  -6.125  -7.616  1.00  0.00    -0.545 OA
ATOM     11  O   UNL     1       5.071  -5.387  -5.465  1.00  0.00    -0.545 OA
ENDBRANCH   8   9
ENDBRANCH   1   7
BRANCH   6  12
ATOM     12  O   UNL     1      -2.699  -3.700  -9.400  1.00  0.00    -0.508 OA
ATOM     13  H   UNL     1      -3.156  -2.964  -8.875  1.00  0.00     0.293 HD
ENDBRANCH   6  12
TORSDOF 3
ENDMDL
