MODEL 1
REMARK VINA RESULT:    -6.025      0.000      0.000
REMARK INTER + INTRA:         -10.729
REMARK INTER:                  -9.371
REMARK INTRA:                  -1.359
REMARK UNBOUND:                -1.359
REMARK SMILES COc1cc(CNC(=O)CCCCC=CC(C)C)ccc1O
REMARK SMILES IDX 11 1 12 2 13 3 14 4 15 5 16 6 17 7 18 8 10 9 8 10 9 11 7 12
REMARK SMILES IDX 6 14 5 15 4 16 19 17 3 18 20 19 21 20 2 21 1 22 22 23
REMARK H PARENT 7 13 22 24
REMARK Flexibility Score: inf
ROOT
ATOM      1  C   UNL     1       2.226  -0.729  15.618  1.00  0.00     0.010 C 
ENDROOT
BRANCH   1   2
ATOM      2  C   UNL     1       3.356  -0.771  14.579  1.00  0.00     0.005 C 
BRANCH   2   3
ATOM      3  C   UNL     1       4.114  -2.107  14.600  1.00  0.00     0.027 C 
BRANCH   3   4
ATOM      4  C   UNL     1       5.165  -2.131  15.678  1.00  0.00    -0.031 C 
ATOM      5  C   UNL     1       6.467  -1.970  15.395  1.00  0.00    -0.028 C 
BRANCH   5   6
ATOM      6  C   UNL     1       7.536  -1.908  16.462  1.00  0.00     0.005 C 
ATOM      7  C   UNL     1       8.777  -1.157  15.970  1.00  0.00     0.012 C 
ATOM      8  C   UNL     1       7.899  -3.311  16.963  1.00  0.00     0.012 C 
ENDBRANCH   5   6
ENDBRANCH   3   4
ENDBRANCH   2   3
ENDBRANCH   1   2
BRANCH   1   9
ATOM      9  C   UNL     1       1.357  -1.989  15.542  1.00  0.00     0.100 C 
BRANCH   9  10
ATOM     10  C   UNL     1       1.349  -2.692  16.866  1.00  0.00     0.220 C 
ATOM     11  O   UNL     1       0.538  -2.322  17.756  1.00  0.00    -0.275 OA
ATOM     12  N   UNL     1       2.288  -3.746  17.132  1.00  0.00    -0.352 N 
ATOM     13  H   UNL     1       2.945  -4.044  16.376  1.00  0.00     0.163 HD
BRANCH  12  14
ATOM     14  C   UNL     1       2.384  -4.403  18.434  1.00  0.00     0.151 C 
BRANCH  14  15
ATOM     15  C   UNL     1       3.625  -3.957  19.161  1.00  0.00    -0.025 A 
ATOM     16  C   UNL     1       4.127  -4.717  20.228  1.00  0.00     0.056 A 
ATOM     17  C   UNL     1       4.270  -2.764  18.802  1.00  0.00     0.009 A 
ATOM     18  C   UNL     1       5.270  -4.291  20.938  1.00  0.00     0.160 A 
ATOM     19  C   UNL     1       5.406  -2.341  19.495  1.00  0.00     0.050 A 
ATOM     20  C   UNL     1       5.909  -3.097  20.558  1.00  0.00     0.157 A 
BRANCH  18  21
ATOM     21  O   UNL     1       5.794  -5.028  22.013  1.00  0.00    -0.493 OA
ATOM     22  C   UNL     1       5.397  -6.353  22.350  1.00  0.00     0.278 C 
ENDBRANCH  18  21
BRANCH  20  23
ATOM     23  O   UNL     1       7.045  -2.644  21.226  1.00  0.00    -0.504 OA
ATOM     24  H   UNL     1       7.381  -1.693  21.136  1.00  0.00     0.293 HD
ENDBRANCH  20  23
ENDBRANCH  14  15
ENDBRANCH  12  14
ENDBRANCH   9  10
ENDBRANCH   1   9
TORSDOF 10
ENDMDL
MODEL 2
REMARK VINA RESULT:    -5.991      2.919      5.747
REMARK INTER + INTRA:         -10.677
REMARK INTER:                  -9.699
REMARK INTRA:                  -0.977
REMARK UNBOUND:                -1.359
REMARK SMILES COc1cc(CNC(=O)CCCCC=CC(C)C)ccc1O
REMARK SMILES IDX 11 1 12 2 13 3 14 4 15 5 16 6 17 7 18 8 10 9 8 10 9 11 7 12
REMARK SMILES IDX 6 14 5 15 4 16 19 17 3 18 20 19 21 20 2 21 1 22 22 23
REMARK H PARENT 7 13 22 24
REMARK Flexibility Score: inf
ROOT
ATOM      1  C   UNL     1      -0.370  -0.664  16.360  1.00  0.00     0.010 C 
ENDROOT
BRANCH   1   2
ATOM      2  C   UNL     1      -1.595   0.074  16.919  1.00  0.00     0.005 C 
BRANCH   2   3
ATOM      3  C   UNL     1      -1.835  -0.242  18.403  1.00  0.00     0.027 C 
BRANCH   3   4
ATOM      4  C   UNL     1      -0.825  -1.225  18.931  1.00  0.00    -0.031 C 
ATOM      5  C   UNL     1      -0.974  -1.813  20.129  1.00  0.00    -0.028 C 
BRANCH   5   6
ATOM      6  C   UNL     1      -0.021  -2.863  20.651  1.00  0.00     0.005 C 
ATOM      7  C   UNL     1       0.409  -2.564  22.091  1.00  0.00     0.012 C 
ATOM      8  C   UNL     1       1.196  -3.014  19.730  1.00  0.00     0.012 C 
ENDBRANCH   5   6
ENDBRANCH   3   4
ENDBRANCH   2   3
ENDBRANCH   1   2
BRANCH   1   9
ATOM      9  C   UNL     1      -0.388  -0.684  14.828  1.00  0.00     0.100 C 
BRANCH   9  10
ATOM     10  C   UNL     1       0.995  -0.916  14.298  1.00  0.00     0.220 C 
ATOM     11  O   UNL     1       1.263  -0.595  13.109  1.00  0.00    -0.275 OA
ATOM     12  N   UNL     1       1.991  -1.540  15.123  1.00  0.00    -0.352 N 
ATOM     13  H   UNL     1       1.751  -1.790  16.109  1.00  0.00     0.163 HD
BRANCH  12  14
ATOM     14  C   UNL     1       3.327  -1.872  14.628  1.00  0.00     0.151 C 
BRANCH  14  15
ATOM     15  C   UNL     1       4.282  -2.067  15.776  1.00  0.00    -0.025 A 
ATOM     16  C   UNL     1       5.659  -2.181  15.534  1.00  0.00     0.056 A 
ATOM     17  C   UNL     1       3.803  -2.172  17.091  1.00  0.00     0.009 A 
ATOM     18  C   UNL     1       6.561  -2.398  16.598  1.00  0.00     0.160 A 
ATOM     19  C   UNL     1       4.690  -2.378  18.149  1.00  0.00     0.050 A 
ATOM     20  C   UNL     1       6.063  -2.492  17.910  1.00  0.00     0.157 A 
BRANCH  18  21
ATOM     21  O   UNL     1       7.944  -2.521  16.387  1.00  0.00    -0.493 OA
ATOM     22  C   UNL     1       8.873  -1.447  16.495  1.00  0.00     0.278 C 
ENDBRANCH  18  21
BRANCH  20  23
ATOM     23  O   UNL     1       6.918  -2.697  18.992  1.00  0.00    -0.504 OA
ATOM     24  H   UNL     1       6.596  -3.090  19.867  1.00  0.00     0.293 HD
ENDBRANCH  20  23
ENDBRANCH  14  15
ENDBRANCH  12  14
ENDBRANCH   9  10
ENDBRANCH   1   9
TORSDOF 10
ENDMDL
MODEL 3
REMARK VINA RESULT:    -5.908      5.341      7.409
REMARK INTER + INTRA:         -10.548
REMARK INTER:                  -9.853
REMARK INTRA:                  -0.695
REMARK UNBOUND:                -1.359
REMARK SMILES COc1cc(CNC(=O)CCCCC=CC(C)C)ccc1O
REMARK SMILES IDX 11 1 12 2 13 3 14 4 15 5 16 6 17 7 18 8 10 9 8 10 9 11 7 12
REMARK SMILES IDX 6 14 5 15 4 16 19 17 3 18 20 19 21 20 2 21 1 22 22 23
REMARK H PARENT 7 13 22 24
REMARK Flexibility Score: inf
ROOT
ATOM      1  C   UNL     1       6.721  -1.499  19.241  1.00  0.00     0.010 C 
ENDROOT
BRANCH   1   2
ATOM      2  C   UNL     1       6.118  -2.891  19.004  1.00  0.00     0.005 C 
BRANCH   2   3
ATOM      3  C   UNL     1       4.591  -2.899  19.177  1.00  0.00     0.027 C 
BRANCH   3   4
ATOM      4  C   UNL     1       3.883  -2.942  17.850  1.00  0.00    -0.031 C 
ATOM      5  C   UNL     1       3.535  -1.818  17.201  1.00  0.00    -0.028 C 
BRANCH   5   6
ATOM      6  C   UNL     1       2.897  -1.827  15.831  1.00  0.00     0.005 C 
ATOM      7  C   UNL     1       3.952  -1.793  14.721  1.00  0.00     0.012 C 
ATOM      8  C   UNL     1       1.896  -0.676  15.680  1.00  0.00     0.012 C 
ENDBRANCH   5   6
ENDBRANCH   3   4
ENDBRANCH   2   3
ENDBRANCH   1   2
BRANCH   1   9
ATOM      9  C   UNL     1       6.494  -1.035  20.684  1.00  0.00     0.100 C 
BRANCH   9  10
ATOM     10  C   UNL     1       7.488   0.026  21.048  1.00  0.00     0.220 C 
ATOM     11  O   UNL     1       8.631   0.008  20.519  1.00  0.00    -0.275 OA
ATOM     12  N   UNL     1       7.155   1.026  22.024  1.00  0.00    -0.352 N 
ATOM     13  H   UNL     1       6.197   1.028  22.444  1.00  0.00     0.163 HD
BRANCH  12  14
ATOM     14  C   UNL     1       8.116   2.028  22.483  1.00  0.00     0.151 C 
BRANCH  14  15
ATOM     15  C   UNL     1       8.707   1.627  23.809  1.00  0.00    -0.025 A 
ATOM     16  C   UNL     1      10.034   1.181  23.882  1.00  0.00     0.056 A 
ATOM     17  C   UNL     1       7.927   1.662  24.975  1.00  0.00     0.009 A 
ATOM     18  C   UNL     1      10.588   0.771  25.114  1.00  0.00     0.160 A 
ATOM     19  C   UNL     1       8.471   1.265  26.198  1.00  0.00     0.050 A 
ATOM     20  C   UNL     1       9.794   0.821  26.273  1.00  0.00     0.157 A 
BRANCH  18  21
ATOM     21  O   UNL     1      11.913   0.315  25.218  1.00  0.00    -0.493 OA
ATOM     22  C   UNL     1      12.312  -1.042  25.058  1.00  0.00     0.278 C 
ENDBRANCH  18  21
BRANCH  20  23
ATOM     23  O   UNL     1      10.303   0.434  27.512  1.00  0.00    -0.504 OA
ATOM     24  H   UNL     1       9.777  -0.145  28.154  1.00  0.00     0.293 HD
ENDBRANCH  20  23
ENDBRANCH  14  15
ENDBRANCH  12  14
ENDBRANCH   9  10
ENDBRANCH   1   9
TORSDOF 10
ENDMDL
MODEL 4
REMARK VINA RESULT:    -5.891      5.470      8.205
REMARK INTER + INTRA:         -10.521
REMARK INTER:                  -9.812
REMARK INTRA:                  -0.709
REMARK UNBOUND:                -1.359
REMARK SMILES COc1cc(CNC(=O)CCCCC=CC(C)C)ccc1O
REMARK SMILES IDX 11 1 12 2 13 3 14 4 15 5 16 6 17 7 18 8 10 9 8 10 9 11 7 12
REMARK SMILES IDX 6 14 5 15 4 16 19 17 3 18 20 19 21 20 2 21 1 22 22 23
REMARK H PARENT 7 13 22 24
REMARK Flexibility Score: inf
ROOT
ATOM      1  C   UNL     1       8.796   1.397  23.660  1.00  0.00     0.010 C 
ENDROOT
BRANCH   1   2
ATOM      2  C   UNL     1       8.280   1.644  25.085  1.00  0.00     0.005 C 
BRANCH   2   3
ATOM      3  C   UNL     1       9.168   0.980  26.148  1.00  0.00     0.027 C 
BRANCH   3   4
ATOM      4  C   UNL     1      10.478   0.519  25.567  1.00  0.00    -0.031 C 
ATOM      5  C   UNL     1      11.430  -0.040  26.332  1.00  0.00    -0.028 C 
BRANCH   5   6
ATOM      6  C   UNL     1      12.721  -0.585  25.766  1.00  0.00     0.005 C 
ATOM      7  C   UNL     1      13.832   0.469  25.790  1.00  0.00     0.012 C 
ATOM      8  C   UNL     1      12.514  -1.141  24.352  1.00  0.00     0.012 C 
ENDBRANCH   5   6
ENDBRANCH   3   4
ENDBRANCH   2   3
ENDBRANCH   1   2
BRANCH   1   9
ATOM      9  C   UNL     1       7.683   1.594  22.626  1.00  0.00     0.100 C 
BRANCH   9  10
ATOM     10  C   UNL     1       7.845   0.617  21.500  1.00  0.00     0.220 C 
ATOM     11  O   UNL     1       8.997   0.378  21.050  1.00  0.00    -0.275 OA
ATOM     12  N   UNL     1       6.692  -0.005  20.911  1.00  0.00    -0.352 N 
ATOM     13  H   UNL     1       5.746   0.200  21.305  1.00  0.00     0.163 HD
BRANCH  12  14
ATOM     14  C   UNL     1       6.784  -0.895  19.754  1.00  0.00     0.151 C 
BRANCH  14  15
ATOM     15  C   UNL     1       6.071  -2.193  20.028  1.00  0.00    -0.025 A 
ATOM     16  C   UNL     1       5.220  -2.746  19.060  1.00  0.00     0.056 A 
ATOM     17  C   UNL     1       6.224  -2.842  21.263  1.00  0.00     0.009 A 
ATOM     18  C   UNL     1       4.521  -3.945  19.318  1.00  0.00     0.160 A 
ATOM     19  C   UNL     1       5.541  -4.033  21.521  1.00  0.00     0.050 A 
ATOM     20  C   UNL     1       4.693  -4.586  20.558  1.00  0.00     0.157 A 
BRANCH  18  21
ATOM     21  O   UNL     1       3.659  -4.521  18.370  1.00  0.00    -0.493 OA
ATOM     22  C   UNL     1       2.346  -4.049  18.085  1.00  0.00     0.278 C 
ENDBRANCH  18  21
BRANCH  20  23
ATOM     23  O   UNL     1       4.029  -5.775  20.851  1.00  0.00    -0.504 OA
ATOM     24  H   UNL     1       3.141  -6.017  20.429  1.00  0.00     0.293 HD
ENDBRANCH  20  23
ENDBRANCH  14  15
ENDBRANCH  12  14
ENDBRANCH   9  10
ENDBRANCH   1   9
TORSDOF 10
ENDMDL
MODEL 5
REMARK VINA RESULT:    -5.800      2.540      5.831
REMARK INTER + INTRA:         -10.380
REMARK INTER:                  -9.018
REMARK INTRA:                  -1.363
REMARK UNBOUND:                -1.359
REMARK SMILES COc1cc(CNC(=O)CCCCC=CC(C)C)ccc1O
REMARK SMILES IDX 11 1 12 2 13 3 14 4 15 5 16 6 17 7 18 8 10 9 8 10 9 11 7 12
REMARK SMILES IDX 6 14 5 15 4 16 19 17 3 18 20 19 21 20 2 21 1 22 22 23
REMARK H PARENT 7 13 22 24
REMARK Flexibility Score: inf
ROOT
ATOM      1  C   UNL     1       1.292  -4.896  20.331  1.00  0.00     0.010 C 
ENDROOT
BRANCH   1   2
ATOM      2  C   UNL     1       0.516  -4.242  19.179  1.00  0.00     0.005 C 
BRANCH   2   3
ATOM      3  C   UNL     1      -0.007  -2.846  19.550  1.00  0.00     0.027 C 
BRANCH   3   4
ATOM      4  C   UNL     1       0.135  -1.879  18.405  1.00  0.00    -0.031 C 
ATOM      5  C   UNL     1       0.759  -2.223  17.266  1.00  0.00    -0.028 C 
BRANCH   5   6
ATOM      6  C   UNL     1       0.847  -1.303  16.070  1.00  0.00     0.005 C 
ATOM      7  C   UNL     1      -0.369  -0.376  15.986  1.00  0.00     0.012 C 
ATOM      8  C   UNL     1       1.030  -2.099  14.772  1.00  0.00     0.012 C 
ENDBRANCH   5   6
ENDBRANCH   3   4
ENDBRANCH   2   3
ENDBRANCH   1   2
BRANCH   1   9
ATOM      9  C   UNL     1       1.667  -3.865  21.401  1.00  0.00     0.100 C 
BRANCH   9  10
ATOM     10  C   UNL     1       3.107  -3.473  21.259  1.00  0.00     0.220 C 
ATOM     11  O   UNL     1       3.717  -2.991  22.250  1.00  0.00    -0.275 OA
ATOM     12  N   UNL     1       3.771  -3.603  19.991  1.00  0.00    -0.352 N 
ATOM     13  H   UNL     1       3.249  -4.014  19.184  1.00  0.00     0.163 HD
BRANCH  12  14
ATOM     14  C   UNL     1       5.145  -3.153  19.774  1.00  0.00     0.151 C 
BRANCH  14  15
ATOM     15  C   UNL     1       5.371  -2.827  18.321  1.00  0.00    -0.025 A 
ATOM     16  C   UNL     1       6.671  -2.610  17.842  1.00  0.00     0.056 A 
ATOM     17  C   UNL     1       4.283  -2.704  17.441  1.00  0.00     0.009 A 
ATOM     18  C   UNL     1       6.892  -2.271  16.490  1.00  0.00     0.160 A 
ATOM     19  C   UNL     1       4.496  -2.377  16.101  1.00  0.00     0.050 A 
ATOM     20  C   UNL     1       5.791  -2.161  15.621  1.00  0.00     0.157 A 
BRANCH  18  21
ATOM     21  O   UNL     1       8.181  -2.044  15.982  1.00  0.00    -0.493 OA
ATOM     22  C   UNL     1       9.242  -1.443  16.718  1.00  0.00     0.278 C 
ENDBRANCH  18  21
BRANCH  20  23
ATOM     23  O   UNL     1       5.964  -1.837  14.277  1.00  0.00    -0.504 OA
ATOM     24  H   UNL     1       5.934  -0.881  13.944  1.00  0.00     0.293 HD
ENDBRANCH  20  23
ENDBRANCH  14  15
ENDBRANCH  12  14
ENDBRANCH   9  10
ENDBRANCH   1   9
TORSDOF 10
ENDMDL
MODEL 6
REMARK VINA RESULT:    -5.789      2.472      5.924
REMARK INTER + INTRA:         -10.362
REMARK INTER:                  -9.236
REMARK INTRA:                  -1.127
REMARK UNBOUND:                -1.359
REMARK SMILES COc1cc(CNC(=O)CCCCC=CC(C)C)ccc1O
REMARK SMILES IDX 11 1 12 2 13 3 14 4 15 5 16 6 17 7 18 8 10 9 8 10 9 11 7 12
REMARK SMILES IDX 6 14 5 15 4 16 19 17 3 18 20 19 21 20 2 21 1 22 22 23
REMARK H PARENT 7 13 22 24
REMARK Flexibility Score: inf
ROOT
ATOM      1  C   UNL     1       3.358  -4.444  19.168  1.00  0.00     0.010 C 
ENDROOT
BRANCH   1   2
ATOM      2  C   UNL     1       4.693  -4.042  19.811  1.00  0.00     0.005 C 
BRANCH   2   3
ATOM      3  C   UNL     1       5.139  -2.633  19.388  1.00  0.00     0.027 C 
BRANCH   3   4
ATOM      4  C   UNL     1       5.761  -2.637  18.017  1.00  0.00    -0.031 C 
ATOM      5  C   UNL     1       7.071  -2.400  17.838  1.00  0.00    -0.028 C 
BRANCH   5   6
ATOM      6  C   UNL     1       7.740  -2.476  16.486  1.00  0.00     0.005 C 
ATOM      7  C   UNL     1       8.927  -1.512  16.393  1.00  0.00     0.012 C 
ATOM      8  C   UNL     1       6.734  -2.228  15.355  1.00  0.00     0.012 C 
ENDBRANCH   5   6
ENDBRANCH   3   4
ENDBRANCH   2   3
ENDBRANCH   1   2
BRANCH   1   9
ATOM      9  C   UNL     1       2.176  -3.787  19.889  1.00  0.00     0.100 C 
BRANCH   9  10
ATOM     10  C   UNL     1       1.313  -3.056  18.905  1.00  0.00     0.220 C 
ATOM     11  O   UNL     1       0.060  -3.140  19.003  1.00  0.00    -0.275 OA
ATOM     12  N   UNL     1       1.909  -2.307  17.835  1.00  0.00    -0.352 N 
ATOM     13  H   UNL     1       2.951  -2.243  17.777  1.00  0.00     0.163 HD
BRANCH  12  14
ATOM     14  C   UNL     1       1.116  -1.651  16.797  1.00  0.00     0.151 C 
BRANCH  14  15
ATOM     15  C   UNL     1       1.618  -2.031  15.428  1.00  0.00    -0.025 A 
ATOM     16  C   UNL     1       0.845  -2.856  14.598  1.00  0.00     0.056 A 
ATOM     17  C   UNL     1       2.876  -1.592  14.985  1.00  0.00     0.009 A 
ATOM     18  C   UNL     1       1.320  -3.245  13.327  1.00  0.00     0.160 A 
ATOM     19  C   UNL     1       3.348  -1.967  13.726  1.00  0.00     0.050 A 
ATOM     20  C   UNL     1       2.579  -2.789  12.897  1.00  0.00     0.157 A 
BRANCH  18  21
ATOM     21  O   UNL     1       0.571  -4.073  12.476  1.00  0.00    -0.493 OA
ATOM     22  C   UNL     1      -0.327  -5.085  12.922  1.00  0.00     0.278 C 
ENDBRANCH  18  21
BRANCH  20  23
ATOM     23  O   UNL     1       3.083  -3.142  11.647  1.00  0.00    -0.504 OA
ATOM     24  H   UNL     1       3.974  -2.801  11.308  1.00  0.00     0.293 HD
ENDBRANCH  20  23
ENDBRANCH  14  15
ENDBRANCH  12  14
ENDBRANCH   9  10
ENDBRANCH   1   9
TORSDOF 10
ENDMDL
MODEL 7
REMARK VINA RESULT:    -5.772      3.095      6.877
REMARK INTER + INTRA:         -10.336
REMARK INTER:                  -9.414
REMARK INTRA:                  -0.922
REMARK UNBOUND:                -1.359
REMARK SMILES COc1cc(CNC(=O)CCCCC=CC(C)C)ccc1O
REMARK SMILES IDX 11 1 12 2 13 3 14 4 15 5 16 6 17 7 18 8 10 9 8 10 9 11 7 12
REMARK SMILES IDX 6 14 5 15 4 16 19 17 3 18 20 19 21 20 2 21 1 22 22 23
REMARK H PARENT 7 13 22 24
REMARK Flexibility Score: inf
ROOT
ATOM      1  C   UNL     1       3.079  -5.194  20.846  1.00  0.00     0.010 C 
ENDROOT
BRANCH   1   2
ATOM      2  C   UNL     1       1.722  -4.845  20.217  1.00  0.00     0.005 C 
BRANCH   2   3
ATOM      3  C   UNL     1       1.760  -3.508  19.460  1.00  0.00     0.027 C 
BRANCH   3   4
ATOM      4  C   UNL     1       0.436  -2.795  19.527  1.00  0.00    -0.031 C 
ATOM      5  C   UNL     1      -0.020  -2.264  20.673  1.00  0.00    -0.028 C 
BRANCH   5   6
ATOM      6  C   UNL     1      -1.306  -1.474  20.755  1.00  0.00     0.005 C 
ATOM      7  C   UNL     1      -1.782  -1.032  19.367  1.00  0.00     0.012 C 
ATOM      8  C   UNL     1      -1.158  -0.274  21.699  1.00  0.00     0.012 C 
ENDBRANCH   5   6
ENDBRANCH   3   4
ENDBRANCH   2   3
ENDBRANCH   1   2
BRANCH   1   9
ATOM      9  C   UNL     1       3.625  -4.023  21.670  1.00  0.00     0.100 C 
BRANCH   9  10
ATOM     10  C   UNL     1       4.998  -3.652  21.195  1.00  0.00     0.220 C 
ATOM     11  O   UNL     1       5.982  -3.821  21.962  1.00  0.00    -0.275 OA
ATOM     12  N   UNL     1       5.181  -3.068  19.896  1.00  0.00    -0.352 N 
ATOM     13  H   UNL     1       4.351  -2.945  19.272  1.00  0.00     0.163 HD
BRANCH  12  14
ATOM     14  C   UNL     1       6.483  -2.605  19.419  1.00  0.00     0.151 C 
BRANCH  14  15
ATOM     15  C   UNL     1       6.459  -2.404  17.926  1.00  0.00    -0.025 A 
ATOM     16  C   UNL     1       5.240  -2.434  17.232  1.00  0.00     0.056 A 
ATOM     17  C   UNL     1       7.654  -2.220  17.213  1.00  0.00     0.009 A 
ATOM     18  C   UNL     1       5.208  -2.281  15.829  1.00  0.00     0.160 A 
ATOM     19  C   UNL     1       7.628  -2.059  15.826  1.00  0.00     0.050 A 
ATOM     20  C   UNL     1       6.415  -2.089  15.132  1.00  0.00     0.157 A 
BRANCH  18  21
ATOM     21  O   UNL     1       4.005  -2.311  15.106  1.00  0.00    -0.493 OA
ATOM     22  C   UNL     1       2.724  -2.538  15.684  1.00  0.00     0.278 C 
ENDBRANCH  18  21
BRANCH  20  23
ATOM     23  O   UNL     1       6.429  -1.924  13.749  1.00  0.00    -0.504 OA
ATOM     24  H   UNL     1       5.581  -1.782  13.213  1.00  0.00     0.293 HD
ENDBRANCH  20  23
ENDBRANCH  14  15
ENDBRANCH  12  14
ENDBRANCH   9  10
ENDBRANCH   1   9
TORSDOF 10
ENDMDL
MODEL 8
REMARK VINA RESULT:    -5.722      2.673      7.331
REMARK INTER + INTRA:         -10.259
REMARK INTER:                  -8.883
REMARK INTRA:                  -1.376
REMARK UNBOUND:                -1.359
REMARK SMILES COc1cc(CNC(=O)CCCCC=CC(C)C)ccc1O
REMARK SMILES IDX 11 1 12 2 13 3 14 4 15 5 16 6 17 7 18 8 10 9 8 10 9 11 7 12
REMARK SMILES IDX 6 14 5 15 4 16 19 17 3 18 20 19 21 20 2 21 1 22 22 23
REMARK H PARENT 7 13 22 24
REMARK Flexibility Score: inf
ROOT
ATOM      1  C   UNL     1       5.892  -2.142  18.732  1.00  0.00     0.010 C 
ENDROOT
BRANCH   1   2
ATOM      2  C   UNL     1       5.451  -3.185  19.769  1.00  0.00     0.005 C 
BRANCH   2   3
ATOM      3  C   UNL     1       4.871  -4.447  19.113  1.00  0.00     0.027 C 
BRANCH   3   4
ATOM      4  C   UNL     1       3.366  -4.441  19.132  1.00  0.00    -0.031 C 
ATOM      5  C   UNL     1       2.654  -3.735  18.239  1.00  0.00    -0.028 C 
BRANCH   5   6
ATOM      6  C   UNL     1       1.144  -3.772  18.181  1.00  0.00     0.005 C 
ATOM      7  C   UNL     1       0.538  -2.404  18.509  1.00  0.00     0.012 C 
ATOM      8  C   UNL     1       0.582  -4.863  19.100  1.00  0.00     0.012 C 
ENDBRANCH   5   6
ENDBRANCH   3   4
ENDBRANCH   2   3
ENDBRANCH   1   2
BRANCH   1   9
ATOM      9  C   UNL     1       6.959  -2.714  17.792  1.00  0.00     0.100 C 
BRANCH   9  10
ATOM     10  C   UNL     1       6.688  -2.286  16.381  1.00  0.00     0.220 C 
ATOM     11  O   UNL     1       7.644  -1.899  15.658  1.00  0.00    -0.275 OA
ATOM     12  N   UNL     1       5.344  -2.276  15.874  1.00  0.00    -0.352 N 
ATOM     13  H   UNL     1       4.566  -2.610  16.487  1.00  0.00     0.163 HD
BRANCH  12  14
ATOM     14  C   UNL     1       5.012  -1.784  14.538  1.00  0.00     0.151 C 
BRANCH  14  15
ATOM     15  C   UNL     1       3.535  -1.510  14.426  1.00  0.00    -0.025 A 
ATOM     16  C   UNL     1       2.862  -1.754  13.220  1.00  0.00     0.056 A 
ATOM     17  C   UNL     1       2.825  -0.978  15.515  1.00  0.00     0.009 A 
ATOM     18  C   UNL     1       1.486  -1.471  13.094  1.00  0.00     0.160 A 
ATOM     19  C   UNL     1       1.462  -0.703  15.399  1.00  0.00     0.050 A 
ATOM     20  C   UNL     1       0.790  -0.946  14.197  1.00  0.00     0.157 A 
BRANCH  18  21
ATOM     21  O   UNL     1       0.786  -1.700  11.898  1.00  0.00    -0.493 OA
ATOM     22  C   UNL     1       0.476  -2.990  11.381  1.00  0.00     0.278 C 
ENDBRANCH  18  21
BRANCH  20  23
ATOM     23  O   UNL     1      -0.572  -0.659  14.120  1.00  0.00    -0.504 OA
ATOM     24  H   UNL     1      -1.251  -1.343  13.810  1.00  0.00     0.293 HD
ENDBRANCH  20  23
ENDBRANCH  14  15
ENDBRANCH  12  14
ENDBRANCH   9  10
ENDBRANCH   1   9
TORSDOF 10
ENDMDL
MODEL 9
REMARK VINA RESULT:    -5.703      1.961      5.641
REMARK INTER + INTRA:         -10.228
REMARK INTER:                  -8.735
REMARK INTRA:                  -1.494
REMARK UNBOUND:                -1.359
REMARK SMILES COc1cc(CNC(=O)CCCCC=CC(C)C)ccc1O
REMARK SMILES IDX 11 1 12 2 13 3 14 4 15 5 16 6 17 7 18 8 10 9 8 10 9 11 7 12
REMARK SMILES IDX 6 14 5 15 4 16 19 17 3 18 20 19 21 20 2 21 1 22 22 23
REMARK H PARENT 7 13 22 24
REMARK Flexibility Score: inf
ROOT
ATOM      1  C   UNL     1       4.965  -3.479  21.829  1.00  0.00     0.010 C 
ENDROOT
BRANCH   1   2
ATOM      2  C   UNL     1       6.148  -3.007  20.972  1.00  0.00     0.005 C 
BRANCH   2   3
ATOM      3  C   UNL     1       5.745  -1.900  19.985  1.00  0.00     0.027 C 
BRANCH   3   4
ATOM      4  C   UNL     1       6.740  -1.770  18.862  1.00  0.00    -0.031 C 
ATOM      5  C   UNL     1       6.826  -2.691  17.888  1.00  0.00    -0.028 C 
BRANCH   5   6
ATOM      6  C   UNL     1       7.756  -2.548  16.705  1.00  0.00     0.005 C 
ATOM      7  C   UNL     1       8.864  -1.528  16.984  1.00  0.00     0.012 C 
ATOM      8  C   UNL     1       6.981  -2.191  15.431  1.00  0.00     0.012 C 
ENDBRANCH   5   6
ENDBRANCH   3   4
ENDBRANCH   2   3
ENDBRANCH   1   2
BRANCH   1   9
ATOM      9  C   UNL     1       4.409  -4.813  21.319  1.00  0.00     0.100 C 
BRANCH   9  10
ATOM     10  C   UNL     1       3.146  -4.584  20.545  1.00  0.00     0.220 C 
ATOM     11  O   UNL     1       2.049  -4.518  21.160  1.00  0.00    -0.275 OA
ATOM     12  N   UNL     1       3.182  -4.489  19.112  1.00  0.00    -0.352 N 
ATOM     13  H   UNL     1       4.104  -4.538  18.622  1.00  0.00     0.163 HD
BRANCH  12  14
ATOM     14  C   UNL     1       1.972  -4.357  18.302  1.00  0.00     0.151 C 
BRANCH  14  15
ATOM     15  C   UNL     1       2.084  -3.178  17.372  1.00  0.00    -0.025 A 
ATOM     16  C   UNL     1       0.979  -2.778  16.606  1.00  0.00     0.056 A 
ATOM     17  C   UNL     1       3.301  -2.490  17.237  1.00  0.00     0.009 A 
ATOM     18  C   UNL     1       1.082  -1.695  15.706  1.00  0.00     0.160 A 
ATOM     19  C   UNL     1       3.407  -1.414  16.355  1.00  0.00     0.050 A 
ATOM     20  C   UNL     1       2.306  -1.013  15.591  1.00  0.00     0.157 A 
BRANCH  18  21
ATOM     21  O   UNL     1      -0.005  -1.275  14.923  1.00  0.00    -0.493 OA
ATOM     22  C   UNL     1      -0.948  -0.285  15.320  1.00  0.00     0.278 C 
ENDBRANCH  18  21
BRANCH  20  23
ATOM     23  O   UNL     1       2.450   0.066  14.722  1.00  0.00    -0.504 OA
ATOM     24  H   UNL     1       1.770   0.815  14.674  1.00  0.00     0.293 HD
ENDBRANCH  20  23
ENDBRANCH  14  15
ENDBRANCH  12  14
ENDBRANCH   9  10
ENDBRANCH   1   9
TORSDOF 10
ENDMDL
