MODEL 1
REMARK VINA RESULT:    -6.634      0.000      0.000
REMARK INTER + INTRA:          -9.457
REMARK INTER:                  -8.379
REMARK INTRA:                  -1.078
REMARK UNBOUND:                -1.078
REMARK SMILES CC(C)[C@H](C)C=C[C@@H](C)[C@H]1CC[C@H]2C3=CC=C4C[C@@H](O)CC[C@@]4(C)[C@H]3CC[C@@]12C
REMARK SMILES IDX 8 1 9 2 7 3 6 4 4 5 5 6 2 7 1 8 3 9 10 10 11 11 28 12 12 13
REMARK SMILES IDX 13 14 27 15 29 16 14 17 26 18 25 19 15 20 23 21 16 22 17 23
REMARK SMILES IDX 22 24 24 25 18 26 21 27 19 28 20 29
REMARK H PARENT 20 30
REMARK Flexibility Score: inf
ROOT
ATOM      1  C   UNL     1     138.171 132.893 148.882  1.00  0.00     0.012 C 
ATOM      2  C   UNL     1     137.222 132.141 149.824  1.00  0.00     0.012 C 
ENDROOT
BRANCH   1   3
ATOM      3  C   UNL     1     137.492 133.001 147.534  1.00  0.00    -0.028 C 
ATOM      4  C   UNL     1     137.505 134.138 146.819  1.00  0.00    -0.028 C 
BRANCH   4   5
ATOM      5  C   UNL     1     136.850 134.277 145.458  1.00  0.00     0.011 C 
ATOM      6  C   UNL     1     136.802 135.740 144.988  1.00  0.00     0.012 C 
BRANCH   5   7
ATOM      7  C   UNL     1     137.425 133.310 144.380  1.00  0.00    -0.011 C 
ATOM      8  C   UNL     1     136.383 132.778 143.383  1.00  0.00     0.008 C 
ATOM      9  C   UNL     1     138.591 133.962 143.619  1.00  0.00     0.008 C 
ENDBRANCH   5   7
ENDBRANCH   4   5
ENDBRANCH   1   3
BRANCH   1  10
ATOM     10  C   UNL     1     139.556 132.184 148.719  1.00  0.00     0.002 C 
ATOM     11  C   UNL     1     139.803 131.742 147.271  1.00  0.00     0.005 C 
ATOM     12  C   UNL     1     140.834 132.988 149.127  1.00  0.00    -0.023 C 
ATOM     13  C   UNL     1     141.306 131.788 147.040  1.00  0.00     0.009 C 
ATOM     14  C   UNL     1     141.961 132.245 148.356  1.00  0.00     0.021 C 
ATOM     15  C   UNL     1     140.762 134.477 148.628  1.00  0.00     0.008 C 
ATOM     16  C   UNL     1     141.062 132.913 150.670  1.00  0.00     0.012 C 
ATOM     17  C   UNL     1     143.205 133.102 148.134  1.00  0.00    -0.063 C 
ATOM     18  C   UNL     1     142.106 135.259 148.633  1.00  0.00     0.009 C 
ATOM     19  C   UNL     1     143.344 134.387 148.930  1.00  0.00     0.025 C 
ATOM     20  C   UNL     1     144.058 132.819 147.136  1.00  0.00    -0.000 C 
ATOM     21  C   UNL     1     144.764 135.079 148.777  1.00  0.00    -0.005 C 
ATOM     22  C   UNL     1     145.064 133.786 146.683  1.00  0.00    -0.000 C 
ATOM     23  C   UNL     1     145.325 134.909 147.367  1.00  0.00    -0.061 C 
ATOM     24  C   UNL     1     144.706 136.594 149.154  1.00  0.00     0.014 C 
ATOM     25  C   UNL     1     145.745 134.363 149.746  1.00  0.00     0.017 C 
ATOM     26  C   UNL     1     146.472 135.779 146.897  1.00  0.00     0.063 C 
ATOM     27  C   UNL     1     145.989 137.363 148.805  1.00  0.00     0.033 C 
ATOM     28  C   UNL     1     146.305 137.248 147.309  1.00  0.00     0.118 C 
BRANCH  28  29
ATOM     29  O   UNL     1     145.280 137.852 146.559  1.00  0.00    -0.393 OA
ATOM     30  H   UNL     1     144.503 137.957 147.168  1.00  0.00     0.210 HD
ENDBRANCH  28  29
ENDBRANCH   1  10
TORSDOF 5
ENDMDL
MODEL 2
REMARK VINA RESULT:    -6.592      3.158      9.366
REMARK INTER + INTRA:          -9.403
REMARK INTER:                  -8.342
REMARK INTRA:                  -1.061
REMARK UNBOUND:                -1.078
REMARK SMILES CC(C)[C@H](C)C=C[C@@H](C)[C@H]1CC[C@H]2C3=CC=C4C[C@@H](O)CC[C@@]4(C)[C@H]3CC[C@@]12C
REMARK SMILES IDX 8 1 9 2 7 3 6 4 4 5 5 6 2 7 1 8 3 9 10 10 11 11 28 12 12 13
REMARK SMILES IDX 13 14 27 15 29 16 14 17 26 18 25 19 15 20 23 21 16 22 17 23
REMARK SMILES IDX 22 24 24 25 18 26 21 27 19 28 20 29
REMARK H PARENT 20 30
REMARK Flexibility Score: inf
ROOT
ATOM      1  C   UNL     1     148.796 137.788 148.338  1.00  0.00     0.012 C 
ATOM      2  C   UNL     1     149.516 139.028 147.791  1.00  0.00     0.012 C 
ENDROOT
BRANCH   1   3
ATOM      3  C   UNL     1     149.843 136.876 148.939  1.00  0.00    -0.028 C 
ATOM      4  C   UNL     1     149.904 136.635 150.260  1.00  0.00    -0.028 C 
BRANCH   4   5
ATOM      5  C   UNL     1     150.929 135.714 150.894  1.00  0.00     0.011 C 
ATOM      6  C   UNL     1     151.127 136.015 152.389  1.00  0.00     0.012 C 
BRANCH   5   7
ATOM      7  C   UNL     1     150.682 134.203 150.605  1.00  0.00    -0.011 C 
ATOM      8  C   UNL     1     151.945 133.414 150.224  1.00  0.00     0.008 C 
ATOM      9  C   UNL     1     149.980 133.522 151.791  1.00  0.00     0.008 C 
ENDBRANCH   5   7
ENDBRANCH   4   5
ENDBRANCH   1   3
BRANCH   1  10
ATOM     10  C   UNL     1     147.992 137.017 147.240  1.00  0.00     0.002 C 
ATOM     11  C   UNL     1     148.530 135.595 147.034  1.00  0.00     0.005 C 
ATOM     12  C   UNL     1     146.452 136.848 147.454  1.00  0.00    -0.023 C 
ATOM     13  C   UNL     1     147.355 134.731 146.601  1.00  0.00     0.009 C 
ATOM     14  C   UNL     1     146.114 135.641 146.533  1.00  0.00     0.021 C 
ATOM     15  C   UNL     1     146.115 136.472 148.942  1.00  0.00     0.008 C 
ATOM     16  C   UNL     1     145.690 138.133 147.001  1.00  0.00     0.012 C 
ATOM     17  C   UNL     1     144.828 134.922 146.931  1.00  0.00    -0.063 C 
ATOM     18  C   UNL     1     144.686 135.911 149.193  1.00  0.00     0.009 C 
ATOM     19  C   UNL     1     143.890 135.612 147.904  1.00  0.00     0.025 C 
ATOM     20  C   UNL     1     144.623 133.644 146.573  1.00  0.00    -0.000 C 
ATOM     21  C   UNL     1     142.495 134.874 148.077  1.00  0.00    -0.005 C 
ATOM     22  C   UNL     1     143.580 132.824 147.200  1.00  0.00    -0.000 C 
ATOM     23  C   UNL     1     142.650 133.356 148.004  1.00  0.00    -0.061 C 
ATOM     24  C   UNL     1     141.794 135.280 149.412  1.00  0.00     0.014 C 
ATOM     25  C   UNL     1     141.587 135.296 146.889  1.00  0.00     0.017 C 
ATOM     26  C   UNL     1     141.535 132.456 148.498  1.00  0.00     0.063 C 
ATOM     27  C   UNL     1     140.560 134.427 149.741  1.00  0.00     0.033 C 
ATOM     28  C   UNL     1     140.929 132.941 149.821  1.00  0.00     0.118 C 
BRANCH  28  29
ATOM     29  O   UNL     1     141.831 132.732 150.878  1.00  0.00    -0.393 OA
ATOM     30  H   UNL     1     141.289 132.498 151.677  1.00  0.00     0.210 HD
ENDBRANCH  28  29
ENDBRANCH   1  10
TORSDOF 5
ENDMDL
MODEL 3
REMARK VINA RESULT:    -6.575      2.523      4.440
REMARK INTER + INTRA:          -9.383
REMARK INTER:                  -8.838
REMARK INTRA:                  -0.545
REMARK UNBOUND:                -1.078
REMARK SMILES CC(C)[C@H](C)C=C[C@@H](C)[C@H]1CC[C@H]2C3=CC=C4C[C@@H](O)CC[C@@]4(C)[C@H]3CC[C@@]12C
REMARK SMILES IDX 8 1 9 2 7 3 6 4 4 5 5 6 2 7 1 8 3 9 10 10 11 11 28 12 12 13
REMARK SMILES IDX 13 14 27 15 29 16 14 17 26 18 25 19 15 20 23 21 16 22 17 23
REMARK SMILES IDX 22 24 24 25 18 26 21 27 19 28 20 29
REMARK H PARENT 20 30
REMARK Flexibility Score: inf
ROOT
ATOM      1  C   UNL     1     141.243 132.116 148.071  1.00  0.00     0.012 C 
ATOM      2  C   UNL     1     140.300 133.143 147.431  1.00  0.00     0.012 C 
ENDROOT
BRANCH   1   3
ATOM      3  C   UNL     1     140.389 131.031 148.691  1.00  0.00    -0.028 C 
ATOM      4  C   UNL     1     139.118 131.252 149.067  1.00  0.00    -0.028 C 
BRANCH   4   5
ATOM      5  C   UNL     1     138.229 130.185 149.676  1.00  0.00     0.011 C 
ATOM      6  C   UNL     1     138.994 129.298 150.673  1.00  0.00     0.012 C 
BRANCH   5   7
ATOM      7  C   UNL     1     136.890 130.735 150.254  1.00  0.00    -0.011 C 
ATOM      8  C   UNL     1     136.762 132.266 150.211  1.00  0.00     0.008 C 
ATOM      9  C   UNL     1     135.682 130.090 149.556  1.00  0.00     0.008 C 
ENDBRANCH   5   7
ENDBRANCH   4   5
ENDBRANCH   1   3
BRANCH   1  10
ATOM     10  C   UNL     1     142.175 132.741 149.161  1.00  0.00     0.002 C 
ATOM     11  C   UNL     1     143.065 131.681 149.824  1.00  0.00     0.005 C 
ATOM     12  C   UNL     1     143.151 133.877 148.714  1.00  0.00    -0.023 C 
ATOM     13  C   UNL     1     144.353 132.377 150.239  1.00  0.00     0.009 C 
ATOM     14  C   UNL     1     144.228 133.857 149.835  1.00  0.00     0.021 C 
ATOM     15  C   UNL     1     143.833 133.544 147.338  1.00  0.00     0.008 C 
ATOM     16  C   UNL     1     142.410 135.251 148.668  1.00  0.00     0.012 C 
ATOM     17  C   UNL     1     145.558 134.470 149.404  1.00  0.00    -0.063 C 
ATOM     18  C   UNL     1     145.085 134.393 146.978  1.00  0.00     0.009 C 
ATOM     19  C   UNL     1     145.592 135.290 148.127  1.00  0.00     0.025 C 
ATOM     20  C   UNL     1     146.697 134.141 150.035  1.00  0.00    -0.000 C 
ATOM     21  C   UNL     1     146.966 136.049 147.894  1.00  0.00    -0.005 C 
ATOM     22  C   UNL     1     148.013 134.435 149.458  1.00  0.00    -0.000 C 
ATOM     23  C   UNL     1     148.154 135.224 148.384  1.00  0.00    -0.061 C 
ATOM     24  C   UNL     1     147.160 136.433 146.392  1.00  0.00     0.014 C 
ATOM     25  C   UNL     1     146.936 137.352 148.740  1.00  0.00     0.017 C 
ATOM     26  C   UNL     1     149.558 135.581 147.941  1.00  0.00     0.063 C 
ATOM     27  C   UNL     1     148.566 136.959 146.070  1.00  0.00     0.033 C 
ATOM     28  C   UNL     1     149.635 135.926 146.447  1.00  0.00     0.118 C 
BRANCH  28  29
ATOM     29  O   UNL     1     149.472 134.768 145.669  1.00  0.00    -0.393 OA
ATOM     30  H   UNL     1     150.061 134.072 146.062  1.00  0.00     0.210 HD
ENDBRANCH  28  29
ENDBRANCH   1  10
TORSDOF 5
ENDMDL
MODEL 4
REMARK VINA RESULT:    -6.572      3.443      9.437
REMARK INTER + INTRA:          -9.379
REMARK INTER:                  -8.469
REMARK INTRA:                  -0.909
REMARK UNBOUND:                -1.078
REMARK SMILES CC(C)[C@H](C)C=C[C@@H](C)[C@H]1CC[C@H]2C3=CC=C4C[C@@H](O)CC[C@@]4(C)[C@H]3CC[C@@]12C
REMARK SMILES IDX 8 1 9 2 7 3 6 4 4 5 5 6 2 7 1 8 3 9 10 10 11 11 28 12 12 13
REMARK SMILES IDX 13 14 27 15 29 16 14 17 26 18 25 19 15 20 23 21 16 22 17 23
REMARK SMILES IDX 22 24 24 25 18 26 21 27 19 28 20 29
REMARK H PARENT 20 30
REMARK Flexibility Score: inf
ROOT
ATOM      1  C   UNL     1     148.773 136.396 149.345  1.00  0.00     0.012 C 
ATOM      2  C   UNL     1     149.731 137.574 149.126  1.00  0.00     0.012 C 
ENDROOT
BRANCH   1   3
ATOM      3  C   UNL     1     149.608 135.139 149.464  1.00  0.00    -0.028 C 
ATOM      4  C   UNL     1     149.877 134.573 150.652  1.00  0.00    -0.028 C 
BRANCH   4   5
ATOM      5  C   UNL     1     150.696 133.306 150.808  1.00  0.00     0.011 C 
ATOM      6  C   UNL     1     152.124 133.472 150.263  1.00  0.00     0.012 C 
BRANCH   5   7
ATOM      7  C   UNL     1     150.659 132.705 152.246  1.00  0.00    -0.011 C 
ATOM      8  C   UNL     1     151.867 133.077 153.121  1.00  0.00     0.008 C 
ATOM      9  C   UNL     1     149.356 133.082 152.968  1.00  0.00     0.008 C 
ENDBRANCH   5   7
ENDBRANCH   4   5
ENDBRANCH   1   3
BRANCH   1  10
ATOM     10  C   UNL     1     147.736 136.231 148.184  1.00  0.00     0.002 C 
ATOM     11  C   UNL     1     148.200 135.200 147.148  1.00  0.00     0.005 C 
ATOM     12  C   UNL     1     146.282 135.804 148.568  1.00  0.00    -0.023 C 
ATOM     13  C   UNL     1     146.949 134.567 146.557  1.00  0.00     0.009 C 
ATOM     14  C   UNL     1     145.734 135.231 147.230  1.00  0.00     0.021 C 
ATOM     15  C   UNL     1     146.282 134.668 149.654  1.00  0.00     0.008 C 
ATOM     16  C   UNL     1     145.450 137.041 149.034  1.00  0.00     0.012 C 
ATOM     17  C   UNL     1     144.562 134.272 147.421  1.00  0.00    -0.063 C 
ATOM     18  C   UNL     1     144.940 133.903 149.836  1.00  0.00     0.009 C 
ATOM     19  C   UNL     1     143.873 134.238 148.772  1.00  0.00     0.025 C 
ATOM     20  C   UNL     1     144.269 133.359 146.480  1.00  0.00    -0.000 C 
ATOM     21  C   UNL     1     142.545 133.369 148.789  1.00  0.00    -0.005 C 
ATOM     22  C   UNL     1     143.386 132.221 146.758  1.00  0.00    -0.000 C 
ATOM     23  C   UNL     1     142.664 132.143 147.884  1.00  0.00    -0.061 C 
ATOM     24  C   UNL     1     142.164 132.932 150.239  1.00  0.00     0.014 C 
ATOM     25  C   UNL     1     141.398 134.247 148.216  1.00  0.00     0.017 C 
ATOM     26  C   UNL     1     141.679 131.001 148.023  1.00  0.00     0.063 C 
ATOM     27  C   UNL     1     141.027 131.902 150.291  1.00  0.00     0.033 C 
ATOM     28  C   UNL     1     141.389 130.647 149.488  1.00  0.00     0.118 C 
BRANCH  28  29
ATOM     29  O   UNL     1     142.503 130.017 150.068  1.00  0.00    -0.393 OA
ATOM     30  H   UNL     1     142.154 129.396 150.760  1.00  0.00     0.210 HD
ENDBRANCH  28  29
ENDBRANCH   1  10
TORSDOF 5
ENDMDL
MODEL 5
REMARK VINA RESULT:    -6.569      5.942      7.805
REMARK INTER + INTRA:          -9.374
REMARK INTER:                  -8.443
REMARK INTRA:                  -0.932
REMARK UNBOUND:                -1.078
REMARK SMILES CC(C)[C@H](C)C=C[C@@H](C)[C@H]1CC[C@H]2C3=CC=C4C[C@@H](O)CC[C@@]4(C)[C@H]3CC[C@@]12C
REMARK SMILES IDX 8 1 9 2 7 3 6 4 4 5 5 6 2 7 1 8 3 9 10 10 11 11 28 12 12 13
REMARK SMILES IDX 13 14 27 15 29 16 14 17 26 18 25 19 15 20 23 21 16 22 17 23
REMARK SMILES IDX 22 24 24 25 18 26 21 27 19 28 20 29
REMARK H PARENT 20 30
REMARK Flexibility Score: inf
ROOT
ATOM      1  C   UNL     1     141.538 135.372 143.304  1.00  0.00     0.012 C 
ATOM      2  C   UNL     1     142.231 134.029 143.038  1.00  0.00     0.012 C 
ENDROOT
BRANCH   1   3
ATOM      3  C   UNL     1     140.056 135.180 143.073  1.00  0.00    -0.028 C 
ATOM      4  C   UNL     1     139.357 134.215 143.695  1.00  0.00    -0.028 C 
BRANCH   4   5
ATOM      5  C   UNL     1     137.867 134.004 143.499  1.00  0.00     0.011 C 
ATOM      6  C   UNL     1     137.550 132.596 142.968  1.00  0.00     0.012 C 
BRANCH   5   7
ATOM      7  C   UNL     1     137.008 134.395 144.739  1.00  0.00    -0.011 C 
ATOM      8  C   UNL     1     137.555 133.879 146.080  1.00  0.00     0.008 C 
ATOM      9  C   UNL     1     136.802 135.917 144.810  1.00  0.00     0.008 C 
ENDBRANCH   5   7
ENDBRANCH   4   5
ENDBRANCH   1   3
BRANCH   1  10
ATOM     10  C   UNL     1     142.070 136.523 142.388  1.00  0.00     0.002 C 
ATOM     11  C   UNL     1     141.047 136.912 141.312  1.00  0.00     0.005 C 
ATOM     12  C   UNL     1     142.476 137.867 143.075  1.00  0.00    -0.023 C 
ATOM     13  C   UNL     1     141.257 138.389 141.011  1.00  0.00     0.009 C 
ATOM     14  C   UNL     1     142.416 138.881 141.897  1.00  0.00     0.021 C 
ATOM     15  C   UNL     1     141.436 138.291 144.174  1.00  0.00     0.008 C 
ATOM     16  C   UNL     1     143.921 137.770 143.662  1.00  0.00     0.012 C 
ATOM     17  C   UNL     1     142.241 140.327 142.355  1.00  0.00    -0.063 C 
ATOM     18  C   UNL     1     141.518 139.768 144.653  1.00  0.00     0.009 C 
ATOM     19  C   UNL     1     142.473 140.650 143.820  1.00  0.00     0.025 C 
ATOM     20  C   UNL     1     141.724 141.247 141.525  1.00  0.00    -0.000 C 
ATOM     21  C   UNL     1     142.474 142.205 144.137  1.00  0.00    -0.005 C 
ATOM     22  C   UNL     1     141.235 142.541 142.015  1.00  0.00    -0.000 C 
ATOM     23  C   UNL     1     141.468 142.957 143.267  1.00  0.00    -0.061 C 
ATOM     24  C   UNL     1     142.193 142.482 145.648  1.00  0.00     0.014 C 
ATOM     25  C   UNL     1     143.882 142.758 143.783  1.00  0.00     0.017 C 
ATOM     26  C   UNL     1     141.044 144.362 143.643  1.00  0.00     0.063 C 
ATOM     27  C   UNL     1     141.953 143.965 145.965  1.00  0.00     0.033 C 
ATOM     28  C   UNL     1     140.780 144.517 145.146  1.00  0.00     0.118 C 
BRANCH  28  29
ATOM     29  O   UNL     1     139.595 143.852 145.506  1.00  0.00    -0.393 OA
ATOM     30  H   UNL     1     139.197 144.361 146.260  1.00  0.00     0.210 HD
ENDBRANCH  28  29
ENDBRANCH   1  10
TORSDOF 5
ENDMDL
MODEL 6
REMARK VINA RESULT:    -6.518      2.108      3.362
REMARK INTER + INTRA:          -9.310
REMARK INTER:                  -8.662
REMARK INTRA:                  -0.648
REMARK UNBOUND:                -1.078
REMARK SMILES CC(C)[C@H](C)C=C[C@@H](C)[C@H]1CC[C@H]2C3=CC=C4C[C@@H](O)CC[C@@]4(C)[C@H]3CC[C@@]12C
REMARK SMILES IDX 8 1 9 2 7 3 6 4 4 5 5 6 2 7 1 8 3 9 10 10 11 11 28 12 12 13
REMARK SMILES IDX 13 14 27 15 29 16 14 17 26 18 25 19 15 20 23 21 16 22 17 23
REMARK SMILES IDX 22 24 24 25 18 26 21 27 19 28 20 29
REMARK H PARENT 20 30
REMARK Flexibility Score: inf
ROOT
ATOM      1  C   UNL     1     138.332 132.840 149.375  1.00  0.00     0.012 C 
ATOM      2  C   UNL     1     138.099 133.035 150.880  1.00  0.00     0.012 C 
ENDROOT
BRANCH   1   3
ATOM      3  C   UNL     1     137.196 131.997 148.839  1.00  0.00    -0.028 C 
ATOM      4  C   UNL     1     136.850 130.826 149.402  1.00  0.00    -0.028 C 
BRANCH   4   5
ATOM      5  C   UNL     1     135.708 129.964 148.901  1.00  0.00     0.011 C 
ATOM      6  C   UNL     1     136.013 129.344 147.527  1.00  0.00     0.012 C 
BRANCH   5   7
ATOM      7  C   UNL     1     135.205 128.918 149.942  1.00  0.00    -0.011 C 
ATOM      8  C   UNL     1     135.761 129.117 151.361  1.00  0.00     0.008 C 
ATOM      9  C   UNL     1     133.669 128.875 149.985  1.00  0.00     0.008 C 
ENDBRANCH   5   7
ENDBRANCH   4   5
ENDBRANCH   1   3
BRANCH   1  10
ATOM     10  C   UNL     1     139.699 132.149 149.055  1.00  0.00     0.002 C 
ATOM     11  C   UNL     1     139.814 131.777 147.572  1.00  0.00     0.005 C 
ATOM     12  C   UNL     1     141.006 132.942 149.384  1.00  0.00    -0.023 C 
ATOM     13  C   UNL     1     141.290 131.844 147.208  1.00  0.00     0.009 C 
ATOM     14  C   UNL     1     142.061 132.243 148.480  1.00  0.00     0.021 C 
ATOM     15  C   UNL     1     140.885 134.452 148.964  1.00  0.00     0.008 C 
ATOM     16  C   UNL     1     141.372 132.796 150.895  1.00  0.00     0.012 C 
ATOM     17  C   UNL     1     143.277 133.118 148.188  1.00  0.00    -0.063 C 
ATOM     18  C   UNL     1     142.222 135.243 148.885  1.00  0.00     0.009 C 
ATOM     19  C   UNL     1     143.484 134.365 149.027  1.00  0.00     0.025 C 
ATOM     20  C   UNL     1     144.037 132.888 147.105  1.00  0.00    -0.000 C 
ATOM     21  C   UNL     1     144.883 135.074 148.781  1.00  0.00    -0.005 C 
ATOM     22  C   UNL     1     144.996 133.883 146.609  1.00  0.00    -0.000 C 
ATOM     23  C   UNL     1     145.314 134.974 147.319  1.00  0.00    -0.061 C 
ATOM     24  C   UNL     1     144.855 136.570 149.232  1.00  0.00     0.014 C 
ATOM     25  C   UNL     1     145.949 134.320 149.622  1.00  0.00     0.017 C 
ATOM     26  C   UNL     1     146.412 135.873 146.790  1.00  0.00     0.063 C 
ATOM     27  C   UNL     1     146.098 137.362 148.806  1.00  0.00     0.033 C 
ATOM     28  C   UNL     1     146.278 137.320 147.284  1.00  0.00     0.118 C 
BRANCH  28  29
ATOM     29  O   UNL     1     145.189 137.952 146.659  1.00  0.00    -0.393 OA
ATOM     30  H   UNL     1     144.845 138.630 147.297  1.00  0.00     0.210 HD
ENDBRANCH  28  29
ENDBRANCH   1  10
TORSDOF 5
ENDMDL
MODEL 7
REMARK VINA RESULT:    -6.442      2.672      3.992
REMARK INTER + INTRA:          -9.214
REMARK INTER:                  -8.427
REMARK INTRA:                  -0.787
REMARK UNBOUND:                -1.078
REMARK SMILES CC(C)[C@H](C)C=C[C@@H](C)[C@H]1CC[C@H]2C3=CC=C4C[C@@H](O)CC[C@@]4(C)[C@H]3CC[C@@]12C
REMARK SMILES IDX 8 1 9 2 7 3 6 4 4 5 5 6 2 7 1 8 3 9 10 10 11 11 28 12 12 13
REMARK SMILES IDX 13 14 27 15 29 16 14 17 26 18 25 19 15 20 23 21 16 22 17 23
REMARK SMILES IDX 22 24 24 25 18 26 21 27 19 28 20 29
REMARK H PARENT 20 30
REMARK Flexibility Score: inf
ROOT
ATOM      1  C   UNL     1     141.163 133.323 150.504  1.00  0.00     0.012 C 
ATOM      2  C   UNL     1     141.602 132.007 151.160  1.00  0.00     0.012 C 
ENDROOT
BRANCH   1   3
ATOM      3  C   UNL     1     139.651 133.367 150.526  1.00  0.00    -0.028 C 
ATOM      4  C   UNL     1     138.906 132.248 150.546  1.00  0.00    -0.028 C 
BRANCH   4   5
ATOM      5  C   UNL     1     137.390 132.255 150.584  1.00  0.00     0.011 C 
ATOM      6  C   UNL     1     136.793 133.267 149.593  1.00  0.00     0.012 C 
BRANCH   5   7
ATOM      7  C   UNL     1     136.751 130.838 150.466  1.00  0.00    -0.011 C 
ATOM      8  C   UNL     1     136.241 130.487 149.059  1.00  0.00     0.008 C 
ATOM      9  C   UNL     1     137.722 129.752 150.955  1.00  0.00     0.008 C 
ENDBRANCH   5   7
ENDBRANCH   4   5
ENDBRANCH   1   3
BRANCH   1  10
ATOM     10  C   UNL     1     141.674 133.469 149.033  1.00  0.00     0.002 C 
ATOM     11  C   UNL     1     140.860 134.507 148.249  1.00  0.00     0.005 C 
ATOM     12  C   UNL     1     143.170 133.874 148.822  1.00  0.00    -0.023 C 
ATOM     13  C   UNL     1     141.795 135.119 147.216  1.00  0.00     0.009 C 
ATOM     14  C   UNL     1     143.166 134.436 147.372  1.00  0.00     0.021 C 
ATOM     15  C   UNL     1     143.605 135.011 149.815  1.00  0.00     0.008 C 
ATOM     16  C   UNL     1     144.099 132.624 148.940  1.00  0.00     0.012 C 
ATOM     17  C   UNL     1     144.334 135.377 147.089  1.00  0.00    -0.063 C 
ATOM     18  C   UNL     1     144.924 135.754 149.460  1.00  0.00     0.009 C 
ATOM     19  C   UNL     1     145.493 135.401 148.069  1.00  0.00     0.025 C 
ATOM     20  C   UNL     1     144.254 136.284 146.101  1.00  0.00    -0.000 C 
ATOM     21  C   UNL     1     146.736 136.249 147.565  1.00  0.00    -0.005 C 
ATOM     22  C   UNL     1     145.193 137.408 146.008  1.00  0.00    -0.000 C 
ATOM     23  C   UNL     1     146.295 137.475 146.768  1.00  0.00    -0.061 C 
ATOM     24  C   UNL     1     147.654 136.681 148.753  1.00  0.00     0.014 C 
ATOM     25  C   UNL     1     147.560 135.352 146.600  1.00  0.00     0.017 C 
ATOM     26  C   UNL     1     147.273 138.602 146.507  1.00  0.00     0.063 C 
ATOM     27  C   UNL     1     148.738 137.693 148.354  1.00  0.00     0.033 C 
ATOM     28  C   UNL     1     148.112 138.953 147.744  1.00  0.00     0.118 C 
BRANCH  28  29
ATOM     29  O   UNL     1     147.317 139.601 148.705  1.00  0.00    -0.393 OA
ATOM     30  H   UNL     1     147.556 139.211 149.586  1.00  0.00     0.210 HD
ENDBRANCH  28  29
ENDBRANCH   1  10
TORSDOF 5
ENDMDL
MODEL 8
REMARK VINA RESULT:    -6.427      2.832      8.593
REMARK INTER + INTRA:          -9.195
REMARK INTER:                  -8.400
REMARK INTRA:                  -0.796
REMARK UNBOUND:                -1.078
REMARK SMILES CC(C)[C@H](C)C=C[C@@H](C)[C@H]1CC[C@H]2C3=CC=C4C[C@@H](O)CC[C@@]4(C)[C@H]3CC[C@@]12C
REMARK SMILES IDX 8 1 9 2 7 3 6 4 4 5 5 6 2 7 1 8 3 9 10 10 11 11 28 12 12 13
REMARK SMILES IDX 13 14 27 15 29 16 14 17 26 18 25 19 15 20 23 21 16 22 17 23
REMARK SMILES IDX 22 24 24 25 18 26 21 27 19 28 20 29
REMARK H PARENT 20 30
REMARK Flexibility Score: inf
ROOT
ATOM      1  C   UNL     1     145.220 136.402 148.125  1.00  0.00     0.012 C 
ATOM      2  C   UNL     1     145.205 136.818 146.648  1.00  0.00     0.012 C 
ENDROOT
BRANCH   1   3
ATOM      3  C   UNL     1     146.549 136.827 148.709  1.00  0.00    -0.028 C 
ATOM      4  C   UNL     1     147.707 136.646 148.051  1.00  0.00    -0.028 C 
BRANCH   4   5
ATOM      5  C   UNL     1     149.055 137.073 148.599  1.00  0.00     0.011 C 
ATOM      6  C   UNL     1     149.178 138.603 148.698  1.00  0.00     0.012 C 
BRANCH   5   7
ATOM      7  C   UNL     1     149.460 136.344 149.916  1.00  0.00    -0.011 C 
ATOM      8  C   UNL     1     149.447 134.810 149.822  1.00  0.00     0.008 C 
ATOM      9  C   UNL     1     150.832 136.825 150.414  1.00  0.00     0.008 C 
ENDBRANCH   5   7
ENDBRANCH   4   5
ENDBRANCH   1   3
BRANCH   1  10
ATOM     10  C   UNL     1     145.023 134.863 148.326  1.00  0.00     0.002 C 
ATOM     11  C   UNL     1     145.328 134.434 149.767  1.00  0.00     0.005 C 
ATOM     12  C   UNL     1     143.613 134.266 148.008  1.00  0.00    -0.023 C 
ATOM     13  C   UNL     1     144.449 133.230 150.070  1.00  0.00     0.009 C 
ATOM     14  C   UNL     1     143.626 132.929 148.804  1.00  0.00     0.021 C 
ATOM     15  C   UNL     1     142.461 135.182 148.558  1.00  0.00     0.008 C 
ATOM     16  C   UNL     1     143.458 134.009 146.476  1.00  0.00     0.012 C 
ATOM     17  C   UNL     1     142.228 132.401 149.115  1.00  0.00    -0.063 C 
ATOM     18  C   UNL     1     141.054 134.525 148.645  1.00  0.00     0.009 C 
ATOM     19  C   UNL     1     141.049 133.005 148.375  1.00  0.00     0.025 C 
ATOM     20  C   UNL     1     142.031 131.556 150.140  1.00  0.00    -0.000 C 
ATOM     21  C   UNL     1     139.682 132.237 148.619  1.00  0.00    -0.005 C 
ATOM     22  C   UNL     1     140.692 131.290 150.676  1.00  0.00    -0.000 C 
ATOM     23  C   UNL     1     139.583 131.704 150.047  1.00  0.00    -0.061 C 
ATOM     24  C   UNL     1     138.450 133.143 148.296  1.00  0.00     0.014 C 
ATOM     25  C   UNL     1     139.656 131.006 147.671  1.00  0.00     0.017 C 
ATOM     26  C   UNL     1     138.243 131.267 150.602  1.00  0.00     0.063 C 
ATOM     27  C   UNL     1     137.110 132.534 148.733  1.00  0.00     0.033 C 
ATOM     28  C   UNL     1     137.110 132.235 150.237  1.00  0.00     0.118 C 
BRANCH  28  29
ATOM     29  O   UNL     1     137.239 133.434 150.959  1.00  0.00    -0.393 OA
ATOM     30  H   UNL     1     137.560 133.189 151.867  1.00  0.00     0.210 HD
ENDBRANCH  28  29
ENDBRANCH   1  10
TORSDOF 5
ENDMDL
MODEL 9
REMARK VINA RESULT:    -6.384      2.887      8.696
REMARK INTER + INTRA:          -9.142
REMARK INTER:                  -8.025
REMARK INTRA:                  -1.116
REMARK UNBOUND:                -1.078
REMARK SMILES CC(C)[C@H](C)C=C[C@@H](C)[C@H]1CC[C@H]2C3=CC=C4C[C@@H](O)CC[C@@]4(C)[C@H]3CC[C@@]12C
REMARK SMILES IDX 8 1 9 2 7 3 6 4 4 5 5 6 2 7 1 8 3 9 10 10 11 11 28 12 12 13
REMARK SMILES IDX 13 14 27 15 29 16 14 17 26 18 25 19 15 20 23 21 16 22 17 23
REMARK SMILES IDX 22 24 24 25 18 26 21 27 19 28 20 29
REMARK H PARENT 20 30
REMARK Flexibility Score: inf
ROOT
ATOM      1  C   UNL     1     147.108 137.362 147.221  1.00  0.00     0.012 C 
ATOM      2  C   UNL     1     147.380 138.539 146.275  1.00  0.00     0.012 C 
ENDROOT
BRANCH   1   3
ATOM      3  C   UNL     1     148.442 136.869 147.737  1.00  0.00    -0.028 C 
ATOM      4  C   UNL     1     148.781 136.957 149.035  1.00  0.00    -0.028 C 
BRANCH   4   5
ATOM      5  C   UNL     1     150.102 136.459 149.590  1.00  0.00     0.011 C 
ATOM      6  C   UNL     1     150.862 137.561 150.345  1.00  0.00     0.012 C 
BRANCH   5   7
ATOM      7  C   UNL     1     149.984 135.134 150.403  1.00  0.00    -0.011 C 
ATOM      8  C   UNL     1     148.578 134.513 150.404  1.00  0.00     0.008 C 
ATOM      9  C   UNL     1     151.012 134.098 149.922  1.00  0.00     0.008 C 
ENDBRANCH   5   7
ENDBRANCH   4   5
ENDBRANCH   1   3
BRANCH   1  10
ATOM     10  C   UNL     1     146.345 136.186 146.526  1.00  0.00     0.002 C 
ATOM     11  C   UNL     1     147.064 134.845 146.724  1.00  0.00     0.005 C 
ATOM     12  C   UNL     1     144.865 135.927 146.960  1.00  0.00    -0.023 C 
ATOM     13  C   UNL     1     145.996 133.762 146.727  1.00  0.00     0.009 C 
ATOM     14  C   UNL     1     144.636 134.454 146.518  1.00  0.00     0.021 C 
ATOM     15  C   UNL     1     144.694 136.030 148.519  1.00  0.00     0.008 C 
ATOM     16  C   UNL     1     143.896 136.898 146.213  1.00  0.00     0.012 C 
ATOM     17  C   UNL     1     143.498 133.769 147.270  1.00  0.00    -0.063 C 
ATOM     18  C   UNL     1     143.383 135.429 149.099  1.00  0.00     0.009 C 
ATOM     19  C   UNL     1     142.545 134.634 148.075  1.00  0.00     0.025 C 
ATOM     20  C   UNL     1     143.452 132.430 147.364  1.00  0.00    -0.000 C 
ATOM     21  C   UNL     1     141.287 133.844 148.634  1.00  0.00    -0.005 C 
ATOM     22  C   UNL     1     142.586 131.754 148.336  1.00  0.00    -0.000 C 
ATOM     23  C   UNL     1     141.651 132.415 149.031  1.00  0.00    -0.061 C 
ATOM     24  C   UNL     1     140.634 134.589 149.842  1.00  0.00     0.014 C 
ATOM     25  C   UNL     1     140.243 133.746 147.487  1.00  0.00     0.017 C 
ATOM     26  C   UNL     1     140.715 131.611 149.911  1.00  0.00     0.063 C 
ATOM     27  C   UNL     1     139.562 133.762 150.565  1.00  0.00     0.033 C 
ATOM     28  C   UNL     1     140.144 132.436 151.072  1.00  0.00     0.118 C 
BRANCH  28  29
ATOM     29  O   UNL     1     141.142 132.690 152.028  1.00  0.00    -0.393 OA
ATOM     30  H   UNL     1     141.786 133.321 151.612  1.00  0.00     0.210 HD
ENDBRANCH  28  29
ENDBRANCH   1  10
TORSDOF 5
ENDMDL
