MODEL 1
REMARK VINA RESULT:    -6.255      0.000      0.000
REMARK INTER + INTRA:          -7.608
REMARK INTER:                  -7.717
REMARK INTRA:                   0.109
REMARK UNBOUND:                 0.109
REMARK SMILES O=c1c(O)c(-c2cc(O)c(O)c(O)c2)oc2cc(O)cc(O)c12
REMARK SMILES IDX 5 1 3 2 2 3 1 4 23 5 21 6 20 7 18 8 17 9 16 10 15 11 6 12
REMARK SMILES IDX 7 13 8 14 14 15 10 16 12 17 9 18 11 20 13 22 4 24 22 26
REMARK SMILES IDX 19 28
REMARK H PARENT 9 19 11 21 13 23 4 25 22 27 19 29
REMARK Flexibility Score: inf
ROOT
ATOM      1  C   UNL     1      39.031 -24.206  -4.706  1.00  0.00     0.180 A 
ATOM      2  C   UNL     1      38.184 -23.516  -5.592  1.00  0.00     0.208 A 
ATOM      3  C   UNL     1      38.503 -23.495  -6.959  1.00  0.00     0.238 A 
ATOM      4  O   UNL     1      37.713 -22.922  -7.755  1.00  0.00    -0.285 OA
ATOM      5  C   UNL     1      39.669 -24.151  -7.422  1.00  0.00     0.111 A 
ATOM      6  C   UNL     1      40.110 -24.160  -8.779  1.00  0.00     0.134 A 
ATOM      7  C   UNL     1      41.207 -24.949  -9.143  1.00  0.00     0.093 A 
ATOM      8  C   UNL     1      41.919 -25.678  -8.187  1.00  0.00     0.123 A 
ATOM      9  C   UNL     1      41.533 -25.628  -6.850  1.00  0.00     0.094 A 
ATOM     10  C   UNL     1      40.421 -24.878  -6.462  1.00  0.00     0.146 A 
ATOM     11  O   UNL     1      40.081 -24.866  -5.179  1.00  0.00    -0.452 OA
ENDROOT
BRANCH   1  12
ATOM     12  C   UNL     1      38.775 -24.251  -3.248  1.00  0.00     0.029 A 
ATOM     13  C   UNL     1      39.840 -24.059  -2.354  1.00  0.00     0.062 A 
ATOM     14  C   UNL     1      39.623 -24.077  -0.972  1.00  0.00     0.162 A 
ATOM     15  C   UNL     1      37.477 -24.426  -2.739  1.00  0.00     0.062 A 
ATOM     16  C   UNL     1      38.327 -24.272  -0.467  1.00  0.00     0.200 A 
ATOM     17  C   UNL     1      37.251 -24.442  -1.355  1.00  0.00     0.162 A 
BRANCH  14  18
ATOM     18  O   UNL     1      40.710 -23.896  -0.117  1.00  0.00    -0.504 OA
ATOM     19  H   UNL     1      41.568 -24.426  -0.216  1.00  0.00     0.293 HD
ENDBRANCH  14  18
BRANCH  16  20
ATOM     20  O   UNL     1      38.120 -24.290   0.913  1.00  0.00    -0.502 OA
ATOM     21  H   UNL     1      38.876 -24.157   1.575  1.00  0.00     0.293 HD
ENDBRANCH  16  20
BRANCH  17  22
ATOM     22  O   UNL     1      35.960 -24.622  -0.860  1.00  0.00    -0.504 OA
ATOM     23  H   UNL     1      35.633 -24.128  -0.038  1.00  0.00     0.293 HD
ENDBRANCH  17  22
ENDBRANCH   1  12
BRANCH   2  24
ATOM     24  O   UNL     1      37.026 -22.894  -5.118  1.00  0.00    -0.502 OA
ATOM     25  H   UNL     1      36.258 -22.637  -5.727  1.00  0.00     0.293 HD
ENDBRANCH   2  24
BRANCH   6  26
ATOM     26  O   UNL     1      39.526 -23.396  -9.794  1.00  0.00    -0.507 OA
ATOM     27  H   UNL     1      39.383 -22.399  -9.753  1.00  0.00     0.293 HD
ENDBRANCH   6  26
BRANCH   8  28
ATOM     28  O   UNL     1      43.021 -26.449  -8.557  1.00  0.00    -0.508 OA
ATOM     29  H   UNL     1      43.347 -26.481  -9.515  1.00  0.00     0.293 HD
ENDBRANCH   8  28
TORSDOF 7
ENDMDL
MODEL 2
REMARK VINA RESULT:    -6.050     12.760     14.393
REMARK INTER + INTRA:          -7.356
REMARK INTER:                  -6.995
REMARK INTRA:                  -0.361
REMARK UNBOUND:                 0.109
REMARK SMILES O=c1c(O)c(-c2cc(O)c(O)c(O)c2)oc2cc(O)cc(O)c12
REMARK SMILES IDX 5 1 3 2 2 3 1 4 23 5 21 6 20 7 18 8 17 9 16 10 15 11 6 12
REMARK SMILES IDX 7 13 8 14 14 15 10 16 12 17 9 18 11 20 13 22 4 24 22 26
REMARK SMILES IDX 19 28
REMARK H PARENT 9 19 11 21 13 23 4 25 22 27 19 29
REMARK Flexibility Score: inf
ROOT
ATOM      1  C   UNL     1      48.729 -27.350   5.425  1.00  0.00     0.180 A 
ATOM      2  C   UNL     1      49.753 -28.274   5.152  1.00  0.00     0.208 A 
ATOM      3  C   UNL     1      50.594 -28.052   4.050  1.00  0.00     0.238 A 
ATOM      4  O   UNL     1      51.543 -28.853   3.842  1.00  0.00    -0.285 OA
ATOM      5  C   UNL     1      50.391 -26.918   3.227  1.00  0.00     0.111 A 
ATOM      6  C   UNL     1      51.157 -26.615   2.061  1.00  0.00     0.134 A 
ATOM      7  C   UNL     1      50.954 -25.400   1.398  1.00  0.00     0.093 A 
ATOM      8  C   UNL     1      49.967 -24.505   1.819  1.00  0.00     0.123 A 
ATOM      9  C   UNL     1      49.174 -24.819   2.920  1.00  0.00     0.094 A 
ATOM     10  C   UNL     1      49.377 -26.008   3.624  1.00  0.00     0.146 A 
ATOM     11  O   UNL     1      48.606 -26.263   4.674  1.00  0.00    -0.452 OA
ENDROOT
BRANCH   1  12
ATOM     12  C   UNL     1      47.787 -27.530   6.554  1.00  0.00     0.029 A 
ATOM     13  C   UNL     1      48.104 -26.991   7.810  1.00  0.00     0.062 A 
ATOM     14  C   UNL     1      47.224 -27.128   8.889  1.00  0.00     0.162 A 
ATOM     15  C   UNL     1      46.554 -28.181   6.380  1.00  0.00     0.062 A 
ATOM     16  C   UNL     1      46.001 -27.798   8.716  1.00  0.00     0.200 A 
ATOM     17  C   UNL     1      45.665 -28.321   7.456  1.00  0.00     0.162 A 
BRANCH  14  18
ATOM     18  O   UNL     1      47.583 -26.591  10.125  1.00  0.00    -0.504 OA
ATOM     19  H   UNL     1      47.946 -25.650  10.219  1.00  0.00     0.293 HD
ENDBRANCH  14  18
BRANCH  16  20
ATOM     20  O   UNL     1      45.130 -27.933   9.798  1.00  0.00    -0.502 OA
ATOM     21  H   UNL     1      45.407 -27.710  10.746  1.00  0.00     0.293 HD
ENDBRANCH  16  20
BRANCH  17  22
ATOM     22  O   UNL     1      44.446 -28.973   7.274  1.00  0.00    -0.504 OA
ATOM     23  H   UNL     1      44.363 -29.979   7.369  1.00  0.00     0.293 HD
ENDBRANCH  17  22
ENDBRANCH   1  12
BRANCH   2  24
ATOM     24  O   UNL     1      49.949 -29.375   5.991  1.00  0.00    -0.502 OA
ATOM     25  H   UNL     1      49.221 -30.055   6.175  1.00  0.00     0.293 HD
ENDBRANCH   2  24
BRANCH   6  26
ATOM     26  O   UNL     1      52.104 -27.480   1.503  1.00  0.00    -0.507 OA
ATOM     27  H   UNL     1      52.209 -27.657   0.515  1.00  0.00     0.293 HD
ENDBRANCH   6  26
BRANCH   8  28
ATOM     28  O   UNL     1      49.761 -23.304   1.143  1.00  0.00    -0.508 OA
ATOM     29  H   UNL     1      49.093 -22.618   1.473  1.00  0.00     0.293 HD
ENDBRANCH   8  28
TORSDOF 7
ENDMDL
MODEL 3
REMARK VINA RESULT:    -6.017     13.893     15.212
REMARK INTER + INTRA:          -7.315
REMARK INTER:                  -6.994
REMARK INTRA:                  -0.322
REMARK UNBOUND:                 0.109
REMARK SMILES O=c1c(O)c(-c2cc(O)c(O)c(O)c2)oc2cc(O)cc(O)c12
REMARK SMILES IDX 5 1 3 2 2 3 1 4 23 5 21 6 20 7 18 8 17 9 16 10 15 11 6 12
REMARK SMILES IDX 7 13 8 14 14 15 10 16 12 17 9 18 11 20 13 22 4 24 22 26
REMARK SMILES IDX 19 28
REMARK H PARENT 9 19 11 21 13 23 4 25 22 27 19 29
REMARK Flexibility Score: inf
ROOT
ATOM      1  C   UNL     1      49.240 -27.868   5.614  1.00  0.00     0.180 A 
ATOM      2  C   UNL     1      49.241 -26.980   4.524  1.00  0.00     0.208 A 
ATOM      3  C   UNL     1      50.228 -27.118   3.535  1.00  0.00     0.238 A 
ATOM      4  O   UNL     1      50.192 -26.355   2.534  1.00  0.00    -0.285 OA
ATOM      5  C   UNL     1      51.209 -28.131   3.654  1.00  0.00     0.111 A 
ATOM      6  C   UNL     1      52.279 -28.337   2.733  1.00  0.00     0.134 A 
ATOM      7  C   UNL     1      53.114 -29.451   2.881  1.00  0.00     0.093 A 
ATOM      8  C   UNL     1      52.958 -30.330   3.956  1.00  0.00     0.123 A 
ATOM      9  C   UNL     1      51.954 -30.104   4.894  1.00  0.00     0.094 A 
ATOM     10  C   UNL     1      51.083 -29.021   4.753  1.00  0.00     0.146 A 
ATOM     11  O   UNL     1      50.133 -28.848   5.664  1.00  0.00    -0.452 OA
ENDROOT
BRANCH   1  12
ATOM     12  C   UNL     1      48.247 -27.769   6.709  1.00  0.00     0.029 A 
ATOM     13  C   UNL     1      48.601 -27.125   7.904  1.00  0.00     0.062 A 
ATOM     14  C   UNL     1      47.676 -26.999   8.947  1.00  0.00     0.162 A 
ATOM     15  C   UNL     1      46.939 -28.257   6.554  1.00  0.00     0.062 A 
ATOM     16  C   UNL     1      46.375 -27.506   8.796  1.00  0.00     0.200 A 
ATOM     17  C   UNL     1      46.005 -28.133   7.594  1.00  0.00     0.162 A 
BRANCH  14  18
ATOM     18  O   UNL     1      48.071 -26.365  10.125  1.00  0.00    -0.504 OA
ATOM     19  H   UNL     1      48.688 -25.562  10.124  1.00  0.00     0.293 HD
ENDBRANCH  14  18
BRANCH  16  20
ATOM     20  O   UNL     1      45.460 -27.379   9.843  1.00  0.00    -0.502 OA
ATOM     21  H   UNL     1      44.774 -26.634   9.873  1.00  0.00     0.293 HD
ENDBRANCH  16  20
BRANCH  17  22
ATOM     22  O   UNL     1      44.711 -28.625   7.433  1.00  0.00    -0.504 OA
ATOM     23  H   UNL     1      44.082 -28.730   8.220  1.00  0.00     0.293 HD
ENDBRANCH  17  22
ENDBRANCH   1  12
BRANCH   2  24
ATOM     24  O   UNL     1      48.250 -26.000   4.414  1.00  0.00    -0.502 OA
ATOM     25  H   UNL     1      48.466 -25.026   4.235  1.00  0.00     0.293 HD
ENDBRANCH   2  24
BRANCH   6  26
ATOM     26  O   UNL     1      52.579 -27.468   1.679  1.00  0.00    -0.507 OA
ATOM     27  H   UNL     1      52.210 -27.551   0.743  1.00  0.00     0.293 HD
ENDBRANCH   6  26
BRANCH   8  28
ATOM     28  O   UNL     1      53.804 -31.428   4.105  1.00  0.00    -0.508 OA
ATOM     29  H   UNL     1      53.460 -32.377   4.023  1.00  0.00     0.293 HD
ENDBRANCH   8  28
TORSDOF 7
ENDMDL
MODEL 4
REMARK VINA RESULT:    -5.962     15.311     17.227
REMARK INTER + INTRA:          -7.246
REMARK INTER:                  -6.959
REMARK INTRA:                  -0.287
REMARK UNBOUND:                 0.109
REMARK SMILES O=c1c(O)c(-c2cc(O)c(O)c(O)c2)oc2cc(O)cc(O)c12
REMARK SMILES IDX 5 1 3 2 2 3 1 4 23 5 21 6 20 7 18 8 17 9 16 10 15 11 6 12
REMARK SMILES IDX 7 13 8 14 14 15 10 16 12 17 9 18 11 20 13 22 4 24 22 26
REMARK SMILES IDX 19 28
REMARK H PARENT 9 19 11 21 13 23 4 25 22 27 19 29
REMARK Flexibility Score: inf
ROOT
ATOM      1  C   UNL     1      53.957 -32.573  -2.664  1.00  0.00     0.180 A 
ATOM      2  C   UNL     1      54.494 -31.482  -3.369  1.00  0.00     0.208 A 
ATOM      3  C   UNL     1      54.967 -31.683  -4.676  1.00  0.00     0.238 A 
ATOM      4  O   UNL     1      55.397 -30.692  -5.323  1.00  0.00    -0.285 OA
ATOM      5  C   UNL     1      54.909 -32.973  -5.256  1.00  0.00     0.111 A 
ATOM      6  C   UNL     1      55.395 -33.300  -6.557  1.00  0.00     0.134 A 
ATOM      7  C   UNL     1      55.168 -34.579  -7.078  1.00  0.00     0.093 A 
ATOM      8  C   UNL     1      54.530 -35.563  -6.319  1.00  0.00     0.123 A 
ATOM      9  C   UNL     1      54.105 -35.272  -5.025  1.00  0.00     0.094 A 
ATOM     10  C   UNL     1      54.286 -33.994  -4.491  1.00  0.00     0.146 A 
ATOM     11  O   UNL     1      53.857 -33.755  -3.258  1.00  0.00    -0.452 OA
ENDROOT
BRANCH   1  12
ATOM     12  C   UNL     1      53.463 -32.444  -1.273  1.00  0.00     0.029 A 
ATOM     13  C   UNL     1      52.221 -31.835  -1.036  1.00  0.00     0.062 A 
ATOM     14  C   UNL     1      51.721 -31.718   0.266  1.00  0.00     0.162 A 
ATOM     15  C   UNL     1      54.185 -32.972  -0.190  1.00  0.00     0.062 A 
ATOM     16  C   UNL     1      52.456 -32.229   1.349  1.00  0.00     0.200 A 
ATOM     17  C   UNL     1      53.689 -32.861   1.118  1.00  0.00     0.162 A 
BRANCH  14  18
ATOM     18  O   UNL     1      50.490 -31.093   0.461  1.00  0.00    -0.504 OA
ATOM     19  H   UNL     1      50.318 -30.472   1.243  1.00  0.00     0.293 HD
ENDBRANCH  14  18
BRANCH  16  20
ATOM     20  O   UNL     1      51.951 -32.106   2.644  1.00  0.00    -0.502 OA
ATOM     21  H   UNL     1      51.055 -32.494   2.914  1.00  0.00     0.293 HD
ENDBRANCH  16  20
BRANCH  17  22
ATOM     22  O   UNL     1      54.417 -33.382   2.187  1.00  0.00    -0.504 OA
ATOM     23  H   UNL     1      54.879 -34.282   2.125  1.00  0.00     0.293 HD
ENDBRANCH  17  22
ENDBRANCH   1  12
BRANCH   2  24
ATOM     24  O   UNL     1      54.522 -30.211  -2.786  1.00  0.00    -0.502 OA
ATOM     25  H   UNL     1      55.371 -29.663  -2.718  1.00  0.00     0.293 HD
ENDBRANCH   2  24
BRANCH   6  26
ATOM     26  O   UNL     1      56.125 -32.419  -7.361  1.00  0.00    -0.507 OA
ATOM     27  H   UNL     1      57.097 -32.189  -7.225  1.00  0.00     0.293 HD
ENDBRANCH   6  26
BRANCH   8  28
ATOM     28  O   UNL     1      54.322 -36.840  -6.840  1.00  0.00    -0.508 OA
ATOM     29  H   UNL     1      54.163 -36.989  -7.829  1.00  0.00     0.293 HD
ENDBRANCH   8  28
TORSDOF 7
ENDMDL
MODEL 5
REMARK VINA RESULT:    -5.907     12.972     14.530
REMARK INTER + INTRA:          -7.179
REMARK INTER:                  -6.824
REMARK INTRA:                  -0.356
REMARK UNBOUND:                 0.109
REMARK SMILES O=c1c(O)c(-c2cc(O)c(O)c(O)c2)oc2cc(O)cc(O)c12
REMARK SMILES IDX 5 1 3 2 2 3 1 4 23 5 21 6 20 7 18 8 17 9 16 10 15 11 6 12
REMARK SMILES IDX 7 13 8 14 14 15 10 16 12 17 9 18 11 20 13 22 4 24 22 26
REMARK SMILES IDX 19 28
REMARK H PARENT 9 19 11 21 13 23 4 25 22 27 19 29
REMARK Flexibility Score: inf
ROOT
ATOM      1  C   UNL     1      48.857 -27.164   5.395  1.00  0.00     0.180 A 
ATOM      2  C   UNL     1      49.872 -28.098   5.122  1.00  0.00     0.208 A 
ATOM      3  C   UNL     1      50.745 -27.860   4.048  1.00  0.00     0.238 A 
ATOM      4  O   UNL     1      51.685 -28.671   3.842  1.00  0.00    -0.285 OA
ATOM      5  C   UNL     1      50.583 -26.700   3.253  1.00  0.00     0.111 A 
ATOM      6  C   UNL     1      51.385 -26.378   2.117  1.00  0.00     0.134 A 
ATOM      7  C   UNL     1      51.220 -25.141   1.483  1.00  0.00     0.093 A 
ATOM      8  C   UNL     1      50.237 -24.241   1.905  1.00  0.00     0.123 A 
ATOM      9  C   UNL     1      49.410 -24.572   2.976  1.00  0.00     0.094 A 
ATOM     10  C   UNL     1      49.575 -25.784   3.650  1.00  0.00     0.146 A 
ATOM     11  O   UNL     1      48.772 -26.055   4.672  1.00  0.00    -0.452 OA
ENDROOT
BRANCH   1  12
ATOM     12  C   UNL     1      47.883 -27.359   6.494  1.00  0.00     0.029 A 
ATOM     13  C   UNL     1      46.684 -28.044   6.240  1.00  0.00     0.062 A 
ATOM     14  C   UNL     1      45.755 -28.260   7.264  1.00  0.00     0.162 A 
ATOM     15  C   UNL     1      48.159 -26.923   7.800  1.00  0.00     0.062 A 
ATOM     16  C   UNL     1      46.026 -27.805   8.565  1.00  0.00     0.200 A 
ATOM     17  C   UNL     1      47.234 -27.138   8.833  1.00  0.00     0.162 A 
BRANCH  14  18
ATOM     18  O   UNL     1      44.570 -28.932   6.967  1.00  0.00    -0.504 OA
ATOM     19  H   UNL     1      43.680 -28.658   7.366  1.00  0.00     0.293 HD
ENDBRANCH  14  18
BRANCH  16  20
ATOM     20  O   UNL     1      45.093 -28.022   9.580  1.00  0.00    -0.502 OA
ATOM     21  H   UNL     1      44.654 -27.260  10.082  1.00  0.00     0.293 HD
ENDBRANCH  16  20
BRANCH  17  22
ATOM     22  O   UNL     1      47.515 -26.697  10.125  1.00  0.00    -0.504 OA
ATOM     23  H   UNL     1      47.643 -27.346  10.892  1.00  0.00     0.293 HD
ENDBRANCH  17  22
ENDBRANCH   1  12
BRANCH   2  24
ATOM     24  O   UNL     1      50.027 -29.226   5.933  1.00  0.00    -0.502 OA
ATOM     25  H   UNL     1      50.907 -29.722   6.013  1.00  0.00     0.293 HD
ENDBRANCH   2  24
BRANCH   6  26
ATOM     26  O   UNL     1      52.330 -27.244   1.558  1.00  0.00    -0.507 OA
ATOM     27  H   UNL     1      52.836 -27.068   0.704  1.00  0.00     0.293 HD
ENDBRANCH   6  26
BRANCH   8  28
ATOM     28  O   UNL     1      50.069 -23.018   1.258  1.00  0.00    -0.508 OA
ATOM     29  H   UNL     1      49.159 -22.580   1.180  1.00  0.00     0.293 HD
ENDBRANCH   8  28
TORSDOF 7
ENDMDL
MODEL 6
REMARK VINA RESULT:    -5.825     14.677     15.774
REMARK INTER + INTRA:          -7.078
REMARK INTER:                  -6.714
REMARK INTRA:                  -0.364
REMARK UNBOUND:                 0.109
REMARK SMILES O=c1c(O)c(-c2cc(O)c(O)c(O)c2)oc2cc(O)cc(O)c12
REMARK SMILES IDX 5 1 3 2 2 3 1 4 23 5 21 6 20 7 18 8 17 9 16 10 15 11 6 12
REMARK SMILES IDX 7 13 8 14 14 15 10 16 12 17 9 18 11 20 13 22 4 24 22 26
REMARK SMILES IDX 19 28
REMARK H PARENT 9 19 11 21 13 23 4 25 22 27 19 29
REMARK Flexibility Score: inf
ROOT
ATOM      1  C   UNL     1      52.946 -31.745  -3.315  1.00  0.00     0.180 A 
ATOM      2  C   UNL     1      53.764 -30.726  -3.835  1.00  0.00     0.208 A 
ATOM      3  C   UNL     1      53.909 -30.615  -5.228  1.00  0.00     0.238 A 
ATOM      4  O   UNL     1      54.598 -29.668  -5.690  1.00  0.00    -0.285 OA
ATOM      5  C   UNL     1      53.247 -31.530  -6.080  1.00  0.00     0.111 A 
ATOM      6  C   UNL     1      53.354 -31.535  -7.503  1.00  0.00     0.134 A 
ATOM      7  C   UNL     1      52.552 -32.405  -8.253  1.00  0.00     0.093 A 
ATOM      8  C   UNL     1      51.696 -33.314  -7.628  1.00  0.00     0.123 A 
ATOM      9  C   UNL     1      51.628 -33.358  -6.238  1.00  0.00     0.094 A 
ATOM     10  C   UNL     1      52.389 -32.479  -5.464  1.00  0.00     0.146 A 
ATOM     11  O   UNL     1      52.287 -32.546  -4.142  1.00  0.00    -0.452 OA
ENDROOT
BRANCH   1  12
ATOM     12  C   UNL     1      52.766 -31.941  -1.858  1.00  0.00     0.029 A 
ATOM     13  C   UNL     1      51.704 -31.300  -1.202  1.00  0.00     0.062 A 
ATOM     14  C   UNL     1      51.497 -31.483   0.170  1.00  0.00     0.162 A 
ATOM     15  C   UNL     1      53.601 -32.803  -1.128  1.00  0.00     0.062 A 
ATOM     16  C   UNL     1      52.348 -32.330   0.900  1.00  0.00     0.200 A 
ATOM     17  C   UNL     1      53.399 -32.995   0.247  1.00  0.00     0.162 A 
BRANCH  14  18
ATOM     18  O   UNL     1      50.439 -30.816   0.788  1.00  0.00    -0.504 OA
ATOM     19  H   UNL     1      49.951 -30.050   0.341  1.00  0.00     0.293 HD
ENDBRANCH  14  18
BRANCH  16  20
ATOM     20  O   UNL     1      52.136 -32.506   2.269  1.00  0.00    -0.502 OA
ATOM     21  H   UNL     1      52.394 -33.359   2.751  1.00  0.00     0.293 HD
ENDBRANCH  16  20
BRANCH  17  22
ATOM     22  O   UNL     1      54.238 -33.847   0.964  1.00  0.00    -0.504 OA
ATOM     23  H   UNL     1      55.245 -33.745   0.939  1.00  0.00     0.293 HD
ENDBRANCH  17  22
ENDBRANCH   1  12
BRANCH   2  24
ATOM     24  O   UNL     1      54.391 -29.819  -2.976  1.00  0.00    -0.502 OA
ATOM     25  H   UNL     1      54.621 -28.874  -3.258  1.00  0.00     0.293 HD
ENDBRANCH   2  24
BRANCH   6  26
ATOM     26  O   UNL     1      54.245 -30.732  -8.222  1.00  0.00    -0.507 OA
ATOM     27  H   UNL     1      55.201 -30.978  -8.429  1.00  0.00     0.293 HD
ENDBRANCH   6  26
BRANCH   8  28
ATOM     28  O   UNL     1      50.913 -34.187  -8.382  1.00  0.00    -0.508 OA
ATOM     29  H   UNL     1      50.390 -34.939  -7.949  1.00  0.00     0.293 HD
ENDBRANCH   8  28
TORSDOF 7
ENDMDL
MODEL 7
REMARK VINA RESULT:    -5.796     12.529     15.833
REMARK INTER + INTRA:          -7.043
REMARK INTER:                  -6.723
REMARK INTRA:                  -0.320
REMARK UNBOUND:                 0.109
REMARK SMILES O=c1c(O)c(-c2cc(O)c(O)c(O)c2)oc2cc(O)cc(O)c12
REMARK SMILES IDX 5 1 3 2 2 3 1 4 23 5 21 6 20 7 18 8 17 9 16 10 15 11 6 12
REMARK SMILES IDX 7 13 8 14 14 15 10 16 12 17 9 18 11 20 13 22 4 24 22 26
REMARK SMILES IDX 19 28
REMARK H PARENT 9 19 11 21 13 23 4 25 22 27 19 29
REMARK Flexibility Score: inf
ROOT
ATOM      1  C   UNL     1      48.984 -26.979   5.210  1.00  0.00     0.180 A 
ATOM      2  C   UNL     1      49.674 -26.472   6.325  1.00  0.00     0.208 A 
ATOM      3  C   UNL     1      49.056 -26.517   7.585  1.00  0.00     0.238 A 
ATOM      4  O   UNL     1      49.700 -26.112   8.589  1.00  0.00    -0.285 OA
ATOM      5  C   UNL     1      47.752 -27.053   7.713  1.00  0.00     0.111 A 
ATOM      6  C   UNL     1      47.016 -27.112   8.933  1.00  0.00     0.134 A 
ATOM      7  C   UNL     1      45.787 -27.782   8.967  1.00  0.00     0.093 A 
ATOM      8  C   UNL     1      45.238 -28.338   7.809  1.00  0.00     0.123 A 
ATOM      9  C   UNL     1      45.922 -28.235   6.600  1.00  0.00     0.094 A 
ATOM     10  C   UNL     1      47.167 -27.603   6.542  1.00  0.00     0.146 A 
ATOM     11  O   UNL     1      47.790 -27.535   5.372  1.00  0.00    -0.452 OA
ENDROOT
BRANCH   1  12
ATOM     12  C   UNL     1      49.559 -26.944   3.845  1.00  0.00     0.029 A 
ATOM     13  C   UNL     1      49.174 -25.925   2.961  1.00  0.00     0.062 A 
ATOM     14  C   UNL     1      49.717 -25.855   1.673  1.00  0.00     0.162 A 
ATOM     15  C   UNL     1      50.527 -27.876   3.436  1.00  0.00     0.062 A 
ATOM     16  C   UNL     1      50.670 -26.802   1.261  1.00  0.00     0.200 A 
ATOM     17  C   UNL     1      51.078 -27.812   2.148  1.00  0.00     0.162 A 
BRANCH  14  18
ATOM     18  O   UNL     1      49.297 -24.835   0.819  1.00  0.00    -0.504 OA
ATOM     19  H   UNL     1      48.913 -25.025  -0.099  1.00  0.00     0.293 HD
ENDBRANCH  14  18
BRANCH  16  20
ATOM     20  O   UNL     1      51.204 -26.726  -0.026  1.00  0.00    -0.502 OA
ATOM     21  H   UNL     1      51.104 -25.901  -0.606  1.00  0.00     0.293 HD
ENDBRANCH  16  20
BRANCH  17  22
ATOM     22  O   UNL     1      52.033 -28.746   1.750  1.00  0.00    -0.504 OA
ATOM     23  H   UNL     1      52.738 -29.090   2.391  1.00  0.00     0.293 HD
ENDBRANCH  17  22
ENDBRANCH   1  12
BRANCH   2  24
ATOM     24  O   UNL     1      50.969 -25.967   6.181  1.00  0.00    -0.502 OA
ATOM     25  H   UNL     1      51.762 -26.354   6.678  1.00  0.00     0.293 HD
ENDBRANCH   2  24
BRANCH   6  26
ATOM     26  O   UNL     1      47.430 -26.509  10.125  1.00  0.00    -0.507 OA
ATOM     27  H   UNL     1      47.537 -26.990  11.005  1.00  0.00     0.293 HD
ENDBRANCH   6  26
BRANCH   8  28
ATOM     28  O   UNL     1      44.006 -28.990   7.848  1.00  0.00    -0.508 OA
ATOM     29  H   UNL     1      43.925 -29.951   8.157  1.00  0.00     0.293 HD
ENDBRANCH   8  28
TORSDOF 7
ENDMDL
MODEL 8
REMARK VINA RESULT:    -5.770     14.305     17.189
REMARK INTER + INTRA:          -7.011
REMARK INTER:                  -6.655
REMARK INTRA:                  -0.356
REMARK UNBOUND:                 0.109
REMARK SMILES O=c1c(O)c(-c2cc(O)c(O)c(O)c2)oc2cc(O)cc(O)c12
REMARK SMILES IDX 5 1 3 2 2 3 1 4 23 5 21 6 20 7 18 8 17 9 16 10 15 11 6 12
REMARK SMILES IDX 7 13 8 14 14 15 10 16 12 17 9 18 11 20 13 22 4 24 22 26
REMARK SMILES IDX 19 28
REMARK H PARENT 9 19 11 21 13 23 4 25 22 27 19 29
REMARK Flexibility Score: inf
ROOT
ATOM      1  C   UNL     1      50.556 -28.068   5.777  1.00  0.00     0.180 A 
ATOM      2  C   UNL     1      50.994 -27.449   6.960  1.00  0.00     0.208 A 
ATOM      3  C   UNL     1      50.047 -27.097   7.936  1.00  0.00     0.238 A 
ATOM      4  O   UNL     1      50.451 -26.593   9.016  1.00  0.00    -0.285 OA
ATOM      5  C   UNL     1      48.674 -27.356   7.710  1.00  0.00     0.111 A 
ATOM      6  C   UNL     1      47.625 -27.007   8.612  1.00  0.00     0.134 A 
ATOM      7  C   UNL     1      46.316 -27.427   8.345  1.00  0.00     0.093 A 
ATOM      8  C   UNL     1      46.009 -28.129   7.176  1.00  0.00     0.123 A 
ATOM      9  C   UNL     1      47.017 -28.423   6.261  1.00  0.00     0.094 A 
ATOM     10  C   UNL     1      48.338 -28.047   6.517  1.00  0.00     0.146 A 
ATOM     11  O   UNL     1      49.269 -28.356   5.623  1.00  0.00    -0.452 OA
ENDROOT
BRANCH   1  12
ATOM     12  C   UNL     1      51.491 -28.444   4.692  1.00  0.00     0.029 A 
ATOM     13  C   UNL     1      51.766 -27.524   3.668  1.00  0.00     0.062 A 
ATOM     14  C   UNL     1      52.661 -27.845   2.641  1.00  0.00     0.162 A 
ATOM     15  C   UNL     1      52.156 -29.682   4.696  1.00  0.00     0.062 A 
ATOM     16  C   UNL     1      53.308 -29.093   2.639  1.00  0.00     0.200 A 
ATOM     17  C   UNL     1      53.056 -30.010   3.673  1.00  0.00     0.162 A 
BRANCH  14  18
ATOM     18  O   UNL     1      52.895 -26.909   1.634  1.00  0.00    -0.504 OA
ATOM     19  H   UNL     1      53.558 -26.152   1.745  1.00  0.00     0.293 HD
ENDBRANCH  14  18
BRANCH  16  20
ATOM     20  O   UNL     1      54.197 -29.406   1.610  1.00  0.00    -0.502 OA
ATOM     21  H   UNL     1      55.005 -28.832   1.401  1.00  0.00     0.293 HD
ENDBRANCH  16  20
BRANCH  17  22
ATOM     22  O   UNL     1      53.706 -31.244   3.683  1.00  0.00    -0.504 OA
ATOM     23  H   UNL     1      53.426 -31.997   3.066  1.00  0.00     0.293 HD
ENDBRANCH  17  22
ENDBRANCH   1  12
BRANCH   2  24
ATOM     24  O   UNL     1      52.358 -27.222   7.172  1.00  0.00    -0.502 OA
ATOM     25  H   UNL     1      52.745 -27.061   8.095  1.00  0.00     0.293 HD
ENDBRANCH   2  24
BRANCH   6  26
ATOM     26  O   UNL     1      47.808 -26.230   9.760  1.00  0.00    -0.507 OA
ATOM     27  H   UNL     1      47.246 -25.430  10.008  1.00  0.00     0.293 HD
ENDBRANCH   6  26
BRANCH   8  28
ATOM     28  O   UNL     1      44.701 -28.530   6.911  1.00  0.00    -0.508 OA
ATOM     29  H   UNL     1      44.186 -28.167   6.118  1.00  0.00     0.293 HD
ENDBRANCH   8  28
TORSDOF 7
ENDMDL
MODEL 9
REMARK VINA RESULT:    -5.710      2.736      3.795
REMARK INTER + INTRA:          -6.936
REMARK INTER:                  -6.577
REMARK INTRA:                  -0.359
REMARK UNBOUND:                 0.109
REMARK SMILES O=c1c(O)c(-c2cc(O)c(O)c(O)c2)oc2cc(O)cc(O)c12
REMARK SMILES IDX 5 1 3 2 2 3 1 4 23 5 21 6 20 7 18 8 17 9 16 10 15 11 6 12
REMARK SMILES IDX 7 13 8 14 14 15 10 16 12 17 9 18 11 20 13 22 4 24 22 26
REMARK SMILES IDX 19 28
REMARK H PARENT 9 19 11 21 13 23 4 25 22 27 19 29
REMARK Flexibility Score: inf
ROOT
ATOM      1  C   UNL     1      38.155 -22.187  -3.831  1.00  0.00     0.180 A 
ATOM      2  C   UNL     1      38.120 -20.795  -4.030  1.00  0.00     0.208 A 
ATOM      3  C   UNL     1      37.923 -20.298  -5.328  1.00  0.00     0.238 A 
ATOM      4  O   UNL     1      37.838 -19.052  -5.492  1.00  0.00    -0.285 OA
ATOM      5  C   UNL     1      37.777 -21.196  -6.412  1.00  0.00     0.111 A 
ATOM      6  C   UNL     1      37.612 -20.803  -7.774  1.00  0.00     0.134 A 
ATOM      7  C   UNL     1      37.347 -21.775  -8.746  1.00  0.00     0.093 A 
ATOM      8  C   UNL     1      37.306 -23.132  -8.416  1.00  0.00     0.123 A 
ATOM      9  C   UNL     1      37.525 -23.530  -7.100  1.00  0.00     0.094 A 
ATOM     10  C   UNL     1      37.757 -22.581  -6.101  1.00  0.00     0.146 A 
ATOM     11  O   UNL     1      37.950 -23.003  -4.858  1.00  0.00    -0.452 OA
ENDROOT
BRANCH   1  12
ATOM     12  C   UNL     1      38.385 -22.786  -2.496  1.00  0.00     0.029 A 
ATOM     13  C   UNL     1      37.288 -23.053  -1.662  1.00  0.00     0.062 A 
ATOM     14  C   UNL     1      37.474 -23.637  -0.404  1.00  0.00     0.162 A 
ATOM     15  C   UNL     1      39.673 -23.146  -2.069  1.00  0.00     0.062 A 
ATOM     16  C   UNL     1      38.767 -23.977   0.027  1.00  0.00     0.200 A 
ATOM     17  C   UNL     1      39.868 -23.735  -0.811  1.00  0.00     0.162 A 
BRANCH  14  18
ATOM     18  O   UNL     1      36.360 -23.872   0.401  1.00  0.00    -0.504 OA
ATOM     19  H   UNL     1      35.593 -23.214   0.467  1.00  0.00     0.293 HD
ENDBRANCH  14  18
BRANCH  16  20
ATOM     20  O   UNL     1      38.944 -24.557   1.284  1.00  0.00    -0.502 OA
ATOM     21  H   UNL     1      39.208 -25.528   1.400  1.00  0.00     0.293 HD
ENDBRANCH  16  20
BRANCH  17  22
ATOM     22  O   UNL     1      41.152 -24.083  -0.394  1.00  0.00    -0.504 OA
ATOM     23  H   UNL     1      41.309 -24.825   0.279  1.00  0.00     0.293 HD
ENDBRANCH  17  22
ENDBRANCH   1  12
BRANCH   2  24
ATOM     24  O   UNL     1      38.244 -19.926  -2.942  1.00  0.00    -0.502 OA
ATOM     25  H   UNL     1      38.999 -20.000  -2.270  1.00  0.00     0.293 HD
ENDBRANCH   2  24
BRANCH   6  26
ATOM     26  O   UNL     1      37.726 -19.484  -8.225  1.00  0.00    -0.507 OA
ATOM     27  H   UNL     1      37.181 -18.710  -7.878  1.00  0.00     0.293 HD
ENDBRANCH   6  26
BRANCH   8  28
ATOM     28  O   UNL     1      37.057 -24.094  -9.394  1.00  0.00    -0.508 OA
ATOM     29  H   UNL     1      37.416 -23.997 -10.336  1.00  0.00     0.293 HD
ENDBRANCH   8  28
TORSDOF 7
ENDMDL
