MODEL 1
REMARK VINA RESULT:    -5.235      0.000      0.000
REMARK INTER + INTRA:          -9.211
REMARK INTER:                  -7.989
REMARK INTRA:                  -1.222
REMARK UNBOUND:                -1.222
REMARK SMILES CC(=O)CCC=C(C)CCC=C(C)CCC=C(C)C
REMARK SMILES IDX 10 1 11 2 12 3 13 4 14 5 15 6 16 7 18 8 17 9 19 10 9 11 7 12
REMARK SMILES IDX 6 13 8 14 5 15 4 16 2 17 3 18 1 19
REMARK H PARENT
REMARK Flexibility Score: inf
ROOT
ATOM      1  C   UNL     1      82.981   2.257  29.601  1.00  0.00     0.032 C 
ENDROOT
BRANCH   1   2
ATOM      2  C   UNL     1      83.206   2.924  28.267  1.00  0.00    -0.028 C 
ATOM      3  C   UNL     1      84.413   3.327  27.807  1.00  0.00    -0.077 C 
ATOM      4  C   UNL     1      85.683   3.095  28.593  1.00  0.00     0.039 C 
BRANCH   3   5
ATOM      5  C   UNL     1      84.494   4.011  26.461  1.00  0.00     0.034 C 
BRANCH   5   6
ATOM      6  C   UNL     1      84.330   5.527  26.610  1.00  0.00     0.032 C 
BRANCH   6   7
ATOM      7  C   UNL     1      82.895   5.937  26.393  1.00  0.00    -0.028 C 
ATOM      8  C   UNL     1      80.646   6.713  27.005  1.00  0.00     0.039 C 
ATOM      9  C   UNL     1      82.044   6.296  27.380  1.00  0.00    -0.080 C 
ATOM     10  C   UNL     1      82.448   6.267  28.836  1.00  0.00     0.039 C 
ENDBRANCH   6   7
ENDBRANCH   5   6
ENDBRANCH   3   5
ENDBRANCH   1   2
BRANCH   1  11
ATOM     11  C   UNL     1      82.104   3.131  30.507  1.00  0.00     0.034 C 
BRANCH  11  12
ATOM     12  C   UNL     1      81.343   2.284  31.503  1.00  0.00    -0.077 C 
ATOM     13  C   UNL     1      81.487   0.939  31.464  1.00  0.00    -0.028 C 
ATOM     14  C   UNL     1      80.443   2.959  32.510  1.00  0.00     0.039 C 
BRANCH  13  15
ATOM     15  C   UNL     1      80.826  -0.019  32.423  1.00  0.00     0.035 C 
BRANCH  15  16
ATOM     16  C   UNL     1      81.318  -1.449  32.184  1.00  0.00     0.079 C 
BRANCH  16  17
ATOM     17  C   UNL     1      80.680  -2.035  30.954  1.00  0.00     0.130 C 
ATOM     18  O   UNL     1      79.497  -2.342  30.971  1.00  0.00    -0.300 OA
ATOM     19  C   UNL     1      81.481  -2.222  29.701  1.00  0.00     0.087 C 
ENDBRANCH  16  17
ENDBRANCH  15  16
ENDBRANCH  13  15
ENDBRANCH  11  12
ENDBRANCH   1  11
TORSDOF 9
ENDMDL
MODEL 2
REMARK VINA RESULT:    -4.851      2.055      3.500
REMARK INTER + INTRA:          -8.625
REMARK INTER:                  -7.769
REMARK INTRA:                  -0.856
REMARK UNBOUND:                -1.222
REMARK SMILES CC(=O)CCC=C(C)CCC=C(C)CCC=C(C)C
REMARK SMILES IDX 10 1 11 2 12 3 13 4 14 5 15 6 16 7 18 8 17 9 19 10 9 11 7 12
REMARK SMILES IDX 6 13 8 14 5 15 4 16 2 17 3 18 1 19
REMARK H PARENT
REMARK Flexibility Score: inf
ROOT
ATOM      1  C   UNL     1      82.160   0.598  29.997  1.00  0.00     0.032 C 
ENDROOT
BRANCH   1   2
ATOM      2  C   UNL     1      82.179   2.057  30.381  1.00  0.00    -0.028 C 
ATOM      3  C   UNL     1      82.860   3.016  29.712  1.00  0.00    -0.077 C 
ATOM      4  C   UNL     1      83.648   2.707  28.460  1.00  0.00     0.039 C 
BRANCH   3   5
ATOM      5  C   UNL     1      82.816   4.438  30.223  1.00  0.00     0.034 C 
BRANCH   5   6
ATOM      6  C   UNL     1      83.316   5.416  29.155  1.00  0.00     0.032 C 
BRANCH   6   7
ATOM      7  C   UNL     1      82.185   6.268  28.634  1.00  0.00    -0.028 C 
ATOM      8  C   UNL     1      80.636   7.205  26.973  1.00  0.00     0.039 C 
ATOM      9  C   UNL     1      81.807   6.331  27.337  1.00  0.00    -0.080 C 
ATOM     10  C   UNL     1      82.538   5.572  26.254  1.00  0.00     0.039 C 
ENDBRANCH   6   7
ENDBRANCH   5   6
ENDBRANCH   3   5
ENDBRANCH   1   2
BRANCH   1  11
ATOM     11  C   UNL     1      81.883  -0.284  31.220  1.00  0.00     0.034 C 
BRANCH  11  12
ATOM     12  C   UNL     1      81.032  -1.478  30.844  1.00  0.00    -0.077 C 
ATOM     13  C   UNL     1      81.340  -2.176  29.726  1.00  0.00    -0.028 C 
ATOM     14  C   UNL     1      79.863  -1.856  31.721  1.00  0.00     0.039 C 
BRANCH  13  15
ATOM     15  C   UNL     1      80.607  -3.408  29.261  1.00  0.00     0.035 C 
BRANCH  15  16
ATOM     16  C   UNL     1      81.418  -4.147  28.192  1.00  0.00     0.079 C 
BRANCH  16  17
ATOM     17  C   UNL     1      80.699  -5.389  27.739  1.00  0.00     0.130 C 
ATOM     18  O   UNL     1      79.484  -5.463  27.852  1.00  0.00    -0.300 OA
ATOM     19  C   UNL     1      81.460  -6.527  27.129  1.00  0.00     0.087 C 
ENDBRANCH  16  17
ENDBRANCH  15  16
ENDBRANCH  13  15
ENDBRANCH  11  12
ENDBRANCH   1  11
TORSDOF 9
ENDMDL
MODEL 3
REMARK VINA RESULT:    -4.681      6.884     10.981
REMARK INTER + INTRA:          -8.366
REMARK INTER:                  -6.306
REMARK INTRA:                  -2.060
REMARK UNBOUND:                -1.222
REMARK SMILES CC(=O)CCC=C(C)CCC=C(C)CCC=C(C)C
REMARK SMILES IDX 10 1 11 2 12 3 13 4 14 5 15 6 16 7 18 8 17 9 19 10 9 11 7 12
REMARK SMILES IDX 6 13 8 14 5 15 4 16 2 17 3 18 1 19
REMARK H PARENT
REMARK Flexibility Score: inf
ROOT
ATOM      1  C   UNL     1      80.160  -9.632  29.310  1.00  0.00     0.032 C 
ENDROOT
BRANCH   1   2
ATOM      2  C   UNL     1      80.844  -8.376  28.831  1.00  0.00    -0.028 C 
ATOM      3  C   UNL     1      81.216  -8.149  27.550  1.00  0.00    -0.077 C 
ATOM      4  C   UNL     1      80.929  -9.143  26.448  1.00  0.00     0.039 C 
BRANCH   3   5
ATOM      5  C   UNL     1      81.921  -6.855  27.210  1.00  0.00     0.034 C 
BRANCH   5   6
ATOM      6  C   UNL     1      80.908  -5.745  26.912  1.00  0.00     0.032 C 
BRANCH   6   7
ATOM      7  C   UNL     1      81.299  -4.460  27.598  1.00  0.00    -0.028 C 
ATOM      8  C   UNL     1      81.310  -2.749  29.362  1.00  0.00     0.039 C 
ATOM      9  C   UNL     1      80.799  -4.042  28.783  1.00  0.00    -0.080 C 
ATOM     10  C   UNL     1      79.734  -4.820  29.521  1.00  0.00     0.039 C 
ENDBRANCH   6   7
ENDBRANCH   5   6
ENDBRANCH   3   5
ENDBRANCH   1   2
BRANCH   1  11
ATOM     11  C   UNL     1      78.888  -9.294  30.097  1.00  0.00     0.034 C 
BRANCH  11  12
ATOM     12  C   UNL     1      77.874  -8.601  29.213  1.00  0.00    -0.077 C 
ATOM     13  C   UNL     1      77.588  -9.134  28.002  1.00  0.00    -0.028 C 
ATOM     14  C   UNL     1      77.212  -7.336  29.701  1.00  0.00     0.039 C 
BRANCH  13  15
ATOM     15  C   UNL     1      76.568  -8.575  27.043  1.00  0.00     0.035 C 
BRANCH  15  16
ATOM     16  C   UNL     1      77.061  -8.697  25.599  1.00  0.00     0.079 C 
BRANCH  16  17
ATOM     17  C   UNL     1      77.828  -7.469  25.190  1.00  0.00     0.130 C 
ATOM     18  O   UNL     1      78.518  -7.492  24.180  1.00  0.00    -0.300 OA
ATOM     19  C   UNL     1      77.734  -6.211  25.999  1.00  0.00     0.087 C 
ENDBRANCH  16  17
ENDBRANCH  15  16
ENDBRANCH  13  15
ENDBRANCH  11  12
ENDBRANCH   1  11
TORSDOF 9
ENDMDL
MODEL 4
REMARK VINA RESULT:    -4.660      6.481     11.705
REMARK INTER + INTRA:          -8.334
REMARK INTER:                  -5.785
REMARK INTRA:                  -2.549
REMARK UNBOUND:                -1.222
REMARK SMILES CC(=O)CCC=C(C)CCC=C(C)CCC=C(C)C
REMARK SMILES IDX 10 1 11 2 12 3 13 4 14 5 15 6 16 7 18 8 17 9 19 10 9 11 7 12
REMARK SMILES IDX 6 13 8 14 5 15 4 16 2 17 3 18 1 19
REMARK H PARENT
REMARK Flexibility Score: inf
ROOT
ATOM      1  C   UNL     1      78.065  -8.713  27.053  1.00  0.00     0.032 C 
ENDROOT
BRANCH   1   2
ATOM      2  C   UNL     1      79.227  -9.282  27.829  1.00  0.00    -0.028 C 
ATOM      3  C   UNL     1      79.673  -8.792  29.008  1.00  0.00    -0.077 C 
ATOM      4  C   UNL     1      78.996  -7.627  29.694  1.00  0.00     0.039 C 
BRANCH   3   5
ATOM      5  C   UNL     1      80.869  -9.441  29.667  1.00  0.00     0.034 C 
BRANCH   5   6
ATOM      6  C   UNL     1      81.791 -10.072  28.619  1.00  0.00     0.032 C 
BRANCH   6   7
ATOM      7  C   UNL     1      82.676  -9.029  27.984  1.00  0.00    -0.028 C 
ATOM      8  C   UNL     1      83.701  -7.734  26.164  1.00  0.00     0.039 C 
ATOM      9  C   UNL     1      82.801  -8.840  26.650  1.00  0.00    -0.080 C 
ATOM     10  C   UNL     1      82.086  -9.715  25.648  1.00  0.00     0.039 C 
ENDBRANCH   6   7
ENDBRANCH   5   6
ENDBRANCH   3   5
ENDBRANCH   1   2
BRANCH   1  11
ATOM     11  C   UNL     1      78.558  -7.913  25.840  1.00  0.00     0.034 C 
BRANCH  11  12
ATOM     12  C   UNL     1      79.013  -6.530  26.254  1.00  0.00    -0.077 C 
ATOM     13  C   UNL     1      80.334  -6.303  26.437  1.00  0.00    -0.028 C 
ATOM     14  C   UNL     1      77.984  -5.444  26.454  1.00  0.00     0.039 C 
BRANCH  13  15
ATOM     15  C   UNL     1      80.928  -4.966  26.804  1.00  0.00     0.035 C 
BRANCH  15  16
ATOM     16  C   UNL     1      81.347  -4.947  28.276  1.00  0.00     0.079 C 
BRANCH  16  17
ATOM     17  C   UNL     1      80.604  -3.877  29.030  1.00  0.00     0.130 C 
ATOM     18  O   UNL     1      79.464  -4.087  29.416  1.00  0.00    -0.300 OA
ATOM     19  C   UNL     1      81.262  -2.564  29.330  1.00  0.00     0.087 C 
ENDBRANCH  16  17
ENDBRANCH  15  16
ENDBRANCH  13  15
ENDBRANCH  11  12
ENDBRANCH   1  11
TORSDOF 9
ENDMDL
MODEL 5
REMARK VINA RESULT:    -4.603      7.170     11.542
REMARK INTER + INTRA:          -8.248
REMARK INTER:                  -6.266
REMARK INTRA:                  -1.982
REMARK UNBOUND:                -1.222
REMARK SMILES CC(=O)CCC=C(C)CCC=C(C)CCC=C(C)C
REMARK SMILES IDX 10 1 11 2 12 3 13 4 14 5 15 6 16 7 18 8 17 9 19 10 9 11 7 12
REMARK SMILES IDX 6 13 8 14 5 15 4 16 2 17 3 18 1 19
REMARK H PARENT
REMARK Flexibility Score: inf
ROOT
ATOM      1  C   UNL     1      77.451  -7.117  25.637  1.00  0.00     0.032 C 
ENDROOT
BRANCH   1   2
ATOM      2  C   UNL     1      77.975  -6.670  26.979  1.00  0.00    -0.028 C 
ATOM      3  C   UNL     1      77.737  -7.313  28.145  1.00  0.00    -0.077 C 
ATOM      4  C   UNL     1      76.941  -8.596  28.200  1.00  0.00     0.039 C 
BRANCH   3   5
ATOM      5  C   UNL     1      78.301  -6.740  29.426  1.00  0.00     0.034 C 
BRANCH   5   6
ATOM      6  C   UNL     1      79.825  -6.603  29.337  1.00  0.00     0.032 C 
BRANCH   6   7
ATOM      7  C   UNL     1      80.250  -5.172  29.554  1.00  0.00    -0.028 C 
ATOM      8  C   UNL     1      81.235  -2.993  28.989  1.00  0.00     0.039 C 
ATOM      9  C   UNL     1      80.903  -4.420  28.639  1.00  0.00    -0.080 C 
ATOM     10  C   UNL     1      81.324  -4.977  27.299  1.00  0.00     0.039 C 
ENDBRANCH   6   7
ENDBRANCH   5   6
ENDBRANCH   3   5
ENDBRANCH   1   2
BRANCH   1  11
ATOM     11  C   UNL     1      78.600  -7.558  24.722  1.00  0.00     0.034 C 
BRANCH  11  12
ATOM     12  C   UNL     1      79.375  -8.701  25.341  1.00  0.00    -0.077 C 
ATOM     13  C   UNL     1      80.520  -8.430  26.010  1.00  0.00    -0.028 C 
ATOM     14  C   UNL     1      78.855 -10.110  25.193  1.00  0.00     0.039 C 
BRANCH  13  15
ATOM     15  C   UNL     1      81.364  -9.464  26.712  1.00  0.00     0.035 C 
BRANCH  15  16
ATOM     16  C   UNL     1      82.434  -8.792  27.575  1.00  0.00     0.079 C 
BRANCH  16  17
ATOM     17  C   UNL     1      83.741  -8.703  26.835  1.00  0.00     0.130 C 
ATOM     18  O   UNL     1      84.543  -9.623  26.907  1.00  0.00    -0.300 OA
ATOM     19  C   UNL     1      84.056  -7.505  25.991  1.00  0.00     0.087 C 
ENDBRANCH  16  17
ENDBRANCH  15  16
ENDBRANCH  13  15
ENDBRANCH  11  12
ENDBRANCH   1  11
TORSDOF 9
ENDMDL
MODEL 6
REMARK VINA RESULT:    -4.599      6.462     11.977
REMARK INTER + INTRA:          -8.240
REMARK INTER:                  -5.995
REMARK INTRA:                  -2.245
REMARK UNBOUND:                -1.222
REMARK SMILES CC(=O)CCC=C(C)CCC=C(C)CCC=C(C)C
REMARK SMILES IDX 10 1 11 2 12 3 13 4 14 5 15 6 16 7 18 8 17 9 19 10 9 11 7 12
REMARK SMILES IDX 6 13 8 14 5 15 4 16 2 17 3 18 1 19
REMARK H PARENT
REMARK Flexibility Score: inf
ROOT
ATOM      1  C   UNL     1      79.840  -8.841  30.013  1.00  0.00     0.032 C 
ENDROOT
BRANCH   1   2
ATOM      2  C   UNL     1      78.558  -9.368  29.418  1.00  0.00    -0.028 C 
ATOM      3  C   UNL     1      77.374  -8.714  29.449  1.00  0.00    -0.077 C 
ATOM      4  C   UNL     1      77.240  -7.339  30.061  1.00  0.00     0.039 C 
BRANCH   3   5
ATOM      5  C   UNL     1      76.157  -9.372  28.838  1.00  0.00     0.034 C 
BRANCH   5   6
ATOM      6  C   UNL     1      76.375  -9.640  27.345  1.00  0.00     0.032 C 
BRANCH   6   7
ATOM      7  C   UNL     1      76.844  -8.393  26.638  1.00  0.00    -0.028 C 
ATOM      8  C   UNL     1      78.277  -7.012  25.196  1.00  0.00     0.039 C 
ATOM      9  C   UNL     1      77.953  -8.321  25.866  1.00  0.00    -0.080 C 
ATOM     10  C   UNL     1      78.876  -9.502  25.681  1.00  0.00     0.039 C 
ENDBRANCH   6   7
ENDBRANCH   5   6
ENDBRANCH   3   5
ENDBRANCH   1   2
BRANCH   1  11
ATOM     11  C   UNL     1      80.980  -8.896  28.988  1.00  0.00     0.034 C 
BRANCH  11  12
ATOM     12  C   UNL     1      81.013  -7.638  28.149  1.00  0.00    -0.077 C 
ATOM     13  C   UNL     1      80.306  -6.559  28.558  1.00  0.00    -0.028 C 
ATOM     14  C   UNL     1      81.830  -7.619  26.880  1.00  0.00     0.039 C 
BRANCH  13  15
ATOM     15  C   UNL     1      80.286  -5.230  27.844  1.00  0.00     0.035 C 
BRANCH  15  16
ATOM     16  C   UNL     1      81.334  -4.284  28.436  1.00  0.00     0.079 C 
BRANCH  16  17
ATOM     17  C   UNL     1      80.677  -3.184  29.225  1.00  0.00     0.130 C 
ATOM     18  O   UNL     1      79.520  -3.312  29.597  1.00  0.00    -0.300 OA
ATOM     19  C   UNL     1      81.440  -1.943  29.578  1.00  0.00     0.087 C 
ENDBRANCH  16  17
ENDBRANCH  15  16
ENDBRANCH  13  15
ENDBRANCH  11  12
ENDBRANCH   1  11
TORSDOF 9
ENDMDL
MODEL 7
REMARK VINA RESULT:    -4.593      8.880     12.175
REMARK INTER + INTRA:          -8.231
REMARK INTER:                  -6.045
REMARK INTRA:                  -2.187
REMARK UNBOUND:                -1.222
REMARK SMILES CC(=O)CCC=C(C)CCC=C(C)CCC=C(C)C
REMARK SMILES IDX 10 1 11 2 12 3 13 4 14 5 15 6 16 7 18 8 17 9 19 10 9 11 7 12
REMARK SMILES IDX 6 13 8 14 5 15 4 16 2 17 3 18 1 19
REMARK H PARENT
REMARK Flexibility Score: inf
ROOT
ATOM      1  C   UNL     1      79.762  -5.565  29.714  1.00  0.00     0.032 C 
ENDROOT
BRANCH   1   2
ATOM      2  C   UNL     1      78.388  -6.186  29.713  1.00  0.00    -0.028 C 
ATOM      3  C   UNL     1      78.150  -7.518  29.751  1.00  0.00    -0.077 C 
ATOM      4  C   UNL     1      79.272  -8.525  29.847  1.00  0.00     0.039 C 
BRANCH   3   5
ATOM      5  C   UNL     1      76.720  -8.009  29.716  1.00  0.00     0.034 C 
BRANCH   5   6
ATOM      6  C   UNL     1      76.570  -9.180  28.740  1.00  0.00     0.032 C 
BRANCH   6   7
ATOM      7  C   UNL     1      76.241  -8.686  27.353  1.00  0.00    -0.028 C 
ATOM      8  C   UNL     1      76.553  -8.340  24.940  1.00  0.00     0.039 C 
ATOM      9  C   UNL     1      77.031  -8.863  26.270  1.00  0.00    -0.080 C 
ATOM     10  C   UNL     1      78.376  -9.545  26.363  1.00  0.00     0.039 C 
ENDBRANCH   6   7
ENDBRANCH   5   6
ENDBRANCH   3   5
ENDBRANCH   1   2
BRANCH   1  11
ATOM     11  C   UNL     1      80.049  -4.874  28.375  1.00  0.00     0.034 C 
BRANCH  11  12
ATOM     12  C   UNL     1      80.302  -5.893  27.285  1.00  0.00    -0.077 C 
ATOM     13  C   UNL     1      81.365  -6.723  27.398  1.00  0.00    -0.028 C 
ATOM     14  C   UNL     1      79.367  -5.955  26.102  1.00  0.00     0.039 C 
BRANCH  13  15
ATOM     15  C   UNL     1      81.707  -7.811  26.412  1.00  0.00     0.035 C 
BRANCH  15  16
ATOM     16  C   UNL     1      82.825  -8.703  26.958  1.00  0.00     0.079 C 
BRANCH  16  17
ATOM     17  C   UNL     1      84.115  -8.454  26.224  1.00  0.00     0.130 C 
ATOM     18  O   UNL     1      84.261  -7.421  25.587  1.00  0.00    -0.300 OA
ATOM     19  C   UNL     1      85.230  -9.453  26.288  1.00  0.00     0.087 C 
ENDBRANCH  16  17
ENDBRANCH  15  16
ENDBRANCH  13  15
ENDBRANCH  11  12
ENDBRANCH   1  11
TORSDOF 9
ENDMDL
MODEL 8
REMARK VINA RESULT:    -4.528      8.635     12.434
REMARK INTER + INTRA:          -8.132
REMARK INTER:                  -5.701
REMARK INTRA:                  -2.431
REMARK UNBOUND:                -1.222
REMARK SMILES CC(=O)CCC=C(C)CCC=C(C)CCC=C(C)C
REMARK SMILES IDX 10 1 11 2 12 3 13 4 14 5 15 6 16 7 18 8 17 9 19 10 9 11 7 12
REMARK SMILES IDX 6 13 8 14 5 15 4 16 2 17 3 18 1 19
REMARK H PARENT
REMARK Flexibility Score: inf
ROOT
ATOM      1  C   UNL     1      76.124  -8.713  27.356  1.00  0.00     0.032 C 
ENDROOT
BRANCH   1   2
ATOM      2  C   UNL     1      77.227  -9.287  28.210  1.00  0.00    -0.028 C 
ATOM      3  C   UNL     1      77.708  -8.704  29.332  1.00  0.00    -0.077 C 
ATOM      4  C   UNL     1      77.135  -7.412  29.868  1.00  0.00     0.039 C 
BRANCH   3   5
ATOM      5  C   UNL     1      78.839  -9.375  30.080  1.00  0.00     0.034 C 
BRANCH   5   6
ATOM      6  C   UNL     1      80.128  -8.554  29.968  1.00  0.00     0.032 C 
BRANCH   6   7
ATOM      7  C   UNL     1      80.731  -8.683  28.592  1.00  0.00    -0.028 C 
ATOM      8  C   UNL     1      82.388  -9.336  26.899  1.00  0.00     0.039 C 
ATOM      9  C   UNL     1      81.931  -9.249  28.332  1.00  0.00    -0.080 C 
ATOM     10  C   UNL     1      82.825  -9.770  29.432  1.00  0.00     0.039 C 
ENDBRANCH   6   7
ENDBRANCH   5   6
ENDBRANCH   3   5
ENDBRANCH   1   2
BRANCH   1  11
ATOM     11  C   UNL     1      76.590  -8.543  25.905  1.00  0.00     0.034 C 
BRANCH  11  12
ATOM     12  C   UNL     1      77.872  -7.741  25.840  1.00  0.00    -0.077 C 
ATOM     13  C   UNL     1      77.878  -6.475  26.318  1.00  0.00    -0.028 C 
ATOM     14  C   UNL     1      79.107  -8.371  25.241  1.00  0.00     0.039 C 
BRANCH  13  15
ATOM     15  C   UNL     1      79.093  -5.583  26.357  1.00  0.00     0.035 C 
BRANCH  15  16
ATOM     16  C   UNL     1      79.533  -5.333  27.802  1.00  0.00     0.079 C 
BRANCH  16  17
ATOM     17  C   UNL     1      80.986  -4.947  27.859  1.00  0.00     0.130 C 
ATOM     18  O   UNL     1      81.351  -4.065  28.624  1.00  0.00    -0.300 OA
ATOM     19  C   UNL     1      81.993  -5.652  27.002  1.00  0.00     0.087 C 
ENDBRANCH  16  17
ENDBRANCH  15  16
ENDBRANCH  13  15
ENDBRANCH  11  12
ENDBRANCH   1  11
TORSDOF 9
ENDMDL
MODEL 9
REMARK VINA RESULT:    -4.402      7.750     11.290
REMARK INTER + INTRA:          -7.941
REMARK INTER:                  -6.454
REMARK INTRA:                  -1.487
REMARK UNBOUND:                -1.222
REMARK SMILES CC(=O)CCC=C(C)CCC=C(C)CCC=C(C)C
REMARK SMILES IDX 10 1 11 2 12 3 13 4 14 5 15 6 16 7 18 8 17 9 19 10 9 11 7 12
REMARK SMILES IDX 6 13 8 14 5 15 4 16 2 17 3 18 1 19
REMARK H PARENT
REMARK Flexibility Score: inf
ROOT
ATOM      1  C   UNL     1      78.340  -5.205  28.829  1.00  0.00     0.032 C 
ENDROOT
BRANCH   1   2
ATOM      2  C   UNL     1      79.507  -5.561  27.942  1.00  0.00    -0.028 C 
ATOM      3  C   UNL     1      80.709  -4.939  27.972  1.00  0.00    -0.077 C 
ATOM      4  C   UNL     1      81.008  -3.831  28.955  1.00  0.00     0.039 C 
BRANCH   3   5
ATOM      5  C   UNL     1      81.786  -5.379  27.006  1.00  0.00     0.034 C 
BRANCH   5   6
ATOM      6  C   UNL     1      81.746  -6.897  26.800  1.00  0.00     0.032 C 
BRANCH   6   7
ATOM      7  C   UNL     1      83.097  -7.420  26.383  1.00  0.00    -0.028 C 
ATOM      8  C   UNL     1      84.953  -9.022  26.219  1.00  0.00     0.039 C 
ATOM      9  C   UNL     1      83.598  -8.624  26.742  1.00  0.00    -0.080 C 
ATOM     10  C   UNL     1      82.849  -9.559  27.663  1.00  0.00     0.039 C 
ENDBRANCH   6   7
ENDBRANCH   5   6
ENDBRANCH   3   5
ENDBRANCH   1   2
BRANCH   1  11
ATOM     11  C   UNL     1      77.992  -6.368  29.766  1.00  0.00     0.034 C 
BRANCH  11  12
ATOM     12  C   UNL     1      78.340  -7.697  29.131  1.00  0.00    -0.077 C 
ATOM     13  C   UNL     1      77.632  -8.114  28.056  1.00  0.00    -0.028 C 
ATOM     14  C   UNL     1      79.462  -8.521  29.714  1.00  0.00     0.039 C 
BRANCH  13  15
ATOM     15  C   UNL     1      77.900  -9.391  27.301  1.00  0.00     0.035 C 
BRANCH  15  16
ATOM     16  C   UNL     1      78.814  -9.127  26.101  1.00  0.00     0.079 C 
BRANCH  16  17
ATOM     17  C   UNL     1      78.140  -8.224  25.104  1.00  0.00     0.130 C 
ATOM     18  O   UNL     1      78.664  -7.164  24.793  1.00  0.00    -0.300 OA
ATOM     19  C   UNL     1      76.842  -8.626  24.472  1.00  0.00     0.087 C 
ENDBRANCH  16  17
ENDBRANCH  15  16
ENDBRANCH  13  15
ENDBRANCH  11  12
ENDBRANCH   1  11
TORSDOF 9
ENDMDL
