MODEL 1
REMARK VINA RESULT:     3.133      0.000      0.000
REMARK INTER + INTRA:           3.133
REMARK INTER:                   3.133
REMARK INTRA:                   0.000
REMARK UNBOUND:                 0.000
REMARK SMILES CC1(C)[C@H]2CC[C@]1(C)C(=O)C2
REMARK SMILES IDX 1 1 2 2 4 3 5 4 6 5 7 6 9 7 10 8 11 9 8 10 3 11
REMARK H PARENT
REMARK Flexibility Score: inf
ROOT
ATOM      1  C   UNL     1      13.418   4.324   7.666  1.00  0.00     0.012 C 
ATOM      2  C   UNL     1      13.046   2.809   7.660  1.00  0.00    -0.020 C 
ATOM      3  C   UNL     1      13.379   2.095   6.328  1.00  0.00     0.003 C 
ATOM      4  C   UNL     1      12.763   0.684   6.534  1.00  0.00     0.005 C 
ATOM      5  C   UNL     1      11.482   0.980   7.355  1.00  0.00     0.015 C 
ATOM      6  C   UNL     1      11.535   2.517   7.523  1.00  0.00     0.032 C 
ATOM      7  C   UNL     1      11.271   3.065   6.142  1.00  0.00     0.139 C 
ATOM      8  O   UNL     1      10.220   3.550   5.751  1.00  0.00    -0.299 OA
ATOM      9  C   UNL     1      12.477   2.819   5.291  1.00  0.00     0.080 C 
ATOM     10  C   UNL     1      10.628   3.076   8.625  1.00  0.00     0.020 C 
ATOM     11  C   UNL     1      13.740   2.180   8.904  1.00  0.00     0.012 C 
ENDROOT
TORSDOF 0
ENDMDL
MODEL 2
REMARK VINA RESULT:     3.175      1.452      3.077
REMARK INTER + INTRA:           3.175
REMARK INTER:                   3.175
REMARK INTRA:                   0.000
REMARK UNBOUND:                 0.000
REMARK SMILES CC1(C)[C@H]2CC[C@]1(C)C(=O)C2
REMARK SMILES IDX 1 1 2 2 4 3 5 4 6 5 7 6 9 7 10 8 11 9 8 10 3 11
REMARK H PARENT
REMARK Flexibility Score: inf
ROOT
ATOM      1  C   UNL     1      10.561   0.999   7.596  1.00  0.00     0.012 C 
ATOM      2  C   UNL     1      10.987   2.498   7.659  1.00  0.00    -0.020 C 
ATOM      3  C   UNL     1      10.669   3.288   6.366  1.00  0.00     0.003 C 
ATOM      4  C   UNL     1      11.337   4.665   6.635  1.00  0.00     0.005 C 
ATOM      5  C   UNL     1      12.613   4.284   7.427  1.00  0.00     0.015 C 
ATOM      6  C   UNL     1      12.506   2.743   7.521  1.00  0.00     0.032 C 
ATOM      7  C   UNL     1      12.740   2.255   6.113  1.00  0.00     0.139 C 
ATOM      8  O   UNL     1      13.769   1.752   5.689  1.00  0.00    -0.299 OA
ATOM      9  C   UNL     1      11.536   2.584   5.287  1.00  0.00     0.080 C 
ATOM     10  C   UNL     1      13.402   2.100   8.586  1.00  0.00     0.020 C 
ATOM     11  C   UNL     1      10.326   3.091   8.940  1.00  0.00     0.012 C 
ENDROOT
TORSDOF 0
ENDMDL
MODEL 3
REMARK VINA RESULT:     3.439      1.441      2.761
REMARK INTER + INTRA:           3.439
REMARK INTER:                   3.439
REMARK INTRA:                   0.000
REMARK UNBOUND:                 0.000
REMARK SMILES CC1(C)[C@H]2CC[C@]1(C)C(=O)C2
REMARK SMILES IDX 1 1 2 2 4 3 5 4 6 5 7 6 9 7 10 8 11 9 8 10 3 11
REMARK H PARENT
REMARK Flexibility Score: inf
ROOT
ATOM      1  C   UNL     1      10.556   2.548   8.868  1.00  0.00     0.012 C 
ATOM      2  C   UNL     1      11.269   1.999   7.593  1.00  0.00    -0.020 C 
ATOM      3  C   UNL     1      12.643   1.349   7.882  1.00  0.00     0.003 C 
ATOM      4  C   UNL     1      13.189   1.057   6.457  1.00  0.00     0.005 C 
ATOM      5  C   UNL     1      12.673   2.263   5.632  1.00  0.00     0.015 C 
ATOM      6  C   UNL     1      11.891   3.084   6.686  1.00  0.00     0.032 C 
ATOM      7  C   UNL     1      12.950   3.640   7.604  1.00  0.00     0.139 C 
ATOM      8  O   UNL     1      13.364   4.790   7.609  1.00  0.00    -0.299 OA
ATOM      9  C   UNL     1      13.491   2.524   8.442  1.00  0.00     0.080 C 
ATOM     10  C   UNL     1      10.927   4.124   6.104  1.00  0.00     0.020 C 
ATOM     11  C   UNL     1      10.253   1.045   6.897  1.00  0.00     0.012 C 
ENDROOT
TORSDOF 0
ENDMDL
MODEL 4
REMARK VINA RESULT:     3.604      1.371      2.916
REMARK INTER + INTRA:           3.604
REMARK INTER:                   3.604
REMARK INTRA:                   0.000
REMARK UNBOUND:                 0.000
REMARK SMILES CC1(C)[C@H]2CC[C@]1(C)C(=O)C2
REMARK SMILES IDX 1 1 2 2 4 3 5 4 6 5 7 6 9 7 10 8 11 9 8 10 3 11
REMARK H PARENT
REMARK Flexibility Score: inf
ROOT
ATOM      1  C   UNL     1      13.500   2.634   8.837  1.00  0.00     0.012 C 
ATOM      2  C   UNL     1      12.777   3.190   7.572  1.00  0.00    -0.020 C 
ATOM      3  C   UNL     1      11.425   3.875   7.882  1.00  0.00     0.003 C 
ATOM      4  C   UNL     1      10.859   4.170   6.465  1.00  0.00     0.005 C 
ATOM      5  C   UNL     1      11.329   2.945   5.641  1.00  0.00     0.015 C 
ATOM      6  C   UNL     1      12.111   2.114   6.686  1.00  0.00     0.032 C 
ATOM      7  C   UNL     1      11.057   1.590   7.629  1.00  0.00     0.139 C 
ATOM      8  O   UNL     1      10.615   0.451   7.651  1.00  0.00    -0.299 OA
ATOM      9  C   UNL     1      10.560   2.725   8.468  1.00  0.00     0.080 C 
ATOM     10  C   UNL     1      13.038   1.045   6.094  1.00  0.00     0.020 C 
ATOM     11  C   UNL     1      13.802   4.113   6.849  1.00  0.00     0.012 C 
ENDROOT
TORSDOF 0
ENDMDL
MODEL 5
REMARK VINA RESULT:     3.956      1.800      3.162
REMARK INTER + INTRA:           3.956
REMARK INTER:                   3.956
REMARK INTRA:                   0.000
REMARK UNBOUND:                 0.000
REMARK SMILES CC1(C)[C@H]2CC[C@]1(C)C(=O)C2
REMARK SMILES IDX 1 1 2 2 4 3 5 4 6 5 7 6 9 7 10 8 11 9 8 10 3 11
REMARK H PARENT
REMARK Flexibility Score: inf
ROOT
ATOM      1  C   UNL     1      10.598   2.853   8.377  1.00  0.00     0.012 C 
ATOM      2  C   UNL     1      11.452   2.724   7.078  1.00  0.00    -0.020 C 
ATOM      3  C   UNL     1      11.848   1.267   6.739  1.00  0.00     0.003 C 
ATOM      4  C   UNL     1      12.810   1.447   5.533  1.00  0.00     0.005 C 
ATOM      5  C   UNL     1      13.561   2.758   5.879  1.00  0.00     0.015 C 
ATOM      6  C   UNL     1      12.925   3.166   7.230  1.00  0.00     0.032 C 
ATOM      7  C   UNL     1      13.423   2.139   8.216  1.00  0.00     0.139 C 
ATOM      8  O   UNL     1      14.306   2.306   9.043  1.00  0.00    -0.299 OA
ATOM      9  C   UNL     1      12.731   0.840   7.944  1.00  0.00     0.080 C 
ATOM     10  C   UNL     1      13.163   4.624   7.638  1.00  0.00     0.020 C 
ATOM     11  C   UNL     1      10.650   3.440   5.950  1.00  0.00     0.012 C 
ENDROOT
TORSDOF 0
ENDMDL
MODEL 6
REMARK VINA RESULT:     4.022      1.445      2.651
REMARK INTER + INTRA:           4.022
REMARK INTER:                   4.022
REMARK INTRA:                   0.000
REMARK UNBOUND:                 0.000
REMARK SMILES CC1(C)[C@H]2CC[C@]1(C)C(=O)C2
REMARK SMILES IDX 1 1 2 2 4 3 5 4 6 5 7 6 9 7 10 8 11 9 8 10 3 11
REMARK H PARENT
REMARK Flexibility Score: inf
ROOT
ATOM      1  C   UNL     1      13.485   2.458   8.357  1.00  0.00     0.012 C 
ATOM      2  C   UNL     1      12.621   2.641   7.071  1.00  0.00    -0.020 C 
ATOM      3  C   UNL     1      12.046   4.069   6.907  1.00  0.00     0.003 C 
ATOM      4  C   UNL     1      11.114   3.922   5.673  1.00  0.00     0.005 C 
ATOM      5  C   UNL     1      10.533   2.495   5.844  1.00  0.00     0.015 C 
ATOM      6  C   UNL     1      11.215   2.005   7.144  1.00  0.00     0.032 C 
ATOM      7  C   UNL     1      10.592   2.832   8.240  1.00  0.00     0.139 C 
ATOM      8  O   UNL     1       9.737   2.455   9.027  1.00  0.00    -0.299 OA
ATOM      9  C   UNL     1      11.117   4.231   8.141  1.00  0.00     0.080 C 
ATOM     10  C   UNL     1      11.160   0.489   7.366  1.00  0.00     0.020 C 
ATOM     11  C   UNL     1      13.506   2.175   5.876  1.00  0.00     0.012 C 
ENDROOT
TORSDOF 0
ENDMDL
MODEL 7
REMARK VINA RESULT:     4.541      1.572      2.725
REMARK INTER + INTRA:           4.541
REMARK INTER:                   4.541
REMARK INTRA:                   0.000
REMARK UNBOUND:                 0.000
REMARK SMILES CC1(C)[C@H]2CC[C@]1(C)C(=O)C2
REMARK SMILES IDX 1 1 2 2 4 3 5 4 6 5 7 6 9 7 10 8 11 9 8 10 3 11
REMARK H PARENT
REMARK Flexibility Score: inf
ROOT
ATOM      1  C   UNL     1      10.583   3.185   5.624  1.00  0.00     0.012 C 
ATOM      2  C   UNL     1      11.426   3.199   6.937  1.00  0.00    -0.020 C 
ATOM      3  C   UNL     1      12.864   3.740   6.745  1.00  0.00     0.003 C 
ATOM      4  C   UNL     1      13.513   3.486   8.133  1.00  0.00     0.005 C 
ATOM      5  C   UNL     1      12.871   2.146   8.576  1.00  0.00     0.015 C 
ATOM      6  C   UNL     1      11.932   1.813   7.393  1.00  0.00     0.032 C 
ATOM      7  C   UNL     1      12.856   1.464   6.254  1.00  0.00     0.139 C 
ATOM      8  O   UNL     1      13.103   0.339   5.847  1.00  0.00    -0.299 OA
ATOM      9  C   UNL     1      13.509   2.720   5.766  1.00  0.00     0.080 C 
ATOM     10  C   UNL     1      10.859   0.761   7.702  1.00  0.00     0.020 C 
ATOM     11  C   UNL     1      10.590   3.988   7.989  1.00  0.00     0.012 C 
ENDROOT
TORSDOF 0
ENDMDL
MODEL 8
REMARK VINA RESULT:     4.590      1.125      2.124
REMARK INTER + INTRA:           4.590
REMARK INTER:                   4.590
REMARK INTRA:                   0.000
REMARK UNBOUND:                 0.000
REMARK SMILES CC1(C)[C@H]2CC[C@]1(C)C(=O)C2
REMARK SMILES IDX 1 1 2 2 4 3 5 4 6 5 7 6 9 7 10 8 11 9 8 10 3 11
REMARK H PARENT
REMARK Flexibility Score: inf
ROOT
ATOM      1  C   UNL     1      13.500   2.224   5.555  1.00  0.00     0.012 C 
ATOM      2  C   UNL     1      12.683   2.100   6.878  1.00  0.00    -0.020 C 
ATOM      3  C   UNL     1      11.237   1.589   6.669  1.00  0.00     0.003 C 
ATOM      4  C   UNL     1      10.618   1.725   8.087  1.00  0.00     0.005 C 
ATOM      5  C   UNL     1      11.280   3.016   8.633  1.00  0.00     0.015 C 
ATOM      6  C   UNL     1      12.199   3.445   7.465  1.00  0.00     0.032 C 
ATOM      7  C   UNL     1      11.256   3.899   6.379  1.00  0.00     0.139 C 
ATOM      8  O   UNL     1      11.011   5.057   6.078  1.00  0.00    -0.299 OA
ATOM      9  C   UNL     1      10.582   2.696   5.797  1.00  0.00     0.080 C 
ATOM     10  C   UNL     1      13.287   4.457   7.842  1.00  0.00     0.020 C 
ATOM     11  C   UNL     1      13.532   1.216   7.840  1.00  0.00     0.012 C 
ENDROOT
TORSDOF 0
ENDMDL
