MODEL 1
REMARK VINA RESULT:    -4.314      0.000      0.000
REMARK INTER + INTRA:          -6.800
REMARK INTER:                  -5.828
REMARK INTRA:                  -0.972
REMARK UNBOUND:                -0.972
REMARK SMILES CC(=O)CCC=C(C)CCC=C(C)C
REMARK SMILES IDX 7 1 6 2 8 3 9 4 10 5 11 6 13 7 12 8 14 9 5 10 4 11 2 12 3 13
REMARK SMILES IDX 1 14
REMARK H PARENT
REMARK Flexibility Score: inf
ROOT
ATOM      1  C   UNL     1    -119.934-101.986   1.331  1.00  0.00    -0.077 C 
ATOM      2  C   UNL     1    -120.310-101.319   2.446  1.00  0.00    -0.028 C 
ATOM      3  C   UNL     1    -120.925-102.376   0.261  1.00  0.00     0.039 C 
ENDROOT
BRANCH   1   4
ATOM      4  C   UNL     1    -118.479-102.362   1.164  1.00  0.00     0.034 C 
BRANCH   4   5
ATOM      5  C   UNL     1    -117.786-101.415   0.178  1.00  0.00     0.032 C 
BRANCH   5   6
ATOM      6  C   UNL     1    -116.906-100.431   0.907  1.00  0.00    -0.028 C 
ATOM      7  C   UNL     1    -118.574 -98.571   0.726  1.00  0.00     0.039 C 
ATOM      8  C   UNL     1    -117.262 -99.156   1.189  1.00  0.00    -0.080 C 
ATOM      9  C   UNL     1    -116.315 -98.263   1.948  1.00  0.00     0.039 C 
ENDBRANCH   5   6
ENDBRANCH   4   5
ENDBRANCH   1   4
BRANCH   2  10
ATOM     10  C   UNL     1    -121.703-100.800   2.703  1.00  0.00     0.035 C 
BRANCH  10  11
ATOM     11  C   UNL     1    -121.677 -99.363   3.241  1.00  0.00     0.079 C 
BRANCH  11  12
ATOM     12  C   UNL     1    -122.107 -99.304   4.685  1.00  0.00     0.130 C 
ATOM     13  O   UNL     1    -121.972 -98.263   5.311  1.00  0.00    -0.300 OA
ATOM     14  C   UNL     1    -122.702-100.498   5.370  1.00  0.00     0.087 C 
ENDBRANCH  11  12
ENDBRANCH  10  11
ENDBRANCH   2  10
TORSDOF 6
ENDMDL
MODEL 2
REMARK VINA RESULT:    -4.096      2.657      6.382
REMARK INTER + INTRA:          -6.506
REMARK INTER:                  -5.543
REMARK INTRA:                  -0.963
REMARK UNBOUND:                -0.972
REMARK SMILES CC(=O)CCC=C(C)CCC=C(C)C
REMARK SMILES IDX 7 1 6 2 8 3 9 4 10 5 11 6 13 7 12 8 14 9 5 10 4 11 2 12 3 13
REMARK SMILES IDX 1 14
REMARK H PARENT
REMARK Flexibility Score: inf
ROOT
ATOM      1  C   UNL     1    -121.393 -99.626   2.850  1.00  0.00    -0.077 C 
ATOM      2  C   UNL     1    -121.693-100.853   2.367  1.00  0.00    -0.028 C 
ATOM      3  C   UNL     1    -120.561 -98.639   2.066  1.00  0.00     0.039 C 
ENDROOT
BRANCH   1   4
ATOM      4  C   UNL     1    -121.896 -99.241   4.223  1.00  0.00     0.034 C 
BRANCH   4   5
ATOM      5  C   UNL     1    -122.871-100.298   4.756  1.00  0.00     0.032 C 
BRANCH   5   6
ATOM      6  C   UNL     1    -124.184 -99.668   5.149  1.00  0.00    -0.028 C 
ATOM      7  C   UNL     1    -125.279-100.221   2.966  1.00  0.00     0.039 C 
ATOM      8  C   UNL     1    -125.286 -99.655   4.365  1.00  0.00    -0.080 C 
ATOM      9  C   UNL     1    -126.556 -99.019   4.867  1.00  0.00     0.039 C 
ENDBRANCH   5   6
ENDBRANCH   4   5
ENDBRANCH   1   4
BRANCH   2  10
ATOM     10  C   UNL     1    -121.339-101.337   0.981  1.00  0.00     0.035 C 
BRANCH  10  11
ATOM     11  C   UNL     1    -120.384-102.536   1.033  1.00  0.00     0.079 C 
BRANCH  11  12
ATOM     12  C   UNL     1    -118.949-102.110   0.858  1.00  0.00     0.130 C 
ATOM     13  O   UNL     1    -118.067-102.706   1.459  1.00  0.00    -0.300 OA
ATOM     14  C   UNL     1    -118.579-100.970  -0.044  1.00  0.00     0.087 C 
ENDBRANCH  11  12
ENDBRANCH  10  11
ENDBRANCH   2  10
TORSDOF 6
ENDMDL
MODEL 3
REMARK VINA RESULT:    -4.086     11.827     13.732
REMARK INTER + INTRA:          -6.491
REMARK INTER:                  -5.950
REMARK INTRA:                  -0.541
REMARK UNBOUND:                -0.972
REMARK SMILES CC(=O)CCC=C(C)CCC=C(C)C
REMARK SMILES IDX 7 1 6 2 8 3 9 4 10 5 11 6 13 7 12 8 14 9 5 10 4 11 2 12 3 13
REMARK SMILES IDX 1 14
REMARK H PARENT
REMARK Flexibility Score: inf
ROOT
ATOM      1  C   UNL     1    -114.941 -99.195  14.380  1.00  0.00    -0.077 C 
ATOM      2  C   UNL     1    -114.194 -99.315  13.259  1.00  0.00    -0.028 C 
ATOM      3  C   UNL     1    -114.641 -99.991  15.628  1.00  0.00     0.039 C 
ENDROOT
BRANCH   1   4
ATOM      4  C   UNL     1    -116.117 -98.245  14.374  1.00  0.00     0.034 C 
BRANCH   4   5
ATOM      5  C   UNL     1    -116.097 -97.352  15.620  1.00  0.00     0.032 C 
BRANCH   5   6
ATOM      6  C   UNL     1    -115.345 -96.073  15.354  1.00  0.00    -0.028 C 
ATOM      7  C   UNL     1    -117.387 -94.854  14.568  1.00  0.00     0.039 C 
ATOM      8  C   UNL     1    -115.919 -94.932  14.910  1.00  0.00    -0.080 C 
ATOM      9  C   UNL     1    -115.076 -93.700  14.702  1.00  0.00     0.039 C 
ENDBRANCH   5   6
ENDBRANCH   4   5
ENDBRANCH   1   4
BRANCH   2  10
ATOM     10  C   UNL     1    -112.942-100.150  13.149  1.00  0.00     0.035 C 
BRANCH  10  11
ATOM     11  C   UNL     1    -112.420-100.194  11.707  1.00  0.00     0.079 C 
BRANCH  11  12
ATOM     12  C   UNL     1    -112.952-101.392  10.961  1.00  0.00     0.130 C 
ATOM     13  O   UNL     1    -112.904-102.495  11.485  1.00  0.00    -0.300 OA
ATOM     14  C   UNL     1    -113.542-101.256   9.590  1.00  0.00     0.087 C 
ENDBRANCH  11  12
ENDBRANCH  10  11
ENDBRANCH   2  10
TORSDOF 6
ENDMDL
MODEL 4
REMARK VINA RESULT:    -4.002      2.968      6.375
REMARK INTER + INTRA:          -6.379
REMARK INTER:                  -5.652
REMARK INTRA:                  -0.727
REMARK UNBOUND:                -0.972
REMARK SMILES CC(=O)CCC=C(C)CCC=C(C)C
REMARK SMILES IDX 7 1 6 2 8 3 9 4 10 5 11 6 13 7 12 8 14 9 5 10 4 11 2 12 3 13
REMARK SMILES IDX 1 14
REMARK H PARENT
REMARK Flexibility Score: inf
ROOT
ATOM      1  C   UNL     1    -120.127-100.100   1.538  1.00  0.00    -0.077 C 
ATOM      2  C   UNL     1    -119.839-101.421   1.545  1.00  0.00    -0.028 C 
ATOM      3  C   UNL     1    -119.075 -99.055   1.250  1.00  0.00     0.039 C 
ENDROOT
BRANCH   1   4
ATOM      4  C   UNL     1    -121.542 -99.661   1.841  1.00  0.00     0.034 C 
BRANCH   4   5
ATOM      5  C   UNL     1    -122.363-100.832   2.394  1.00  0.00     0.032 C 
BRANCH   5   6
ATOM      6  C   UNL     1    -123.575-100.333   3.138  1.00  0.00    -0.028 C 
ATOM      7  C   UNL     1    -122.410-100.342   5.355  1.00  0.00     0.039 C 
ATOM      8  C   UNL     1    -123.600-100.077   4.467  1.00  0.00    -0.080 C 
ATOM      9  C   UNL     1    -124.860 -99.554   5.107  1.00  0.00     0.039 C 
ENDBRANCH   5   6
ENDBRANCH   4   5
ENDBRANCH   1   4
BRANCH   2  10
ATOM     10  C   UNL     1    -118.499-102.007   1.171  1.00  0.00     0.035 C 
BRANCH  10  11
ATOM     11  C   UNL     1    -118.452-102.403  -0.311  1.00  0.00     0.079 C 
BRANCH  11  12
ATOM     12  C   UNL     1    -117.179-101.937  -0.969  1.00  0.00     0.130 C 
ATOM     13  O   UNL     1    -116.900-102.337  -2.089  1.00  0.00    -0.300 OA
ATOM     14  C   UNL     1    -116.248-100.986  -0.277  1.00  0.00     0.087 C 
ENDBRANCH  11  12
ENDBRANCH  10  11
ENDBRANCH   2  10
TORSDOF 6
ENDMDL
MODEL 5
REMARK VINA RESULT:    -3.975      1.846      2.582
REMARK INTER + INTRA:          -6.341
REMARK INTER:                  -5.373
REMARK INTRA:                  -0.968
REMARK UNBOUND:                -0.972
REMARK SMILES CC(=O)CCC=C(C)CCC=C(C)C
REMARK SMILES IDX 7 1 6 2 8 3 9 4 10 5 11 6 13 7 12 8 14 9 5 10 4 11 2 12 3 13
REMARK SMILES IDX 1 14
REMARK H PARENT
REMARK Flexibility Score: inf
ROOT
ATOM      1  C   UNL     1    -121.624-100.591   2.643  1.00  0.00    -0.077 C 
ATOM      2  C   UNL     1    -121.767-100.380   3.971  1.00  0.00    -0.028 C 
ATOM      3  C   UNL     1    -122.445 -99.839   1.622  1.00  0.00     0.039 C 
ENDROOT
BRANCH   1   4
ATOM      4  C   UNL     1    -120.622-101.621   2.173  1.00  0.00     0.034 C 
BRANCH   4   5
ATOM      5  C   UNL     1    -120.038-101.224   0.812  1.00  0.00     0.032 C 
BRANCH   5   6
ATOM      6  C   UNL     1    -118.578-100.872   0.936  1.00  0.00    -0.028 C 
ATOM      7  C   UNL     1    -119.027 -98.415   1.116  1.00  0.00     0.039 C 
ATOM      8  C   UNL     1    -118.111 -99.614   1.106  1.00  0.00    -0.080 C 
ATOM      9  C   UNL     1    -116.630 -99.376   1.247  1.00  0.00     0.039 C 
ENDBRANCH   5   6
ENDBRANCH   4   5
ENDBRANCH   1   4
BRANCH   2  10
ATOM     10  C   UNL     1    -122.656 -99.323   4.580  1.00  0.00     0.035 C 
BRANCH  10  11
ATOM     11  C   UNL     1    -123.999 -99.912   5.032  1.00  0.00     0.079 C 
BRANCH  11  12
ATOM     12  C   UNL     1    -125.141 -99.396   4.193  1.00  0.00     0.130 C 
ATOM     13  O   UNL     1    -125.511 -98.240   4.327  1.00  0.00    -0.300 OA
ATOM     14  C   UNL     1    -125.831-100.275   3.193  1.00  0.00     0.087 C 
ENDBRANCH  11  12
ENDBRANCH  10  11
ENDBRANCH   2  10
TORSDOF 6
ENDMDL
MODEL 6
REMARK VINA RESULT:    -3.947      1.218      1.706
REMARK INTER + INTRA:          -6.304
REMARK INTER:                  -5.774
REMARK INTRA:                  -0.530
REMARK UNBOUND:                -0.972
REMARK SMILES CC(=O)CCC=C(C)CCC=C(C)C
REMARK SMILES IDX 7 1 6 2 8 3 9 4 10 5 11 6 13 7 12 8 14 9 5 10 4 11 2 12 3 13
REMARK SMILES IDX 1 14
REMARK H PARENT
REMARK Flexibility Score: inf
ROOT
ATOM      1  C   UNL     1    -120.042-100.639   1.313  1.00  0.00    -0.077 C 
ATOM      2  C   UNL     1    -120.882 -99.955   2.122  1.00  0.00    -0.028 C 
ATOM      3  C   UNL     1    -120.071-102.146   1.222  1.00  0.00     0.039 C 
ENDROOT
BRANCH   1   4
ATOM      4  C   UNL     1    -119.037 -99.867   0.488  1.00  0.00     0.034 C 
BRANCH   4   5
ATOM      5  C   UNL     1    -117.606-100.218   0.912  1.00  0.00     0.032 C 
BRANCH   5   6
ATOM      6  C   UNL     1    -116.952 -99.054   1.612  1.00  0.00    -0.028 C 
ATOM      7  C   UNL     1    -115.189 -98.787  -0.146  1.00  0.00     0.039 C 
ATOM      8  C   UNL     1    -115.883 -98.380   1.130  1.00  0.00    -0.080 C 
ATOM      9  C   UNL     1    -115.324 -97.212   1.900  1.00  0.00     0.039 C 
ENDBRANCH   5   6
ENDBRANCH   4   5
ENDBRANCH   1   4
BRANCH   2  10
ATOM     10  C   UNL     1    -121.993-100.582   2.929  1.00  0.00     0.035 C 
BRANCH  10  11
ATOM     11  C   UNL     1    -121.777-100.379   4.435  1.00  0.00     0.079 C 
BRANCH  11  12
ATOM     12  C   UNL     1    -122.593 -99.227   4.962  1.00  0.00     0.130 C 
ATOM     13  O   UNL     1    -122.025 -98.248   5.422  1.00  0.00    -0.300 OA
ATOM     14  C   UNL     1    -124.092 -99.255   4.929  1.00  0.00     0.087 C 
ENDBRANCH  11  12
ENDBRANCH  10  11
ENDBRANCH   2  10
TORSDOF 6
ENDMDL
MODEL 7
REMARK VINA RESULT:    -3.908      2.542      5.872
REMARK INTER + INTRA:          -6.251
REMARK INTER:                  -5.771
REMARK INTRA:                  -0.479
REMARK UNBOUND:                -0.972
REMARK SMILES CC(=O)CCC=C(C)CCC=C(C)C
REMARK SMILES IDX 7 1 6 2 8 3 9 4 10 5 11 6 13 7 12 8 14 9 5 10 4 11 2 12 3 13
REMARK SMILES IDX 1 14
REMARK H PARENT
REMARK Flexibility Score: inf
ROOT
ATOM      1  C   UNL     1    -119.704-101.179   1.291  1.00  0.00    -0.077 C 
ATOM      2  C   UNL     1    -119.175 -99.939   1.180  1.00  0.00    -0.028 C 
ATOM      3  C   UNL     1    -119.136-102.360   0.541  1.00  0.00     0.039 C 
ENDROOT
BRANCH   1   4
ATOM      4  C   UNL     1    -120.907-101.379   2.184  1.00  0.00     0.034 C 
BRANCH   4   5
ATOM      5  C   UNL     1    -121.287-100.068   2.882  1.00  0.00     0.032 C 
BRANCH   5   6
ATOM      6  C   UNL     1    -122.682-100.145   3.448  1.00  0.00    -0.028 C 
ATOM      7  C   UNL     1    -122.140 -98.665   5.395  1.00  0.00     0.039 C 
ATOM      8  C   UNL     1    -123.088 -99.492   4.561  1.00  0.00    -0.080 C 
ATOM      9  C   UNL     1    -124.516 -99.618   5.026  1.00  0.00     0.039 C 
ENDBRANCH   5   6
ENDBRANCH   4   5
ENDBRANCH   1   4
BRANCH   2  10
ATOM     10  C   UNL     1    -117.924 -99.609   0.402  1.00  0.00     0.035 C 
BRANCH  10  11
ATOM     11  C   UNL     1    -116.683 -99.617   1.305  1.00  0.00     0.079 C 
BRANCH  11  12
ATOM     12  C   UNL     1    -115.825 -98.399   1.078  1.00  0.00     0.130 C 
ATOM     13  O   UNL     1    -115.229 -98.271   0.019  1.00  0.00    -0.300 OA
ATOM     14  C   UNL     1    -115.691 -97.335   2.127  1.00  0.00     0.087 C 
ENDBRANCH  11  12
ENDBRANCH  10  11
ENDBRANCH   2  10
TORSDOF 6
ENDMDL
MODEL 8
REMARK VINA RESULT:    -3.897      2.426      3.845
REMARK INTER + INTRA:          -6.236
REMARK INTER:                  -5.185
REMARK INTRA:                  -1.051
REMARK UNBOUND:                -0.972
REMARK SMILES CC(=O)CCC=C(C)CCC=C(C)C
REMARK SMILES IDX 7 1 6 2 8 3 9 4 10 5 11 6 13 7 12 8 14 9 5 10 4 11 2 12 3 13
REMARK SMILES IDX 1 14
REMARK H PARENT
REMARK Flexibility Score: inf
ROOT
ATOM      1  C   UNL     1    -122.213 -99.781   3.195  1.00  0.00    -0.077 C 
ATOM      2  C   UNL     1    -123.298 -99.877   2.392  1.00  0.00    -0.028 C 
ATOM      3  C   UNL     1    -122.195-100.367   4.586  1.00  0.00     0.039 C 
ENDROOT
BRANCH   1   4
ATOM      4  C   UNL     1    -120.990 -99.054   2.682  1.00  0.00     0.034 C 
BRANCH   4   5
ATOM      5  C   UNL     1    -120.680 -99.469   1.239  1.00  0.00     0.032 C 
BRANCH   5   6
ATOM      6  C   UNL     1    -119.406-100.273   1.174  1.00  0.00    -0.028 C 
ATOM      7  C   UNL     1    -120.607-102.470   1.255  1.00  0.00     0.039 C 
ATOM      8  C   UNL     1    -119.362-101.625   1.147  1.00  0.00    -0.080 C 
ATOM      9  C   UNL     1    -118.033-102.330   1.054  1.00  0.00     0.039 C 
ENDBRANCH   5   6
ENDBRANCH   4   5
ENDBRANCH   1   4
BRANCH   2  10
ATOM     10  C   UNL     1    -124.549-100.649   2.733  1.00  0.00     0.035 C 
BRANCH  10  11
ATOM     11  C   UNL     1    -125.778 -99.732   2.788  1.00  0.00     0.079 C 
BRANCH  11  12
ATOM     12  C   UNL     1    -125.894 -99.041   4.123  1.00  0.00     0.130 C 
ATOM     13  O   UNL     1    -126.089 -97.836   4.161  1.00  0.00    -0.300 OA
ATOM     14  C   UNL     1    -125.778 -99.805   5.408  1.00  0.00     0.087 C 
ENDBRANCH  11  12
ENDBRANCH  10  11
ENDBRANCH   2  10
TORSDOF 6
ENDMDL
MODEL 9
REMARK VINA RESULT:    -3.857      1.887      2.456
REMARK INTER + INTRA:          -6.183
REMARK INTER:                  -5.095
REMARK INTRA:                  -1.088
REMARK UNBOUND:                -0.972
REMARK SMILES CC(=O)CCC=C(C)CCC=C(C)C
REMARK SMILES IDX 7 1 6 2 8 3 9 4 10 5 11 6 13 7 12 8 14 9 5 10 4 11 2 12 3 13
REMARK SMILES IDX 1 14
REMARK H PARENT
REMARK Flexibility Score: inf
ROOT
ATOM      1  C   UNL     1    -120.213-101.082   1.184  1.00  0.00    -0.077 C 
ATOM      2  C   UNL     1    -120.760-101.174   2.418  1.00  0.00    -0.028 C 
ATOM      3  C   UNL     1    -120.332 -99.830   0.348  1.00  0.00     0.039 C 
ENDROOT
BRANCH   1   4
ATOM      4  C   UNL     1    -119.474-102.277   0.624  1.00  0.00     0.034 C 
BRANCH   4   5
ATOM      5  C   UNL     1    -118.025-102.298   1.122  1.00  0.00     0.032 C 
BRANCH   5   6
ATOM      6  C   UNL     1    -117.093-101.721   0.087  1.00  0.00    -0.028 C 
ATOM      7  C   UNL     1    -116.757 -99.587   1.355  1.00  0.00     0.039 C 
ATOM      8  C   UNL     1    -116.490-100.515   0.195  1.00  0.00    -0.080 C 
ATOM      9  C   UNL     1    -115.553-100.045  -0.888  1.00  0.00     0.039 C 
ENDBRANCH   5   6
ENDBRANCH   4   5
ENDBRANCH   1   4
BRANCH   2  10
ATOM     10  C   UNL     1    -121.442-100.037   3.138  1.00  0.00     0.035 C 
BRANCH  10  11
ATOM     11  C   UNL     1    -122.925-100.340   3.388  1.00  0.00     0.079 C 
BRANCH  11  12
ATOM     12  C   UNL     1    -123.716-100.332   2.105  1.00  0.00     0.130 C 
ATOM     13  O   UNL     1    -123.758 -99.314   1.431  1.00  0.00    -0.300 OA
ATOM     14  C   UNL     1    -124.451-101.552   1.635  1.00  0.00     0.087 C 
ENDBRANCH  11  12
ENDBRANCH  10  11
ENDBRANCH   2  10
TORSDOF 6
ENDMDL
