MODEL 1
REMARK VINA RESULT:    -5.443      0.000      0.000
REMARK INTER + INTRA:          -5.443
REMARK INTER:                  -5.443
REMARK INTRA:                   0.000
REMARK UNBOUND:                 0.000
REMARK SMILES O=c1ccc2ccccc2o1
REMARK SMILES IDX 7 1 8 2 9 3 10 4 5 5 6 6 4 7 3 8 2 9 1 10 11 11
REMARK H PARENT
REMARK Flexibility Score: inf
ROOT
ATOM      1  C   UNL     1      12.874  24.080  -0.452  1.00  0.00     0.001 A 
ATOM      2  C   UNL     1      13.972  24.261  -1.299  1.00  0.00     0.004 A 
ATOM      3  C   UNL     1      14.324  23.267  -2.218  1.00  0.00     0.048 A 
ATOM      4  C   UNL     1      13.577  22.086  -2.293  1.00  0.00     0.138 A 
ATOM      5  C   UNL     1      12.467  21.903  -1.437  1.00  0.00     0.018 A 
ATOM      6  C   UNL     1      12.120  22.904  -0.518  1.00  0.00     0.012 A 
ATOM      7  C   UNL     1      11.739  20.713  -1.535  1.00  0.00     0.019 A 
ATOM      8  C   UNL     1      12.126  19.748  -2.465  1.00  0.00     0.094 A 
ATOM      9  C   UNL     1      13.236  19.999  -3.279  1.00  0.00     0.336 A 
ATOM     10  O   UNL     1      13.600  19.140  -4.125  1.00  0.00    -0.246 OA
ATOM     11  O   UNL     1      13.912  21.140  -3.167  1.00  0.00    -0.423 OA
ENDROOT
TORSDOF 0
ENDMDL
MODEL 2
REMARK VINA RESULT:    -5.374      1.872      2.528
REMARK INTER + INTRA:          -5.374
REMARK INTER:                  -5.374
REMARK INTRA:                   0.000
REMARK UNBOUND:                 0.000
REMARK SMILES O=c1ccc2ccccc2o1
REMARK SMILES IDX 7 1 8 2 9 3 10 4 5 5 6 6 4 7 3 8 2 9 1 10 11 11
REMARK H PARENT
REMARK Flexibility Score: inf
ROOT
ATOM      1  C   UNL     1      15.268  22.738  -0.534  1.00  0.00     0.001 A 
ATOM      2  C   UNL     1      14.461  22.220   0.484  1.00  0.00     0.004 A 
ATOM      3  C   UNL     1      13.362  21.414   0.170  1.00  0.00     0.048 A 
ATOM      4  C   UNL     1      13.066  21.122  -1.167  1.00  0.00     0.138 A 
ATOM      5  C   UNL     1      13.882  21.646  -2.195  1.00  0.00     0.018 A 
ATOM      6  C   UNL     1      14.981  22.453  -1.873  1.00  0.00     0.012 A 
ATOM      7  C   UNL     1      13.562  21.337  -3.521  1.00  0.00     0.019 A 
ATOM      8  C   UNL     1      12.456  20.529  -3.788  1.00  0.00     0.094 A 
ATOM      9  C   UNL     1      11.694  20.048  -2.719  1.00  0.00     0.336 A 
ATOM     10  O   UNL     1      10.693  19.317  -2.940  1.00  0.00    -0.246 OA
ATOM     11  O   UNL     1      12.020  20.356  -1.465  1.00  0.00    -0.423 OA
ENDROOT
TORSDOF 0
ENDMDL
MODEL 3
REMARK VINA RESULT:    -5.368      1.576      3.761
REMARK INTER + INTRA:          -5.368
REMARK INTER:                  -5.368
REMARK INTRA:                   0.000
REMARK UNBOUND:                 0.000
REMARK SMILES O=c1ccc2ccccc2o1
REMARK SMILES IDX 7 1 8 2 9 3 10 4 5 5 6 6 4 7 3 8 2 9 1 10 11 11
REMARK H PARENT
REMARK Flexibility Score: inf
ROOT
ATOM      1  C   UNL     1      11.732  19.499  -3.013  1.00  0.00     0.001 A 
ATOM      2  C   UNL     1      12.415  20.003  -4.125  1.00  0.00     0.004 A 
ATOM      3  C   UNL     1      13.238  21.126  -3.997  1.00  0.00     0.048 A 
ATOM      4  C   UNL     1      13.382  21.751  -2.753  1.00  0.00     0.138 A 
ATOM      5  C   UNL     1      12.693  21.242  -1.629  1.00  0.00     0.018 A 
ATOM      6  C   UNL     1      11.869  20.116  -1.765  1.00  0.00     0.012 A 
ATOM      7  C   UNL     1      12.857  21.887  -0.399  1.00  0.00     0.019 A 
ATOM      8  C   UNL     1      13.687  23.005  -0.318  1.00  0.00     0.094 A 
ATOM      9  C   UNL     1      14.337  23.452  -1.473  1.00  0.00     0.336 A 
ATOM     10  O   UNL     1      15.091  24.459  -1.419  1.00  0.00    -0.246 OA
ATOM     11  O   UNL     1      14.165  22.820  -2.632  1.00  0.00    -0.423 OA
ENDROOT
TORSDOF 0
ENDMDL
MODEL 4
REMARK VINA RESULT:    -5.027      2.058      4.220
REMARK INTER + INTRA:          -5.027
REMARK INTER:                  -5.027
REMARK INTRA:                   0.000
REMARK UNBOUND:                 0.000
REMARK SMILES O=c1ccc2ccccc2o1
REMARK SMILES IDX 7 1 8 2 9 3 10 4 5 5 6 6 4 7 3 8 2 9 1 10 11 11
REMARK H PARENT
REMARK Flexibility Score: inf
ROOT
ATOM      1  C   UNL     1      11.866  19.784  -4.125  1.00  0.00     0.001 A 
ATOM      2  C   UNL     1      11.278  19.261  -2.968  1.00  0.00     0.004 A 
ATOM      3  C   UNL     1      11.693  19.700  -1.707  1.00  0.00     0.048 A 
ATOM      4  C   UNL     1      12.700  20.666  -1.597  1.00  0.00     0.138 A 
ATOM      5  C   UNL     1      13.294  21.195  -2.766  1.00  0.00     0.018 A 
ATOM      6  C   UNL     1      12.873  20.750  -4.027  1.00  0.00     0.012 A 
ATOM      7  C   UNL     1      14.297  22.159  -2.625  1.00  0.00     0.019 A 
ATOM      8  C   UNL     1      14.680  22.567  -1.347  1.00  0.00     0.094 A 
ATOM      9  C   UNL     1      14.047  21.999  -0.236  1.00  0.00     0.336 A 
ATOM     10  O   UNL     1      14.378  22.355   0.925  1.00  0.00    -0.246 OA
ATOM     11  O   UNL     1      13.094  21.083  -0.397  1.00  0.00    -0.423 OA
ENDROOT
TORSDOF 0
ENDMDL
MODEL 5
REMARK VINA RESULT:    -4.648      1.330      1.365
REMARK INTER + INTRA:          -4.648
REMARK INTER:                  -4.648
REMARK INTRA:                   0.000
REMARK UNBOUND:                 0.000
REMARK SMILES O=c1ccc2ccccc2o1
REMARK SMILES IDX 7 1 8 2 9 3 10 4 5 5 6 6 4 7 3 8 2 9 1 10 11 11
REMARK H PARENT
REMARK Flexibility Score: inf
ROOT
ATOM      1  C   UNL     1      14.870  23.202   0.209  1.00  0.00     0.001 A 
ATOM      2  C   UNL     1      15.168  23.693  -1.066  1.00  0.00     0.004 A 
ATOM      3  C   UNL     1      14.613  23.092  -2.201  1.00  0.00     0.048 A 
ATOM      4  C   UNL     1      13.757  21.993  -2.063  1.00  0.00     0.138 A 
ATOM      5  C   UNL     1      13.455  21.497  -0.774  1.00  0.00     0.018 A 
ATOM      6  C   UNL     1      14.015  22.104   0.358  1.00  0.00     0.012 A 
ATOM      7  C   UNL     1      12.596  20.398  -0.669  1.00  0.00     0.019 A 
ATOM      8  C   UNL     1      12.066  19.829  -1.827  1.00  0.00     0.094 A 
ATOM      9  C   UNL     1      12.410  20.375  -3.068  1.00  0.00     0.336 A 
ATOM     10  O   UNL     1      11.941  19.875  -4.125  1.00  0.00    -0.246 OA
ATOM     11  O   UNL     1      13.230  21.421  -3.142  1.00  0.00    -0.423 OA
ENDROOT
TORSDOF 0
ENDMDL
MODEL 6
REMARK VINA RESULT:    -4.404      2.936      3.307
REMARK INTER + INTRA:          -4.404
REMARK INTER:                  -4.404
REMARK INTRA:                   0.000
REMARK UNBOUND:                 0.000
REMARK SMILES O=c1ccc2ccccc2o1
REMARK SMILES IDX 7 1 8 2 9 3 10 4 5 5 6 6 4 7 3 8 2 9 1 10 11 11
REMARK H PARENT
REMARK Flexibility Score: inf
ROOT
ATOM      1  C   UNL     1      12.486  24.554  -1.996  1.00  0.00     0.001 A 
ATOM      2  C   UNL     1      13.719  25.003  -2.477  1.00  0.00     0.004 A 
ATOM      3  C   UNL     1      14.907  24.421  -2.025  1.00  0.00     0.048 A 
ATOM      4  C   UNL     1      14.866  23.384  -1.086  1.00  0.00     0.138 A 
ATOM      5  C   UNL     1      13.619  22.928  -0.600  1.00  0.00     0.018 A 
ATOM      6  C   UNL     1      12.433  23.517  -1.057  1.00  0.00     0.012 A 
ATOM      7  C   UNL     1      13.610  21.890   0.337  1.00  0.00     0.019 A 
ATOM      8  C   UNL     1      14.819  21.339   0.761  1.00  0.00     0.094 A 
ATOM      9  C   UNL     1      16.014  21.841   0.235  1.00  0.00     0.336 A 
ATOM     10  O   UNL     1      17.115  21.356   0.605  1.00  0.00    -0.246 OA
ATOM     11  O   UNL     1      15.996  22.830  -0.656  1.00  0.00    -0.423 OA
ENDROOT
TORSDOF 0
ENDMDL
MODEL 7
REMARK VINA RESULT:    -4.192      1.930      4.296
REMARK INTER + INTRA:          -4.192
REMARK INTER:                  -4.192
REMARK INTRA:                   0.000
REMARK UNBOUND:                 0.000
REMARK SMILES O=c1ccc2ccccc2o1
REMARK SMILES IDX 7 1 8 2 9 3 10 4 5 5 6 6 4 7 3 8 2 9 1 10 11 11
REMARK H PARENT
REMARK Flexibility Score: inf
ROOT
ATOM      1  C   UNL     1      12.626  19.524  -3.439  1.00  0.00     0.001 A 
ATOM      2  C   UNL     1      12.097  19.438  -2.147  1.00  0.00     0.004 A 
ATOM      3  C   UNL     1      12.146  20.541  -1.290  1.00  0.00     0.048 A 
ATOM      4  C   UNL     1      12.727  21.739  -1.723  1.00  0.00     0.138 A 
ATOM      5  C   UNL     1      13.261  21.827  -3.029  1.00  0.00     0.018 A 
ATOM      6  C   UNL     1      13.209  20.716  -3.882  1.00  0.00     0.012 A 
ATOM      7  C   UNL     1      13.835  23.036  -3.433  1.00  0.00     0.019 A 
ATOM      8  C   UNL     1      13.863  24.112  -2.545  1.00  0.00     0.094 A 
ATOM      9  C   UNL     1      13.315  23.951  -1.268  1.00  0.00     0.336 A 
ATOM     10  O   UNL     1      13.331  24.910  -0.453  1.00  0.00    -0.246 OA
ATOM     11  O   UNL     1      12.775  22.789  -0.907  1.00  0.00    -0.423 OA
ENDROOT
TORSDOF 0
ENDMDL
MODEL 8
REMARK VINA RESULT:    -4.031      2.830      3.582
REMARK INTER + INTRA:          -4.031
REMARK INTER:                  -4.031
REMARK INTRA:                   0.000
REMARK UNBOUND:                 0.000
REMARK SMILES O=c1ccc2ccccc2o1
REMARK SMILES IDX 7 1 8 2 9 3 10 4 5 5 6 6 4 7 3 8 2 9 1 10 11 11
REMARK H PARENT
REMARK Flexibility Score: inf
ROOT
ATOM      1  C   UNL     1      14.765  21.490   0.895  1.00  0.00     0.001 A 
ATOM      2  C   UNL     1      15.916  21.629   0.112  1.00  0.00     0.004 A 
ATOM      3  C   UNL     1      15.904  22.451  -1.019  1.00  0.00     0.048 A 
ATOM      4  C   UNL     1      14.738  23.140  -1.372  1.00  0.00     0.138 A 
ATOM      5  C   UNL     1      13.575  23.000  -0.581  1.00  0.00     0.018 A 
ATOM      6  C   UNL     1      13.594  22.173   0.551  1.00  0.00     0.012 A 
ATOM      7  C   UNL     1      12.425  23.701  -0.959  1.00  0.00     0.019 A 
ATOM      8  C   UNL     1      12.458  24.509  -2.095  1.00  0.00     0.094 A 
ATOM      9  C   UNL     1      13.645  24.599  -2.829  1.00  0.00     0.336 A 
ATOM     10  O   UNL     1      13.695  25.324  -3.857  1.00  0.00    -0.246 OA
ATOM     11  O   UNL     1      14.727  23.922  -2.448  1.00  0.00    -0.423 OA
ENDROOT
TORSDOF 0
ENDMDL
MODEL 9
REMARK VINA RESULT:    -3.951      1.804      2.433
REMARK INTER + INTRA:          -3.951
REMARK INTER:                  -3.951
REMARK INTRA:                   0.000
REMARK UNBOUND:                 0.000
REMARK SMILES O=c1ccc2ccccc2o1
REMARK SMILES IDX 7 1 8 2 9 3 10 4 5 5 6 6 4 7 3 8 2 9 1 10 11 11
REMARK H PARENT
REMARK Flexibility Score: inf
ROOT
ATOM      1  C   UNL     1      15.483  24.382  -0.025  1.00  0.00     0.001 A 
ATOM      2  C   UNL     1      15.977  23.138   0.380  1.00  0.00     0.004 A 
ATOM      3  C   UNL     1      15.672  21.986  -0.352  1.00  0.00     0.048 A 
ATOM      4  C   UNL     1      14.868  22.074  -1.494  1.00  0.00     0.138 A 
ATOM      5  C   UNL     1      14.368  23.332  -1.904  1.00  0.00     0.018 A 
ATOM      6  C   UNL     1      14.679  24.482  -1.165  1.00  0.00     0.012 A 
ATOM      7  C   UNL     1      13.568  23.389  -3.049  1.00  0.00     0.019 A 
ATOM      8  C   UNL     1      13.288  22.214  -3.748  1.00  0.00     0.094 A 
ATOM      9  C   UNL     1      13.818  21.006  -3.283  1.00  0.00     0.336 A 
ATOM     10  O   UNL     1      13.576  19.936  -3.901  1.00  0.00    -0.246 OA
ATOM     11  O   UNL     1      14.577  20.978  -2.190  1.00  0.00    -0.423 OA
ENDROOT
TORSDOF 0
ENDMDL
