MODEL 1
REMARK VINA RESULT:    -4.724      0.000      0.000
REMARK INTER + INTRA:          -7.324
REMARK INTER:                  -7.209
REMARK INTRA:                  -0.115
REMARK UNBOUND:                -0.115
REMARK SMILES CC1=CCC[C@H](C)C(=O)C[C@H](C(C)C)C(=O)C1
REMARK SMILES IDX 8 1 9 2 6 3 7 4 5 5 4 6 3 7 2 8 1 9 10 11 11 12 15 13 16 14
REMARK SMILES IDX 17 15 12 17 13 18 14 19
REMARK H PARENT
REMARK Flexibility Score: 70.00
ROOT
ATOM      1  C   UNL     1      26.962 -13.491  27.681  1.00  0.00     0.136 C 
ATOM      2  O   UNL     1      26.198 -14.387  27.348  1.00  0.00    -0.299 OA
ENDROOT
BRANCH   1   3
ATOM      3  C   UNL     1      28.132 -13.167  26.765  1.00  0.00     0.053 C 
ATOM      4  C   UNL     1      28.273 -11.647  26.607  1.00  0.00     0.016 C 
BRANCH   3   5
ATOM      5  C   UNL     1      29.439 -13.776  27.314  1.00  0.00     0.015 C 
BRANCH   5   6
ATOM      6  C   UNL     1      30.491 -12.716  27.682  1.00  0.00     0.028 C 
BRANCH   6   7
ATOM      7  C   UNL     1      30.999 -12.899  29.092  1.00  0.00    -0.028 C 
ATOM      8  C   UNL     1      30.595 -12.212  30.188  1.00  0.00    -0.070 CG0
ATOM      9  C   UNL     1      31.232 -12.568  31.510  1.00  0.00     0.039 C 
ATOM     10  G   UNL     1      29.515 -11.144  30.175  1.00  0.00     0.000 G0
ENDBRANCH   6   7
ENDBRANCH   5   6
ENDBRANCH   3   5
ENDBRANCH   1   3
BRANCH   1  11
ATOM     11  C   UNL     1      26.614 -12.699  28.928  1.00  0.00     0.087 C 
BRANCH  11  12
ATOM     12  C   UNL     1      27.505 -12.953  30.176  1.00  0.00     0.066 C 
BRANCH  12  13
ATOM     13  C   UNL     1      28.209 -11.716  30.730  1.00  0.00     0.140 C 
ATOM     14  O   UNL     1      27.662 -11.110  31.641  1.00  0.00    -0.299 OA
BRANCH  13  15
ATOM     15  C   UNL     1      29.501 -11.152  30.180  1.00  0.00     0.106 CG0
ATOM     16  G   UNL     1      30.602 -12.200  30.191  1.00  0.00     0.000 G0
ENDBRANCH  13  15
ENDBRANCH  12  13
BRANCH  12  17
ATOM     17  C   UNL     1      26.724 -13.717  31.290  1.00  0.00    -0.006 C 
ATOM     18  C   UNL     1      27.638 -14.394  32.325  1.00  0.00     0.008 C 
ATOM     19  C   UNL     1      25.740 -14.743  30.703  1.00  0.00     0.008 C 
ENDBRANCH  12  17
ENDBRANCH  11  12
ENDBRANCH   1  11
TORSDOF 1
ENDMDL
MODEL 2
REMARK VINA RESULT:    -4.541      1.700      3.846
REMARK INTER + INTRA:          -7.045
REMARK INTER:                  -7.219
REMARK INTRA:                   0.173
REMARK UNBOUND:                -0.115
REMARK SMILES CC1=CCC[C@H](C)C(=O)C[C@H](C(C)C)C(=O)C1
REMARK SMILES IDX 8 1 9 2 6 3 7 4 5 5 4 6 3 7 2 8 1 9 10 11 11 12 15 13 16 14
REMARK SMILES IDX 17 15 12 17 13 18 14 19
REMARK H PARENT
REMARK Flexibility Score: 70.00
ROOT
ATOM      1  C   UNL     1      29.409 -12.006  30.950  1.00  0.00     0.136 C 
ATOM      2  O   UNL     1      28.902 -10.953  31.314  1.00  0.00    -0.299 OA
ENDROOT
BRANCH   1   3
ATOM      3  C   UNL     1      30.780 -11.955  30.296  1.00  0.00     0.053 C 
ATOM      4  C   UNL     1      31.790 -12.765  31.121  1.00  0.00     0.016 C 
BRANCH   3   5
ATOM      5  C   UNL     1      30.714 -12.488  28.850  1.00  0.00     0.015 C 
BRANCH   5   6
ATOM      6  C   UNL     1      29.573 -11.866  28.029  1.00  0.00     0.028 C 
BRANCH   6   7
ATOM      7  C   UNL     1      28.787 -12.915  27.278  1.00  0.00    -0.028 C 
ATOM      8  C   UNL     1      27.510 -13.293  27.525  1.00  0.00    -0.070 CG0
ATOM      9  C   UNL     1      26.913 -14.359  26.638  1.00  0.00     0.039 C 
ATOM     10  G   UNL     1      26.633 -12.684  28.606  1.00  0.00     0.000 G0
ENDBRANCH   6   7
ENDBRANCH   5   6
ENDBRANCH   3   5
ENDBRANCH   1   3
BRANCH   1  11
ATOM     11  C   UNL     1      28.673 -13.290  31.286  1.00  0.00     0.087 C 
BRANCH  11  12
ATOM     12  C   UNL     1      27.122 -13.236  31.206  1.00  0.00     0.066 C 
BRANCH  12  13
ATOM     13  C   UNL     1      26.532 -13.584  29.841  1.00  0.00     0.140 C 
ATOM     14  O   UNL     1      26.004 -14.679  29.711  1.00  0.00    -0.299 OA
BRANCH  13  15
ATOM     15  C   UNL     1      26.620 -12.691  28.623  1.00  0.00     0.106 CG0
ATOM     16  G   UNL     1      27.505 -13.311  27.554  1.00  0.00     0.000 G0
ENDBRANCH  13  15
ENDBRANCH  12  13
BRANCH  12  17
ATOM     17  C   UNL     1      26.462 -14.073  32.347  1.00  0.00    -0.006 C 
ATOM     18  C   UNL     1      26.372 -13.319  33.684  1.00  0.00     0.008 C 
ATOM     19  C   UNL     1      27.165 -15.425  32.550  1.00  0.00     0.008 C 
ENDBRANCH  12  17
ENDBRANCH  11  12
ENDBRANCH   1  11
TORSDOF 1
ENDMDL
MODEL 3
REMARK VINA RESULT:    -4.436      1.815      3.609
REMARK INTER + INTRA:          -6.886
REMARK INTER:                  -6.999
REMARK INTRA:                   0.113
REMARK UNBOUND:                -0.115
REMARK SMILES CC1=CCC[C@H](C)C(=O)C[C@H](C(C)C)C(=O)C1
REMARK SMILES IDX 8 1 9 2 6 3 7 4 5 5 4 6 3 7 2 8 1 9 10 11 11 12 15 13 16 14
REMARK SMILES IDX 17 15 12 17 13 18 14 19
REMARK H PARENT
REMARK Flexibility Score: 70.00
ROOT
ATOM      1  C   UNL     1      30.388 -13.254  28.362  1.00  0.00     0.136 C 
ATOM      2  O   UNL     1      30.764 -14.363  28.007  1.00  0.00    -0.299 OA
ENDROOT
BRANCH   1   3
ATOM      3  C   UNL     1      31.248 -12.487  29.354  1.00  0.00     0.053 C 
ATOM      4  C   UNL     1      30.670 -11.083  29.579  1.00  0.00     0.016 C 
BRANCH   3   5
ATOM      5  C   UNL     1      31.349 -13.249  30.691  1.00  0.00     0.015 C 
BRANCH   5   6
ATOM      6  C   UNL     1      30.340 -12.758  31.743  1.00  0.00     0.028 C 
BRANCH   6   7
ATOM      7  C   UNL     1      29.090 -13.607  31.758  1.00  0.00    -0.028 C 
ATOM      8  C   UNL     1      27.854 -13.224  31.359  1.00  0.00    -0.070 CG0
ATOM      9  C   UNL     1      26.744 -14.243  31.450  1.00  0.00     0.039 C 
ATOM     10  G   UNL     1      27.527 -11.854  30.788  1.00  0.00     0.000 G0
ENDBRANCH   6   7
ENDBRANCH   5   6
ENDBRANCH   3   5
ENDBRANCH   1   3
BRANCH   1  11
ATOM     11  C   UNL     1      29.149 -12.687  27.694  1.00  0.00     0.087 C 
BRANCH  11  12
ATOM     12  C   UNL     1      27.791 -13.005  28.380  1.00  0.00     0.066 C 
BRANCH  12  13
ATOM     13  C   UNL     1      27.257 -11.909  29.299  1.00  0.00     0.140 C 
ATOM     14  O   UNL     1      26.626 -10.994  28.787  1.00  0.00    -0.299 OA
BRANCH  13  15
ATOM     15  C   UNL     1      27.517 -11.844  30.788  1.00  0.00     0.106 CG0
ATOM     16  G   UNL     1      27.854 -13.218  31.344  1.00  0.00     0.000 G0
ENDBRANCH  13  15
ENDBRANCH  12  13
BRANCH  12  17
ATOM     17  C   UNL     1      26.717 -13.456  27.339  1.00  0.00    -0.006 C 
ATOM     18  C   UNL     1      25.647 -14.388  27.929  1.00  0.00     0.008 C 
ATOM     19  C   UNL     1      27.355 -14.102  26.098  1.00  0.00     0.008 C 
ENDBRANCH  12  17
ENDBRANCH  11  12
ENDBRANCH   1  11
TORSDOF 1
ENDMDL
MODEL 4
REMARK VINA RESULT:    -4.425      1.768      3.899
REMARK INTER + INTRA:          -6.869
REMARK INTER:                  -7.197
REMARK INTRA:                   0.328
REMARK UNBOUND:                -0.115
REMARK SMILES CC1=CCC[C@H](C)C(=O)C[C@H](C(C)C)C(=O)C1
REMARK SMILES IDX 8 1 9 2 6 3 7 4 5 5 4 6 3 7 2 8 1 9 10 11 11 12 15 13 16 14
REMARK SMILES IDX 17 15 12 17 13 18 14 19
REMARK H PARENT
REMARK Flexibility Score: 70.00
ROOT
ATOM      1  C   UNL     1      27.879 -11.273  28.701  1.00  0.00     0.136 C 
ATOM      2  O   UNL     1      27.210 -10.340  29.122  1.00  0.00    -0.299 OA
ENDROOT
BRANCH   1   3
ATOM      3  C   UNL     1      27.230 -12.241  27.725  1.00  0.00     0.053 C 
ATOM      4  C   UNL     1      28.256 -13.280  27.252  1.00  0.00     0.016 C 
BRANCH   3   5
ATOM      5  C   UNL     1      26.016 -12.937  28.374  1.00  0.00     0.015 C 
BRANCH   5   6
ATOM      6  C   UNL     1      26.359 -14.309  28.978  1.00  0.00     0.028 C 
BRANCH   6   7
ATOM      7  C   UNL     1      25.911 -14.415  30.416  1.00  0.00    -0.028 C 
ATOM      8  C   UNL     1      26.689 -14.261  31.514  1.00  0.00    -0.070 CG0
ATOM      9  C   UNL     1      26.027 -14.398  32.864  1.00  0.00     0.039 C 
ATOM     10  G   UNL     1      28.168 -13.917  31.471  1.00  0.00     0.000 G0
ENDBRANCH   6   7
ENDBRANCH   5   6
ENDBRANCH   3   5
ENDBRANCH   1   3
BRANCH   1  11
ATOM     11  C   UNL     1      29.342 -11.323  29.103  1.00  0.00     0.087 C 
BRANCH  11  12
ATOM     12  C   UNL     1      29.649 -11.888  30.518  1.00  0.00     0.066 C 
BRANCH  12  13
ATOM     13  C   UNL     1      28.441 -12.445  31.268  1.00  0.00     0.140 C 
ATOM     14  O   UNL     1      27.655 -11.645  31.756  1.00  0.00    -0.299 OA
BRANCH  13  15
ATOM     15  C   UNL     1      28.191 -13.919  31.505  1.00  0.00     0.106 CG0
ATOM     16  G   UNL     1      26.702 -14.226  31.513  1.00  0.00     0.000 G0
ENDBRANCH  13  15
ENDBRANCH  12  13
BRANCH  12  17
ATOM     17  C   UNL     1      30.825 -12.914  30.480  1.00  0.00    -0.006 C 
ATOM     18  C   UNL     1      32.034 -12.490  31.330  1.00  0.00     0.008 C 
ATOM     19  C   UNL     1      31.273 -13.223  29.043  1.00  0.00     0.008 C 
ENDBRANCH  12  17
ENDBRANCH  11  12
ENDBRANCH   1  11
TORSDOF 1
ENDMDL
MODEL 5
REMARK VINA RESULT:    -4.371      1.332      2.118
REMARK INTER + INTRA:          -6.786
REMARK INTER:                  -7.174
REMARK INTRA:                   0.387
REMARK UNBOUND:                -0.115
REMARK SMILES CC1=CCC[C@H](C)C(=O)C[C@H](C(C)C)C(=O)C1
REMARK SMILES IDX 8 1 9 2 6 3 7 4 5 5 4 6 3 7 2 8 1 9 10 11 11 12 15 13 16 14
REMARK SMILES IDX 17 15 12 17 13 18 14 19
REMARK H PARENT
REMARK Flexibility Score: 70.00
ROOT
ATOM      1  C   UNL     1      26.815 -13.493  28.202  1.00  0.00     0.136 C 
ATOM      2  O   UNL     1      25.761 -14.086  28.018  1.00  0.00    -0.299 OA
ENDROOT
BRANCH   1   3
ATOM      3  C   UNL     1      27.751 -13.306  27.018  1.00  0.00     0.053 C 
ATOM      4  C   UNL     1      27.381 -14.285  25.895  1.00  0.00     0.016 C 
BRANCH   3   5
ATOM      5  C   UNL     1      27.699 -11.852  26.506  1.00  0.00     0.015 C 
BRANCH   5   6
ATOM      6  C   UNL     1      29.014 -11.088  26.728  1.00  0.00     0.028 C 
BRANCH   6   7
ATOM      7  C   UNL     1      29.013 -10.340  28.040  1.00  0.00    -0.028 C 
ATOM      8  C   UNL     1      29.466 -10.803  29.230  1.00  0.00    -0.070 CG0
ATOM      9  C   UNL     1      29.379  -9.877  30.419  1.00  0.00     0.039 C 
ATOM     10  G   UNL     1      30.093 -12.172  29.430  1.00  0.00     0.000 G0
ENDBRANCH   6   7
ENDBRANCH   5   6
ENDBRANCH   3   5
ENDBRANCH   1   3
BRANCH   1  11
ATOM     11  C   UNL     1      27.050 -12.892  29.576  1.00  0.00     0.087 C 
BRANCH  11  12
ATOM     12  C   UNL     1      28.089 -13.618  30.476  1.00  0.00     0.066 C 
BRANCH  12  13
ATOM     13  C   UNL     1      29.449 -12.930  30.578  1.00  0.00     0.140 C 
ATOM     14  O   UNL     1      30.012 -12.940  31.664  1.00  0.00    -0.299 OA
BRANCH  13  15
ATOM     15  C   UNL     1      30.111 -12.179  29.444  1.00  0.00     0.106 CG0
ATOM     16  G   UNL     1      29.480 -10.810  29.254  1.00  0.00     0.000 G0
ENDBRANCH  13  15
ENDBRANCH  12  13
BRANCH  12  17
ATOM     17  C   UNL     1      27.499 -13.936  31.886  1.00  0.00    -0.006 C 
ATOM     18  C   UNL     1      26.280 -14.872  31.842  1.00  0.00     0.008 C 
ATOM     19  C   UNL     1      27.155 -12.658  32.668  1.00  0.00     0.008 C 
ENDBRANCH  12  17
ENDBRANCH  11  12
ENDBRANCH   1  11
TORSDOF 1
ENDMDL
MODEL 6
REMARK VINA RESULT:    -4.296      1.651      3.688
REMARK INTER + INTRA:          -6.672
REMARK INTER:                  -7.143
REMARK INTRA:                   0.471
REMARK UNBOUND:                -0.115
REMARK SMILES CC1=CCC[C@H](C)C(=O)C[C@H](C(C)C)C(=O)C1
REMARK SMILES IDX 8 1 9 2 6 3 7 4 5 5 4 6 3 7 2 8 1 9 10 11 11 12 15 13 16 14
REMARK SMILES IDX 17 15 12 17 13 18 14 19
REMARK H PARENT
REMARK Flexibility Score: 70.00
ROOT
ATOM      1  C   UNL     1      27.391 -10.886  29.876  1.00  0.00     0.136 C 
ATOM      2  O   UNL     1      26.751 -10.241  29.057  1.00  0.00    -0.299 OA
ENDROOT
BRANCH   1   3
ATOM      3  C   UNL     1      28.100 -10.131  30.990  1.00  0.00     0.053 C 
ATOM      4  C   UNL     1      27.336 -10.302  32.311  1.00  0.00     0.016 C 
BRANCH   3   5
ATOM      5  C   UNL     1      29.554 -10.621  31.140  1.00  0.00     0.015 C 
BRANCH   5   6
ATOM      6  C   UNL     1      30.323 -10.647  29.809  1.00  0.00     0.028 C 
BRANCH   6   7
ATOM      7  C   UNL     1      30.750 -12.047  29.436  1.00  0.00    -0.028 C 
ATOM      8  C   UNL     1      30.296 -12.773  28.386  1.00  0.00    -0.070 CG0
ATOM      9  C   UNL     1      30.871 -14.155  28.192  1.00  0.00     0.039 C 
ATOM     10  G   UNL     1      29.283 -12.267  27.373  1.00  0.00     0.000 G0
ENDBRANCH   6   7
ENDBRANCH   5   6
ENDBRANCH   3   5
ENDBRANCH   1   3
BRANCH   1  11
ATOM     11  C   UNL     1      27.333 -12.399  29.776  1.00  0.00     0.087 C 
BRANCH  11  12
ATOM     12  C   UNL     1      26.902 -12.983  28.401  1.00  0.00     0.066 C 
BRANCH  12  13
ATOM     13  C   UNL     1      28.021 -13.098  27.369  1.00  0.00     0.140 C 
ATOM     14  O   UNL     1      27.920 -13.968  26.514  1.00  0.00    -0.299 OA
BRANCH  13  15
ATOM     15  C   UNL     1      29.277 -12.254  27.375  1.00  0.00     0.106 CG0
ATOM     16  G   UNL     1      30.290 -12.790  28.373  1.00  0.00     0.000 G0
ENDBRANCH  13  15
ENDBRANCH  12  13
BRANCH  12  17
ATOM     17  C   UNL     1      26.134 -14.331  28.569  1.00  0.00    -0.006 C 
ATOM     18  C   UNL     1      24.874 -14.430  27.693  1.00  0.00     0.008 C 
ATOM     19  C   UNL     1      25.779 -14.613  30.038  1.00  0.00     0.008 C 
ENDBRANCH  12  17
ENDBRANCH  11  12
ENDBRANCH   1  11
TORSDOF 1
ENDMDL
MODEL 7
REMARK VINA RESULT:    -4.160      1.831      3.467
REMARK INTER + INTRA:          -6.464
REMARK INTER:                  -6.793
REMARK INTRA:                   0.328
REMARK UNBOUND:                -0.115
REMARK SMILES CC1=CCC[C@H](C)C(=O)C[C@H](C(C)C)C(=O)C1
REMARK SMILES IDX 8 1 9 2 6 3 7 4 5 5 4 6 3 7 2 8 1 9 10 11 11 12 15 13 16 14
REMARK SMILES IDX 17 15 12 17 13 18 14 19
REMARK H PARENT
REMARK Flexibility Score: 70.00
ROOT
ATOM      1  C   UNL     1      28.521 -12.982  27.223  1.00  0.00     0.136 C 
ATOM      2  O   UNL     1      27.409 -13.378  26.902  1.00  0.00    -0.299 OA
ENDROOT
BRANCH   1   3
ATOM      3  C   UNL     1      29.015 -11.671  26.633  1.00  0.00     0.053 C 
ATOM      4  C   UNL     1      28.211 -11.324  25.372  1.00  0.00     0.016 C 
BRANCH   3   5
ATOM      5  C   UNL     1      28.911 -10.533  27.669  1.00  0.00     0.015 C 
BRANCH   5   6
ATOM      6  C   UNL     1      27.495 -10.368  28.244  1.00  0.00     0.028 C 
BRANCH   6   7
ATOM      7  C   UNL     1      27.525  -9.987  29.706  1.00  0.00    -0.028 C 
ATOM      8  C   UNL     1      27.491 -10.838  30.759  1.00  0.00    -0.070 CG0
ATOM      9  C   UNL     1      27.544 -10.238  32.144  1.00  0.00     0.039 C 
ATOM     10  G   UNL     1      27.446 -12.351  30.633  1.00  0.00     0.000 G0
ENDBRANCH   6   7
ENDBRANCH   5   6
ENDBRANCH   3   5
ENDBRANCH   1   3
BRANCH   1  11
ATOM     11  C   UNL     1      29.272 -13.778  28.275  1.00  0.00     0.087 C 
BRANCH  11  12
ATOM     12  C   UNL     1      29.802 -12.976  29.497  1.00  0.00     0.066 C 
BRANCH  12  13
ATOM     13  C   UNL     1      28.859 -12.926  30.697  1.00  0.00     0.140 C 
ATOM     14  O   UNL     1      29.237 -13.442  31.740  1.00  0.00    -0.299 OA
BRANCH  13  15
ATOM     15  C   UNL     1      27.463 -12.343  30.660  1.00  0.00     0.106 CG0
ATOM     16  G   UNL     1      27.501 -10.828  30.777  1.00  0.00     0.000 G0
ENDBRANCH  13  15
ENDBRANCH  12  13
BRANCH  12  17
ATOM     17  C   UNL     1      31.233 -13.445  29.909  1.00  0.00    -0.006 C 
ATOM     18  C   UNL     1      31.922 -12.500  30.908  1.00  0.00     0.008 C 
ATOM     19  C   UNL     1      32.138 -13.673  28.688  1.00  0.00     0.008 C 
ENDBRANCH  12  17
ENDBRANCH  11  12
ENDBRANCH   1  11
TORSDOF 1
ENDMDL
MODEL 8
REMARK VINA RESULT:    -4.131      1.932      4.660
REMARK INTER + INTRA:          -6.420
REMARK INTER:                  -7.285
REMARK INTRA:                   0.865
REMARK UNBOUND:                -0.115
REMARK SMILES CC1=CCC[C@H](C)C(=O)C[C@H](C(C)C)C(=O)C1
REMARK SMILES IDX 8 1 9 2 6 3 7 4 5 5 4 6 3 7 2 8 1 9 10 11 11 12 15 13 16 14
REMARK SMILES IDX 17 15 12 17 13 18 14 19
REMARK H PARENT
REMARK Flexibility Score: 70.00
ROOT
ATOM      1  C   UNL     1      27.902 -12.894  31.723  1.00  0.00     0.136 C 
ATOM      2  O   UNL     1      27.251 -11.860  31.667  1.00  0.00    -0.299 OA
ENDROOT
BRANCH   1   3
ATOM      3  C   UNL     1      27.191 -14.169  32.148  1.00  0.00     0.053 C 
ATOM      4  C   UNL     1      26.262 -13.884  33.337  1.00  0.00     0.016 C 
BRANCH   3   5
ATOM      5  C   UNL     1      26.393 -14.766  30.971  1.00  0.00     0.015 C 
BRANCH   5   6
ATOM      6  C   UNL     1      25.986 -13.716  29.924  1.00  0.00     0.028 C 
BRANCH   6   7
ATOM      7  C   UNL     1      26.616 -13.994  28.579  1.00  0.00    -0.028 C 
ATOM      8  C   UNL     1      27.311 -13.114  27.820  1.00  0.00    -0.070 CG0
ATOM      9  C   UNL     1      27.867 -13.610  26.507  1.00  0.00     0.039 C 
ATOM     10  G   UNL     1      27.601 -11.679  28.227  1.00  0.00     0.000 G0
ENDBRANCH   6   7
ENDBRANCH   5   6
ENDBRANCH   3   5
ENDBRANCH   1   3
BRANCH   1  11
ATOM     11  C   UNL     1      29.345 -12.840  31.254  1.00  0.00     0.087 C 
BRANCH  11  12
ATOM     12  C   UNL     1      29.566 -12.742  29.718  1.00  0.00     0.066 C 
BRANCH  12  13
ATOM     13  C   UNL     1      28.876 -11.561  29.040  1.00  0.00     0.140 C 
ATOM     14  O   UNL     1      29.356 -10.448  29.209  1.00  0.00    -0.299 OA
BRANCH  13  15
ATOM     15  C   UNL     1      27.601 -11.668  28.232  1.00  0.00     0.106 CG0
ATOM     16  G   UNL     1      27.328 -13.108  27.833  1.00  0.00     0.000 G0
ENDBRANCH  13  15
ENDBRANCH  12  13
BRANCH  12  17
ATOM     17  C   UNL     1      31.083 -12.808  29.355  1.00  0.00    -0.006 C 
ATOM     18  C   UNL     1      31.429 -13.945  28.379  1.00  0.00     0.008 C 
ATOM     19  C   UNL     1      31.971 -12.898  30.607  1.00  0.00     0.008 C 
ENDBRANCH  12  17
ENDBRANCH  11  12
ENDBRANCH   1  11
TORSDOF 1
ENDMDL
MODEL 9
REMARK VINA RESULT:    -3.953      1.674      3.540
REMARK INTER + INTRA:          -6.148
REMARK INTER:                  -6.654
REMARK INTRA:                   0.506
REMARK UNBOUND:                -0.115
REMARK SMILES CC1=CCC[C@H](C)C(=O)C[C@H](C(C)C)C(=O)C1
REMARK SMILES IDX 8 1 9 2 6 3 7 4 5 5 4 6 3 7 2 8 1 9 10 11 11 12 15 13 16 14
REMARK SMILES IDX 17 15 12 17 13 18 14 19
REMARK H PARENT
REMARK Flexibility Score: 70.00
ROOT
ATOM      1  C   UNL     1      29.498 -11.515  30.660  1.00  0.00     0.136 C 
ATOM      2  O   UNL     1      29.476 -10.314  30.430  1.00  0.00    -0.299 OA
ENDROOT
BRANCH   1   3
ATOM      3  C   UNL     1      30.761 -12.290  30.318  1.00  0.00     0.053 C 
ATOM      4  C   UNL     1      31.744 -12.242  31.497  1.00  0.00     0.016 C 
BRANCH   3   5
ATOM      5  C   UNL     1      30.424 -13.750  29.956  1.00  0.00     0.015 C 
BRANCH   5   6
ATOM      6  C   UNL     1      30.425 -14.011  28.440  1.00  0.00     0.028 C 
BRANCH   6   7
ATOM      7  C   UNL     1      30.191 -12.743  27.654  1.00  0.00    -0.028 C 
ATOM      8  C   UNL     1      28.992 -12.180  27.374  1.00  0.00    -0.070 CG0
ATOM      9  C   UNL     1      28.990 -10.897  26.579  1.00  0.00     0.039 C 
ATOM     10  G   UNL     1      27.658 -12.733  27.847  1.00  0.00     0.000 G0
ENDBRANCH   6   7
ENDBRANCH   5   6
ENDBRANCH   3   5
ENDBRANCH   1   3
BRANCH   1  11
ATOM     11  C   UNL     1      28.299 -12.114  31.373  1.00  0.00     0.087 C 
BRANCH  11  12
ATOM     12  C   UNL     1      27.088 -12.500  30.478  1.00  0.00     0.066 C 
BRANCH  12  13
ATOM     13  C   UNL     1      27.134 -11.948  29.055  1.00  0.00     0.140 C 
ATOM     14  O   UNL     1      26.671 -10.832  28.861  1.00  0.00    -0.299 OA
BRANCH  13  15
ATOM     15  C   UNL     1      27.650 -12.718  27.858  1.00  0.00     0.106 CG0
ATOM     16  G   UNL     1      28.990 -12.173  27.395  1.00  0.00     0.000 G0
ENDBRANCH  13  15
ENDBRANCH  12  13
BRANCH  12  17
ATOM     17  C   UNL     1      26.837 -14.040  30.489  1.00  0.00    -0.006 C 
ATOM     18  C   UNL     1      25.636 -14.471  29.631  1.00  0.00     0.008 C 
ATOM     19  C   UNL     1      26.689 -14.589  31.918  1.00  0.00     0.008 C 
ENDBRANCH  12  17
ENDBRANCH  11  12
ENDBRANCH   1  11
TORSDOF 1
ENDMDL
