MODEL 1
REMARK VINA RESULT:     8.423      0.000      0.000
REMARK INTER + INTRA:          10.007
REMARK INTER:                   9.407
REMARK INTRA:                   0.599
REMARK UNBOUND:                 0.599
REMARK SMILES O=C([O-])c1ccccc1C(=O)[O-]
REMARK SMILES IDX 4 1 9 2 5 3 8 4 6 5 7 6 2 7 1 8 3 9 10 10 11 11 12 12
REMARK H PARENT
REMARK Flexibility Score: inf
ROOT
ATOM      1  C   UNL     1      -1.723  -7.311  16.797  1.00  0.00     0.006 A 
ATOM      2  C   UNL     1      -2.692  -6.271  16.745  1.00  0.00     0.006 A 
ATOM      3  C   UNL     1      -0.686  -7.330  15.845  1.00  0.00     0.010 A 
ATOM      4  C   UNL     1      -2.552  -5.254  15.783  1.00  0.00     0.010 A 
ATOM      5  C   UNL     1      -0.580  -6.322  14.886  1.00  0.00     0.001 A 
ATOM      6  C   UNL     1      -1.504  -5.279  14.862  1.00  0.00     0.001 A 
ENDROOT
BRANCH   1   7
ATOM      7  C   UNL     1      -1.713  -8.341  17.861  1.00  0.00     0.072 C 
ATOM      8  O   UNL     1      -2.277  -9.452  17.674  1.00  0.00    -0.545 OA
ATOM      9  O   UNL     1      -1.030  -8.124  19.052  1.00  0.00    -0.545 OA
ENDBRANCH   1   7
BRANCH   2  10
ATOM     10  C   UNL     1      -3.890  -6.252  17.615  1.00  0.00     0.072 C 
ATOM     11  O   UNL     1      -4.871  -5.516  17.328  1.00  0.00    -0.545 OA
ATOM     12  O   UNL     1      -3.976  -7.090  18.722  1.00  0.00    -0.545 OA
ENDBRANCH   2  10
TORSDOF 2
ENDMDL
MODEL 2
REMARK VINA RESULT:     8.428      0.032      2.975
REMARK INTER + INTRA:          10.013
REMARK INTER:                   9.423
REMARK INTRA:                   0.590
REMARK UNBOUND:                 0.599
REMARK SMILES O=C([O-])c1ccccc1C(=O)[O-]
REMARK SMILES IDX 4 1 9 2 5 3 8 4 6 5 7 6 2 7 1 8 3 9 10 10 11 11 12 12
REMARK H PARENT
REMARK Flexibility Score: inf
ROOT
ATOM      1  C   UNL     1      -2.682  -6.287  16.765  1.00  0.00     0.006 A 
ATOM      2  C   UNL     1      -1.715  -7.329  16.810  1.00  0.00     0.006 A 
ATOM      3  C   UNL     1      -2.537  -5.257  15.815  1.00  0.00     0.010 A 
ATOM      4  C   UNL     1      -0.674  -7.337  15.863  1.00  0.00     0.010 A 
ATOM      5  C   UNL     1      -1.484  -5.274  14.900  1.00  0.00     0.001 A 
ATOM      6  C   UNL     1      -0.561  -6.318  14.916  1.00  0.00     0.001 A 
ENDROOT
BRANCH   1   7
ATOM      7  C   UNL     1      -3.885  -6.276  17.628  1.00  0.00     0.072 C 
ATOM      8  O   UNL     1      -4.868  -5.543  17.338  1.00  0.00    -0.545 OA
ATOM      9  O   UNL     1      -3.975  -7.117  18.731  1.00  0.00    -0.545 OA
ENDBRANCH   1   7
BRANCH   2  10
ATOM     10  C   UNL     1      -1.713  -8.370  17.862  1.00  0.00     0.072 C 
ATOM     11  O   UNL     1      -2.271  -9.481  17.656  1.00  0.00    -0.545 OA
ATOM     12  O   UNL     1      -1.044  -8.164  19.063  1.00  0.00    -0.545 OA
ENDBRANCH   2  10
TORSDOF 2
ENDMDL
