MODEL 1
REMARK VINA RESULT:    -4.344      0.000      0.000
REMARK INTER + INTRA:          -4.344
REMARK INTER:                  -4.344
REMARK INTRA:                   0.000
REMARK UNBOUND:                 0.000
REMARK SMILES O=c1ccc2ccccc2o1
REMARK SMILES IDX 7 1 8 2 9 3 10 4 5 5 6 6 4 7 3 8 2 9 1 10 11 11
REMARK H PARENT
REMARK Flexibility Score: inf
ROOT
ATOM      1  C   UNL     1       7.114  37.830   9.223  1.00  0.00     0.001 A 
ATOM      2  C   UNL     1       7.533  39.136   8.943  1.00  0.00     0.004 A 
ATOM      3  C   UNL     1       6.743  39.973   8.149  1.00  0.00     0.048 A 
ATOM      4  C   UNL     1       5.530  39.508   7.630  1.00  0.00     0.138 A 
ATOM      5  C   UNL     1       5.106  38.190   7.911  1.00  0.00     0.018 A 
ATOM      6  C   UNL     1       5.903  37.354   8.709  1.00  0.00     0.012 A 
ATOM      7  C   UNL     1       3.890  37.752   7.380  1.00  0.00     0.019 A 
ATOM      8  C   UNL     1       3.135  38.621   6.593  1.00  0.00     0.094 A 
ATOM      9  C   UNL     1       3.617  39.913   6.356  1.00  0.00     0.336 A 
ATOM     10  O   UNL     1       2.950  40.713   5.649  1.00  0.00    -0.246 OA
ATOM     11  O   UNL     1       4.778  40.305   6.875  1.00  0.00    -0.423 OA
ENDROOT
TORSDOF 0
ENDMDL
MODEL 2
REMARK VINA RESULT:    -4.337      4.552      5.955
REMARK INTER + INTRA:          -4.337
REMARK INTER:                  -4.337
REMARK INTRA:                   0.000
REMARK UNBOUND:                 0.000
REMARK SMILES O=c1ccc2ccccc2o1
REMARK SMILES IDX 7 1 8 2 9 3 10 4 5 5 6 6 4 7 3 8 2 9 1 10 11 11
REMARK H PARENT
REMARK Flexibility Score: inf
ROOT
ATOM      1  C   UNL     1       2.841  37.408   5.048  1.00  0.00     0.001 A 
ATOM      2  C   UNL     1       2.369  38.539   5.724  1.00  0.00     0.004 A 
ATOM      3  C   UNL     1       1.153  38.491   6.412  1.00  0.00     0.048 A 
ATOM      4  C   UNL     1       0.402  37.309   6.427  1.00  0.00     0.138 A 
ATOM      5  C   UNL     1       0.878  36.167   5.745  1.00  0.00     0.018 A 
ATOM      6  C   UNL     1       2.099  36.222   5.057  1.00  0.00     0.012 A 
ATOM      7  C   UNL     1       0.107  35.002   5.778  1.00  0.00     0.019 A 
ATOM      8  C   UNL     1      -1.100  34.999   6.476  1.00  0.00     0.094 A 
ATOM      9  C   UNL     1      -1.508  36.167   7.129  1.00  0.00     0.336 A 
ATOM     10  O   UNL     1      -2.594  36.185   7.765  1.00  0.00    -0.246 OA
ATOM     11  O   UNL     1      -0.755  37.263   7.083  1.00  0.00    -0.423 OA
ENDROOT
TORSDOF 0
ENDMDL
MODEL 3
REMARK VINA RESULT:    -4.260      4.322      5.990
REMARK INTER + INTRA:          -4.260
REMARK INTER:                  -4.260
REMARK INTRA:                   0.000
REMARK UNBOUND:                 0.000
REMARK SMILES O=c1ccc2ccccc2o1
REMARK SMILES IDX 7 1 8 2 9 3 10 4 5 5 6 6 4 7 3 8 2 9 1 10 11 11
REMARK H PARENT
REMARK Flexibility Score: inf
ROOT
ATOM      1  C   UNL     1      -0.932  34.822   6.526  1.00  0.00     0.001 A 
ATOM      2  C   UNL     1      -1.493  36.001   7.029  1.00  0.00     0.004 A 
ATOM      3  C   UNL     1      -0.861  37.230   6.814  1.00  0.00     0.048 A 
ATOM      4  C   UNL     1       0.338  37.284   6.094  1.00  0.00     0.138 A 
ATOM      5  C   UNL     1       0.906  36.095   5.586  1.00  0.00     0.018 A 
ATOM      6  C   UNL     1       0.266  34.865   5.805  1.00  0.00     0.012 A 
ATOM      7  C   UNL     1       2.103  36.180   4.870  1.00  0.00     0.019 A 
ATOM      8  C   UNL     1       2.700  37.426   4.680  1.00  0.00     0.094 A 
ATOM      9  C   UNL     1       2.080  38.562   5.212  1.00  0.00     0.336 A 
ATOM     10  O   UNL     1       2.602  39.696   5.050  1.00  0.00    -0.246 OA
ATOM     11  O   UNL     1       0.940  38.454   5.889  1.00  0.00    -0.423 OA
ENDROOT
TORSDOF 0
ENDMDL
MODEL 4
REMARK VINA RESULT:    -4.256      3.623      5.493
REMARK INTER + INTRA:          -4.256
REMARK INTER:                  -4.256
REMARK INTRA:                   0.000
REMARK UNBOUND:                 0.000
REMARK SMILES O=c1ccc2ccccc2o1
REMARK SMILES IDX 7 1 8 2 9 3 10 4 5 5 6 6 4 7 3 8 2 9 1 10 11 11
REMARK H PARENT
REMARK Flexibility Score: inf
ROOT
ATOM      1  C   UNL     1       0.297  34.795   5.752  1.00  0.00     0.001 A 
ATOM      2  C   UNL     1      -0.727  35.549   6.338  1.00  0.00     0.004 A 
ATOM      3  C   UNL     1      -0.547  36.915   6.576  1.00  0.00     0.048 A 
ATOM      4  C   UNL     1       0.660  37.535   6.228  1.00  0.00     0.138 A 
ATOM      5  C   UNL     1       1.693  36.775   5.636  1.00  0.00     0.018 A 
ATOM      6  C   UNL     1       1.506  35.404   5.400  1.00  0.00     0.012 A 
ATOM      7  C   UNL     1       2.886  37.420   5.299  1.00  0.00     0.019 A 
ATOM      8  C   UNL     1       3.022  38.784   5.555  1.00  0.00     0.094 A 
ATOM      9  C   UNL     1       1.956  39.473   6.144  1.00  0.00     0.336 A 
ATOM     10  O   UNL     1       2.059  40.705   6.382  1.00  0.00    -0.246 OA
ATOM     11  O   UNL     1       0.831  38.835   6.454  1.00  0.00    -0.423 OA
ENDROOT
TORSDOF 0
ENDMDL
MODEL 5
REMARK VINA RESULT:    -4.169      4.506      5.729
REMARK INTER + INTRA:          -4.169
REMARK INTER:                  -4.169
REMARK INTRA:                   0.000
REMARK UNBOUND:                 0.000
REMARK SMILES O=c1ccc2ccccc2o1
REMARK SMILES IDX 7 1 8 2 9 3 10 4 5 5 6 6 4 7 3 8 2 9 1 10 11 11
REMARK H PARENT
REMARK Flexibility Score: inf
ROOT
ATOM      1  C   UNL     1       1.792  35.622   5.375  1.00  0.00     0.001 A 
ATOM      2  C   UNL     1       0.459  35.258   5.595  1.00  0.00     0.004 A 
ATOM      3  C   UNL     1      -0.430  36.162   6.186  1.00  0.00     0.048 A 
ATOM      4  C   UNL     1       0.012  37.437   6.560  1.00  0.00     0.138 A 
ATOM      5  C   UNL     1       1.358  37.805   6.338  1.00  0.00     0.018 A 
ATOM      6  C   UNL     1       2.244  36.893   5.745  1.00  0.00     0.012 A 
ATOM      7  C   UNL     1       1.771  39.084   6.721  1.00  0.00     0.019 A 
ATOM      8  C   UNL     1       0.851  39.953   7.308  1.00  0.00     0.094 A 
ATOM      9  C   UNL     1      -0.466  39.520   7.497  1.00  0.00     0.336 A 
ATOM     10  O   UNL     1      -1.311  40.289   8.023  1.00  0.00    -0.246 OA
ATOM     11  O   UNL     1      -0.834  38.297   7.122  1.00  0.00    -0.423 OA
ENDROOT
TORSDOF 0
ENDMDL
MODEL 6
REMARK VINA RESULT:    -4.121      1.627      2.331
REMARK INTER + INTRA:          -4.121
REMARK INTER:                  -4.121
REMARK INTRA:                   0.000
REMARK UNBOUND:                 0.000
REMARK SMILES O=c1ccc2ccccc2o1
REMARK SMILES IDX 7 1 8 2 9 3 10 4 5 5 6 6 4 7 3 8 2 9 1 10 11 11
REMARK H PARENT
REMARK Flexibility Score: inf
ROOT
ATOM      1  C   UNL     1       7.053  38.523   7.895  1.00  0.00     0.001 A 
ATOM      2  C   UNL     1       6.315  37.692   8.746  1.00  0.00     0.004 A 
ATOM      3  C   UNL     1       4.952  37.480   8.513  1.00  0.00     0.048 A 
ATOM      4  C   UNL     1       4.321  38.099   7.427  1.00  0.00     0.138 A 
ATOM      5  C   UNL     1       5.066  38.937   6.569  1.00  0.00     0.018 A 
ATOM      6  C   UNL     1       6.433  39.146   6.807  1.00  0.00     0.012 A 
ATOM      7  C   UNL     1       4.410  39.541   5.493  1.00  0.00     0.019 A 
ATOM      8  C   UNL     1       3.050  39.302   5.299  1.00  0.00     0.094 A 
ATOM      9  C   UNL     1       2.376  38.460   6.190  1.00  0.00     0.336 A 
ATOM     10  O   UNL     1       1.148  38.231   6.032  1.00  0.00    -0.246 OA
ATOM     11  O   UNL     1       3.024  37.897   7.206  1.00  0.00    -0.423 OA
ENDROOT
TORSDOF 0
ENDMDL
MODEL 7
REMARK VINA RESULT:    -4.114      3.146      5.311
REMARK INTER + INTRA:          -4.114
REMARK INTER:                  -4.114
REMARK INTRA:                   0.000
REMARK UNBOUND:                 0.000
REMARK SMILES O=c1ccc2ccccc2o1
REMARK SMILES IDX 7 1 8 2 9 3 10 4 5 5 6 6 4 7 3 8 2 9 1 10 11 11
REMARK H PARENT
REMARK Flexibility Score: inf
ROOT
ATOM      1  C   UNL     1      -0.485  35.862   6.186  1.00  0.00     0.001 A 
ATOM      2  C   UNL     1       0.513  35.129   5.533  1.00  0.00     0.004 A 
ATOM      3  C   UNL     1       1.772  35.696   5.311  1.00  0.00     0.048 A 
ATOM      4  C   UNL     1       2.039  37.001   5.742  1.00  0.00     0.138 A 
ATOM      5  C   UNL     1       1.032  37.741   6.401  1.00  0.00     0.018 A 
ATOM      6  C   UNL     1      -0.229  37.167   6.621  1.00  0.00     0.012 A 
ATOM      7  C   UNL     1       1.327  39.041   6.821  1.00  0.00     0.019 A 
ATOM      8  C   UNL     1       2.596  39.567   6.579  1.00  0.00     0.094 A 
ATOM      9  C   UNL     1       3.544  38.776   5.920  1.00  0.00     0.336 A 
ATOM     10  O   UNL     1       4.694  39.232   5.693  1.00  0.00    -0.246 OA
ATOM     11  O   UNL     1       3.237  37.541   5.532  1.00  0.00    -0.423 OA
ENDROOT
TORSDOF 0
ENDMDL
MODEL 8
REMARK VINA RESULT:    -4.088      1.392      3.796
REMARK INTER + INTRA:          -4.088
REMARK INTER:                  -4.088
REMARK INTRA:                   0.000
REMARK UNBOUND:                 0.000
REMARK SMILES O=c1ccc2ccccc2o1
REMARK SMILES IDX 7 1 8 2 9 3 10 4 5 5 6 6 4 7 3 8 2 9 1 10 11 11
REMARK H PARENT
REMARK Flexibility Score: inf
ROOT
ATOM      1  C   UNL     1       2.476  38.490   5.792  1.00  0.00     0.001 A 
ATOM      2  C   UNL     1       2.890  39.802   5.536  1.00  0.00     0.004 A 
ATOM      3  C   UNL     1       4.022  40.320   6.173  1.00  0.00     0.048 A 
ATOM      4  C   UNL     1       4.746  39.527   7.071  1.00  0.00     0.138 A 
ATOM      5  C   UNL     1       4.329  38.202   7.330  1.00  0.00     0.018 A 
ATOM      6  C   UNL     1       3.193  37.688   6.687  1.00  0.00     0.012 A 
ATOM      7  C   UNL     1       5.072  37.434   8.230  1.00  0.00     0.019 A 
ATOM      8  C   UNL     1       6.194  37.991   8.843  1.00  0.00     0.094 A 
ATOM      9  C   UNL     1       6.547  39.311   8.539  1.00  0.00     0.336 A 
ATOM     10  O   UNL     1       7.556  39.831   9.081  1.00  0.00    -0.246 OA
ATOM     11  O   UNL     1       5.823  40.020   7.677  1.00  0.00    -0.423 OA
ENDROOT
TORSDOF 0
ENDMDL
MODEL 9
REMARK VINA RESULT:    -4.023      4.585      5.661
REMARK INTER + INTRA:          -4.023
REMARK INTER:                  -4.023
REMARK INTRA:                   0.000
REMARK UNBOUND:                 0.000
REMARK SMILES O=c1ccc2ccccc2o1
REMARK SMILES IDX 7 1 8 2 9 3 10 4 5 5 6 6 4 7 3 8 2 9 1 10 11 11
REMARK H PARENT
REMARK Flexibility Score: inf
ROOT
ATOM      1  C   UNL     1       0.509  34.981   5.588  1.00  0.00     0.001 A 
ATOM      2  C   UNL     1       1.778  35.545   5.413  1.00  0.00     0.004 A 
ATOM      3  C   UNL     1       2.008  36.880   5.760  1.00  0.00     0.048 A 
ATOM      4  C   UNL     1       0.969  37.658   6.284  1.00  0.00     0.138 A 
ATOM      5  C   UNL     1      -0.312  37.090   6.460  1.00  0.00     0.018 A 
ATOM      6  C   UNL     1      -0.536  35.749   6.111  1.00  0.00     0.012 A 
ATOM      7  C   UNL     1      -1.330  37.890   6.986  1.00  0.00     0.019 A 
ATOM      8  C   UNL     1      -1.055  39.216   7.317  1.00  0.00     0.094 A 
ATOM      9  C   UNL     1       0.237  39.713   7.115  1.00  0.00     0.336 A 
ATOM     10  O   UNL     1       0.505  40.907   7.408  1.00  0.00    -0.246 OA
ATOM     11  O   UNL     1       1.189  38.929   6.614  1.00  0.00    -0.423 OA
ENDROOT
TORSDOF 0
ENDMDL
