MODEL 1
REMARK VINA RESULT:    -2.843      0.000      0.000
REMARK INTER + INTRA:          -3.199
REMARK INTER:                  -3.176
REMARK INTRA:                  -0.023
REMARK UNBOUND:                -0.023
REMARK SMILES CCCC(=O)[O-]
REMARK SMILES IDX 3 1 4 2 5 3 6 4 2 5 1 6
REMARK H PARENT
REMARK Flexibility Score: inf
ROOT
ATOM      1  C   UNL     1       2.772   0.215  -4.225  1.00  0.00     0.052 C 
ENDROOT
BRANCH   1   2
ATOM      2  C   UNL     1       2.678   1.121  -5.411  1.00  0.00     0.041 C 
ATOM      3  O   UNL     1       2.438   0.647  -6.554  1.00  0.00    -0.550 OA
ATOM      4  O   UNL     1       2.904   2.483  -5.265  1.00  0.00    -0.550 OA
ENDBRANCH   1   2
BRANCH   1   5
ATOM      5  C   UNL     1       3.884  -0.818  -4.426  1.00  0.00     0.003 C 
ATOM      6  C   UNL     1       3.306  -2.193  -4.748  1.00  0.00     0.004 C 
ENDBRANCH   1   5
TORSDOF 2
ENDMDL
MODEL 2
REMARK VINA RESULT:    -2.841      0.834      1.140
REMARK INTER + INTRA:          -3.196
REMARK INTER:                  -3.157
REMARK INTRA:                  -0.040
REMARK UNBOUND:                -0.023
REMARK SMILES CCCC(=O)[O-]
REMARK SMILES IDX 3 1 4 2 5 3 6 4 2 5 1 6
REMARK H PARENT
REMARK Flexibility Score: inf
ROOT
ATOM      1  C   UNL     1       2.855   0.209  -4.110  1.00  0.00     0.052 C 
ENDROOT
BRANCH   1   2
ATOM      2  C   UNL     1       3.025   1.203  -5.215  1.00  0.00     0.041 C 
ATOM      3  O   UNL     1       2.163   2.105  -5.394  1.00  0.00    -0.550 OA
ATOM      4  O   UNL     1       4.107   1.104  -6.080  1.00  0.00    -0.550 OA
ENDBRANCH   1   2
BRANCH   1   5
ATOM      5  C   UNL     1       3.892  -0.910  -4.231  1.00  0.00     0.003 C 
ATOM      6  C   UNL     1       3.278  -2.167  -4.841  1.00  0.00     0.004 C 
ENDBRANCH   1   5
TORSDOF 2
ENDMDL
MODEL 3
REMARK VINA RESULT:    -2.780     15.427     16.386
REMARK INTER + INTRA:          -3.128
REMARK INTER:                  -3.070
REMARK INTRA:                  -0.058
REMARK UNBOUND:                -0.023
REMARK SMILES CCCC(=O)[O-]
REMARK SMILES IDX 3 1 4 2 5 3 6 4 2 5 1 6
REMARK H PARENT
REMARK Flexibility Score: inf
ROOT
ATOM      1  C   UNL     1      -5.752 -12.962  -4.625  1.00  0.00     0.052 C 
ENDROOT
BRANCH   1   2
ATOM      2  C   UNL     1      -6.970 -12.911  -3.757  1.00  0.00     0.041 C 
ATOM      3  O   UNL     1      -7.237 -11.870  -3.100  1.00  0.00    -0.550 OA
ATOM      4  O   UNL     1      -7.784 -14.029  -3.634  1.00  0.00    -0.550 OA
ENDBRANCH   1   2
BRANCH   1   5
ATOM      5  C   UNL     1      -5.782 -11.831  -5.657  1.00  0.00     0.003 C 
ATOM      6  C   UNL     1      -6.660 -12.199  -6.850  1.00  0.00     0.004 C 
ENDBRANCH   1   5
TORSDOF 2
ENDMDL
MODEL 4
REMARK VINA RESULT:    -2.777     15.403     15.926
REMARK INTER + INTRA:          -3.125
REMARK INTER:                  -3.079
REMARK INTRA:                  -0.045
REMARK UNBOUND:                -0.023
REMARK SMILES CCCC(=O)[O-]
REMARK SMILES IDX 3 1 4 2 5 3 6 4 2 5 1 6
REMARK H PARENT
REMARK Flexibility Score: inf
ROOT
ATOM      1  C   UNL     1      -5.766 -11.822  -5.684  1.00  0.00     0.052 C 
ENDROOT
BRANCH   1   2
ATOM      2  C   UNL     1      -6.564 -12.220  -6.886  1.00  0.00     0.041 C 
ATOM      3  O   UNL     1      -6.003 -12.792  -7.858  1.00  0.00    -0.550 OA
ATOM      4  O   UNL     1      -7.917 -11.914  -6.955  1.00  0.00    -0.550 OA
ENDBRANCH   1   2
BRANCH   1   5
ATOM      5  C   UNL     1      -6.235 -12.597  -4.450  1.00  0.00     0.003 C 
ATOM      6  C   UNL     1      -5.469 -13.908  -4.299  1.00  0.00     0.004 C 
ENDBRANCH   1   5
TORSDOF 2
ENDMDL
MODEL 5
REMARK VINA RESULT:    -2.750      2.387      3.562
REMARK INTER + INTRA:          -3.095
REMARK INTER:                  -3.060
REMARK INTRA:                  -0.035
REMARK UNBOUND:                -0.023
REMARK SMILES CCCC(=O)[O-]
REMARK SMILES IDX 3 1 4 2 5 3 6 4 2 5 1 6
REMARK H PARENT
REMARK Flexibility Score: inf
ROOT
ATOM      1  C   UNL     1       4.079  -0.720  -4.172  1.00  0.00     0.052 C 
ENDROOT
BRANCH   1   2
ATOM      2  C   UNL     1       3.799  -2.116  -4.632  1.00  0.00     0.041 C 
ATOM      3  O   UNL     1       4.389  -3.091  -4.094  1.00  0.00    -0.550 OA
ATOM      4  O   UNL     1       2.926  -2.338  -5.689  1.00  0.00    -0.550 OA
ENDBRANCH   1   2
BRANCH   1   5
ATOM      5  C   UNL     1       2.787   0.099  -4.126  1.00  0.00     0.003 C 
ATOM      6  C   UNL     1       2.774   1.168  -5.215  1.00  0.00     0.004 C 
ENDBRANCH   1   5
TORSDOF 2
ENDMDL
MODEL 6
REMARK VINA RESULT:    -2.728      2.308      3.078
REMARK INTER + INTRA:          -3.070
REMARK INTER:                  -3.020
REMARK INTRA:                  -0.050
REMARK UNBOUND:                -0.023
REMARK SMILES CCCC(=O)[O-]
REMARK SMILES IDX 3 1 4 2 5 3 6 4 2 5 1 6
REMARK H PARENT
REMARK Flexibility Score: inf
ROOT
ATOM      1  C   UNL     1       3.260  -2.179  -4.861  1.00  0.00     0.052 C 
ENDROOT
BRANCH   1   2
ATOM      2  C   UNL     1       3.307  -2.123  -6.355  1.00  0.00     0.041 C 
ATOM      3  O   UNL     1       2.409  -2.683  -7.039  1.00  0.00    -0.550 OA
ATOM      4  O   UNL     1       4.369  -1.497  -6.994  1.00  0.00    -0.550 OA
ENDBRANCH   1   2
BRANCH   1   5
ATOM      5  C   UNL     1       3.867  -0.911  -4.257  1.00  0.00     0.003 C 
ATOM      6  C   UNL     1       2.833   0.208  -4.173  1.00  0.00     0.004 C 
ENDBRANCH   1   5
TORSDOF 2
ENDMDL
MODEL 7
REMARK VINA RESULT:    -2.673     20.822     21.427
REMARK INTER + INTRA:          -3.009
REMARK INTER:                  -2.953
REMARK INTRA:                  -0.056
REMARK UNBOUND:                -0.023
REMARK SMILES CCCC(=O)[O-]
REMARK SMILES IDX 3 1 4 2 5 3 6 4 2 5 1 6
REMARK H PARENT
REMARK Flexibility Score: inf
ROOT
ATOM      1  C   UNL     1     -12.875 -10.846   4.177  1.00  0.00     0.052 C 
ENDROOT
BRANCH   1   2
ATOM      2  C   UNL     1     -11.530 -10.750   4.827  1.00  0.00     0.041 C 
ATOM      3  O   UNL     1     -10.869  -9.679   4.759  1.00  0.00    -0.550 OA
ATOM      4  O   UNL     1     -10.985 -11.856   5.464  1.00  0.00    -0.550 OA
ENDBRANCH   1   2
BRANCH   1   5
ATOM      5  C   UNL     1     -13.723  -9.618   4.516  1.00  0.00     0.003 C 
ATOM      6  C   UNL     1     -14.186  -9.654   5.970  1.00  0.00     0.004 C 
ENDBRANCH   1   5
TORSDOF 2
ENDMDL
MODEL 8
REMARK VINA RESULT:    -2.630     20.938     21.556
REMARK INTER + INTRA:          -2.961
REMARK INTER:                  -2.922
REMARK INTRA:                  -0.040
REMARK UNBOUND:                -0.023
REMARK SMILES CCCC(=O)[O-]
REMARK SMILES IDX 3 1 4 2 5 3 6 4 2 5 1 6
REMARK H PARENT
REMARK Flexibility Score: inf
ROOT
ATOM      1  C   UNL     1     -11.681 -10.049   4.711  1.00  0.00     0.052 C 
ENDROOT
BRANCH   1   2
ATOM      2  C   UNL     1     -11.349 -11.163   5.654  1.00  0.00     0.041 C 
ATOM      3  O   UNL     1     -11.602 -11.049   6.883  1.00  0.00    -0.550 OA
ATOM      4  O   UNL     1     -10.715 -12.305   5.185  1.00  0.00    -0.550 OA
ENDBRANCH   1   2
BRANCH   1   5
ATOM      5  C   UNL     1     -13.021 -10.314   4.020  1.00  0.00     0.003 C 
ATOM      6  C   UNL     1     -14.155  -9.564   4.714  1.00  0.00     0.004 C 
ENDBRANCH   1   5
TORSDOF 2
ENDMDL
MODEL 9
REMARK VINA RESULT:    -0.779     15.285     15.658
REMARK INTER + INTRA:          -0.893
REMARK INTER:                  -0.876
REMARK INTRA:                  -0.017
REMARK UNBOUND:                -0.023
REMARK SMILES CCCC(=O)[O-]
REMARK SMILES IDX 3 1 4 2 5 3 6 4 2 5 1 6
REMARK H PARENT
REMARK Flexibility Score: inf
ROOT
ATOM      1  C   UNL     1      -5.356 -13.468  -5.006  1.00  0.00     0.052 C 
ENDROOT
BRANCH   1   2
ATOM      2  C   UNL     1      -6.166 -12.260  -4.653  1.00  0.00     0.041 C 
ATOM      3  O   UNL     1      -6.118 -11.231  -5.379  1.00  0.00    -0.550 OA
ATOM      4  O   UNL     1      -6.934 -12.251  -3.497  1.00  0.00    -0.550 OA
ENDBRANCH   1   2
BRANCH   1   5
ATOM      5  C   UNL     1      -4.762 -13.324  -6.409  1.00  0.00     0.003 C 
ATOM      6  C   UNL     1      -3.470 -14.125  -6.545  1.00  0.00     0.004 C 
ENDBRANCH   1   5
TORSDOF 2
ENDMDL
