MODEL 1
REMARK VINA RESULT:    -2.930      0.000      0.000
REMARK INTER + INTRA:          -4.821
REMARK INTER:                  -4.472
REMARK INTRA:                  -0.350
REMARK UNBOUND:                -0.350
REMARK SMILES CCCCCCCCCCC(=O)[O-]
REMARK SMILES IDX 7 1 8 2 9 3 10 4 11 5 12 6 13 7 6 8 5 9 4 10 3 11 2 12 1 13
REMARK H PARENT
REMARK Flexibility Score: inf
ROOT
ATOM      1  C   UNL     1      12.131  11.385  14.520  1.00  0.00     0.000 C 
ENDROOT
BRANCH   1   2
ATOM      2  C   UNL     1      12.072  12.725  15.276  1.00  0.00     0.000 C 
BRANCH   2   3
ATOM      3  C   UNL     1      13.293  13.644  15.065  1.00  0.00     0.006 C 
BRANCH   3   4
ATOM      4  C   UNL     1      12.949  15.054  14.558  1.00  0.00     0.053 C 
BRANCH   4   5
ATOM      5  C   UNL     1      13.237  15.210  13.095  1.00  0.00     0.041 C 
ATOM      6  O   UNL     1      12.901  14.308  12.285  1.00  0.00    -0.550 OA
ATOM      7  O   UNL     1      13.905  16.337  12.634  1.00  0.00    -0.550 OA
ENDBRANCH   4   5
ENDBRANCH   3   4
ENDBRANCH   2   3
ENDBRANCH   1   2
BRANCH   1   8
ATOM      8  C   UNL     1      13.262  10.468  15.015  1.00  0.00     0.000 C 
BRANCH   8   9
ATOM      9  C   UNL     1      12.763   9.064  15.390  1.00  0.00    -0.000 C 
BRANCH   9  10
ATOM     10  C   UNL     1      13.838   7.982  15.190  1.00  0.00    -0.000 C 
BRANCH  10  11
ATOM     11  C   UNL     1      13.449   6.645  15.856  1.00  0.00    -0.000 C 
BRANCH  11  12
ATOM     12  C   UNL     1      12.396   6.796  16.968  1.00  0.00    -0.003 C 
ATOM     13  C   UNL     1      12.744   6.014  18.231  1.00  0.00     0.004 C 
ENDBRANCH  11  12
ENDBRANCH  10  11
ENDBRANCH   9  10
ENDBRANCH   8   9
ENDBRANCH   1   8
TORSDOF 9
ENDMDL
MODEL 2
REMARK VINA RESULT:    -2.737      1.104      1.274
REMARK INTER + INTRA:          -4.527
REMARK INTER:                  -4.277
REMARK INTRA:                  -0.250
REMARK UNBOUND:                -0.350
REMARK SMILES CCCCCCCCCCC(=O)[O-]
REMARK SMILES IDX 7 1 8 2 9 3 10 4 11 5 12 6 13 7 6 8 5 9 4 10 3 11 2 12 1 13
REMARK H PARENT
REMARK Flexibility Score: inf
ROOT
ATOM      1  C   UNL     1      12.889  11.104  15.118  1.00  0.00     0.000 C 
ENDROOT
BRANCH   1   2
ATOM      2  C   UNL     1      11.899  11.964  14.313  1.00  0.00     0.000 C 
BRANCH   2   3
ATOM      3  C   UNL     1      12.552  12.973  13.345  1.00  0.00     0.006 C 
BRANCH   3   4
ATOM      4  C   UNL     1      13.265  14.148  14.033  1.00  0.00     0.053 C 
BRANCH   4   5
ATOM      5  C   UNL     1      13.341  15.355  13.149  1.00  0.00     0.041 C 
ATOM      6  O   UNL     1      12.972  15.283  11.947  1.00  0.00    -0.550 OA
ATOM      7  O   UNL     1      13.850  16.549  13.642  1.00  0.00    -0.550 OA
ENDBRANCH   4   5
ENDBRANCH   3   4
ENDBRANCH   2   3
ENDBRANCH   1   2
BRANCH   1   8
ATOM      8  C   UNL     1      12.597   9.598  15.012  1.00  0.00     0.000 C 
BRANCH   8   9
ATOM      9  C   UNL     1      13.828   8.734  15.324  1.00  0.00    -0.000 C 
BRANCH   9  10
ATOM     10  C   UNL     1      13.495   7.233  15.391  1.00  0.00    -0.000 C 
BRANCH  10  11
ATOM     11  C   UNL     1      12.517   6.905  16.540  1.00  0.00    -0.000 C 
BRANCH  11  12
ATOM     12  C   UNL     1      13.005   5.769  17.455  1.00  0.00    -0.003 C 
ATOM     13  C   UNL     1      13.267   4.467  16.704  1.00  0.00     0.004 C 
ENDBRANCH  11  12
ENDBRANCH  10  11
ENDBRANCH   9  10
ENDBRANCH   8   9
ENDBRANCH   1   8
TORSDOF 9
ENDMDL
MODEL 3
REMARK VINA RESULT:    -2.733      4.476      7.943
REMARK INTER + INTRA:          -4.521
REMARK INTER:                  -4.253
REMARK INTRA:                  -0.268
REMARK UNBOUND:                -0.350
REMARK SMILES CCCCCCCCCCC(=O)[O-]
REMARK SMILES IDX 7 1 8 2 9 3 10 4 11 5 12 6 13 7 6 8 5 9 4 10 3 11 2 12 1 13
REMARK H PARENT
REMARK Flexibility Score: inf
ROOT
ATOM      1  C   UNL     1      12.489   9.785  15.114  1.00  0.00     0.000 C 
ENDROOT
BRANCH   1   2
ATOM      2  C   UNL     1      13.727   8.895  15.327  1.00  0.00     0.000 C 
BRANCH   2   3
ATOM      3  C   UNL     1      13.435   7.382  15.400  1.00  0.00     0.006 C 
BRANCH   3   4
ATOM      4  C   UNL     1      12.412   6.980  16.473  1.00  0.00     0.053 C 
BRANCH   4   5
ATOM      5  C   UNL     1      12.905   5.850  17.325  1.00  0.00     0.041 C 
ATOM      6  O   UNL     1      13.017   5.999  18.570  1.00  0.00    -0.550 OA
ATOM      7  O   UNL     1      13.273   4.646  16.739  1.00  0.00    -0.550 OA
ENDBRANCH   4   5
ENDBRANCH   3   4
ENDBRANCH   2   3
ENDBRANCH   1   2
BRANCH   1   8
ATOM      8  C   UNL     1      12.833  11.282  15.052  1.00  0.00     0.000 C 
BRANCH   8   9
ATOM      9  C   UNL     1      11.941  12.053  14.067  1.00  0.00    -0.000 C 
BRANCH   9  10
ATOM     10  C   UNL     1      12.688  13.204  13.370  1.00  0.00    -0.000 C 
BRANCH  10  11
ATOM     11  C   UNL     1      13.232  14.240  14.378  1.00  0.00    -0.000 C 
BRANCH  11  12
ATOM     12  C   UNL     1      13.318  15.665  13.808  1.00  0.00    -0.003 C 
ATOM     13  C   UNL     1      13.228  15.707  12.286  1.00  0.00     0.004 C 
ENDBRANCH  11  12
ENDBRANCH  10  11
ENDBRANCH   9  10
ENDBRANCH   8   9
ENDBRANCH   1   8
TORSDOF 9
ENDMDL
MODEL 4
REMARK VINA RESULT:    -2.521      1.680      2.918
REMARK INTER + INTRA:          -4.198
REMARK INTER:                  -4.003
REMARK INTRA:                  -0.195
REMARK UNBOUND:                -0.350
REMARK SMILES CCCCCCCCCCC(=O)[O-]
REMARK SMILES IDX 7 1 8 2 9 3 10 4 11 5 12 6 13 7 6 8 5 9 4 10 3 11 2 12 1 13
REMARK H PARENT
REMARK Flexibility Score: inf
ROOT
ATOM      1  C   UNL     1      13.702   8.923  15.365  1.00  0.00     0.000 C 
ENDROOT
BRANCH   1   2
ATOM      2  C   UNL     1      12.591   9.855  14.848  1.00  0.00     0.000 C 
BRANCH   2   3
ATOM      3  C   UNL     1      12.699  11.320  15.320  1.00  0.00     0.006 C 
BRANCH   3   4
ATOM      4  C   UNL     1      12.565  12.362  14.199  1.00  0.00     0.053 C 
BRANCH   4   5
ATOM      5  C   UNL     1      13.122  13.694  14.601  1.00  0.00     0.041 C 
ATOM      6  O   UNL     1      13.304  13.962  15.817  1.00  0.00    -0.550 OA
ATOM      7  O   UNL     1      13.408  14.650  13.634  1.00  0.00    -0.550 OA
ENDBRANCH   4   5
ENDBRANCH   3   4
ENDBRANCH   2   3
ENDBRANCH   1   2
BRANCH   1   8
ATOM      8  C   UNL     1      13.273   7.447  15.407  1.00  0.00     0.000 C 
BRANCH   8   9
ATOM      9  C   UNL     1      12.513   7.089  16.693  1.00  0.00    -0.000 C 
BRANCH   9  10
ATOM     10  C   UNL     1      12.841   5.673  17.199  1.00  0.00    -0.000 C 
BRANCH  10  11
ATOM     11  C   UNL     1      12.644   5.540  18.725  1.00  0.00    -0.000 C 
BRANCH  11  12
ATOM     12  C   UNL     1      12.423   4.091  19.191  1.00  0.00    -0.003 C 
ATOM     13  C   UNL     1      11.344   3.967  20.264  1.00  0.00     0.004 C 
ENDBRANCH  11  12
ENDBRANCH  10  11
ENDBRANCH   9  10
ENDBRANCH   8   9
ENDBRANCH   1   8
TORSDOF 9
ENDMDL
MODEL 5
REMARK VINA RESULT:    -2.308      7.307      8.350
REMARK INTER + INTRA:          -3.872
REMARK INTER:                  -3.511
REMARK INTRA:                  -0.361
REMARK UNBOUND:                -0.350
REMARK SMILES CCCCCCCCCCC(=O)[O-]
REMARK SMILES IDX 7 1 8 2 9 3 10 4 11 5 12 6 13 7 6 8 5 9 4 10 3 11 2 12 1 13
REMARK H PARENT
REMARK Flexibility Score: inf
ROOT
ATOM      1  C   UNL     1      14.520   4.347  15.730  1.00  0.00     0.000 C 
ENDROOT
BRANCH   1   2
ATOM      2  C   UNL     1      14.615   5.457  14.668  1.00  0.00     0.000 C 
BRANCH   2   3
ATOM      3  C   UNL     1      15.426   5.085  13.409  1.00  0.00     0.006 C 
BRANCH   3   4
ATOM      4  C   UNL     1      16.925   4.858  13.659  1.00  0.00     0.053 C 
BRANCH   4   5
ATOM      5  C   UNL     1      17.535   3.954  12.631  1.00  0.00     0.041 C 
ATOM      6  O   UNL     1      18.670   3.448  12.828  1.00  0.00    -0.550 OA
ATOM      7  O   UNL     1      16.863   3.698  11.442  1.00  0.00    -0.550 OA
ENDBRANCH   4   5
ENDBRANCH   3   4
ENDBRANCH   2   3
ENDBRANCH   1   2
BRANCH   1   8
ATOM      8  C   UNL     1      13.214   4.406  16.540  1.00  0.00     0.000 C 
BRANCH   8   9
ATOM      9  C   UNL     1      12.888   5.824  17.033  1.00  0.00    -0.000 C 
BRANCH   9  10
ATOM     10  C   UNL     1      12.509   5.859  18.524  1.00  0.00    -0.000 C 
BRANCH  10  11
ATOM     11  C   UNL     1      12.481   4.448  19.150  1.00  0.00    -0.000 C 
BRANCH  11  12
ATOM     12  C   UNL     1      11.333   4.244  20.154  1.00  0.00    -0.003 C 
ATOM     13  C   UNL     1      11.659   3.217  21.235  1.00  0.00     0.004 C 
ENDBRANCH  11  12
ENDBRANCH  10  11
ENDBRANCH   9  10
ENDBRANCH   8   9
ENDBRANCH   1   8
TORSDOF 9
ENDMDL
MODEL 6
REMARK VINA RESULT:    -2.127      6.671      7.898
REMARK INTER + INTRA:          -3.596
REMARK INTER:                  -3.192
REMARK INTRA:                  -0.405
REMARK UNBOUND:                -0.350
REMARK SMILES CCCCCCCCCCC(=O)[O-]
REMARK SMILES IDX 7 1 8 2 9 3 10 4 11 5 12 6 13 7 6 8 5 9 4 10 3 11 2 12 1 13
REMARK H PARENT
REMARK Flexibility Score: inf
ROOT
ATOM      1  C   UNL     1      13.258   4.576  16.390  1.00  0.00     0.000 C 
ENDROOT
BRANCH   1   2
ATOM      2  C   UNL     1      14.497   4.403  15.493  1.00  0.00     0.000 C 
BRANCH   2   3
ATOM      3  C   UNL     1      14.502   5.269  14.216  1.00  0.00     0.006 C 
BRANCH   3   4
ATOM      4  C   UNL     1      15.639   4.950  13.234  1.00  0.00     0.053 C 
BRANCH   4   5
ATOM      5  C   UNL     1      15.122   4.584  11.876  1.00  0.00     0.041 C 
ATOM      6  O   UNL     1      14.064   5.108  11.439  1.00  0.00    -0.550 OA
ATOM      7  O   UNL     1      15.791   3.639  11.108  1.00  0.00    -0.550 OA
ENDBRANCH   4   5
ENDBRANCH   3   4
ENDBRANCH   2   3
ENDBRANCH   1   2
BRANCH   1   8
ATOM      8  C   UNL     1      12.886   6.050  16.619  1.00  0.00     0.000 C 
BRANCH   8   9
ATOM      9  C   UNL     1      12.456   6.333  18.066  1.00  0.00    -0.000 C 
BRANCH   9  10
ATOM     10  C   UNL     1      12.878   5.216  19.037  1.00  0.00    -0.000 C 
BRANCH  10  11
ATOM     11  C   UNL     1      11.681   4.652  19.831  1.00  0.00    -0.000 C 
BRANCH  11  12
ATOM     12  C   UNL     1      11.833   3.167  20.201  1.00  0.00    -0.003 C 
ATOM     13  C   UNL     1      11.899   2.929  21.707  1.00  0.00     0.004 C 
ENDBRANCH  11  12
ENDBRANCH  10  11
ENDBRANCH   9  10
ENDBRANCH   8   9
ENDBRANCH   1   8
TORSDOF 9
ENDMDL
MODEL 7
REMARK VINA RESULT:    -2.092      1.677      2.394
REMARK INTER + INTRA:          -3.543
REMARK INTER:                  -3.194
REMARK INTRA:                  -0.349
REMARK UNBOUND:                -0.350
REMARK SMILES CCCCCCCCCCC(=O)[O-]
REMARK SMILES IDX 7 1 8 2 9 3 10 4 11 5 12 6 13 7 6 8 5 9 4 10 3 11 2 12 1 13
REMARK H PARENT
REMARK Flexibility Score: inf
ROOT
ATOM      1  C   UNL     1      12.670   9.728  14.808  1.00  0.00     0.000 C 
ENDROOT
BRANCH   1   2
ATOM      2  C   UNL     1      12.721  11.128  15.447  1.00  0.00     0.000 C 
BRANCH   2   3
ATOM      3  C   UNL     1      12.561  12.300  14.457  1.00  0.00     0.006 C 
BRANCH   3   4
ATOM      4  C   UNL     1      11.661  11.997  13.249  1.00  0.00     0.053 C 
BRANCH   4   5
ATOM      5  C   UNL     1      12.076  12.767  12.032  1.00  0.00     0.041 C 
ATOM      6  O   UNL     1      11.800  12.332  10.884  1.00  0.00    -0.550 OA
ATOM      7  O   UNL     1      12.796  13.947  12.167  1.00  0.00    -0.550 OA
ENDBRANCH   4   5
ENDBRANCH   3   4
ENDBRANCH   2   3
ENDBRANCH   1   2
BRANCH   1   8
ATOM      8  C   UNL     1      13.773   8.793  15.330  1.00  0.00     0.000 C 
BRANCH   8   9
ATOM      9  C   UNL     1      13.286   7.347  15.511  1.00  0.00    -0.000 C 
BRANCH   9  10
ATOM     10  C   UNL     1      12.570   7.128  16.855  1.00  0.00    -0.000 C 
BRANCH  10  11
ATOM     11  C   UNL     1      12.874   5.739  17.457  1.00  0.00    -0.000 C 
BRANCH  11  12
ATOM     12  C   UNL     1      13.058   4.638  16.399  1.00  0.00    -0.003 C 
ATOM     13  C   UNL     1      13.959   3.501  16.869  1.00  0.00     0.004 C 
ENDBRANCH  11  12
ENDBRANCH  10  11
ENDBRANCH   9  10
ENDBRANCH   8   9
ENDBRANCH   1   8
TORSDOF 9
ENDMDL
MODEL 8
REMARK VINA RESULT:    -1.786      4.481      7.986
REMARK INTER + INTRA:          -3.076
REMARK INTER:                  -2.710
REMARK INTRA:                  -0.366
REMARK UNBOUND:                -0.350
REMARK SMILES CCCCCCCCCCC(=O)[O-]
REMARK SMILES IDX 7 1 8 2 9 3 10 4 11 5 12 6 13 7 6 8 5 9 4 10 3 11 2 12 1 13
REMARK H PARENT
REMARK Flexibility Score: inf
ROOT
ATOM      1  C   UNL     1      13.907   8.360  14.930  1.00  0.00     0.000 C 
ENDROOT
BRANCH   1   2
ATOM      2  C   UNL     1      13.626   6.982  15.554  1.00  0.00     0.000 C 
BRANCH   2   3
ATOM      3  C   UNL     1      12.494   6.960  16.601  1.00  0.00     0.006 C 
BRANCH   3   4
ATOM      4  C   UNL     1      12.247   5.587  17.246  1.00  0.00     0.053 C 
BRANCH   4   5
ATOM      5  C   UNL     1      12.732   5.537  18.663  1.00  0.00     0.041 C 
ATOM      6  O   UNL     1      13.550   6.397  19.082  1.00  0.00    -0.550 OA
ATOM      7  O   UNL     1      12.306   4.521  19.509  1.00  0.00    -0.550 OA
ENDBRANCH   4   5
ENDBRANCH   3   4
ENDBRANCH   2   3
ENDBRANCH   1   2
BRANCH   1   8
ATOM      8  C   UNL     1      12.870   9.422  15.334  1.00  0.00     0.000 C 
BRANCH   8   9
ATOM      9  C   UNL     1      13.212  10.818  14.791  1.00  0.00    -0.000 C 
BRANCH   9  10
ATOM     10  C   UNL     1      11.958  11.651  14.473  1.00  0.00    -0.000 C 
BRANCH  10  11
ATOM     11  C   UNL     1      11.936  12.988  15.246  1.00  0.00    -0.000 C 
BRANCH  11  12
ATOM     12  C   UNL     1      13.263  13.762  15.171  1.00  0.00    -0.003 C 
ATOM     13  C   UNL     1      13.304  14.771  14.027  1.00  0.00     0.004 C 
ENDBRANCH  11  12
ENDBRANCH  10  11
ENDBRANCH   9  10
ENDBRANCH   8   9
ENDBRANCH   1   8
TORSDOF 9
ENDMDL
