MODEL 1
REMARK VINA RESULT:     1.338      0.000      0.000
REMARK INTER + INTRA:           2.196
REMARK INTER:                   1.612
REMARK INTRA:                   0.584
REMARK UNBOUND:                 0.584
REMARK SMILES NC(=O)C[C@@H]([NH3+])C(=O)[O-]
REMARK SMILES IDX 4 1 5 2 6 3 7 7 8 8 9 9 2 10 3 11 1 12
REMARK H PARENT 6 4 6 5 6 6 1 13 1 14
REMARK Flexibility Score: inf
ROOT
ATOM      1  C   UNL     1       1.184   0.342  -7.432  1.00  0.00     0.171 C 
ENDROOT
BRANCH   1   2
ATOM      2  C   UNL     1       2.105  -0.068  -6.266  1.00  0.00     0.237 C 
BRANCH   2   3
ATOM      3  N   UNL     1       3.489  -0.222  -6.732  1.00  0.00    -0.350 N 
ATOM      4  H   UNL     1       3.951  -1.005  -6.218  1.00  0.00     0.345 HD
ATOM      5  H   UNL     1       3.511  -0.428  -7.759  1.00  0.00     0.345 HD
ATOM      6  H   UNL     1       4.027   0.655  -6.545  1.00  0.00     0.345 HD
ENDBRANCH   2   3
BRANCH   2   7
ATOM      7  C   UNL     1       2.042   0.937  -5.144  1.00  0.00     0.100 C 
ATOM      8  O   UNL     1       3.005   1.061  -4.341  1.00  0.00    -0.544 OA
ATOM      9  O   UNL     1       0.923   1.749  -5.004  1.00  0.00    -0.544 OA
ENDBRANCH   2   7
ENDBRANCH   1   2
BRANCH   1  10
ATOM     10  C   UNL     1       1.786  -0.010  -8.763  1.00  0.00     0.223 C 
ATOM     11  O   UNL     1       1.241  -0.889  -9.483  1.00  0.00    -0.275 OA
ATOM     12  N   UNL     1       2.947   0.672  -9.237  1.00  0.00    -0.369 N 
ATOM     13  H   UNL     1       3.401   1.417  -8.664  1.00  0.00     0.159 HD
ATOM     14  H   UNL     1       3.352   0.435 -10.170  1.00  0.00     0.159 HD
ENDBRANCH   1  10
TORSDOF 4
ENDMDL
MODEL 2
REMARK VINA RESULT:     2.686      1.531      1.715
REMARK INTER + INTRA:           3.820
REMARK INTER:                   3.924
REMARK INTRA:                  -0.104
REMARK UNBOUND:                 0.584
REMARK SMILES NC(=O)C[C@@H]([NH3+])C(=O)[O-]
REMARK SMILES IDX 4 1 5 2 6 3 7 7 8 8 9 9 2 10 3 11 1 12
REMARK H PARENT 6 4 6 5 6 6 1 13 1 14
REMARK Flexibility Score: inf
ROOT
ATOM      1  C   UNL     1       1.136  -0.174  -7.624  1.00  0.00     0.171 C 
ENDROOT
BRANCH   1   2
ATOM      2  C   UNL     1       1.656   0.912  -6.661  1.00  0.00     0.237 C 
BRANCH   2   3
ATOM      3  N   UNL     1       0.564   1.417  -5.819  1.00  0.00    -0.350 N 
ATOM      4  H   UNL     1       0.375   2.419  -6.048  1.00  0.00     0.345 HD
ATOM      5  H   UNL     1      -0.309   0.860  -5.973  1.00  0.00     0.345 HD
ATOM      6  H   UNL     1       0.837   1.358  -4.811  1.00  0.00     0.345 HD
ENDBRANCH   2   3
BRANCH   2   7
ATOM      7  C   UNL     1       2.776   0.383  -5.801  1.00  0.00     0.100 C 
ATOM      8  O   UNL     1       3.704  -0.300  -6.309  1.00  0.00    -0.544 OA
ATOM      9  O   UNL     1       2.798   0.665  -4.441  1.00  0.00    -0.544 OA
ENDBRANCH   2   7
ENDBRANCH   1   2
BRANCH   1  10
ATOM     10  C   UNL     1       1.823  -0.105  -8.959  1.00  0.00     0.223 C 
ATOM     11  O   UNL     1       1.370  -0.769  -9.930  1.00  0.00    -0.275 OA
ATOM     12  N   UNL     1       2.959   0.737  -9.146  1.00  0.00    -0.369 N 
ATOM     13  H   UNL     1       3.337   1.309  -8.359  1.00  0.00     0.159 HD
ATOM     14  H   UNL     1       3.425   0.794 -10.080  1.00  0.00     0.159 HD
ENDBRANCH   1  10
TORSDOF 4
ENDMDL
MODEL 3
REMARK VINA RESULT:     2.717      1.591      3.938
REMARK INTER + INTRA:           3.857
REMARK INTER:                   3.828
REMARK INTRA:                   0.029
REMARK UNBOUND:                 0.584
REMARK SMILES NC(=O)C[C@@H]([NH3+])C(=O)[O-]
REMARK SMILES IDX 4 1 5 2 6 3 7 7 8 8 9 9 2 10 3 11 1 12
REMARK H PARENT 6 4 6 5 6 6 1 13 1 14
REMARK Flexibility Score: inf
ROOT
ATOM      1  C   UNL     1       1.095   0.374  -6.267  1.00  0.00     0.171 C 
ENDROOT
BRANCH   1   2
ATOM      2  C   UNL     1       2.274   0.485  -7.255  1.00  0.00     0.237 C 
BRANCH   2   3
ATOM      3  N   UNL     1       3.415  -0.310  -6.785  1.00  0.00    -0.350 N 
ATOM      4  H   UNL     1       4.089   0.306  -6.276  1.00  0.00     0.345 HD
ATOM      5  H   UNL     1       3.095  -1.072  -6.142  1.00  0.00     0.345 HD
ATOM      6  H   UNL     1       3.913  -0.735  -7.602  1.00  0.00     0.345 HD
ENDBRANCH   2   3
BRANCH   2   7
ATOM      7  C   UNL     1       1.866   0.045  -8.638  1.00  0.00     0.100 C 
ATOM      8  O   UNL     1       0.821  -0.638  -8.810  1.00  0.00    -0.544 OA
ATOM      9  O   UNL     1       2.635   0.409  -9.737  1.00  0.00    -0.544 OA
ENDBRANCH   2   7
ENDBRANCH   1   2
BRANCH   1  10
ATOM     10  C   UNL     1       1.110   1.489  -5.260  1.00  0.00     0.223 C 
ATOM     11  O   UNL     1       0.046   2.114  -5.004  1.00  0.00    -0.275 OA
ATOM     12  N   UNL     1       2.310   1.818  -4.561  1.00  0.00    -0.369 N 
ATOM     13  H   UNL     1       3.196   1.299  -4.746  1.00  0.00     0.159 HD
ATOM     14  H   UNL     1       2.311   2.584  -3.850  1.00  0.00     0.159 HD
ENDBRANCH   1  10
TORSDOF 4
ENDMDL
MODEL 4
REMARK VINA RESULT:     2.773      3.842      4.825
REMARK INTER + INTRA:           3.925
REMARK INTER:                   4.140
REMARK INTRA:                  -0.215
REMARK UNBOUND:                 0.584
REMARK SMILES NC(=O)C[C@@H]([NH3+])C(=O)[O-]
REMARK SMILES IDX 4 1 5 2 6 3 7 7 8 8 9 9 2 10 3 11 1 12
REMARK H PARENT 6 4 6 5 6 6 1 13 1 14
REMARK Flexibility Score: inf
ROOT
ATOM      1  C   UNL     1      -0.103   2.257  -4.434  1.00  0.00     0.171 C 
ENDROOT
BRANCH   1   2
ATOM      2  C   UNL     1      -1.065   3.082  -5.312  1.00  0.00     0.237 C 
BRANCH   2   3
ATOM      3  N   UNL     1      -1.910   2.196  -6.121  1.00  0.00    -0.350 N 
ATOM      4  H   UNL     1      -2.677   1.801  -5.531  1.00  0.00     0.345 HD
ATOM      5  H   UNL     1      -2.332   2.719  -6.925  1.00  0.00     0.345 HD
ATOM      6  H   UNL     1      -1.339   1.400  -6.490  1.00  0.00     0.345 HD
ENDBRANCH   2   3
BRANCH   2   7
ATOM      7  C   UNL     1      -1.922   3.993  -4.469  1.00  0.00     0.100 C 
ATOM      8  O   UNL     1      -2.851   4.662  -4.994  1.00  0.00    -0.544 OA
ATOM      9  O   UNL     1      -1.701   4.083  -3.101  1.00  0.00    -0.544 OA
ENDBRANCH   2   7
ENDBRANCH   1   2
BRANCH   1  10
ATOM     10  C   UNL     1       0.943   1.563  -5.260  1.00  0.00     0.223 C 
ATOM     11  O   UNL     1       0.618   1.016  -6.348  1.00  0.00    -0.275 OA
ATOM     12  N   UNL     1       2.307   1.554  -4.842  1.00  0.00    -0.369 N 
ATOM     13  H   UNL     1       2.598   2.018  -3.954  1.00  0.00     0.159 HD
ATOM     14  H   UNL     1       3.034   1.083  -5.428  1.00  0.00     0.159 HD
ENDBRANCH   1  10
TORSDOF 4
ENDMDL
MODEL 5
REMARK VINA RESULT:     3.359      5.734      6.500
REMARK INTER + INTRA:           4.631
REMARK INTER:                   4.736
REMARK INTRA:                  -0.105
REMARK UNBOUND:                 0.584
REMARK SMILES NC(=O)C[C@@H]([NH3+])C(=O)[O-]
REMARK SMILES IDX 4 1 5 2 6 3 7 7 8 8 9 9 2 10 3 11 1 12
REMARK H PARENT 6 4 6 5 6 6 1 13 1 14
REMARK Flexibility Score: inf
ROOT
ATOM      1  C   UNL     1      -2.285   3.305  -4.260  1.00  0.00     0.171 C 
ENDROOT
BRANCH   1   2
ATOM      2  C   UNL     1      -2.323   4.827  -4.505  1.00  0.00     0.237 C 
BRANCH   2   3
ATOM      3  N   UNL     1      -3.630   5.228  -5.040  1.00  0.00    -0.350 N 
ATOM      4  H   UNL     1      -3.916   4.574  -5.803  1.00  0.00     0.345 HD
ATOM      5  H   UNL     1      -4.358   5.215  -4.287  1.00  0.00     0.345 HD
ATOM      6  H   UNL     1      -3.568   6.192  -5.443  1.00  0.00     0.345 HD
ENDBRANCH   2   3
BRANCH   2   7
ATOM      7  C   UNL     1      -2.022   5.588  -3.239  1.00  0.00     0.100 C 
ATOM      8  O   UNL     1      -1.672   4.978  -2.194  1.00  0.00    -0.544 OA
ATOM      9  O   UNL     1      -2.110   6.975  -3.226  1.00  0.00    -0.544 OA
ENDBRANCH   2   7
ENDBRANCH   1   2
BRANCH   1  10
ATOM     10  C   UNL     1      -1.328   2.617  -5.192  1.00  0.00     0.223 C 
ATOM     11  O   UNL     1      -0.119   2.489  -4.863  1.00  0.00    -0.275 OA
ATOM     12  N   UNL     1      -1.787   2.072  -6.428  1.00  0.00    -0.369 N 
ATOM     13  H   UNL     1      -2.790   2.151  -6.708  1.00  0.00     0.159 HD
ATOM     14  H   UNL     1      -1.122   1.581  -7.067  1.00  0.00     0.159 HD
ENDBRANCH   1  10
TORSDOF 4
ENDMDL
MODEL 6
REMARK VINA RESULT:     3.385      6.064      6.913
REMARK INTER + INTRA:           4.662
REMARK INTER:                   4.905
REMARK INTRA:                  -0.243
REMARK UNBOUND:                 0.584
REMARK SMILES NC(=O)C[C@@H]([NH3+])C(=O)[O-]
REMARK SMILES IDX 4 1 5 2 6 3 7 7 8 8 9 9 2 10 3 11 1 12
REMARK H PARENT 6 4 6 5 6 6 1 13 1 14
REMARK Flexibility Score: inf
ROOT
ATOM      1  C   UNL     1      -2.280   4.339  -5.182  1.00  0.00     0.171 C 
ENDROOT
BRANCH   1   2
ATOM      2  C   UNL     1      -2.657   5.073  -3.879  1.00  0.00     0.237 C 
BRANCH   2   3
ATOM      3  N   UNL     1      -2.006   4.440  -2.726  1.00  0.00    -0.350 N 
ATOM      4  H   UNL     1      -1.819   3.433  -2.933  1.00  0.00     0.345 HD
ATOM      5  H   UNL     1      -1.100   4.918  -2.506  1.00  0.00     0.345 HD
ATOM      6  H   UNL     1      -2.634   4.491  -1.891  1.00  0.00     0.345 HD
ENDBRANCH   2   3
BRANCH   2   7
ATOM      7  C   UNL     1      -2.288   6.532  -3.952  1.00  0.00     0.100 C 
ATOM      8  O   UNL     1      -1.949   7.158  -2.913  1.00  0.00    -0.544 OA
ATOM      9  O   UNL     1      -2.301   7.191  -5.175  1.00  0.00    -0.544 OA
ENDBRANCH   2   7
ENDBRANCH   1   2
BRANCH   1  10
ATOM     10  C   UNL     1      -1.885   2.913  -4.920  1.00  0.00     0.223 C 
ATOM     11  O   UNL     1      -2.640   2.171  -4.237  1.00  0.00    -0.275 OA
ATOM     12  N   UNL     1      -0.682   2.381  -5.473  1.00  0.00    -0.369 N 
ATOM     13  H   UNL     1      -0.054   2.975  -6.058  1.00  0.00     0.159 HD
ATOM     14  H   UNL     1      -0.419   1.385  -5.302  1.00  0.00     0.159 HD
ENDBRANCH   1  10
TORSDOF 4
ENDMDL
MODEL 7
REMARK VINA RESULT:     3.571      4.592      5.690
REMARK INTER + INTRA:           4.886
REMARK INTER:                   4.836
REMARK INTRA:                   0.050
REMARK UNBOUND:                 0.584
REMARK SMILES NC(=O)C[C@@H]([NH3+])C(=O)[O-]
REMARK SMILES IDX 4 1 5 2 6 3 7 7 8 8 9 9 2 10 3 11 1 12
REMARK H PARENT 6 4 6 5 6 6 1 13 1 14
REMARK Flexibility Score: inf
ROOT
ATOM      1  C   UNL     1      -0.863   3.618  -4.387  1.00  0.00     0.171 C 
ENDROOT
BRANCH   1   2
ATOM      2  C   UNL     1      -0.928   2.216  -5.026  1.00  0.00     0.237 C 
BRANCH   2   3
ATOM      3  N   UNL     1      -1.758   2.242  -6.237  1.00  0.00    -0.350 N 
ATOM      4  H   UNL     1      -2.769   2.251  -5.973  1.00  0.00     0.345 HD
ATOM      5  H   UNL     1      -1.547   3.092  -6.812  1.00  0.00     0.345 HD
ATOM      6  H   UNL     1      -1.577   1.385  -6.810  1.00  0.00     0.345 HD
ENDBRANCH   2   3
BRANCH   2   7
ATOM      7  C   UNL     1       0.451   1.702  -5.350  1.00  0.00     0.100 C 
ATOM      8  O   UNL     1       1.436   2.018  -4.631  1.00  0.00    -0.544 OA
ATOM      9  O   UNL     1       0.639   0.857  -6.437  1.00  0.00    -0.544 OA
ENDBRANCH   2   7
ENDBRANCH   1   2
BRANCH   1  10
ATOM     10  C   UNL     1      -2.233   4.146  -4.069  1.00  0.00     0.223 C 
ATOM     11  O   UNL     1      -2.757   3.892  -2.952  1.00  0.00    -0.275 OA
ATOM     12  N   UNL     1      -2.928   4.968  -5.006  1.00  0.00    -0.369 N 
ATOM     13  H   UNL     1      -2.501   5.205  -5.929  1.00  0.00     0.159 HD
ATOM     14  H   UNL     1      -3.874   5.346  -4.775  1.00  0.00     0.159 HD
ENDBRANCH   1  10
TORSDOF 4
ENDMDL
MODEL 8
REMARK VINA RESULT:     3.730     12.998     13.817
REMARK INTER + INTRA:           5.077
REMARK INTER:                   5.237
REMARK INTRA:                  -0.159
REMARK UNBOUND:                 0.584
REMARK SMILES NC(=O)C[C@@H]([NH3+])C(=O)[O-]
REMARK SMILES IDX 4 1 5 2 6 3 7 7 8 8 9 9 2 10 3 11 1 12
REMARK H PARENT 6 4 6 5 6 6 1 13 1 14
REMARK Flexibility Score: inf
ROOT
ATOM      1  C   UNL     1      -6.429   3.323 -17.506  1.00  0.00     0.171 C 
ENDROOT
BRANCH   1   2
ATOM      2  C   UNL     1      -5.454   4.393 -16.976  1.00  0.00     0.237 C 
BRANCH   2   3
ATOM      3  N   UNL     1      -5.244   4.228 -15.533  1.00  0.00    -0.350 N 
ATOM      4  H   UNL     1      -5.720   3.358 -15.203  1.00  0.00     0.345 HD
ATOM      5  H   UNL     1      -4.222   4.162 -15.313  1.00  0.00     0.345 HD
ATOM      6  H   UNL     1      -5.655   5.041 -15.019  1.00  0.00     0.345 HD
ENDBRANCH   2   3
BRANCH   2   7
ATOM      7  C   UNL     1      -4.136   4.335 -17.705  1.00  0.00     0.100 C 
ATOM      8  O   UNL     1      -3.478   5.387 -17.923  1.00  0.00    -0.544 OA
ATOM      9  O   UNL     1      -3.629   3.111 -18.125  1.00  0.00    -0.544 OA
ENDBRANCH   2   7
ENDBRANCH   1   2
BRANCH   1  10
ATOM     10  C   UNL     1      -7.812   3.509 -16.949  1.00  0.00     0.223 C 
ATOM     11  O   UNL     1      -8.327   4.659 -16.927  1.00  0.00    -0.275 OA
ATOM     12  N   UNL     1      -8.563   2.389 -16.483  1.00  0.00    -0.369 N 
ATOM     13  H   UNL     1      -8.161   1.426 -16.512  1.00  0.00     0.159 HD
ATOM     14  H   UNL     1      -9.530   2.521 -16.111  1.00  0.00     0.159 HD
ENDBRANCH   1  10
TORSDOF 4
ENDMDL
MODEL 9
REMARK VINA RESULT:     3.829      6.347      7.527
REMARK INTER + INTRA:           5.196
REMARK INTER:                   5.357
REMARK INTRA:                  -0.160
REMARK UNBOUND:                 0.584
REMARK SMILES NC(=O)C[C@@H]([NH3+])C(=O)[O-]
REMARK SMILES IDX 4 1 5 2 6 3 7 7 8 8 9 9 2 10 3 11 1 12
REMARK H PARENT 6 4 6 5 6 6 1 13 1 14
REMARK Flexibility Score: inf
ROOT
ATOM      1  C   UNL     1      -2.706   5.393  -4.485  1.00  0.00     0.171 C 
ENDROOT
BRANCH   1   2
ATOM      2  C   UNL     1      -2.008   4.212  -3.780  1.00  0.00     0.237 C 
BRANCH   2   3
ATOM      3  N   UNL     1      -2.902   3.605  -2.787  1.00  0.00    -0.350 N 
ATOM      4  H   UNL     1      -2.349   3.281  -1.962  1.00  0.00     0.345 HD
ATOM      5  H   UNL     1      -3.622   4.295  -2.467  1.00  0.00     0.345 HD
ATOM      6  H   UNL     1      -3.384   2.774  -3.204  1.00  0.00     0.345 HD
ENDBRANCH   2   3
BRANCH   2   7
ATOM      7  C   UNL     1      -1.554   3.176  -4.777  1.00  0.00     0.100 C 
ATOM      8  O   UNL     1      -2.326   2.793  -5.696  1.00  0.00    -0.544 OA
ATOM      9  O   UNL     1      -0.270   2.652  -4.697  1.00  0.00    -0.544 OA
ENDBRANCH   2   7
ENDBRANCH   1   2
BRANCH   1  10
ATOM     10  C   UNL     1      -2.214   6.715  -3.968  1.00  0.00     0.223 C 
ATOM     11  O   UNL     1      -1.905   6.836  -2.753  1.00  0.00    -0.275 OA
ATOM     12  N   UNL     1      -2.054   7.824  -4.852  1.00  0.00    -0.369 N 
ATOM     13  H   UNL     1      -2.285   7.737  -5.866  1.00  0.00     0.159 HD
ATOM     14  H   UNL     1      -1.696   8.737  -4.492  1.00  0.00     0.159 HD
ENDBRANCH   1  10
TORSDOF 4
ENDMDL
