MODEL 1
REMARK VINA RESULT:    -4.438      0.000      0.000
REMARK INTER + INTRA:          -7.686
REMARK INTER:                  -6.773
REMARK INTRA:                  -0.914
REMARK UNBOUND:                -0.914
REMARK SMILES CCCCCCCCCCC(=O)[O-]
REMARK SMILES IDX 7 1 8 2 9 3 10 4 11 5 12 6 13 7 6 8 5 9 4 10 3 11 2 12 1 13
REMARK H PARENT
REMARK Flexibility Score: inf
ROOT
ATOM      1  C   UNL     1      48.726  34.091  15.984  1.00  0.00     0.000 C 
ENDROOT
BRANCH   1   2
ATOM      2  C   UNL     1      47.967  33.927  14.655  1.00  0.00     0.000 C 
BRANCH   2   3
ATOM      3  C   UNL     1      48.819  34.320  13.437  1.00  0.00     0.006 C 
BRANCH   3   4
ATOM      4  C   UNL     1      49.112  33.130  12.514  1.00  0.00     0.053 C 
BRANCH   4   5
ATOM      5  C   UNL     1      48.762  33.468  11.100  1.00  0.00     0.041 C 
ATOM      6  O   UNL     1      49.669  33.744  10.271  1.00  0.00    -0.550 OA
ATOM      7  O   UNL     1      47.431  33.529  10.708  1.00  0.00    -0.550 OA
ENDBRANCH   4   5
ENDBRANCH   3   4
ENDBRANCH   2   3
ENDBRANCH   1   2
BRANCH   1   8
ATOM      8  C   UNL     1      47.860  33.752  17.208  1.00  0.00     0.000 C 
BRANCH   8   9
ATOM      9  C   UNL     1      48.125  32.333  17.742  1.00  0.00    -0.000 C 
BRANCH   9  10
ATOM     10  C   UNL     1      49.516  31.797  17.355  1.00  0.00    -0.000 C 
BRANCH  10  11
ATOM     11  C   UNL     1      49.518  30.418  16.669  1.00  0.00    -0.000 C 
BRANCH  11  12
ATOM     12  C   UNL     1      48.912  30.450  15.258  1.00  0.00    -0.003 C 
ATOM     13  C   UNL     1      47.576  29.715  15.216  1.00  0.00     0.004 C 
ENDBRANCH  11  12
ENDBRANCH  10  11
ENDBRANCH   9  10
ENDBRANCH   8   9
ENDBRANCH   1   8
TORSDOF 9
ENDMDL
MODEL 2
REMARK VINA RESULT:    -4.294      2.642      4.954
REMARK INTER + INTRA:          -7.467
REMARK INTER:                  -6.803
REMARK INTRA:                  -0.664
REMARK UNBOUND:                -0.914
REMARK SMILES CCCCCCCCCCC(=O)[O-]
REMARK SMILES IDX 7 1 8 2 9 3 10 4 11 5 12 6 13 7 6 8 5 9 4 10 3 11 2 12 1 13
REMARK H PARENT
REMARK Flexibility Score: inf
ROOT
ATOM      1  C   UNL     1      47.600  33.902  16.667  1.00  0.00     0.000 C 
ENDROOT
BRANCH   1   2
ATOM      2  C   UNL     1      49.069  33.608  17.019  1.00  0.00     0.000 C 
BRANCH   2   3
ATOM      3  C   UNL     1      49.250  32.238  17.693  1.00  0.00     0.006 C 
BRANCH   3   4
ATOM      4  C   UNL     1      48.035  31.322  17.503  1.00  0.00     0.053 C 
BRANCH   4   5
ATOM      5  C   UNL     1      48.186  30.503  16.261  1.00  0.00     0.041 C 
ATOM      6  O   UNL     1      49.317  30.364  15.727  1.00  0.00    -0.550 OA
ATOM      7  O   UNL     1      47.068  29.936  15.662  1.00  0.00    -0.550 OA
ENDBRANCH   4   5
ENDBRANCH   3   4
ENDBRANCH   2   3
ENDBRANCH   1   2
BRANCH   1   8
ATOM      8  C   UNL     1      47.369  34.043  15.154  1.00  0.00     0.000 C 
BRANCH   8   9
ATOM      9  C   UNL     1      48.666  33.874  14.342  1.00  0.00    -0.000 C 
BRANCH   9  10
ATOM     10  C   UNL     1      48.586  32.729  13.316  1.00  0.00    -0.000 C 
BRANCH  10  11
ATOM     11  C   UNL     1      48.592  33.171  11.841  1.00  0.00    -0.000 C 
BRANCH  11  12
ATOM     12  C   UNL     1      49.965  33.677  11.373  1.00  0.00    -0.003 C 
ATOM     13  C   UNL     1      50.180  33.389   9.890  1.00  0.00     0.004 C 
ENDBRANCH  11  12
ENDBRANCH  10  11
ENDBRANCH   9  10
ENDBRANCH   8   9
ENDBRANCH   1   8
TORSDOF 9
ENDMDL
MODEL 3
REMARK VINA RESULT:    -4.249     11.806     13.926
REMARK INTER + INTRA:          -7.398
REMARK INTER:                  -6.311
REMARK INTRA:                  -1.087
REMARK UNBOUND:                -0.914
REMARK SMILES CCCCCCCCCCC(=O)[O-]
REMARK SMILES IDX 7 1 8 2 9 3 10 4 11 5 12 6 13 7 6 8 5 9 4 10 3 11 2 12 1 13
REMARK H PARENT
REMARK Flexibility Score: inf
ROOT
ATOM      1  C   UNL     1      38.545  36.710  23.190  1.00  0.00     0.000 C 
ENDROOT
BRANCH   1   2
ATOM      2  C   UNL     1      39.758  36.159  23.960  1.00  0.00     0.000 C 
BRANCH   2   3
ATOM      3  C   UNL     1      40.960  37.116  23.929  1.00  0.00     0.006 C 
BRANCH   3   4
ATOM      4  C   UNL     1      41.537  37.292  22.519  1.00  0.00     0.053 C 
BRANCH   4   5
ATOM      5  C   UNL     1      42.663  38.276  22.534  1.00  0.00     0.041 C 
ATOM      6  O   UNL     1      43.833  37.897  22.804  1.00  0.00    -0.550 OA
ATOM      7  O   UNL     1      42.413  39.622  22.300  1.00  0.00    -0.550 OA
ENDBRANCH   4   5
ENDBRANCH   3   4
ENDBRANCH   2   3
ENDBRANCH   1   2
BRANCH   1   8
ATOM      8  C   UNL     1      37.678  37.650  24.042  1.00  0.00     0.000 C 
BRANCH   8   9
ATOM      9  C   UNL     1      37.401  38.992  23.342  1.00  0.00    -0.000 C 
BRANCH   9  10
ATOM     10  C   UNL     1      38.578  39.980  23.453  1.00  0.00    -0.000 C 
BRANCH  10  11
ATOM     11  C   UNL     1      39.103  40.525  22.111  1.00  0.00    -0.000 C 
BRANCH  11  12
ATOM     12  C   UNL     1      39.008  39.501  20.971  1.00  0.00    -0.003 C 
ATOM     13  C   UNL     1      38.167  40.040  19.817  1.00  0.00     0.004 C 
ENDBRANCH  11  12
ENDBRANCH  10  11
ENDBRANCH   9  10
ENDBRANCH   8   9
ENDBRANCH   1   8
TORSDOF 9
ENDMDL
MODEL 4
REMARK VINA RESULT:    -4.241      7.143      8.628
REMARK INTER + INTRA:          -7.386
REMARK INTER:                  -6.740
REMARK INTRA:                  -0.646
REMARK UNBOUND:                -0.914
REMARK SMILES CCCCCCCCCCC(=O)[O-]
REMARK SMILES IDX 7 1 8 2 9 3 10 4 11 5 12 6 13 7 6 8 5 9 4 10 3 11 2 12 1 13
REMARK H PARENT
REMARK Flexibility Score: inf
ROOT
ATOM      1  C   UNL     1      48.654  26.057  19.460  1.00  0.00     0.000 C 
ENDROOT
BRANCH   1   2
ATOM      2  C   UNL     1      49.475  24.933  18.803  1.00  0.00     0.000 C 
BRANCH   2   3
ATOM      3  C   UNL     1      49.573  25.089  17.277  1.00  0.00     0.006 C 
BRANCH   3   4
ATOM      4  C   UNL     1      48.272  25.606  16.651  1.00  0.00     0.053 C 
BRANCH   4   5
ATOM      5  C   UNL     1      48.493  25.985  15.222  1.00  0.00     0.041 C 
ATOM      6  O   UNL     1      48.791  27.171  14.919  1.00  0.00    -0.550 OA
ATOM      7  O   UNL     1      48.320  25.042  14.217  1.00  0.00    -0.550 OA
ENDBRANCH   4   5
ENDBRANCH   3   4
ENDBRANCH   2   3
ENDBRANCH   1   2
BRANCH   1   8
ATOM      8  C   UNL     1      48.157  25.685  20.866  1.00  0.00     0.000 C 
BRANCH   8   9
ATOM      9  C   UNL     1      48.209  26.874  21.842  1.00  0.00    -0.000 C 
BRANCH   9  10
ATOM     10  C   UNL     1      49.527  26.939  22.638  1.00  0.00    -0.000 C 
BRANCH  10  11
ATOM     11  C   UNL     1      50.330  25.626  22.681  1.00  0.00    -0.000 C 
BRANCH  11  12
ATOM     12  C   UNL     1      51.820  25.825  22.362  1.00  0.00    -0.003 C 
ATOM     13  C   UNL     1      52.152  27.304  22.187  1.00  0.00     0.004 C 
ENDBRANCH  11  12
ENDBRANCH  10  11
ENDBRANCH   9  10
ENDBRANCH   8   9
ENDBRANCH   1   8
TORSDOF 9
ENDMDL
MODEL 5
REMARK VINA RESULT:    -4.239     12.168     14.038
REMARK INTER + INTRA:          -7.383
REMARK INTER:                  -6.136
REMARK INTRA:                  -1.247
REMARK UNBOUND:                -0.914
REMARK SMILES CCCCCCCCCCC(=O)[O-]
REMARK SMILES IDX 7 1 8 2 9 3 10 4 11 5 12 6 13 7 6 8 5 9 4 10 3 11 2 12 1 13
REMARK H PARENT
REMARK Flexibility Score: inf
ROOT
ATOM      1  C   UNL     1      38.446  38.111  24.079  1.00  0.00     0.000 C 
ENDROOT
BRANCH   1   2
ATOM      2  C   UNL     1      38.902  36.711  23.628  1.00  0.00     0.000 C 
BRANCH   2   3
ATOM      3  C   UNL     1      40.352  36.404  24.037  1.00  0.00     0.006 C 
BRANCH   3   4
ATOM      4  C   UNL     1      41.370  36.851  22.980  1.00  0.00     0.053 C 
BRANCH   4   5
ATOM      5  C   UNL     1      42.498  37.593  23.622  1.00  0.00     0.041 C 
ATOM      6  O   UNL     1      42.429  37.927  24.834  1.00  0.00    -0.550 OA
ATOM      7  O   UNL     1      43.606  37.962  22.869  1.00  0.00    -0.550 OA
ENDBRANCH   4   5
ENDBRANCH   3   4
ENDBRANCH   2   3
ENDBRANCH   1   2
BRANCH   1   8
ATOM      8  C   UNL     1      37.782  38.911  22.948  1.00  0.00     0.000 C 
BRANCH   8   9
ATOM      9  C   UNL     1      38.650  38.967  21.678  1.00  0.00    -0.000 C 
BRANCH   9  10
ATOM     10  C   UNL     1      39.440  40.283  21.549  1.00  0.00    -0.000 C 
BRANCH  10  11
ATOM     11  C   UNL     1      40.972  40.124  21.505  1.00  0.00    -0.000 C 
BRANCH  11  12
ATOM     12  C   UNL     1      41.693  40.972  22.563  1.00  0.00    -0.003 C 
ATOM     13  C   UNL     1      40.910  41.001  23.872  1.00  0.00     0.004 C 
ENDBRANCH  11  12
ENDBRANCH  10  11
ENDBRANCH   9  10
ENDBRANCH   8   9
ENDBRANCH   1   8
TORSDOF 9
ENDMDL
MODEL 6
REMARK VINA RESULT:    -4.165     12.017     14.280
REMARK INTER + INTRA:          -7.270
REMARK INTER:                  -5.936
REMARK INTRA:                  -1.334
REMARK UNBOUND:                -0.914
REMARK SMILES CCCCCCCCCCC(=O)[O-]
REMARK SMILES IDX 7 1 8 2 9 3 10 4 11 5 12 6 13 7 6 8 5 9 4 10 3 11 2 12 1 13
REMARK H PARENT
REMARK Flexibility Score: inf
ROOT
ATOM      1  C   UNL     1      38.711  36.866  23.067  1.00  0.00     0.000 C 
ENDROOT
BRANCH   1   2
ATOM      2  C   UNL     1      39.783  36.285  24.006  1.00  0.00     0.000 C 
BRANCH   2   3
ATOM      3  C   UNL     1      41.096  37.084  23.967  1.00  0.00     0.006 C 
BRANCH   3   4
ATOM      4  C   UNL     1      41.557  37.393  22.537  1.00  0.00     0.053 C 
BRANCH   4   5
ATOM      5  C   UNL     1      42.664  38.397  22.550  1.00  0.00     0.041 C 
ATOM      6  O   UNL     1      42.425  39.608  22.302  1.00  0.00    -0.550 OA
ATOM      7  O   UNL     1      43.971  37.989  22.786  1.00  0.00    -0.550 OA
ENDBRANCH   4   5
ENDBRANCH   3   4
ENDBRANCH   2   3
ENDBRANCH   1   2
BRANCH   1   8
ATOM      8  C   UNL     1      37.466  37.359  23.822  1.00  0.00     0.000 C 
BRANCH   8   9
ATOM      9  C   UNL     1      37.436  38.890  23.973  1.00  0.00    -0.000 C 
BRANCH   9  10
ATOM     10  C   UNL     1      38.372  39.609  22.984  1.00  0.00    -0.000 C 
BRANCH  10  11
ATOM     11  C   UNL     1      39.391  40.568  23.627  1.00  0.00    -0.000 C 
BRANCH  11  12
ATOM     12  C   UNL     1      39.640  40.269  25.113  1.00  0.00    -0.003 C 
ATOM     13  C   UNL     1      41.084  40.572  25.500  1.00  0.00     0.004 C 
ENDBRANCH  11  12
ENDBRANCH  10  11
ENDBRANCH   9  10
ENDBRANCH   8   9
ENDBRANCH   1   8
TORSDOF 9
ENDMDL
MODEL 7
REMARK VINA RESULT:    -4.162     12.756     14.596
REMARK INTER + INTRA:          -7.265
REMARK INTER:                  -5.914
REMARK INTRA:                  -1.350
REMARK UNBOUND:                -0.914
REMARK SMILES CCCCCCCCCCC(=O)[O-]
REMARK SMILES IDX 7 1 8 2 9 3 10 4 11 5 12 6 13 7 6 8 5 9 4 10 3 11 2 12 1 13
REMARK H PARENT
REMARK Flexibility Score: inf
ROOT
ATOM      1  C   UNL     1      38.536  36.818  23.096  1.00  0.00     0.000 C 
ENDROOT
BRANCH   1   2
ATOM      2  C   UNL     1      37.576  37.729  23.883  1.00  0.00     0.000 C 
BRANCH   2   3
ATOM      3  C   UNL     1      38.026  39.198  23.885  1.00  0.00     0.006 C 
BRANCH   3   4
ATOM      4  C   UNL     1      38.674  39.615  25.211  1.00  0.00     0.053 C 
BRANCH   4   5
ATOM      5  C   UNL     1      39.942  40.368  24.959  1.00  0.00     0.041 C 
ATOM      6  O   UNL     1      41.046  39.892  25.332  1.00  0.00    -0.550 OA
ATOM      7  O   UNL     1      39.900  41.620  24.359  1.00  0.00    -0.550 OA
ENDBRANCH   4   5
ENDBRANCH   3   4
ENDBRANCH   2   3
ENDBRANCH   1   2
BRANCH   1   8
ATOM      8  C   UNL     1      39.593  36.155  23.993  1.00  0.00     0.000 C 
BRANCH   8   9
ATOM      9  C   UNL     1      40.995  36.758  23.796  1.00  0.00    -0.000 C 
BRANCH   9  10
ATOM     10  C   UNL     1      41.164  37.451  22.431  1.00  0.00    -0.000 C 
BRANCH  10  11
ATOM     11  C   UNL     1      42.281  38.509  22.368  1.00  0.00    -0.000 C 
BRANCH  11  12
ATOM     12  C   UNL     1      41.794  39.865  21.836  1.00  0.00    -0.003 C 
ATOM     13  C   UNL     1      40.453  39.725  21.121  1.00  0.00     0.004 C 
ENDBRANCH  11  12
ENDBRANCH  10  11
ENDBRANCH   9  10
ENDBRANCH   8   9
ENDBRANCH   1   8
TORSDOF 9
ENDMDL
MODEL 8
REMARK VINA RESULT:    -4.140     12.187     14.130
REMARK INTER + INTRA:          -7.232
REMARK INTER:                  -6.163
REMARK INTRA:                  -1.069
REMARK UNBOUND:                -0.914
REMARK SMILES CCCCCCCCCCC(=O)[O-]
REMARK SMILES IDX 7 1 8 2 9 3 10 4 11 5 12 6 13 7 6 8 5 9 4 10 3 11 2 12 1 13
REMARK H PARENT
REMARK Flexibility Score: inf
ROOT
ATOM      1  C   UNL     1      37.622  39.252  23.026  1.00  0.00     0.000 C 
ENDROOT
BRANCH   1   2
ATOM      2  C   UNL     1      38.527  39.240  21.781  1.00  0.00     0.000 C 
BRANCH   2   3
ATOM      3  C   UNL     1      39.852  39.986  22.009  1.00  0.00     0.006 C 
BRANCH   3   4
ATOM      4  C   UNL     1      39.929  40.642  23.393  1.00  0.00     0.053 C 
BRANCH   4   5
ATOM      5  C   UNL     1      41.185  41.444  23.522  1.00  0.00     0.041 C 
ATOM      6  O   UNL     1      41.338  42.230  24.494  1.00  0.00    -0.550 OA
ATOM      7  O   UNL     1      42.165  41.363  22.541  1.00  0.00    -0.550 OA
ENDBRANCH   4   5
ENDBRANCH   3   4
ENDBRANCH   2   3
ENDBRANCH   1   2
BRANCH   1   8
ATOM      8  C   UNL     1      37.818  38.013  23.915  1.00  0.00     0.000 C 
BRANCH   8   9
ATOM      9  C   UNL     1      38.392  36.815  23.137  1.00  0.00    -0.000 C 
BRANCH   9  10
ATOM     10  C   UNL     1      39.559  36.128  23.871  1.00  0.00    -0.000 C 
BRANCH  10  11
ATOM     11  C   UNL     1      40.846  36.966  23.982  1.00  0.00    -0.000 C 
BRANCH  11  12
ATOM     12  C   UNL     1      41.736  36.866  22.735  1.00  0.00    -0.003 C 
ATOM     13  C   UNL     1      42.863  37.894  22.780  1.00  0.00     0.004 C 
ENDBRANCH  11  12
ENDBRANCH  10  11
ENDBRANCH   9  10
ENDBRANCH   8   9
ENDBRANCH   1   8
TORSDOF 9
ENDMDL
MODEL 9
REMARK VINA RESULT:    -4.127      4.690      6.033
REMARK INTER + INTRA:          -7.212
REMARK INTER:                  -6.744
REMARK INTRA:                  -0.468
REMARK UNBOUND:                -0.914
REMARK SMILES CCCCCCCCCCC(=O)[O-]
REMARK SMILES IDX 7 1 8 2 9 3 10 4 11 5 12 6 13 7 6 8 5 9 4 10 3 11 2 12 1 13
REMARK H PARENT
REMARK Flexibility Score: inf
ROOT
ATOM      1  C   UNL     1      46.086  35.758  12.576  1.00  0.00     0.000 C 
ENDROOT
BRANCH   1   2
ATOM      2  C   UNL     1      44.578  35.741  12.884  1.00  0.00     0.000 C 
BRANCH   2   3
ATOM      3  C   UNL     1      43.808  36.833  12.124  1.00  0.00     0.006 C 
BRANCH   3   4
ATOM      4  C   UNL     1      42.514  36.310  11.488  1.00  0.00     0.053 C 
BRANCH   4   5
ATOM      5  C   UNL     1      41.377  36.418  12.453  1.00  0.00     0.041 C 
ATOM      6  O   UNL     1      41.408  37.273  13.377  1.00  0.00    -0.550 OA
ATOM      7  O   UNL     1      40.304  35.540  12.365  1.00  0.00    -0.550 OA
ENDBRANCH   4   5
ENDBRANCH   3   4
ENDBRANCH   2   3
ENDBRANCH   1   2
BRANCH   1   8
ATOM      8  C   UNL     1      46.640  34.362  12.249  1.00  0.00     0.000 C 
BRANCH   8   9
ATOM      9  C   UNL     1      48.178  34.338  12.188  1.00  0.00    -0.000 C 
BRANCH   9  10
ATOM     10  C   UNL     1      48.835  34.460  13.576  1.00  0.00    -0.000 C 
BRANCH  10  11
ATOM     11  C   UNL     1      48.469  33.344  14.572  1.00  0.00    -0.000 C 
BRANCH  11  12
ATOM     12  C   UNL     1      47.828  33.878  15.861  1.00  0.00    -0.003 C 
ATOM     13  C   UNL     1      48.845  33.940  16.997  1.00  0.00     0.004 C 
ENDBRANCH  11  12
ENDBRANCH  10  11
ENDBRANCH   9  10
ENDBRANCH   8   9
ENDBRANCH   1   8
TORSDOF 9
ENDMDL
