MODEL 1
REMARK VINA RESULT:    -3.756      0.000      0.000
REMARK INTER + INTRA:          -3.587
REMARK INTER:                  -4.634
REMARK INTRA:                   1.047
REMARK UNBOUND:                 1.047
REMARK SMILES C=C1[C@@H]2CC[C@H]3[C@@H]2C(C)(C)CCC[C@@]13C
REMARK SMILES IDX 14 1 6 2 7 3 3 4 2 5 1 6 4 7 5 8 15 9 8 10 9 11 10 12 11 13
REMARK SMILES IDX 13 15 12 16
REMARK H PARENT
REMARK Flexibility Score: 80.00
ROOT
ATOM      1  C   UNL     1      14.734   5.820  18.365  1.00  0.00    -0.008 C 
ATOM      2  C   UNL     1      14.791   6.371  16.888  1.00  0.00     0.003 C 
ATOM      3  C   UNL     1      13.413   6.019  16.286  1.00  0.00     0.006 C 
ATOM      4  C   UNL     1      13.497   4.549  16.676  1.00  0.00     0.019 C 
ATOM      5  C   UNL     1      13.818   4.638  18.141  1.00  0.00    -0.068 C 
ATOM      6  C   UNL     1      13.434   3.743  19.061  1.00  0.00     0.009 C 
ATOM      7  C   UNL     1      14.803   4.135  15.959  1.00  0.00     0.008 C 
ATOM      8  C   UNL     1      15.661   5.425  16.016  1.00  0.00     0.005 C 
ATOM      9  C   UNL     1      16.102   5.333  18.914  1.00  0.00     0.016 C 
ENDROOT
BRANCH   3  10
ATOM     10  C   UNL     1      12.127   6.838  16.687  1.00  0.00    -0.032 C 
ATOM     11  C   UNL     1      12.172   8.208  15.957  1.00  0.00     0.011 C 
ATOM     12  C   UNL     1      10.875   6.096  16.157  1.00  0.00     0.011 C 
BRANCH  10  13
ATOM     13  C   UNL     1      11.916   7.058  18.210  1.00  0.00     0.007 CG0
ATOM     14  G   UNL     1      13.066   7.782  18.912  1.00  0.00     0.000 G0
ENDBRANCH  10  13
ENDBRANCH   3  10
BRANCH   1  15
ATOM     15  C   UNL     1      14.167   6.842  19.396  1.00  0.00     0.011 C 
BRANCH  15  16
ATOM     16  C   UNL     1      13.070   7.784  18.907  1.00  0.00     0.001 CG0
ATOM     17  G   UNL     1      11.924   7.056  18.202  1.00  0.00     0.000 G0
ENDBRANCH  15  16
ENDBRANCH   1  15
TORSDOF 0
ENDMDL
MODEL 2
REMARK VINA RESULT:    -3.607      1.627      3.771
REMARK INTER + INTRA:          -3.403
REMARK INTER:                  -4.401
REMARK INTRA:                   0.998
REMARK UNBOUND:                 1.047
REMARK SMILES C=C1[C@@H]2CC[C@H]3[C@@H]2C(C)(C)CCC[C@@]13C
REMARK SMILES IDX 14 1 6 2 7 3 3 4 2 5 1 6 4 7 5 8 15 9 8 10 9 11 10 12 11 13
REMARK SMILES IDX 13 15 12 16
REMARK H PARENT
REMARK Flexibility Score: 80.00
ROOT
ATOM      1  C   UNL     1      12.750   6.711  18.994  1.00  0.00    -0.008 C 
ATOM      2  C   UNL     1      12.337   5.232  18.633  1.00  0.00     0.003 C 
ATOM      3  C   UNL     1      13.106   4.919  17.330  1.00  0.00     0.006 C 
ATOM      4  C   UNL     1      12.613   6.167  16.611  1.00  0.00     0.019 C 
ATOM      5  C   UNL     1      12.959   7.247  17.596  1.00  0.00    -0.068 C 
ATOM      6  C   UNL     1      13.288   8.503  17.266  1.00  0.00     0.009 C 
ATOM      7  C   UNL     1      11.083   5.962  16.694  1.00  0.00     0.008 C 
ATOM      8  C   UNL     1      10.899   5.225  18.046  1.00  0.00     0.005 C 
ATOM      9  C   UNL     1      11.638   7.522  19.712  1.00  0.00     0.016 C 
ENDROOT
BRANCH   3  10
ATOM     10  C   UNL     1      14.655   4.624  17.362  1.00  0.00    -0.032 C 
ATOM     11  C   UNL     1      14.866   3.176  17.882  1.00  0.00     0.011 C 
ATOM     12  C   UNL     1      15.201   4.658  15.913  1.00  0.00     0.011 C 
BRANCH  10  13
ATOM     13  C   UNL     1      15.513   5.614  18.196  1.00  0.00     0.007 CG0
ATOM     14  G   UNL     1      15.094   5.738  19.662  1.00  0.00     0.000 G0
ENDBRANCH  10  13
ENDBRANCH   3  10
BRANCH   1  15
ATOM     15  C   UNL     1      14.029   6.807  19.879  1.00  0.00     0.011 C 
BRANCH  15  16
ATOM     16  C   UNL     1      15.111   5.755  19.653  1.00  0.00     0.001 CG0
ATOM     17  G   UNL     1      15.520   5.622  18.185  1.00  0.00     0.000 G0
ENDBRANCH  15  16
ENDBRANCH   1  15
TORSDOF 0
ENDMDL
MODEL 3
REMARK VINA RESULT:    -3.517      1.321      2.636
REMARK INTER + INTRA:          -3.293
REMARK INTER:                  -4.303
REMARK INTRA:                   1.010
REMARK UNBOUND:                 1.047
REMARK SMILES C=C1[C@@H]2CC[C@H]3[C@@H]2C(C)(C)CCC[C@@]13C
REMARK SMILES IDX 14 1 6 2 7 3 3 4 2 5 1 6 4 7 5 8 15 9 8 10 9 11 10 12 11 13
REMARK SMILES IDX 13 15 12 16
REMARK H PARENT
REMARK Flexibility Score: 80.00
ROOT
ATOM      1  C   UNL     1      13.541   4.647  18.283  1.00  0.00    -0.008 C 
ATOM      2  C   UNL     1      13.634   6.041  19.016  1.00  0.00     0.003 C 
ATOM      3  C   UNL     1      13.577   7.085  17.879  1.00  0.00     0.006 C 
ATOM      4  C   UNL     1      14.703   6.438  17.082  1.00  0.00     0.019 C 
ATOM      5  C   UNL     1      14.234   5.013  16.990  1.00  0.00    -0.068 C 
ATOM      6  C   UNL     1      14.496   4.190  15.966  1.00  0.00     0.009 C 
ATOM      7  C   UNL     1      15.845   6.464  18.124  1.00  0.00     0.008 C 
ATOM      8  C   UNL     1      15.098   6.291  19.471  1.00  0.00     0.005 C 
ATOM      9  C   UNL     1      14.316   3.505  18.993  1.00  0.00     0.016 C 
ENDROOT
BRANCH   3  10
ATOM     10  C   UNL     1      12.218   7.405  17.148  1.00  0.00    -0.032 C 
ATOM     11  C   UNL     1      11.363   8.308  18.079  1.00  0.00     0.011 C 
ATOM     12  C   UNL     1      12.516   8.239  15.877  1.00  0.00     0.011 C 
BRANCH  10  13
ATOM     13  C   UNL     1      11.387   6.172  16.699  1.00  0.00     0.007 CG0
ATOM     14  G   UNL     1      11.017   5.211  17.830  1.00  0.00     0.000 G0
ENDBRANCH  10  13
ENDBRANCH   3  10
BRANCH   1  15
ATOM     15  C   UNL     1      12.082   4.145  18.069  1.00  0.00     0.011 C 
BRANCH  15  16
ATOM     16  C   UNL     1      11.012   5.206  17.821  1.00  0.00     0.001 CG0
ATOM     17  G   UNL     1      11.380   6.176  16.698  1.00  0.00     0.000 G0
ENDBRANCH  15  16
ENDBRANCH   1  15
TORSDOF 0
ENDMDL
MODEL 4
REMARK VINA RESULT:    -3.500      1.690      3.752
REMARK INTER + INTRA:          -3.272
REMARK INTER:                  -4.294
REMARK INTRA:                   1.023
REMARK UNBOUND:                 1.047
REMARK SMILES C=C1[C@@H]2CC[C@H]3[C@@H]2C(C)(C)CCC[C@@]13C
REMARK SMILES IDX 14 1 6 2 7 3 3 4 2 5 1 6 4 7 5 8 15 9 8 10 9 11 10 12 11 13
REMARK SMILES IDX 13 15 12 16
REMARK H PARENT
REMARK Flexibility Score: 80.00
ROOT
ATOM      1  C   UNL     1      13.478   6.677  17.470  1.00  0.00    -0.008 C 
ATOM      2  C   UNL     1      12.377   6.734  18.599  1.00  0.00     0.003 C 
ATOM      3  C   UNL     1      12.385   5.322  19.224  1.00  0.00     0.006 C 
ATOM      4  C   UNL     1      12.232   4.611  17.886  1.00  0.00     0.019 C 
ATOM      5  C   UNL     1      13.345   5.222  17.083  1.00  0.00    -0.068 C 
ATOM      6  C   UNL     1      14.020   4.591  16.114  1.00  0.00     0.009 C 
ATOM      7  C   UNL     1      10.916   5.242  17.374  1.00  0.00     0.008 C 
ATOM      8  C   UNL     1      10.967   6.680  17.951  1.00  0.00     0.005 C 
ATOM      9  C   UNL     1      13.176   7.580  16.244  1.00  0.00     0.016 C 
ENDROOT
BRANCH   3  10
ATOM     10  C   UNL     1      13.549   4.876  20.190  1.00  0.00    -0.032 C 
ATOM     11  C   UNL     1      13.319   5.544  21.573  1.00  0.00     0.011 C 
ATOM     12  C   UNL     1      13.454   3.347  20.417  1.00  0.00     0.011 C 
BRANCH  10  13
ATOM     13  C   UNL     1      14.990   5.175  19.693  1.00  0.00     0.007 CG0
ATOM     14  G   UNL     1      15.271   6.652  19.412  1.00  0.00     0.000 G0
ENDBRANCH  10  13
ENDBRANCH   3  10
BRANCH   1  15
ATOM     15  C   UNL     1      14.908   7.046  17.967  1.00  0.00     0.011 C 
BRANCH  15  16
ATOM     16  C   UNL     1      15.272   6.644  19.394  1.00  0.00     0.001 CG0
ATOM     17  G   UNL     1      14.995   5.170  19.690  1.00  0.00     0.000 G0
ENDBRANCH  15  16
ENDBRANCH   1  15
TORSDOF 0
ENDMDL
MODEL 5
REMARK VINA RESULT:    -3.449      1.365      2.240
REMARK INTER + INTRA:          -3.209
REMARK INTER:                  -4.202
REMARK INTRA:                   0.993
REMARK UNBOUND:                 1.047
REMARK SMILES C=C1[C@@H]2CC[C@H]3[C@@H]2C(C)(C)CCC[C@@]13C
REMARK SMILES IDX 14 1 6 2 7 3 3 4 2 5 1 6 4 7 5 8 15 9 8 10 9 11 10 12 11 13
REMARK SMILES IDX 13 15 12 16
REMARK H PARENT
REMARK Flexibility Score: 80.00
ROOT
ATOM      1  C   UNL     1      15.286   5.917  17.100  1.00  0.00    -0.008 C 
ATOM      2  C   UNL     1      14.041   5.237  16.410  1.00  0.00     0.003 C 
ATOM      3  C   UNL     1      12.838   5.637  17.294  1.00  0.00     0.006 C 
ATOM      4  C   UNL     1      13.491   5.162  18.586  1.00  0.00     0.019 C 
ATOM      5  C   UNL     1      14.817   5.867  18.537  1.00  0.00    -0.068 C 
ATOM      6  C   UNL     1      15.503   6.277  19.612  1.00  0.00     0.009 C 
ATOM      7  C   UNL     1      13.763   3.679  18.243  1.00  0.00     0.008 C 
ATOM      8  C   UNL     1      14.044   3.715  16.719  1.00  0.00     0.005 C 
ATOM      9  C   UNL     1      16.609   5.119  16.947  1.00  0.00     0.016 C 
ENDROOT
BRANCH   3  10
ATOM     10  C   UNL     1      12.247   7.097  17.235  1.00  0.00    -0.032 C 
ATOM     11  C   UNL     1      11.384   7.224  15.950  1.00  0.00     0.011 C 
ATOM     12  C   UNL     1      11.286   7.297  18.434  1.00  0.00     0.011 C 
BRANCH  10  13
ATOM     13  C   UNL     1      13.288   8.248  17.288  1.00  0.00     0.007 CG0
ATOM     14  G   UNL     1      14.351   8.195  16.190  1.00  0.00     0.000 G0
ENDBRANCH  10  13
ENDBRANCH   3  10
BRANCH   1  15
ATOM     15  C   UNL     1      15.567   7.366  16.602  1.00  0.00     0.011 C 
BRANCH  15  16
ATOM     16  C   UNL     1      14.359   8.210  16.205  1.00  0.00     0.001 CG0
ATOM     17  G   UNL     1      13.281   8.260  17.289  1.00  0.00     0.000 G0
ENDBRANCH  15  16
ENDBRANCH   1  15
TORSDOF 0
ENDMDL
MODEL 6
REMARK VINA RESULT:    -3.406      1.652      4.124
REMARK INTER + INTRA:          -3.156
REMARK INTER:                  -4.153
REMARK INTRA:                   0.997
REMARK UNBOUND:                 1.047
REMARK SMILES C=C1[C@@H]2CC[C@H]3[C@@H]2C(C)(C)CCC[C@@]13C
REMARK SMILES IDX 14 1 6 2 7 3 3 4 2 5 1 6 4 7 5 8 15 9 8 10 9 11 10 12 11 13
REMARK SMILES IDX 13 15 12 16
REMARK H PARENT
REMARK Flexibility Score: 80.00
ROOT
ATOM      1  C   UNL     1      13.134   8.469  17.328  1.00  0.00    -0.008 C 
ATOM      2  C   UNL     1      13.500   7.917  18.760  1.00  0.00     0.003 C 
ATOM      3  C   UNL     1      12.731   6.581  18.871  1.00  0.00     0.006 C 
ATOM      4  C   UNL     1      11.392   7.195  18.485  1.00  0.00     0.019 C 
ATOM      5  C   UNL     1      11.737   7.905  17.206  1.00  0.00    -0.068 C 
ATOM      6  C   UNL     1      10.890   8.090  16.185  1.00  0.00     0.009 C 
ATOM      7  C   UNL     1      11.249   8.283  19.574  1.00  0.00     0.008 C 
ATOM      8  C   UNL     1      12.714   8.713  19.838  1.00  0.00     0.005 C 
ATOM      9  C   UNL     1      13.090  10.018  17.238  1.00  0.00     0.016 C 
ENDROOT
BRANCH   3  10
ATOM     10  C   UNL     1      13.229   5.300  18.100  1.00  0.00    -0.032 C 
ATOM     11  C   UNL     1      14.444   4.710  18.866  1.00  0.00     0.011 C 
ATOM     12  C   UNL     1      12.115   4.224  18.142  1.00  0.00     0.011 C 
BRANCH  10  13
ATOM     13  C   UNL     1      13.600   5.513  16.607  1.00  0.00     0.007 CG0
ATOM     14  G   UNL     1      14.657   6.591  16.363  1.00  0.00     0.000 G0
ENDBRANCH  10  13
ENDBRANCH   3  10
BRANCH   1  15
ATOM     15  C   UNL     1      14.090   7.974  16.201  1.00  0.00     0.011 C 
BRANCH  15  16
ATOM     16  C   UNL     1      14.659   6.564  16.343  1.00  0.00     0.001 CG0
ATOM     17  G   UNL     1      13.585   5.511  16.620  1.00  0.00     0.000 G0
ENDBRANCH  15  16
ENDBRANCH   1  15
TORSDOF 0
ENDMDL
MODEL 7
REMARK VINA RESULT:    -3.369      1.316      2.913
REMARK INTER + INTRA:          -3.111
REMARK INTER:                  -4.115
REMARK INTRA:                   1.005
REMARK UNBOUND:                 1.047
REMARK SMILES C=C1[C@@H]2CC[C@H]3[C@@H]2C(C)(C)CCC[C@@]13C
REMARK SMILES IDX 14 1 6 2 7 3 3 4 2 5 1 6 4 7 5 8 15 9 8 10 9 11 10 12 11 13
REMARK SMILES IDX 13 15 12 16
REMARK H PARENT
REMARK Flexibility Score: 80.00
ROOT
ATOM      1  C   UNL     1      13.842   5.367  17.501  1.00  0.00    -0.008 C 
ATOM      2  C   UNL     1      12.961   6.584  17.018  1.00  0.00     0.003 C 
ATOM      3  C   UNL     1      12.201   7.041  18.282  1.00  0.00     0.006 C 
ATOM      4  C   UNL     1      11.672   5.648  18.599  1.00  0.00     0.019 C 
ATOM      5  C   UNL     1      12.932   4.829  18.581  1.00  0.00    -0.068 C 
ATOM      6  C   UNL     1      13.144   3.741  19.332  1.00  0.00     0.009 C 
ATOM      7  C   UNL     1      10.912   5.324  17.293  1.00  0.00     0.008 C 
ATOM      8  C   UNL     1      11.746   6.054  16.209  1.00  0.00     0.005 C 
ATOM      9  C   UNL     1      14.073   4.282  16.415  1.00  0.00     0.016 C 
ENDROOT
BRANCH   3  10
ATOM     10  C   UNL     1      12.939   7.849  19.417  1.00  0.00    -0.032 C 
ATOM     11  C   UNL     1      13.111   9.316  18.939  1.00  0.00     0.011 C 
ATOM     12  C   UNL     1      12.031   7.896  20.671  1.00  0.00     0.011 C 
BRANCH  10  13
ATOM     13  C   UNL     1      14.311   7.276  19.869  1.00  0.00     0.007 CG0
ATOM     14  G   UNL     1      15.339   7.130  18.745  1.00  0.00     0.000 G0
ENDBRANCH  10  13
ENDBRANCH   3  10
BRANCH   1  15
ATOM     15  C   UNL     1      15.245   5.781  18.037  1.00  0.00     0.011 C 
BRANCH  15  16
ATOM     16  C   UNL     1      15.346   7.127  18.750  1.00  0.00     0.001 CG0
ATOM     17  G   UNL     1      14.318   7.289  19.872  1.00  0.00     0.000 G0
ENDBRANCH  15  16
ENDBRANCH   1  15
TORSDOF 0
ENDMDL
MODEL 8
REMARK VINA RESULT:    -3.328      1.433      3.364
REMARK INTER + INTRA:          -3.060
REMARK INTER:                  -4.064
REMARK INTRA:                   1.004
REMARK UNBOUND:                 1.047
REMARK SMILES C=C1[C@@H]2CC[C@H]3[C@@H]2C(C)(C)CCC[C@@]13C
REMARK SMILES IDX 14 1 6 2 7 3 3 4 2 5 1 6 4 7 5 8 15 9 8 10 9 11 10 12 11 13
REMARK SMILES IDX 13 15 12 16
REMARK H PARENT
REMARK Flexibility Score: 80.00
ROOT
ATOM      1  C   UNL     1      14.462   4.061  18.148  1.00  0.00    -0.008 C 
ATOM      2  C   UNL     1      13.142   3.995  19.009  1.00  0.00     0.003 C 
ATOM      3  C   UNL     1      12.945   5.435  19.533  1.00  0.00     0.006 C 
ATOM      4  C   UNL     1      14.355   5.538  20.098  1.00  0.00     0.019 C 
ATOM      5  C   UNL     1      15.191   5.141  18.914  1.00  0.00    -0.068 C 
ATOM      6  C   UNL     1      16.423   5.603  18.662  1.00  0.00     0.009 C 
ATOM      7  C   UNL     1      14.364   4.336  21.071  1.00  0.00     0.008 C 
ATOM      8  C   UNL     1      13.444   3.306  20.368  1.00  0.00     0.005 C 
ATOM      9  C   UNL     1      15.293   2.750  18.161  1.00  0.00     0.016 C 
ENDROOT
BRANCH   3  10
ATOM     10  C   UNL     1      12.426   6.575  18.576  1.00  0.00    -0.032 C 
ATOM     11  C   UNL     1      10.897   6.391  18.380  1.00  0.00     0.011 C 
ATOM     12  C   UNL     1      12.621   7.943  19.274  1.00  0.00     0.011 C 
BRANCH  10  13
ATOM     13  C   UNL     1      13.128   6.665  17.193  1.00  0.00     0.007 CG0
ATOM     14  G   UNL     1      13.054   5.385  16.358  1.00  0.00     0.000 G0
ENDBRANCH  10  13
ENDBRANCH   3  10
BRANCH   1  15
ATOM     15  C   UNL     1      14.220   4.433  16.654  1.00  0.00     0.011 C 
BRANCH  15  16
ATOM     16  C   UNL     1      13.070   5.392  16.355  1.00  0.00     0.001 CG0
ATOM     17  G   UNL     1      13.132   6.677  17.182  1.00  0.00     0.000 G0
ENDBRANCH  15  16
ENDBRANCH   1  15
TORSDOF 0
ENDMDL
MODEL 9
REMARK VINA RESULT:    -3.286      1.703      3.832
REMARK INTER + INTRA:          -3.008
REMARK INTER:                  -4.011
REMARK INTRA:                   1.004
REMARK UNBOUND:                 1.047
REMARK SMILES C=C1[C@@H]2CC[C@H]3[C@@H]2C(C)(C)CCC[C@@]13C
REMARK SMILES IDX 14 1 6 2 7 3 3 4 2 5 1 6 4 7 5 8 15 9 8 10 9 11 10 12 11 13
REMARK SMILES IDX 13 15 12 16
REMARK H PARENT
REMARK Flexibility Score: 80.00
ROOT
ATOM      1  C   UNL     1      12.007   7.304  17.532  1.00  0.00    -0.008 C 
ATOM      2  C   UNL     1      11.315   6.264  18.495  1.00  0.00     0.003 C 
ATOM      3  C   UNL     1      12.394   5.929  19.549  1.00  0.00     0.006 C 
ATOM      4  C   UNL     1      13.456   5.590  18.511  1.00  0.00     0.019 C 
ATOM      5  C   UNL     1      13.433   6.812  17.637  1.00  0.00    -0.068 C 
ATOM      6  C   UNL     1      14.494   7.300  16.981  1.00  0.00     0.009 C 
ATOM      7  C   UNL     1      12.743   4.466  17.726  1.00  0.00     0.008 C 
ATOM      8  C   UNL     1      11.250   4.877  17.800  1.00  0.00     0.005 C 
ATOM      9  C   UNL     1      11.525   7.221  16.059  1.00  0.00     0.016 C 
ENDROOT
BRANCH   3  10
ATOM     10  C   UNL     1      12.749   6.957  20.691  1.00  0.00    -0.032 C 
ATOM     11  C   UNL     1      11.625   6.907  21.761  1.00  0.00     0.011 C 
ATOM     12  C   UNL     1      14.050   6.496  21.393  1.00  0.00     0.011 C 
BRANCH  10  13
ATOM     13  C   UNL     1      12.975   8.424  20.231  1.00  0.00     0.007 CG0
ATOM     14  G   UNL     1      11.799   9.039  19.471  1.00  0.00     0.000 G0
ENDBRANCH  10  13
ENDBRANCH   3  10
BRANCH   1  15
ATOM     15  C   UNL     1      11.841   8.786  17.984  1.00  0.00     0.011 C 
BRANCH  15  16
ATOM     16  C   UNL     1      11.812   9.055  19.486  1.00  0.00     0.001 CG0
ATOM     17  G   UNL     1      12.983   8.414  20.232  1.00  0.00     0.000 G0
ENDBRANCH  15  16
ENDBRANCH   1  15
TORSDOF 0
ENDMDL
