MODEL 1
REMARK VINA RESULT:    -5.856      0.000      0.000
REMARK INTER + INTRA:          -7.094
REMARK INTER:                  -7.055
REMARK INTRA:                  -0.040
REMARK UNBOUND:                -0.040
REMARK SMILES Oc1cc(O)c2c(c1)O[C@H](c1ccc(O)c(O)c1)[C@H](O)C2
REMARK SMILES IDX 21 1 19 2 10 3 9 4 7 5 8 6 2 7 3 8 4 9 6 10 20 11 11 13
REMARK SMILES IDX 18 14 12 15 16 16 13 17 14 18 17 19 15 21 5 23 1 25
REMARK H PARENT 20 12 17 20 15 22 5 24 1 26
REMARK Flexibility Score: inf
ROOT
ATOM      1  C   UNL     1      70.290 -61.685 200.958  1.00  0.00     0.079 C 
ATOM      2  C   UNL     1      70.368 -60.891 202.270  1.00  0.00     0.164 C 
ATOM      3  C   UNL     1      70.257 -59.371 202.016  1.00  0.00     0.232 C 
ATOM      4  O   UNL     1      69.097 -59.082 201.233  1.00  0.00    -0.482 OA
ATOM      5  C   UNL     1      68.571 -59.962 200.278  1.00  0.00     0.131 A 
ATOM      6  C   UNL     1      67.487 -59.546 199.500  1.00  0.00     0.093 A 
ATOM      7  C   UNL     1      66.958 -60.389 198.517  1.00  0.00     0.122 A 
ATOM      8  C   UNL     1      67.525 -61.647 198.304  1.00  0.00     0.092 A 
ATOM      9  C   UNL     1      68.615 -62.079 199.068  1.00  0.00     0.126 A 
ATOM     10  C   UNL     1      69.123 -61.250 200.097  1.00  0.00     0.039 A 
ENDROOT
BRANCH   2  11
ATOM     11  O   UNL     1      71.562 -61.208 202.938  1.00  0.00    -0.389 OA
ATOM     12  H   UNL     1      71.850 -60.385 203.413  1.00  0.00     0.211 HD
ENDBRANCH   2  11
BRANCH   3  13
ATOM     13  C   UNL     1      71.511 -58.787 201.384  1.00  0.00    -0.001 A 
ATOM     14  C   UNL     1      72.668 -58.517 202.139  1.00  0.00     0.057 A 
ATOM     15  C   UNL     1      71.506 -58.468 200.015  1.00  0.00     0.012 A 
ATOM     16  C   UNL     1      73.800 -57.951 201.536  1.00  0.00     0.157 A 
ATOM     17  C   UNL     1      72.634 -57.904 199.413  1.00  0.00     0.050 A 
ATOM     18  C   UNL     1      73.782 -57.645 200.165  1.00  0.00     0.157 A 
BRANCH  16  19
ATOM     19  O   UNL     1      74.941 -57.691 202.294  1.00  0.00    -0.504 OA
ATOM     20  H   UNL     1      75.318 -56.754 202.382  1.00  0.00     0.293 HD
ENDBRANCH  16  19
BRANCH  18  21
ATOM     21  O   UNL     1      74.893 -57.083 199.537  1.00  0.00    -0.504 OA
ATOM     22  H   UNL     1      75.544 -56.484 200.029  1.00  0.00     0.293 HD
ENDBRANCH  18  21
ENDBRANCH   3  13
BRANCH   9  23
ATOM     23  O   UNL     1      69.170 -63.326 198.770  1.00  0.00    -0.507 OA
ATOM     24  H   UNL     1      69.201 -64.094 199.429  1.00  0.00     0.293 HD
ENDBRANCH   9  23
BRANCH   7  25
ATOM     25  O   UNL     1      65.876 -59.982 197.742  1.00  0.00    -0.508 OA
ATOM     26  H   UNL     1      64.937 -59.940 198.121  1.00  0.00     0.293 HD
ENDBRANCH   7  25
TORSDOF 6
ENDMDL
MODEL 2
REMARK VINA RESULT:    -5.152      7.099     10.149
REMARK INTER + INTRA:          -6.245
REMARK INTER:                  -6.370
REMARK INTRA:                   0.125
REMARK UNBOUND:                -0.040
REMARK SMILES Oc1cc(O)c2c(c1)O[C@H](c1ccc(O)c(O)c1)[C@H](O)C2
REMARK SMILES IDX 21 1 19 2 10 3 9 4 7 5 8 6 2 7 3 8 4 9 6 10 20 11 11 13
REMARK SMILES IDX 18 14 12 15 16 16 13 17 14 18 17 19 15 21 5 23 1 25
REMARK H PARENT 20 12 17 20 15 22 5 24 1 26
REMARK Flexibility Score: inf
ROOT
ATOM      1  C   UNL     1      75.730 -53.508 193.954  1.00  0.00     0.079 C 
ATOM      2  C   UNL     1      76.730 -54.642 193.686  1.00  0.00     0.164 C 
ATOM      3  C   UNL     1      77.256 -55.253 195.003  1.00  0.00     0.232 C 
ATOM      4  O   UNL     1      76.165 -55.631 195.846  1.00  0.00    -0.482 OA
ATOM      5  C   UNL     1      74.933 -54.963 195.860  1.00  0.00     0.131 A 
ATOM      6  C   UNL     1      73.963 -55.356 196.786  1.00  0.00     0.093 A 
ATOM      7  C   UNL     1      72.735 -54.690 196.847  1.00  0.00     0.122 A 
ATOM      8  C   UNL     1      72.483 -53.619 195.987  1.00  0.00     0.092 A 
ATOM      9  C   UNL     1      73.444 -53.208 195.056  1.00  0.00     0.126 A 
ATOM     10  C   UNL     1      74.669 -53.910 194.957  1.00  0.00     0.039 A 
ENDROOT
BRANCH   2  11
ATOM     11  O   UNL     1      77.785 -54.158 192.895  1.00  0.00    -0.389 OA
ATOM     12  H   UNL     1      78.626 -54.481 193.312  1.00  0.00     0.211 HD
ENDBRANCH   2  11
BRANCH   3  13
ATOM     13  C   UNL     1      78.225 -54.335 195.732  1.00  0.00    -0.001 A 
ATOM     14  C   UNL     1      79.378 -53.824 195.107  1.00  0.00     0.057 A 
ATOM     15  C   UNL     1      77.989 -54.019 197.082  1.00  0.00     0.012 A 
ATOM     16  C   UNL     1      80.270 -53.003 195.813  1.00  0.00     0.157 A 
ATOM     17  C   UNL     1      78.877 -53.200 197.785  1.00  0.00     0.050 A 
ATOM     18  C   UNL     1      80.016 -52.689 197.158  1.00  0.00     0.157 A 
BRANCH  16  19
ATOM     19  O   UNL     1      81.406 -52.499 195.182  1.00  0.00    -0.504 OA
ATOM     20  H   UNL     1      82.018 -51.834 195.641  1.00  0.00     0.293 HD
ENDBRANCH  16  19
BRANCH  18  21
ATOM     21  O   UNL     1      80.883 -51.875 197.885  1.00  0.00    -0.504 OA
ATOM     22  H   UNL     1      81.882 -52.035 197.904  1.00  0.00     0.293 HD
ENDBRANCH  18  21
ENDBRANCH   3  13
BRANCH   9  23
ATOM     23  O   UNL     1      73.152 -52.097 194.261  1.00  0.00    -0.507 OA
ATOM     24  H   UNL     1      72.452 -51.408 194.502  1.00  0.00     0.293 HD
ENDBRANCH   9  23
BRANCH   7  25
ATOM     25  O   UNL     1      71.762 -55.078 197.765  1.00  0.00    -0.508 OA
ATOM     26  H   UNL     1      70.918 -55.556 197.474  1.00  0.00     0.293 HD
ENDBRANCH   7  25
TORSDOF 6
ENDMDL
MODEL 3
REMARK VINA RESULT:    -5.112      1.738      6.456
REMARK INTER + INTRA:          -6.197
REMARK INTER:                  -6.359
REMARK INTRA:                   0.161
REMARK UNBOUND:                -0.040
REMARK SMILES Oc1cc(O)c2c(c1)O[C@H](c1ccc(O)c(O)c1)[C@H](O)C2
REMARK SMILES IDX 21 1 19 2 10 3 9 4 7 5 8 6 2 7 3 8 4 9 6 10 20 11 11 13
REMARK SMILES IDX 18 14 12 15 16 16 13 17 14 18 17 19 15 21 5 23 1 25
REMARK H PARENT 20 12 17 20 15 22 5 24 1 26
REMARK Flexibility Score: inf
ROOT
ATOM      1  C   UNL     1      71.837 -58.141 198.871  1.00  0.00     0.079 C 
ATOM      2  C   UNL     1      70.322 -57.901 198.826  1.00  0.00     0.164 C 
ATOM      3  C   UNL     1      69.618 -58.508 200.060  1.00  0.00     0.232 C 
ATOM      4  O   UNL     1      70.241 -58.050 201.262  1.00  0.00    -0.482 OA
ATOM      5  C   UNL     1      71.602 -57.734 201.354  1.00  0.00     0.131 A 
ATOM      6  C   UNL     1      72.132 -57.383 202.598  1.00  0.00     0.093 A 
ATOM      7  C   UNL     1      73.494 -57.091 202.730  1.00  0.00     0.122 A 
ATOM      8  C   UNL     1      74.330 -57.165 201.614  1.00  0.00     0.092 A 
ATOM      9  C   UNL     1      73.819 -57.521 200.361  1.00  0.00     0.126 A 
ATOM     10  C   UNL     1      72.433 -57.769 200.212  1.00  0.00     0.039 A 
ENDROOT
BRANCH   2  11
ATOM     11  O   UNL     1      69.799 -58.429 197.634  1.00  0.00    -0.389 OA
ATOM     12  H   UNL     1      70.334 -58.043 196.892  1.00  0.00     0.211 HD
ENDBRANCH   2  11
BRANCH   3  13
ATOM     13  C   UNL     1      69.554 -60.026 200.013  1.00  0.00    -0.001 A 
ATOM     14  C   UNL     1      69.059 -60.716 198.891  1.00  0.00     0.057 A 
ATOM     15  C   UNL     1      69.963 -60.767 201.137  1.00  0.00     0.012 A 
ATOM     16  C   UNL     1      68.985 -62.117 198.887  1.00  0.00     0.157 A 
ATOM     17  C   UNL     1      69.890 -62.162 201.134  1.00  0.00     0.050 A 
ATOM     18  C   UNL     1      69.405 -62.842 200.014  1.00  0.00     0.157 A 
BRANCH  16  19
ATOM     19  O   UNL     1      68.496 -62.789 197.768  1.00  0.00    -0.504 OA
ATOM     20  H   UNL     1      68.873 -62.624 196.842  1.00  0.00     0.293 HD
ENDBRANCH  16  19
BRANCH  18  21
ATOM     21  O   UNL     1      69.344 -64.234 200.040  1.00  0.00    -0.504 OA
ATOM     22  H   UNL     1      68.931 -64.742 200.812  1.00  0.00     0.293 HD
ENDBRANCH  18  21
ENDBRANCH   3  13
BRANCH   9  23
ATOM     23  O   UNL     1      74.716 -57.629 199.295  1.00  0.00    -0.507 OA
ATOM     24  H   UNL     1      74.633 -57.093 198.441  1.00  0.00     0.293 HD
ENDBRANCH   9  23
BRANCH   7  25
ATOM     25  O   UNL     1      74.027 -56.737 203.967  1.00  0.00    -0.508 OA
ATOM     26  H   UNL     1      74.262 -55.777 204.188  1.00  0.00     0.293 HD
ENDBRANCH   7  25
TORSDOF 6
ENDMDL
MODEL 4
REMARK VINA RESULT:    -4.960      4.600      6.607
REMARK INTER + INTRA:          -6.014
REMARK INTER:                  -6.003
REMARK INTRA:                  -0.011
REMARK UNBOUND:                -0.040
REMARK SMILES Oc1cc(O)c2c(c1)O[C@H](c1ccc(O)c(O)c1)[C@H](O)C2
REMARK SMILES IDX 21 1 19 2 10 3 9 4 7 5 8 6 2 7 3 8 4 9 6 10 20 11 11 13
REMARK SMILES IDX 18 14 12 15 16 16 13 17 14 18 17 19 15 21 5 23 1 25
REMARK H PARENT 20 12 17 20 15 22 5 24 1 26
REMARK Flexibility Score: inf
ROOT
ATOM      1  C   UNL     1      71.611 -56.464 197.512  1.00  0.00     0.079 C 
ATOM      2  C   UNL     1      71.099 -55.829 198.813  1.00  0.00     0.164 C 
ATOM      3  C   UNL     1      72.227 -55.078 199.555  1.00  0.00     0.232 C 
ATOM      4  O   UNL     1      72.870 -54.153 198.675  1.00  0.00    -0.482 OA
ATOM      5  C   UNL     1      72.997 -54.362 197.295  1.00  0.00     0.131 A 
ATOM      6  C   UNL     1      73.724 -53.441 196.537  1.00  0.00     0.093 A 
ATOM      7  C   UNL     1      73.896 -53.636 195.162  1.00  0.00     0.122 A 
ATOM      8  C   UNL     1      73.349 -54.764 194.549  1.00  0.00     0.092 A 
ATOM      9  C   UNL     1      72.622 -55.701 195.292  1.00  0.00     0.126 A 
ATOM     10  C   UNL     1      72.404 -55.484 196.674  1.00  0.00     0.039 A 
ENDROOT
BRANCH   2  11
ATOM     11  O   UNL     1      70.532 -56.823 199.628  1.00  0.00    -0.389 OA
ATOM     12  H   UNL     1      69.589 -56.928 199.336  1.00  0.00     0.211 HD
ENDBRANCH   2  11
BRANCH   3  13
ATOM     13  C   UNL     1      73.232 -56.016 200.203  1.00  0.00    -0.001 A 
ATOM     14  C   UNL     1      73.158 -56.361 201.566  1.00  0.00     0.057 A 
ATOM     15  C   UNL     1      74.294 -56.525 199.433  1.00  0.00     0.012 A 
ATOM     16  C   UNL     1      74.116 -57.206 202.144  1.00  0.00     0.157 A 
ATOM     17  C   UNL     1      75.249 -57.368 200.008  1.00  0.00     0.050 A 
ATOM     18  C   UNL     1      75.165 -57.712 201.360  1.00  0.00     0.157 A 
BRANCH  16  19
ATOM     19  O   UNL     1      74.030 -57.542 203.494  1.00  0.00    -0.504 OA
ATOM     20  H   UNL     1      74.657 -57.142 204.183  1.00  0.00     0.293 HD
ENDBRANCH  16  19
BRANCH  18  21
ATOM     21  O   UNL     1      76.132 -58.555 201.906  1.00  0.00    -0.504 OA
ATOM     22  H   UNL     1      76.773 -58.245 202.625  1.00  0.00     0.293 HD
ENDBRANCH  18  21
ENDBRANCH   3  13
BRANCH   9  23
ATOM     23  O   UNL     1      72.146 -56.836 194.630  1.00  0.00    -0.507 OA
ATOM     24  H   UNL     1      71.578 -57.544 195.077  1.00  0.00     0.293 HD
ENDBRANCH   9  23
BRANCH   7  25
ATOM     25  O   UNL     1      74.616 -52.720 194.401  1.00  0.00    -0.508 OA
ATOM     26  H   UNL     1      75.163 -53.010 193.598  1.00  0.00     0.293 HD
ENDBRANCH   7  25
TORSDOF 6
ENDMDL
MODEL 5
REMARK VINA RESULT:    -4.908      2.094      6.674
REMARK INTER + INTRA:          -5.952
REMARK INTER:                  -5.899
REMARK INTRA:                  -0.053
REMARK UNBOUND:                -0.040
REMARK SMILES Oc1cc(O)c2c(c1)O[C@H](c1ccc(O)c(O)c1)[C@H](O)C2
REMARK SMILES IDX 21 1 19 2 10 3 9 4 7 5 8 6 2 7 3 8 4 9 6 10 20 11 11 13
REMARK SMILES IDX 18 14 12 15 16 16 13 17 14 18 17 19 15 21 5 23 1 25
REMARK H PARENT 20 12 17 20 15 22 5 24 1 26
REMARK Flexibility Score: inf
ROOT
ATOM      1  C   UNL     1      72.114 -56.046 199.704  1.00  0.00     0.079 C 
ATOM      2  C   UNL     1      71.187 -55.534 200.815  1.00  0.00     0.164 C 
ATOM      3  C   UNL     1      70.936 -56.621 201.885  1.00  0.00     0.232 C 
ATOM      4  O   UNL     1      72.178 -57.143 202.363  1.00  0.00    -0.482 OA
ATOM      5  C   UNL     1      73.332 -57.230 201.574  1.00  0.00     0.131 A 
ATOM      6  C   UNL     1      74.470 -57.841 202.108  1.00  0.00     0.093 A 
ATOM      7  C   UNL     1      75.630 -57.973 201.337  1.00  0.00     0.122 A 
ATOM      8  C   UNL     1      75.645 -57.502 200.023  1.00  0.00     0.092 A 
ATOM      9  C   UNL     1      74.514 -56.893 199.468  1.00  0.00     0.126 A 
ATOM     10  C   UNL     1      73.354 -56.713 200.260  1.00  0.00     0.039 A 
ENDROOT
BRANCH   2  11
ATOM     11  O   UNL     1      69.979 -55.091 200.251  1.00  0.00    -0.389 OA
ATOM     12  H   UNL     1      69.295 -55.134 200.969  1.00  0.00     0.211 HD
ENDBRANCH   2  11
BRANCH   3  13
ATOM     13  C   UNL     1      70.022 -57.731 201.392  1.00  0.00    -0.001 A 
ATOM     14  C   UNL     1      70.512 -58.826 200.654  1.00  0.00     0.057 A 
ATOM     15  C   UNL     1      68.640 -57.648 201.642  1.00  0.00     0.012 A 
ATOM     16  C   UNL     1      69.641 -59.821 200.187  1.00  0.00     0.157 A 
ATOM     17  C   UNL     1      67.773 -58.639 201.178  1.00  0.00     0.050 A 
ATOM     18  C   UNL     1      68.265 -59.727 200.453  1.00  0.00     0.157 A 
BRANCH  16  19
ATOM     19  O   UNL     1      70.139 -60.902 199.461  1.00  0.00    -0.504 OA
ATOM     20  H   UNL     1      70.350 -60.825 198.472  1.00  0.00     0.293 HD
ENDBRANCH  16  19
BRANCH  18  21
ATOM     21  O   UNL     1      67.376 -60.701 200.003  1.00  0.00    -0.504 OA
ATOM     22  H   UNL     1      66.375 -60.550 199.985  1.00  0.00     0.293 HD
ENDBRANCH  18  21
ENDBRANCH   3  13
BRANCH   9  23
ATOM     23  O   UNL     1      74.575 -56.492 198.131  1.00  0.00    -0.507 OA
ATOM     24  H   UNL     1      74.456 -55.533 197.831  1.00  0.00     0.293 HD
ENDBRANCH   9  23
BRANCH   7  25
ATOM     25  O   UNL     1      76.768 -58.577 201.865  1.00  0.00    -0.508 OA
ATOM     26  H   UNL     1      77.699 -58.278 201.600  1.00  0.00     0.293 HD
ENDBRANCH   7  25
TORSDOF 6
ENDMDL
MODEL 6
REMARK VINA RESULT:    -4.857      2.344      5.821
REMARK INTER + INTRA:          -5.891
REMARK INTER:                  -5.898
REMARK INTRA:                   0.007
REMARK UNBOUND:                -0.040
REMARK SMILES Oc1cc(O)c2c(c1)O[C@H](c1ccc(O)c(O)c1)[C@H](O)C2
REMARK SMILES IDX 21 1 19 2 10 3 9 4 7 5 8 6 2 7 3 8 4 9 6 10 20 11 11 13
REMARK SMILES IDX 18 14 12 15 16 16 13 17 14 18 17 19 15 21 5 23 1 25
REMARK H PARENT 20 12 17 20 15 22 5 24 1 26
REMARK Flexibility Score: inf
ROOT
ATOM      1  C   UNL     1      70.707 -58.287 197.834  1.00  0.00     0.079 C 
ATOM      2  C   UNL     1      69.263 -58.701 197.521  1.00  0.00     0.164 C 
ATOM      3  C   UNL     1      68.474 -59.013 198.812  1.00  0.00     0.232 C 
ATOM      4  O   UNL     1      68.577 -57.924 199.732  1.00  0.00    -0.482 OA
ATOM      5  C   UNL     1      69.698 -57.088 199.816  1.00  0.00     0.131 A 
ATOM      6  C   UNL     1      69.737 -56.109 200.812  1.00  0.00     0.093 A 
ATOM      7  C   UNL     1      70.855 -55.278 200.942  1.00  0.00     0.122 A 
ATOM      8  C   UNL     1      71.941 -55.437 200.080  1.00  0.00     0.092 A 
ATOM      9  C   UNL     1      71.923 -56.416 199.080  1.00  0.00     0.126 A 
ATOM     10  C   UNL     1      70.775 -57.227 198.912  1.00  0.00     0.039 A 
ENDROOT
BRANCH   2  11
ATOM     11  O   UNL     1      69.270 -59.805 196.652  1.00  0.00    -0.389 OA
ATOM     12  H   UNL     1      69.902 -59.587 195.919  1.00  0.00     0.211 HD
ENDBRANCH   2  11
BRANCH   3  13
ATOM     13  C   UNL     1      68.895 -60.324 199.457  1.00  0.00    -0.001 A 
ATOM     14  C   UNL     1      69.669 -60.360 200.633  1.00  0.00     0.057 A 
ATOM     15  C   UNL     1      68.540 -61.539 198.843  1.00  0.00     0.012 A 
ATOM     16  C   UNL     1      70.068 -61.584 201.190  1.00  0.00     0.157 A 
ATOM     17  C   UNL     1      68.936 -62.758 199.398  1.00  0.00     0.050 A 
ATOM     18  C   UNL     1      69.698 -62.788 200.569  1.00  0.00     0.157 A 
BRANCH  16  19
ATOM     19  O   UNL     1      70.831 -61.606 202.356  1.00  0.00    -0.504 OA
ATOM     20  H   UNL     1      70.989 -60.768 202.904  1.00  0.00     0.293 HD
ENDBRANCH  16  19
BRANCH  18  21
ATOM     21  O   UNL     1      70.078 -64.019 201.100  1.00  0.00    -0.504 OA
ATOM     22  H   UNL     1      69.736 -64.350 201.993  1.00  0.00     0.293 HD
ENDBRANCH  18  21
ENDBRANCH   3  13
BRANCH   9  23
ATOM     23  O   UNL     1      73.063 -56.561 198.285  1.00  0.00    -0.507 OA
ATOM     24  H   UNL     1      73.981 -56.764 198.659  1.00  0.00     0.293 HD
ENDBRANCH   9  23
BRANCH   7  25
ATOM     25  O   UNL     1      70.898 -54.298 201.930  1.00  0.00    -0.508 OA
ATOM     26  H   UNL     1      70.487 -54.447 202.844  1.00  0.00     0.293 HD
ENDBRANCH   7  25
TORSDOF 6
ENDMDL
MODEL 7
REMARK VINA RESULT:    -4.753      2.597      6.766
REMARK INTER + INTRA:          -5.765
REMARK INTER:                  -5.739
REMARK INTRA:                  -0.026
REMARK UNBOUND:                -0.040
REMARK SMILES Oc1cc(O)c2c(c1)O[C@H](c1ccc(O)c(O)c1)[C@H](O)C2
REMARK SMILES IDX 21 1 19 2 10 3 9 4 7 5 8 6 2 7 3 8 4 9 6 10 20 11 11 13
REMARK SMILES IDX 18 14 12 15 16 16 13 17 14 18 17 19 15 21 5 23 1 25
REMARK H PARENT 20 12 17 20 15 22 5 24 1 26
REMARK Flexibility Score: inf
ROOT
ATOM      1  C   UNL     1      73.270 -55.638 202.282  1.00  0.00     0.079 C 
ATOM      2  C   UNL     1      74.124 -56.896 202.490  1.00  0.00     0.164 C 
ATOM      3  C   UNL     1      73.977 -57.878 201.307  1.00  0.00     0.232 C 
ATOM      4  O   UNL     1      74.228 -57.206 200.070  1.00  0.00    -0.482 OA
ATOM      5  C   UNL     1      73.944 -55.851 199.857  1.00  0.00     0.131 A 
ATOM      6  C   UNL     1      74.142 -55.312 198.582  1.00  0.00     0.093 A 
ATOM      7  C   UNL     1      73.839 -53.971 198.328  1.00  0.00     0.122 A 
ATOM      8  C   UNL     1      73.326 -53.170 199.350  1.00  0.00     0.092 A 
ATOM      9  C   UNL     1      73.116 -53.692 200.631  1.00  0.00     0.126 A 
ATOM     10  C   UNL     1      73.466 -55.036 200.907  1.00  0.00     0.039 A 
ENDROOT
BRANCH   2  11
ATOM     11  O   UNL     1      73.769 -57.508 203.703  1.00  0.00    -0.389 OA
ATOM     12  H   UNL     1      72.789 -57.387 203.808  1.00  0.00     0.211 HD
ENDBRANCH   2  11
BRANCH   3  13
ATOM     13  C   UNL     1      72.630 -58.583 201.290  1.00  0.00    -0.001 A 
ATOM     14  C   UNL     1      72.320 -59.615 202.196  1.00  0.00     0.057 A 
ATOM     15  C   UNL     1      71.679 -58.226 200.318  1.00  0.00     0.012 A 
ATOM     16  C   UNL     1      71.080 -60.268 202.139  1.00  0.00     0.157 A 
ATOM     17  C   UNL     1      70.443 -58.876 200.261  1.00  0.00     0.050 A 
ATOM     18  C   UNL     1      70.137 -59.894 201.167  1.00  0.00     0.157 A 
BRANCH  16  19
ATOM     19  O   UNL     1      70.782 -61.286 203.043  1.00  0.00    -0.504 OA
ATOM     20  H   UNL     1      71.471 -61.628 203.704  1.00  0.00     0.293 HD
ENDBRANCH  16  19
BRANCH  18  21
ATOM     21  O   UNL     1      68.896 -60.524 201.087  1.00  0.00    -0.504 OA
ATOM     22  H   UNL     1      68.386 -60.600 200.215  1.00  0.00     0.293 HD
ENDBRANCH  18  21
ENDBRANCH   3  13
BRANCH   9  23
ATOM     23  O   UNL     1      72.549 -52.856 201.595  1.00  0.00    -0.507 OA
ATOM     24  H   UNL     1      73.041 -52.078 202.016  1.00  0.00     0.293 HD
ENDBRANCH   9  23
BRANCH   7  25
ATOM     25  O   UNL     1      74.037 -53.427 197.061  1.00  0.00    -0.508 OA
ATOM     26  H   UNL     1      74.936 -53.053 196.779  1.00  0.00     0.293 HD
ENDBRANCH   7  25
TORSDOF 6
ENDMDL
MODEL 8
REMARK VINA RESULT:    -4.733      3.093      3.833
REMARK INTER + INTRA:          -5.741
REMARK INTER:                  -5.698
REMARK INTRA:                  -0.043
REMARK UNBOUND:                -0.040
REMARK SMILES Oc1cc(O)c2c(c1)O[C@H](c1ccc(O)c(O)c1)[C@H](O)C2
REMARK SMILES IDX 21 1 19 2 10 3 9 4 7 5 8 6 2 7 3 8 4 9 6 10 20 11 11 13
REMARK SMILES IDX 18 14 12 15 16 16 13 17 14 18 17 19 15 21 5 23 1 25
REMARK H PARENT 20 12 17 20 15 22 5 24 1 26
REMARK Flexibility Score: inf
ROOT
ATOM      1  C   UNL     1      69.607 -58.609 199.166  1.00  0.00     0.079 C 
ATOM      2  C   UNL     1      69.432 -57.532 200.245  1.00  0.00     0.164 C 
ATOM      3  C   UNL     1      70.529 -56.448 200.143  1.00  0.00     0.232 C 
ATOM      4  O   UNL     1      70.591 -55.929 198.812  1.00  0.00    -0.482 OA
ATOM      5  C   UNL     1      70.286 -56.687 197.673  1.00  0.00     0.131 A 
ATOM      6  C   UNL     1      70.467 -56.112 196.412  1.00  0.00     0.093 A 
ATOM      7  C   UNL     1      70.201 -56.852 195.255  1.00  0.00     0.122 A 
ATOM      8  C   UNL     1      69.767 -58.174 195.361  1.00  0.00     0.092 A 
ATOM      9  C   UNL     1      69.586 -58.769 196.615  1.00  0.00     0.126 A 
ATOM     10  C   UNL     1      69.806 -58.010 197.790  1.00  0.00     0.039 A 
ENDROOT
BRANCH   2  11
ATOM     11  O   UNL     1      69.434 -58.136 201.514  1.00  0.00    -0.389 OA
ATOM     12  H   UNL     1      68.610 -57.831 201.976  1.00  0.00     0.211 HD
ENDBRANCH   2  11
BRANCH   3  13
ATOM     13  C   UNL     1      71.890 -56.942 200.607  1.00  0.00    -0.001 A 
ATOM     14  C   UNL     1      72.230 -57.011 201.972  1.00  0.00     0.057 A 
ATOM     15  C   UNL     1      72.855 -57.301 199.650  1.00  0.00     0.012 A 
ATOM     16  C   UNL     1      73.503 -57.443 202.371  1.00  0.00     0.157 A 
ATOM     17  C   UNL     1      74.124 -57.732 200.047  1.00  0.00     0.050 A 
ATOM     18  C   UNL     1      74.453 -57.806 201.403  1.00  0.00     0.157 A 
BRANCH  16  19
ATOM     19  O   UNL     1      73.826 -57.510 203.725  1.00  0.00    -0.504 OA
ATOM     20  H   UNL     1      73.620 -58.332 204.281  1.00  0.00     0.293 HD
ENDBRANCH  16  19
BRANCH  18  21
ATOM     21  O   UNL     1      75.726 -58.240 201.769  1.00  0.00    -0.504 OA
ATOM     22  H   UNL     1      76.058 -59.173 201.560  1.00  0.00     0.293 HD
ENDBRANCH  18  21
ENDBRANCH   3  13
BRANCH   9  23
ATOM     23  O   UNL     1      69.201 -60.111 196.654  1.00  0.00    -0.507 OA
ATOM     24  H   UNL     1      68.709 -60.527 197.434  1.00  0.00     0.293 HD
ENDBRANCH   9  23
BRANCH   7  25
ATOM     25  O   UNL     1      70.375 -56.284 193.995  1.00  0.00    -0.508 OA
ATOM     26  H   UNL     1      71.163 -55.681 193.789  1.00  0.00     0.293 HD
ENDBRANCH   7  25
TORSDOF 6
ENDMDL
MODEL 9
REMARK VINA RESULT:    -4.732      2.701      4.202
REMARK INTER + INTRA:          -5.740
REMARK INTER:                  -5.706
REMARK INTRA:                  -0.033
REMARK UNBOUND:                -0.040
REMARK SMILES Oc1cc(O)c2c(c1)O[C@H](c1ccc(O)c(O)c1)[C@H](O)C2
REMARK SMILES IDX 21 1 19 2 10 3 9 4 7 5 8 6 2 7 3 8 4 9 6 10 20 11 11 13
REMARK SMILES IDX 18 14 12 15 16 16 13 17 14 18 17 19 15 21 5 23 1 25
REMARK H PARENT 20 12 17 20 15 22 5 24 1 26
REMARK Flexibility Score: inf
ROOT
ATOM      1  C   UNL     1      72.093 -57.866 199.275  1.00  0.00     0.079 C 
ATOM      2  C   UNL     1      73.373 -58.043 200.103  1.00  0.00     0.164 C 
ATOM      3  C   UNL     1      73.054 -58.236 201.602  1.00  0.00     0.232 C 
ATOM      4  O   UNL     1      72.104 -59.290 201.775  1.00  0.00    -0.482 OA
ATOM      5  C   UNL     1      71.115 -59.600 200.832  1.00  0.00     0.131 A 
ATOM      6  C   UNL     1      70.177 -60.589 201.138  1.00  0.00     0.093 A 
ATOM      7  C   UNL     1      69.158 -60.902 200.231  1.00  0.00     0.122 A 
ATOM      8  C   UNL     1      69.072 -60.211 199.021  1.00  0.00     0.092 A 
ATOM      9  C   UNL     1      69.998 -59.213 198.699  1.00  0.00     0.126 A 
ATOM     10  C   UNL     1      71.060 -58.927 199.591  1.00  0.00     0.039 A 
ENDROOT
BRANCH   2  11
ATOM     11  O   UNL     1      74.216 -56.937 199.903  1.00  0.00    -0.389 OA
ATOM     12  H   UNL     1      73.715 -56.137 200.211  1.00  0.00     0.211 HD
ENDBRANCH   2  11
BRANCH   3  13
ATOM     13  C   UNL     1      72.587 -56.954 202.274  1.00  0.00    -0.001 A 
ATOM     14  C   UNL     1      71.306 -56.418 202.044  1.00  0.00     0.057 A 
ATOM     15  C   UNL     1      73.471 -56.259 203.118  1.00  0.00     0.012 A 
ATOM     16  C   UNL     1      70.912 -55.218 202.655  1.00  0.00     0.157 A 
ATOM     17  C   UNL     1      73.080 -55.064 203.728  1.00  0.00     0.050 A 
ATOM     18  C   UNL     1      71.804 -54.540 203.503  1.00  0.00     0.157 A 
BRANCH  16  19
ATOM     19  O   UNL     1      69.640 -54.699 202.423  1.00  0.00    -0.504 OA
ATOM     20  H   UNL     1      69.502 -53.731 202.154  1.00  0.00     0.293 HD
ENDBRANCH  16  19
BRANCH  18  21
ATOM     21  O   UNL     1      71.442 -53.347 204.125  1.00  0.00    -0.504 OA
ATOM     22  H   UNL     1      71.804 -52.451 203.824  1.00  0.00     0.293 HD
ENDBRANCH  18  21
ENDBRANCH   3  13
BRANCH   9  23
ATOM     23  O   UNL     1      69.826 -58.523 197.497  1.00  0.00    -0.507 OA
ATOM     24  H   UNL     1      69.408 -57.603 197.438  1.00  0.00     0.293 HD
ENDBRANCH   9  23
BRANCH   7  25
ATOM     25  O   UNL     1      68.223 -61.889 200.528  1.00  0.00    -0.508 OA
ATOM     26  H   UNL     1      67.231 -61.685 200.572  1.00  0.00     0.293 HD
ENDBRANCH   7  25
TORSDOF 6
ENDMDL
