MODEL 1
REMARK VINA RESULT:    -3.312      0.000      0.000
REMARK INTER + INTRA:          -5.838
REMARK INTER:                  -5.054
REMARK INTRA:                  -0.784
REMARK UNBOUND:                -0.784
REMARK SMILES CCCCCCCCCCC(=O)[O-]
REMARK SMILES IDX 7 1 8 2 9 3 10 4 11 5 12 6 13 7 6 8 5 9 4 10 3 11 2 12 1 13
REMARK H PARENT
REMARK Flexibility Score: inf
ROOT
ATOM      1  C   UNL     1     -48.280 -48.071  67.353  1.00  0.00     0.000 C 
ENDROOT
BRANCH   1   2
ATOM      2  C   UNL     1     -49.455 -47.074  67.370  1.00  0.00     0.000 C 
BRANCH   2   3
ATOM      3  C   UNL     1     -50.171 -46.931  66.011  1.00  0.00     0.006 C 
BRANCH   3   4
ATOM      4  C   UNL     1     -49.263 -47.287  64.826  1.00  0.00     0.053 C 
BRANCH   4   5
ATOM      5  C   UNL     1     -49.301 -46.206  63.794  1.00  0.00     0.041 C 
ATOM      6  O   UNL     1     -50.161 -45.288  63.870  1.00  0.00    -0.550 OA
ATOM      7  O   UNL     1     -48.358 -46.183  62.775  1.00  0.00    -0.550 OA
ENDBRANCH   4   5
ENDBRANCH   3   4
ENDBRANCH   2   3
ENDBRANCH   1   2
BRANCH   1   8
ATOM      8  C   UNL     1     -48.481 -49.332  68.215  1.00  0.00     0.000 C 
BRANCH   8   9
ATOM      9  C   UNL     1     -49.168 -49.092  69.573  1.00  0.00    -0.000 C 
BRANCH   9  10
ATOM     10  C   UNL     1     -48.167 -48.952  70.733  1.00  0.00    -0.000 C 
BRANCH  10  11
ATOM     11  C   UNL     1     -47.799 -47.488  71.020  1.00  0.00    -0.000 C 
BRANCH  11  12
ATOM     12  C   UNL     1     -46.291 -47.222  70.901  1.00  0.00    -0.003 C 
ATOM     13  C   UNL     1     -45.522 -48.520  70.670  1.00  0.00     0.004 C 
ENDBRANCH  11  12
ENDBRANCH  10  11
ENDBRANCH   9  10
ENDBRANCH   8   9
ENDBRANCH   1   8
TORSDOF 9
ENDMDL
MODEL 2
REMARK VINA RESULT:    -3.238      1.675      3.206
REMARK INTER + INTRA:          -5.725
REMARK INTER:                  -4.612
REMARK INTRA:                  -1.113
REMARK UNBOUND:                -0.784
REMARK SMILES CCCCCCCCCCC(=O)[O-]
REMARK SMILES IDX 7 1 8 2 9 3 10 4 11 5 12 6 13 7 6 8 5 9 4 10 3 11 2 12 1 13
REMARK H PARENT
REMARK Flexibility Score: inf
ROOT
ATOM      1  C   UNL     1     -48.351 -48.607  70.623  1.00  0.00     0.000 C 
ENDROOT
BRANCH   1   2
ATOM      2  C   UNL     1     -48.944 -48.744  69.207  1.00  0.00     0.000 C 
BRANCH   2   3
ATOM      3  C   UNL     1     -48.553 -47.597  68.253  1.00  0.00     0.006 C 
BRANCH   3   4
ATOM      4  C   UNL     1     -48.740 -47.970  66.776  1.00  0.00     0.053 C 
BRANCH   4   5
ATOM      5  C   UNL     1     -49.722 -47.050  66.124  1.00  0.00     0.041 C 
ATOM      6  O   UNL     1     -49.549 -46.681  64.932  1.00  0.00    -0.550 OA
ATOM      7  O   UNL     1     -50.854 -46.638  66.814  1.00  0.00    -0.550 OA
ENDBRANCH   4   5
ENDBRANCH   3   4
ENDBRANCH   2   3
ENDBRANCH   1   2
BRANCH   1   8
ATOM      8  C   UNL     1     -47.464 -47.366  70.841  1.00  0.00     0.000 C 
BRANCH   8   9
ATOM      9  C   UNL     1     -45.947 -47.637  70.828  1.00  0.00    -0.000 C 
BRANCH   9  10
ATOM     10  C   UNL     1     -45.608 -49.132  70.701  1.00  0.00    -0.000 C 
BRANCH  10  11
ATOM     11  C   UNL     1     -44.702 -49.430  69.495  1.00  0.00    -0.000 C 
BRANCH  11  12
ATOM     12  C   UNL     1     -44.775 -48.340  68.416  1.00  0.00    -0.003 C 
ATOM     13  C   UNL     1     -45.201 -48.925  67.073  1.00  0.00     0.004 C 
ENDBRANCH  11  12
ENDBRANCH  10  11
ENDBRANCH   9  10
ENDBRANCH   8   9
ENDBRANCH   1   8
TORSDOF 9
ENDMDL
MODEL 3
REMARK VINA RESULT:    -3.198      4.807      6.911
REMARK INTER + INTRA:          -5.665
REMARK INTER:                  -5.177
REMARK INTRA:                  -0.488
REMARK UNBOUND:                -0.784
REMARK SMILES CCCCCCCCCCC(=O)[O-]
REMARK SMILES IDX 7 1 8 2 9 3 10 4 11 5 12 6 13 7 6 8 5 9 4 10 3 11 2 12 1 13
REMARK H PARENT
REMARK Flexibility Score: inf
ROOT
ATOM      1  C   UNL     1     -43.667 -47.632  70.661  1.00  0.00     0.000 C 
ENDROOT
BRANCH   1   2
ATOM      2  C   UNL     1     -45.081 -48.172  70.373  1.00  0.00     0.000 C 
BRANCH   2   3
ATOM      3  C   UNL     1     -46.197 -47.440  71.148  1.00  0.00     0.006 C 
BRANCH   3   4
ATOM      4  C   UNL     1     -47.552 -47.506  70.430  1.00  0.00     0.053 C 
BRANCH   4   5
ATOM      5  C   UNL     1     -48.366 -48.647  70.951  1.00  0.00     0.041 C 
ATOM      6  O   UNL     1     -49.530 -48.447  71.388  1.00  0.00    -0.550 OA
ATOM      7  O   UNL     1     -47.859 -49.939  70.909  1.00  0.00    -0.550 OA
ENDBRANCH   4   5
ENDBRANCH   3   4
ENDBRANCH   2   3
ENDBRANCH   1   2
BRANCH   1   8
ATOM      8  C   UNL     1     -43.619 -46.341  71.500  1.00  0.00     0.000 C 
BRANCH   8   9
ATOM      9  C   UNL     1     -43.455 -45.041  70.690  1.00  0.00    -0.000 C 
BRANCH   9  10
ATOM     10  C   UNL     1     -42.696 -45.250  69.369  1.00  0.00    -0.000 C 
BRANCH  10  11
ATOM     11  C   UNL     1     -42.553 -43.952  68.559  1.00  0.00    -0.000 C 
BRANCH  11  12
ATOM     12  C   UNL     1     -43.303 -42.772  69.194  1.00  0.00    -0.003 C 
ATOM     13  C   UNL     1     -42.383 -41.565  69.363  1.00  0.00     0.004 C 
ENDBRANCH  11  12
ENDBRANCH  10  11
ENDBRANCH   9  10
ENDBRANCH   8   9
ENDBRANCH   1   8
TORSDOF 9
ENDMDL
MODEL 4
REMARK VINA RESULT:    -3.198      1.608      2.802
REMARK INTER + INTRA:          -5.664
REMARK INTER:                  -4.584
REMARK INTRA:                  -1.080
REMARK UNBOUND:                -0.784
REMARK SMILES CCCCCCCCCCC(=O)[O-]
REMARK SMILES IDX 7 1 8 2 9 3 10 4 11 5 12 6 13 7 6 8 5 9 4 10 3 11 2 12 1 13
REMARK H PARENT
REMARK Flexibility Score: inf
ROOT
ATOM      1  C   UNL     1     -46.153 -49.313  67.111  1.00  0.00     0.000 C 
ENDROOT
BRANCH   1   2
ATOM      2  C   UNL     1     -47.269 -48.516  66.409  1.00  0.00     0.000 C 
BRANCH   2   3
ATOM      3  C   UNL     1     -48.623 -48.556  67.147  1.00  0.00     0.006 C 
BRANCH   3   4
ATOM      4  C   UNL     1     -49.186 -47.155  67.420  1.00  0.00     0.053 C 
BRANCH   4   5
ATOM      5  C   UNL     1     -50.256 -46.819  66.430  1.00  0.00     0.041 C 
ATOM      6  O   UNL     1     -51.467 -46.826  66.779  1.00  0.00    -0.550 OA
ATOM      7  O   UNL     1     -49.916 -46.450  65.136  1.00  0.00    -0.550 OA
ENDBRANCH   4   5
ENDBRANCH   3   4
ENDBRANCH   2   3
ENDBRANCH   1   2
BRANCH   1   8
ATOM      8  C   UNL     1     -45.418 -48.557  68.235  1.00  0.00     0.000 C 
BRANCH   8   9
ATOM      9  C   UNL     1     -45.031 -49.415  69.454  1.00  0.00    -0.000 C 
BRANCH   9  10
ATOM     10  C   UNL     1     -45.809 -49.035  70.725  1.00  0.00    -0.000 C 
BRANCH  10  11
ATOM     11  C   UNL     1     -46.244 -47.561  70.732  1.00  0.00    -0.000 C 
BRANCH  11  12
ATOM     12  C   UNL     1     -47.763 -47.392  70.877  1.00  0.00    -0.003 C 
ATOM     13  C   UNL     1     -48.472 -48.743  70.836  1.00  0.00     0.004 C 
ENDBRANCH  11  12
ENDBRANCH  10  11
ENDBRANCH   9  10
ENDBRANCH   8   9
ENDBRANCH   1   8
TORSDOF 9
ENDMDL
MODEL 5
REMARK VINA RESULT:    -3.189      1.749      2.507
REMARK INTER + INTRA:          -5.650
REMARK INTER:                  -4.543
REMARK INTRA:                  -1.107
REMARK UNBOUND:                -0.784
REMARK SMILES CCCCCCCCCCC(=O)[O-]
REMARK SMILES IDX 7 1 8 2 9 3 10 4 11 5 12 6 13 7 6 8 5 9 4 10 3 11 2 12 1 13
REMARK H PARENT
REMARK Flexibility Score: inf
ROOT
ATOM      1  C   UNL     1     -48.676 -49.544  68.261  1.00  0.00     0.000 C 
ENDROOT
BRANCH   1   2
ATOM      2  C   UNL     1     -48.207 -48.357  67.397  1.00  0.00     0.000 C 
BRANCH   2   3
ATOM      3  C   UNL     1     -49.147 -47.135  67.453  1.00  0.00     0.006 C 
BRANCH   3   4
ATOM      4  C   UNL     1     -49.901 -46.911  66.135  1.00  0.00     0.053 C 
BRANCH   4   5
ATOM      5  C   UNL     1     -51.375 -47.051  66.346  1.00  0.00     0.041 C 
ATOM      6  O   UNL     1     -52.183 -46.562  65.512  1.00  0.00    -0.550 OA
ATOM      7  O   UNL     1     -51.857 -47.765  67.434  1.00  0.00    -0.550 OA
ENDBRANCH   4   5
ENDBRANCH   3   4
ENDBRANCH   2   3
ENDBRANCH   1   2
BRANCH   1   8
ATOM      8  C   UNL     1     -49.310 -49.158  69.611  1.00  0.00     0.000 C 
BRANCH   8   9
ATOM      9  C   UNL     1     -48.316 -49.000  70.777  1.00  0.00    -0.000 C 
BRANCH   9  10
ATOM     10  C   UNL     1     -47.934 -47.534  71.043  1.00  0.00    -0.000 C 
BRANCH  10  11
ATOM     11  C   UNL     1     -46.419 -47.292  70.947  1.00  0.00    -0.000 C 
BRANCH  11  12
ATOM     12  C   UNL     1     -45.632 -48.578  70.654  1.00  0.00    -0.003 C 
ATOM     13  C   UNL     1     -44.872 -48.466  69.335  1.00  0.00     0.004 C 
ENDBRANCH  11  12
ENDBRANCH  10  11
ENDBRANCH   9  10
ENDBRANCH   8   9
ENDBRANCH   1   8
TORSDOF 9
ENDMDL
MODEL 6
REMARK VINA RESULT:    -3.171      5.105      7.341
REMARK INTER + INTRA:          -5.623
REMARK INTER:                  -5.022
REMARK INTRA:                  -0.601
REMARK UNBOUND:                -0.784
REMARK SMILES CCCCCCCCCCC(=O)[O-]
REMARK SMILES IDX 7 1 8 2 9 3 10 4 11 5 12 6 13 7 6 8 5 9 4 10 3 11 2 12 1 13
REMARK H PARENT
REMARK Flexibility Score: inf
ROOT
ATOM      1  C   UNL     1     -43.578 -46.121  71.621  1.00  0.00     0.000 C 
ENDROOT
BRANCH   1   2
ATOM      2  C   UNL     1     -43.582 -47.400  70.761  1.00  0.00     0.000 C 
BRANCH   2   3
ATOM      3  C   UNL     1     -44.957 -48.098  70.687  1.00  0.00     0.006 C 
BRANCH   3   4
ATOM      4  C   UNL     1     -46.097 -47.205  71.194  1.00  0.00     0.053 C 
BRANCH   4   5
ATOM      5  C   UNL     1     -47.401 -47.637  70.603  1.00  0.00     0.041 C 
ATOM      6  O   UNL     1     -48.448 -47.627  71.305  1.00  0.00    -0.550 OA
ATOM      7  O   UNL     1     -47.472 -48.003  69.266  1.00  0.00    -0.550 OA
ENDBRANCH   4   5
ENDBRANCH   3   4
ENDBRANCH   2   3
ENDBRANCH   1   2
BRANCH   1   8
ATOM      8  C   UNL     1     -43.221 -44.827  70.865  1.00  0.00     0.000 C 
BRANCH   8   9
ATOM      9  C   UNL     1     -42.833 -45.021  69.387  1.00  0.00    -0.000 C 
BRANCH   9  10
ATOM     10  C   UNL     1     -42.712 -43.692  68.621  1.00  0.00    -0.000 C 
BRANCH  10  11
ATOM     11  C   UNL     1     -43.244 -42.497  69.428  1.00  0.00    -0.000 C 
BRANCH  11  12
ATOM     12  C   UNL     1     -42.362 -41.247  69.287  1.00  0.00    -0.003 C 
ATOM     13  C   UNL     1     -40.945 -41.622  68.862  1.00  0.00     0.004 C 
ENDBRANCH  11  12
ENDBRANCH  10  11
ENDBRANCH   9  10
ENDBRANCH   8   9
ENDBRANCH   1   8
TORSDOF 9
ENDMDL
MODEL 7
REMARK VINA RESULT:    -3.151      4.602      6.608
REMARK INTER + INTRA:          -5.594
REMARK INTER:                  -4.611
REMARK INTRA:                  -0.983
REMARK UNBOUND:                -0.784
REMARK SMILES CCCCCCCCCCC(=O)[O-]
REMARK SMILES IDX 7 1 8 2 9 3 10 4 11 5 12 6 13 7 6 8 5 9 4 10 3 11 2 12 1 13
REMARK H PARENT
REMARK Flexibility Score: inf
ROOT
ATOM      1  C   UNL     1     -46.498 -47.400  71.106  1.00  0.00     0.000 C 
ENDROOT
BRANCH   1   2
ATOM      2  C   UNL     1     -45.675 -48.632  70.682  1.00  0.00     0.000 C 
BRANCH   2   3
ATOM      3  C   UNL     1     -44.155 -48.375  70.615  1.00  0.00     0.006 C 
BRANCH   3   4
ATOM      4  C   UNL     1     -43.818 -46.889  70.431  1.00  0.00     0.053 C 
BRANCH   4   5
ATOM      5  C   UNL     1     -43.067 -46.373  71.618  1.00  0.00     0.041 C 
ATOM      6  O   UNL     1     -43.455 -45.329  72.207  1.00  0.00    -0.550 OA
ATOM      7  O   UNL     1     -41.970 -47.070  72.104  1.00  0.00    -0.550 OA
ENDBRANCH   4   5
ENDBRANCH   3   4
ENDBRANCH   2   3
ENDBRANCH   1   2
BRANCH   1   8
ATOM      8  C   UNL     1     -48.024 -47.554  70.967  1.00  0.00     0.000 C 
BRANCH   8   9
ATOM      9  C   UNL     1     -48.489 -48.833  70.245  1.00  0.00    -0.000 C 
BRANCH   9  10
ATOM     10  C   UNL     1     -49.126 -48.549  68.875  1.00  0.00    -0.000 C 
BRANCH  10  11
ATOM     11  C   UNL     1     -48.105 -48.043  67.843  1.00  0.00    -0.000 C 
BRANCH  11  12
ATOM     12  C   UNL     1     -47.218 -49.167  67.288  1.00  0.00    -0.003 C 
ATOM     13  C   UNL     1     -45.809 -48.660  66.993  1.00  0.00     0.004 C 
ENDBRANCH  11  12
ENDBRANCH  10  11
ENDBRANCH   9  10
ENDBRANCH   8   9
ENDBRANCH   1   8
TORSDOF 9
ENDMDL
MODEL 8
REMARK VINA RESULT:    -3.130      5.830      7.585
REMARK INTER + INTRA:          -5.561
REMARK INTER:                  -4.965
REMARK INTRA:                  -0.596
REMARK UNBOUND:                -0.784
REMARK SMILES CCCCCCCCCCC(=O)[O-]
REMARK SMILES IDX 7 1 8 2 9 3 10 4 11 5 12 6 13 7 6 8 5 9 4 10 3 11 2 12 1 13
REMARK H PARENT
REMARK Flexibility Score: inf
ROOT
ATOM      1  C   UNL     1     -42.874 -45.516  69.529  1.00  0.00     0.000 C 
ENDROOT
BRANCH   1   2
ATOM      2  C   UNL     1     -42.661 -44.224  68.716  1.00  0.00     0.000 C 
BRANCH   2   3
ATOM      3  C   UNL     1     -43.419 -43.003  69.276  1.00  0.00     0.006 C 
BRANCH   3   4
ATOM      4  C   UNL     1     -42.554 -41.736  69.306  1.00  0.00     0.053 C 
BRANCH   4   5
ATOM      5  C   UNL     1     -42.953 -40.857  70.448  1.00  0.00     0.041 C 
ATOM      6  O   UNL     1     -43.445 -41.361  71.493  1.00  0.00    -0.550 OA
ATOM      7  O   UNL     1     -42.737 -39.487  70.381  1.00  0.00    -0.550 OA
ENDBRANCH   4   5
ENDBRANCH   3   4
ENDBRANCH   2   3
ENDBRANCH   1   2
BRANCH   1   8
ATOM      8  C   UNL     1     -43.229 -45.303  71.013  1.00  0.00     0.000 C 
BRANCH   8   9
ATOM      9  C   UNL     1     -44.270 -46.285  71.583  1.00  0.00    -0.000 C 
BRANCH   9  10
ATOM     10  C   UNL     1     -44.243 -47.656  70.886  1.00  0.00    -0.000 C 
BRANCH  10  11
ATOM     11  C   UNL     1     -45.636 -48.107  70.419  1.00  0.00    -0.000 C 
BRANCH  11  12
ATOM     12  C   UNL     1     -46.708 -47.028  70.625  1.00  0.00    -0.003 C 
ATOM     13  C   UNL     1     -48.043 -47.650  71.026  1.00  0.00     0.004 C 
ENDBRANCH  11  12
ENDBRANCH  10  11
ENDBRANCH   9  10
ENDBRANCH   8   9
ENDBRANCH   1   8
TORSDOF 9
ENDMDL
MODEL 9
REMARK VINA RESULT:    -3.021      4.072      6.261
REMARK INTER + INTRA:          -5.395
REMARK INTER:                  -4.365
REMARK INTRA:                  -1.030
REMARK UNBOUND:                -0.784
REMARK SMILES CCCCCCCCCCC(=O)[O-]
REMARK SMILES IDX 7 1 8 2 9 3 10 4 11 5 12 6 13 7 6 8 5 9 4 10 3 11 2 12 1 13
REMARK H PARENT
REMARK Flexibility Score: inf
ROOT
ATOM      1  C   UNL     1     -47.933 -48.480  70.842  1.00  0.00     0.000 C 
ENDROOT
BRANCH   1   2
ATOM      2  C   UNL     1     -47.068 -47.205  70.863  1.00  0.00     0.000 C 
BRANCH   2   3
ATOM      3  C   UNL     1     -45.550 -47.481  70.846  1.00  0.00     0.006 C 
BRANCH   3   4
ATOM      4  C   UNL     1     -44.755 -46.445  71.652  1.00  0.00     0.053 C 
BRANCH   4   5
ATOM      5  C   UNL     1     -43.458 -46.139  70.973  1.00  0.00     0.041 C 
ATOM      6  O   UNL     1     -43.428 -45.353  69.988  1.00  0.00    -0.550 OA
ATOM      7  O   UNL     1     -42.274 -46.680  71.457  1.00  0.00    -0.550 OA
ENDBRANCH   4   5
ENDBRANCH   3   4
ENDBRANCH   2   3
ENDBRANCH   1   2
BRANCH   1   8
ATOM      8  C   UNL     1     -47.180 -49.775  70.481  1.00  0.00     0.000 C 
BRANCH   8   9
ATOM      9  C   UNL     1     -47.380 -50.264  69.034  1.00  0.00    -0.000 C 
BRANCH   9  10
ATOM     10  C   UNL     1     -46.368 -49.653  68.050  1.00  0.00    -0.000 C 
BRANCH  10  11
ATOM     11  C   UNL     1     -47.016 -48.644  67.088  1.00  0.00    -0.000 C 
BRANCH  11  12
ATOM     12  C   UNL     1     -48.549 -48.641  67.178  1.00  0.00    -0.003 C 
ATOM     13  C   UNL     1     -49.076 -47.246  67.501  1.00  0.00     0.004 C 
ENDBRANCH  11  12
ENDBRANCH  10  11
ENDBRANCH   9  10
ENDBRANCH   8   9
ENDBRANCH   1   8
TORSDOF 9
ENDMDL
