MODEL 1
REMARK VINA RESULT:    -4.838      0.000      0.000
REMARK INTER + INTRA:          -6.115
REMARK INTER:                  -5.828
REMARK INTRA:                  -0.288
REMARK UNBOUND:                -0.288
REMARK SMILES O=c1c(O)c(-c2ccc(O)c(O)c2)oc2cc(O)cc(O)c12
REMARK SMILES IDX 5 1 3 2 2 3 1 4 22 5 20 6 19 7 17 8 16 9 15 10 14 11 6 12
REMARK SMILES IDX 7 13 8 14 9 15 13 16 11 17 10 18 12 20 4 22 21 24 18 26
REMARK H PARENT 10 19 12 21 4 23 21 25 18 27
REMARK Flexibility Score: inf
ROOT
ATOM      1  C   UNL     1     145.698 108.658 139.121  1.00  0.00     0.180 A 
ATOM      2  C   UNL     1     146.401 109.873 139.048  1.00  0.00     0.208 A 
ATOM      3  C   UNL     1     147.804 109.845 138.981  1.00  0.00     0.238 A 
ATOM      4  O   UNL     1     148.430 110.937 138.971  1.00  0.00    -0.285 OA
ATOM      5  C   UNL     1     148.484 108.603 138.973  1.00  0.00     0.111 A 
ATOM      6  C   UNL     1     149.900 108.456 138.868  1.00  0.00     0.134 A 
ATOM      7  C   UNL     1     150.474 107.185 139.001  1.00  0.00     0.093 A 
ATOM      8  C   UNL     1     149.681 106.051 139.170  1.00  0.00     0.123 A 
ATOM      9  C   UNL     1     148.291 106.177 139.214  1.00  0.00     0.094 A 
ATOM     10  C   UNL     1     147.692 107.435 139.120  1.00  0.00     0.146 A 
ATOM     11  O   UNL     1     146.367 107.513 139.178  1.00  0.00    -0.452 OA
ENDROOT
BRANCH   1  12
ATOM     12  C   UNL     1     144.219 108.606 139.168  1.00  0.00     0.025 A 
ATOM     13  C   UNL     1     143.558 108.833 140.386  1.00  0.00     0.016 A 
ATOM     14  C   UNL     1     142.164 108.767 140.458  1.00  0.00     0.051 A 
ATOM     15  C   UNL     1     141.413 108.458 139.317  1.00  0.00     0.157 A 
ATOM     16  C   UNL     1     143.461 108.276 138.030  1.00  0.00     0.062 A 
ATOM     17  C   UNL     1     142.062 108.208 138.102  1.00  0.00     0.158 A 
BRANCH  15  18
ATOM     18  O   UNL     1     140.022 108.394 139.383  1.00  0.00    -0.504 OA
ATOM     19  H   UNL     1     139.550 107.715 139.971  1.00  0.00     0.293 HD
ENDBRANCH  15  18
BRANCH  17  20
ATOM     20  O   UNL     1     141.312 107.888 136.972  1.00  0.00    -0.504 OA
ATOM     21  H   UNL     1     140.347 108.182 136.874  1.00  0.00     0.293 HD
ENDBRANCH  17  20
ENDBRANCH   1  12
BRANCH   2  22
ATOM     22  O   UNL     1     145.711 111.088 139.080  1.00  0.00    -0.502 OA
ATOM     23  H   UNL     1     145.361 111.492 139.940  1.00  0.00     0.293 HD
ENDBRANCH   2  22
BRANCH   6  24
ATOM     24  O   UNL     1     150.778 109.513 138.609  1.00  0.00    -0.507 OA
ATOM     25  H   UNL     1     150.692 110.439 138.998  1.00  0.00     0.293 HD
ENDBRANCH   6  24
BRANCH   8  26
ATOM     26  O   UNL     1     150.285 104.800 139.283  1.00  0.00    -0.508 OA
ATOM     27  H   UNL     1     149.970 104.120 139.965  1.00  0.00     0.293 HD
ENDBRANCH   8  26
TORSDOF 6
ENDMDL
MODEL 2
REMARK VINA RESULT:    -4.676      3.758      7.398
REMARK INTER + INTRA:          -5.920
REMARK INTER:                  -5.619
REMARK INTRA:                  -0.302
REMARK UNBOUND:                -0.288
REMARK SMILES O=c1c(O)c(-c2ccc(O)c(O)c2)oc2cc(O)cc(O)c12
REMARK SMILES IDX 5 1 3 2 2 3 1 4 22 5 20 6 19 7 17 8 16 9 15 10 14 11 6 12
REMARK SMILES IDX 7 13 8 14 9 15 13 16 11 17 10 18 12 20 4 22 21 24 18 26
REMARK H PARENT 10 19 12 21 4 23 21 25 18 27
REMARK Flexibility Score: inf
ROOT
ATOM      1  C   UNL     1     143.910 110.797 139.873  1.00  0.00     0.180 A 
ATOM      2  C   UNL     1     142.597 110.591 140.330  1.00  0.00     0.208 A 
ATOM      3  C   UNL     1     141.810 111.705 140.665  1.00  0.00     0.238 A 
ATOM      4  O   UNL     1     140.654 111.511 141.125  1.00  0.00    -0.285 OA
ATOM      5  C   UNL     1     142.340 113.010 140.525  1.00  0.00     0.111 A 
ATOM      6  C   UNL     1     141.618 114.211 140.798  1.00  0.00     0.134 A 
ATOM      7  C   UNL     1     142.284 115.443 140.749  1.00  0.00     0.093 A 
ATOM      8  C   UNL     1     143.625 115.522 140.376  1.00  0.00     0.123 A 
ATOM      9  C   UNL     1     144.324 114.359 140.049  1.00  0.00     0.094 A 
ATOM     10  C   UNL     1     143.697 113.113 140.123  1.00  0.00     0.146 A 
ATOM     11  O   UNL     1     144.401 112.029 139.815  1.00  0.00    -0.452 OA
ENDROOT
BRANCH   1  12
ATOM     12  C   UNL     1     144.792 109.675 139.477  1.00  0.00     0.025 A 
ATOM     13  C   UNL     1     145.816 109.263 140.343  1.00  0.00     0.016 A 
ATOM     14  C   UNL     1     146.673 108.220 139.979  1.00  0.00     0.051 A 
ATOM     15  C   UNL     1     146.527 107.586 138.739  1.00  0.00     0.157 A 
ATOM     16  C   UNL     1     144.661 109.049 138.223  1.00  0.00     0.062 A 
ATOM     17  C   UNL     1     145.522 108.004 137.858  1.00  0.00     0.158 A 
BRANCH  15  18
ATOM     18  O   UNL     1     147.378 106.545 138.373  1.00  0.00    -0.504 OA
ATOM     19  H   UNL     1     147.214 105.994 137.537  1.00  0.00     0.293 HD
ENDBRANCH  15  18
BRANCH  17  20
ATOM     20  O   UNL     1     145.388 107.380 136.619  1.00  0.00    -0.504 OA
ATOM     21  H   UNL     1     146.157 106.878 136.191  1.00  0.00     0.293 HD
ENDBRANCH  17  20
ENDBRANCH   1  12
BRANCH   2  22
ATOM     22  O   UNL     1     142.101 109.293 140.482  1.00  0.00    -0.502 OA
ATOM     23  H   UNL     1     142.581 108.589 141.029  1.00  0.00     0.293 HD
ENDBRANCH   2  22
BRANCH   6  24
ATOM     24  O   UNL     1     140.252 114.251 141.091  1.00  0.00    -0.507 OA
ATOM     25  H   UNL     1     139.535 113.792 140.552  1.00  0.00     0.293 HD
ENDBRANCH   6  24
BRANCH   8  26
ATOM     26  O   UNL     1     144.251 116.766 140.323  1.00  0.00    -0.508 OA
ATOM     27  H   UNL     1     144.697 117.169 141.138  1.00  0.00     0.293 HD
ENDBRANCH   8  26
TORSDOF 6
ENDMDL
MODEL 3
REMARK VINA RESULT:    -4.669      1.680      6.880
REMARK INTER + INTRA:          -5.912
REMARK INTER:                  -5.596
REMARK INTRA:                  -0.317
REMARK UNBOUND:                -0.288
REMARK SMILES O=c1c(O)c(-c2ccc(O)c(O)c2)oc2cc(O)cc(O)c12
REMARK SMILES IDX 5 1 3 2 2 3 1 4 22 5 20 6 19 7 17 8 16 9 15 10 14 11 6 12
REMARK SMILES IDX 7 13 8 14 9 15 13 16 11 17 10 18 12 20 4 22 21 24 18 26
REMARK H PARENT 10 19 12 21 4 23 21 25 18 27
REMARK Flexibility Score: inf
ROOT
ATOM      1  C   UNL     1     145.600 109.311 139.719  1.00  0.00     0.180 A 
ATOM      2  C   UNL     1     145.202 110.442 140.452  1.00  0.00     0.208 A 
ATOM      3  C   UNL     1     143.844 110.800 140.467  1.00  0.00     0.238 A 
ATOM      4  O   UNL     1     143.503 111.845 141.081  1.00  0.00    -0.285 OA
ATOM      5  C   UNL     1     142.901 110.015 139.761  1.00  0.00     0.111 A 
ATOM      6  C   UNL     1     141.495 110.264 139.740  1.00  0.00     0.134 A 
ATOM      7  C   UNL     1     140.672 109.500 138.903  1.00  0.00     0.093 A 
ATOM      8  C   UNL     1     141.193 108.457 138.137  1.00  0.00     0.123 A 
ATOM      9  C   UNL     1     142.556 108.168 138.197  1.00  0.00     0.094 A 
ATOM     10  C   UNL     1     143.408 108.935 138.995  1.00  0.00     0.146 A 
ATOM     11  O   UNL     1     144.702 108.633 139.014  1.00  0.00    -0.452 OA
ENDROOT
BRANCH   1  12
ATOM     12  C   UNL     1     147.009 108.855 139.677  1.00  0.00     0.025 A 
ATOM     13  C   UNL     1     147.459 107.912 140.614  1.00  0.00     0.016 A 
ATOM     14  C   UNL     1     148.789 107.484 140.605  1.00  0.00     0.051 A 
ATOM     15  C   UNL     1     149.692 108.006 139.669  1.00  0.00     0.157 A 
ATOM     16  C   UNL     1     147.924 109.392 138.752  1.00  0.00     0.062 A 
ATOM     17  C   UNL     1     149.260 108.963 138.744  1.00  0.00     0.158 A 
BRANCH  15  18
ATOM     18  O   UNL     1     151.019 107.580 139.656  1.00  0.00    -0.504 OA
ATOM     19  H   UNL     1     151.262 106.599 139.727  1.00  0.00     0.293 HD
ENDBRANCH  15  18
BRANCH  17  20
ATOM     20  O   UNL     1     150.164 109.491 137.824  1.00  0.00    -0.504 OA
ATOM     21  H   UNL     1     151.105 109.752 138.094  1.00  0.00     0.293 HD
ENDBRANCH  17  20
ENDBRANCH   1  12
BRANCH   2  22
ATOM     22  O   UNL     1     146.153 111.215 141.124  1.00  0.00    -0.502 OA
ATOM     23  H   UNL     1     147.006 111.535 140.680  1.00  0.00     0.293 HD
ENDBRANCH   2  22
BRANCH   6  24
ATOM     24  O   UNL     1     140.860 111.222 140.535  1.00  0.00    -0.507 OA
ATOM     25  H   UNL     1     141.161 111.494 141.458  1.00  0.00     0.293 HD
ENDBRANCH   6  24
BRANCH   8  26
ATOM     26  O   UNL     1     140.341 107.707 137.328  1.00  0.00    -0.508 OA
ATOM     27  H   UNL     1     140.615 107.418 136.397  1.00  0.00     0.293 HD
ENDBRANCH   8  26
TORSDOF 6
ENDMDL
MODEL 4
REMARK VINA RESULT:    -4.645      5.694      8.437
REMARK INTER + INTRA:          -5.883
REMARK INTER:                  -5.570
REMARK INTRA:                  -0.313
REMARK UNBOUND:                -0.288
REMARK SMILES O=c1c(O)c(-c2ccc(O)c(O)c2)oc2cc(O)cc(O)c12
REMARK SMILES IDX 5 1 3 2 2 3 1 4 22 5 20 6 19 7 17 8 16 9 15 10 14 11 6 12
REMARK SMILES IDX 7 13 8 14 9 15 13 16 11 17 10 18 12 20 4 22 21 24 18 26
REMARK H PARENT 10 19 12 21 4 23 21 25 18 27
REMARK Flexibility Score: inf
ROOT
ATOM      1  C   UNL     1     146.507 115.212 139.145  1.00  0.00     0.180 A 
ATOM      2  C   UNL     1     145.114 115.149 139.319  1.00  0.00     0.208 A 
ATOM      3  C   UNL     1     144.490 113.891 139.357  1.00  0.00     0.238 A 
ATOM      4  O   UNL     1     143.236 113.844 139.460  1.00  0.00    -0.285 OA
ATOM      5  C   UNL     1     145.267 112.714 139.236  1.00  0.00     0.111 A 
ATOM      6  C   UNL     1     144.743 111.388 139.300  1.00  0.00     0.134 A 
ATOM      7  C   UNL     1     145.585 110.300 139.036  1.00  0.00     0.093 A 
ATOM      8  C   UNL     1     146.942 110.486 138.775  1.00  0.00     0.123 A 
ATOM      9  C   UNL     1     147.476 111.775 138.770  1.00  0.00     0.094 A 
ATOM     10  C   UNL     1     146.654 112.882 138.993  1.00  0.00     0.146 A 
ATOM     11  O   UNL     1     147.200 114.093 138.968  1.00  0.00    -0.452 OA
ENDROOT
BRANCH   1  12
ATOM     12  C   UNL     1     147.241 116.499 139.120  1.00  0.00     0.025 A 
ATOM     13  C   UNL     1     147.603 117.111 140.330  1.00  0.00     0.016 A 
ATOM     14  C   UNL     1     148.276 118.336 140.330  1.00  0.00     0.051 A 
ATOM     15  C   UNL     1     148.583 118.972 139.121  1.00  0.00     0.157 A 
ATOM     16  C   UNL     1     147.533 117.151 137.909  1.00  0.00     0.062 A 
ATOM     17  C   UNL     1     148.208 118.381 137.908  1.00  0.00     0.158 A 
BRANCH  15  18
ATOM     18  O   UNL     1     149.256 120.192 139.116  1.00  0.00    -0.504 OA
ATOM     19  H   UNL     1     150.198 120.280 139.482  1.00  0.00     0.293 HD
ENDBRANCH  15  18
BRANCH  17  20
ATOM     20  O   UNL     1     148.502 119.024 136.707  1.00  0.00    -0.504 OA
ATOM     21  H   UNL     1     149.263 119.689 136.634  1.00  0.00     0.293 HD
ENDBRANCH  17  20
ENDBRANCH   1  12
BRANCH   2  22
ATOM     22  O   UNL     1     144.364 116.323 139.416  1.00  0.00    -0.502 OA
ATOM     23  H   UNL     1     143.892 116.599 140.268  1.00  0.00     0.293 HD
ENDBRANCH   2  22
BRANCH   6  24
ATOM     24  O   UNL     1     143.422 111.086 139.642  1.00  0.00    -0.507 OA
ATOM     25  H   UNL     1     143.111 110.199 140.006  1.00  0.00     0.293 HD
ENDBRANCH   6  24
BRANCH   8  26
ATOM     26  O   UNL     1     147.753 109.379 138.533  1.00  0.00    -0.508 OA
ATOM     27  H   UNL     1     147.479 108.448 138.823  1.00  0.00     0.293 HD
ENDBRANCH   8  26
TORSDOF 6
ENDMDL
MODEL 5
REMARK VINA RESULT:    -4.631      5.046      8.359
REMARK INTER + INTRA:          -5.866
REMARK INTER:                  -5.548
REMARK INTRA:                  -0.318
REMARK UNBOUND:                -0.288
REMARK SMILES O=c1c(O)c(-c2ccc(O)c(O)c2)oc2cc(O)cc(O)c12
REMARK SMILES IDX 5 1 3 2 2 3 1 4 22 5 20 6 19 7 17 8 16 9 15 10 14 11 6 12
REMARK SMILES IDX 7 13 8 14 9 15 13 16 11 17 10 18 12 20 4 22 21 24 18 26
REMARK H PARENT 10 19 12 21 4 23 21 25 18 27
REMARK Flexibility Score: inf
ROOT
ATOM      1  C   UNL     1     144.306 114.272 139.827  1.00  0.00     0.180 A 
ATOM      2  C   UNL     1     142.982 114.697 140.033  1.00  0.00     0.208 A 
ATOM      3  C   UNL     1     141.968 113.732 140.152  1.00  0.00     0.238 A 
ATOM      4  O   UNL     1     140.778 114.121 140.282  1.00  0.00    -0.285 OA
ATOM      5  C   UNL     1     142.293 112.356 140.080  1.00  0.00     0.111 A 
ATOM      6  C   UNL     1     141.351 111.294 140.228  1.00  0.00     0.134 A 
ATOM      7  C   UNL     1     141.762 109.972 140.008  1.00  0.00     0.093 A 
ATOM      8  C   UNL     1     143.090 109.671 139.710  1.00  0.00     0.123 A 
ATOM      9  C   UNL     1     144.031 110.698 139.622  1.00  0.00     0.094 A 
ATOM     10  C   UNL     1     143.645 112.029 139.801  1.00  0.00     0.146 A 
ATOM     11  O   UNL     1     144.569 112.977 139.698  1.00  0.00    -0.452 OA
ENDROOT
BRANCH   1  12
ATOM     12  C   UNL     1     145.432 115.228 139.716  1.00  0.00     0.025 A 
ATOM     13  C   UNL     1     146.046 115.709 140.883  1.00  0.00     0.016 A 
ATOM     14  C   UNL     1     147.097 116.628 140.802  1.00  0.00     0.051 A 
ATOM     15  C   UNL     1     147.536 117.089 139.555  1.00  0.00     0.157 A 
ATOM     16  C   UNL     1     145.863 115.709 138.467  1.00  0.00     0.062 A 
ATOM     17  C   UNL     1     146.917 116.632 138.386  1.00  0.00     0.158 A 
BRANCH  15  18
ATOM     18  O   UNL     1     148.584 118.003 139.470  1.00  0.00    -0.504 OA
ATOM     19  H   UNL     1     149.532 117.707 139.263  1.00  0.00     0.293 HD
ENDBRANCH  15  18
BRANCH  17  20
ATOM     20  O   UNL     1     147.347 117.104 137.147  1.00  0.00    -0.504 OA
ATOM     21  H   UNL     1     146.728 117.131 136.345  1.00  0.00     0.293 HD
ENDBRANCH  17  20
ENDBRANCH   1  12
BRANCH   2  22
ATOM     22  O   UNL     1     142.681 116.061 140.079  1.00  0.00    -0.502 OA
ATOM     23  H   UNL     1     142.587 116.625 139.243  1.00  0.00     0.293 HD
ENDBRANCH   2  22
BRANCH   6  24
ATOM     24  O   UNL     1     140.020 111.478 140.613  1.00  0.00    -0.507 OA
ATOM     25  H   UNL     1     139.604 111.090 141.445  1.00  0.00     0.293 HD
ENDBRANCH   6  24
BRANCH   8  26
ATOM     26  O   UNL     1     143.466 108.344 139.513  1.00  0.00    -0.508 OA
ATOM     27  H   UNL     1     144.016 107.842 140.200  1.00  0.00     0.293 HD
ENDBRANCH   8  26
TORSDOF 6
ENDMDL
MODEL 6
REMARK VINA RESULT:    -4.593      1.861      7.343
REMARK INTER + INTRA:          -5.821
REMARK INTER:                  -5.739
REMARK INTRA:                  -0.082
REMARK UNBOUND:                -0.288
REMARK SMILES O=c1c(O)c(-c2ccc(O)c(O)c2)oc2cc(O)cc(O)c12
REMARK SMILES IDX 5 1 3 2 2 3 1 4 22 5 20 6 19 7 17 8 16 9 15 10 14 11 6 12
REMARK SMILES IDX 7 13 8 14 9 15 13 16 11 17 10 18 12 20 4 22 21 24 18 26
REMARK H PARENT 10 19 12 21 4 23 21 25 18 27
REMARK Flexibility Score: inf
ROOT
ATOM      1  C   UNL     1     145.202 109.463 138.723  1.00  0.00     0.180 A 
ATOM      2  C   UNL     1     144.800 108.458 137.827  1.00  0.00     0.208 A 
ATOM      3  C   UNL     1     143.433 108.156 137.712  1.00  0.00     0.238 A 
ATOM      4  O   UNL     1     143.085 107.218 136.947  1.00  0.00    -0.285 OA
ATOM      5  C   UNL     1     142.486 108.871 138.483  1.00  0.00     0.111 A 
ATOM      6  C   UNL     1     141.074 108.674 138.418  1.00  0.00     0.134 A 
ATOM      7  C   UNL     1     140.240 109.347 139.320  1.00  0.00     0.093 A 
ATOM      8  C   UNL     1     140.761 110.255 140.241  1.00  0.00     0.123 A 
ATOM      9  C   UNL     1     142.134 110.499 140.274  1.00  0.00     0.094 A 
ATOM     10  C   UNL     1     142.995 109.817 139.410  1.00  0.00     0.146 A 
ATOM     11  O   UNL     1     144.297 110.071 139.481  1.00  0.00    -0.452 OA
ENDROOT
BRANCH   1  12
ATOM     12  C   UNL     1     146.622 109.856 138.881  1.00  0.00     0.025 A 
ATOM     13  C   UNL     1     147.010 111.174 138.592  1.00  0.00     0.016 A 
ATOM     14  C   UNL     1     148.347 111.561 138.714  1.00  0.00     0.051 A 
ATOM     15  C   UNL     1     149.317 110.631 139.111  1.00  0.00     0.157 A 
ATOM     16  C   UNL     1     147.602 108.921 139.260  1.00  0.00     0.062 A 
ATOM     17  C   UNL     1     148.945 109.309 139.381  1.00  0.00     0.158 A 
BRANCH  15  18
ATOM     18  O   UNL     1     150.652 111.013 139.236  1.00  0.00    -0.504 OA
ATOM     19  H   UNL     1     151.072 111.685 138.604  1.00  0.00     0.293 HD
ENDBRANCH  15  18
BRANCH  17  20
ATOM     20  O   UNL     1     149.914 108.384 139.764  1.00  0.00    -0.504 OA
ATOM     21  H   UNL     1     149.831 107.852 140.622  1.00  0.00     0.293 HD
ENDBRANCH  17  20
ENDBRANCH   1  12
BRANCH   2  22
ATOM     22  O   UNL     1     145.754 107.750 137.091  1.00  0.00    -0.502 OA
ATOM     23  H   UNL     1     146.519 107.253 137.530  1.00  0.00     0.293 HD
ENDBRANCH   2  22
BRANCH   6  24
ATOM     24  O   UNL     1     140.443 107.858 137.474  1.00  0.00    -0.507 OA
ATOM     25  H   UNL     1     140.901 107.135 136.942  1.00  0.00     0.293 HD
ENDBRANCH   6  24
BRANCH   8  26
ATOM     26  O   UNL     1     139.900 110.918 141.114  1.00  0.00    -0.508 OA
ATOM     27  H   UNL     1     140.248 111.412 141.927  1.00  0.00     0.293 HD
ENDBRANCH   8  26
TORSDOF 6
ENDMDL
MODEL 7
REMARK VINA RESULT:    -4.539      3.656      7.869
REMARK INTER + INTRA:          -5.756
REMARK INTER:                  -5.487
REMARK INTRA:                  -0.269
REMARK UNBOUND:                -0.288
REMARK SMILES O=c1c(O)c(-c2ccc(O)c(O)c2)oc2cc(O)cc(O)c12
REMARK SMILES IDX 5 1 3 2 2 3 1 4 22 5 20 6 19 7 17 8 16 9 15 10 14 11 6 12
REMARK SMILES IDX 7 13 8 14 9 15 13 16 11 17 10 18 12 20 4 22 21 24 18 26
REMARK H PARENT 10 19 12 21 4 23 21 25 18 27
REMARK Flexibility Score: inf
ROOT
ATOM      1  C   UNL     1     146.304 112.635 139.592  1.00  0.00     0.180 A 
ATOM      2  C   UNL     1     146.311 114.037 139.491  1.00  0.00     0.208 A 
ATOM      3  C   UNL     1     145.094 114.732 139.595  1.00  0.00     0.238 A 
ATOM      4  O   UNL     1     145.100 115.983 139.451  1.00  0.00    -0.285 OA
ATOM      5  C   UNL     1     143.891 114.019 139.813  1.00  0.00     0.111 A 
ATOM      6  C   UNL     1     142.609 114.624 139.974  1.00  0.00     0.134 A 
ATOM      7  C   UNL     1     141.468 113.814 140.054  1.00  0.00     0.093 A 
ATOM      8  C   UNL     1     141.571 112.424 140.045  1.00  0.00     0.123 A 
ATOM      9  C   UNL     1     142.826 111.822 139.948  1.00  0.00     0.094 A 
ATOM     10  C   UNL     1     143.978 112.603 139.831  1.00  0.00     0.146 A 
ATOM     11  O   UNL     1     145.152 111.990 139.730  1.00  0.00    -0.452 OA
ENDROOT
BRANCH   1  12
ATOM     12  C   UNL     1     147.549 111.835 139.517  1.00  0.00     0.025 A 
ATOM     13  C   UNL     1     148.130 111.350 140.700  1.00  0.00     0.016 A 
ATOM     14  C   UNL     1     149.315 110.611 140.654  1.00  0.00     0.051 A 
ATOM     15  C   UNL     1     149.943 110.359 139.428  1.00  0.00     0.157 A 
ATOM     16  C   UNL     1     148.194 111.598 138.290  1.00  0.00     0.062 A 
ATOM     17  C   UNL     1     149.384 110.857 138.245  1.00  0.00     0.158 A 
BRANCH  15  18
ATOM     18  O   UNL     1     151.124 109.621 139.378  1.00  0.00    -0.504 OA
ATOM     19  H   UNL     1     151.319 108.983 138.614  1.00  0.00     0.293 HD
ENDBRANCH  15  18
BRANCH  17  20
ATOM     20  O   UNL     1     150.020 110.617 137.027  1.00  0.00    -0.504 OA
ATOM     21  H   UNL     1     149.749 109.843 136.431  1.00  0.00     0.293 HD
ENDBRANCH  17  20
ENDBRANCH   1  12
BRANCH   2  22
ATOM     22  O   UNL     1     147.507 114.720 139.254  1.00  0.00    -0.502 OA
ATOM     23  H   UNL     1     148.008 115.208 139.986  1.00  0.00     0.293 HD
ENDBRANCH   2  22
BRANCH   6  24
ATOM     24  O   UNL     1     142.404 116.002 140.086  1.00  0.00    -0.507 OA
ATOM     25  H   UNL     1     142.910 116.608 140.714  1.00  0.00     0.293 HD
ENDBRANCH   6  24
BRANCH   8  26
ATOM     26  O   UNL     1     140.416 111.649 140.142  1.00  0.00    -0.508 OA
ATOM     27  H   UNL     1     140.243 110.875 139.512  1.00  0.00     0.293 HD
ENDBRANCH   8  26
TORSDOF 6
ENDMDL
MODEL 8
REMARK VINA RESULT:    -4.496      4.879      6.570
REMARK INTER + INTRA:          -5.704
REMARK INTER:                  -5.411
REMARK INTRA:                  -0.293
REMARK UNBOUND:                -0.288
REMARK SMILES O=c1c(O)c(-c2ccc(O)c(O)c2)oc2cc(O)cc(O)c12
REMARK SMILES IDX 5 1 3 2 2 3 1 4 22 5 20 6 19 7 17 8 16 9 15 10 14 11 6 12
REMARK SMILES IDX 7 13 8 14 9 15 13 16 11 17 10 18 12 20 4 22 21 24 18 26
REMARK H PARENT 10 19 12 21 4 23 21 25 18 27
REMARK Flexibility Score: inf
ROOT
ATOM      1  C   UNL     1     142.578 111.790 139.954  1.00  0.00     0.180 A 
ATOM      2  C   UNL     1     141.680 112.789 140.370  1.00  0.00     0.208 A 
ATOM      3  C   UNL     1     142.106 114.127 140.374  1.00  0.00     0.238 A 
ATOM      4  O   UNL     1     141.315 115.010 140.798  1.00  0.00    -0.285 OA
ATOM      5  C   UNL     1     143.416 114.452 139.948  1.00  0.00     0.111 A 
ATOM      6  C   UNL     1     143.939 115.778 139.875  1.00  0.00     0.134 A 
ATOM      7  C   UNL     1     145.291 115.971 139.564  1.00  0.00     0.093 A 
ATOM      8  C   UNL     1     146.121 114.892 139.263  1.00  0.00     0.123 A 
ATOM      9  C   UNL     1     145.605 113.596 139.274  1.00  0.00     0.094 A 
ATOM     10  C   UNL     1     144.270 113.369 139.615  1.00  0.00     0.146 A 
ATOM     11  O   UNL     1     143.821 112.119 139.624  1.00  0.00    -0.452 OA
ENDROOT
BRANCH   1  12
ATOM     12  C   UNL     1     142.195 110.360 139.899  1.00  0.00     0.025 A 
ATOM     13  C   UNL     1     142.678 109.478 140.878  1.00  0.00     0.016 A 
ATOM     14  C   UNL     1     142.347 108.120 140.832  1.00  0.00     0.051 A 
ATOM     15  C   UNL     1     141.542 107.625 139.798  1.00  0.00     0.157 A 
ATOM     16  C   UNL     1     141.404 109.855 138.851  1.00  0.00     0.062 A 
ATOM     17  C   UNL     1     141.073 108.492 138.805  1.00  0.00     0.158 A 
BRANCH  15  18
ATOM     18  O   UNL     1     141.208 106.273 139.750  1.00  0.00    -0.504 OA
ATOM     19  H   UNL     1     141.830 105.587 139.336  1.00  0.00     0.293 HD
ENDBRANCH  15  18
BRANCH  17  20
ATOM     20  O   UNL     1     140.283 107.993 137.770  1.00  0.00    -0.504 OA
ATOM     21  H   UNL     1     140.694 107.593 136.935  1.00  0.00     0.293 HD
ENDBRANCH  17  20
ENDBRANCH   1  12
BRANCH   2  22
ATOM     22  O   UNL     1     140.398 112.444 140.806  1.00  0.00    -0.502 OA
ATOM     23  H   UNL     1     140.238 111.754 141.531  1.00  0.00     0.293 HD
ENDBRANCH   2  22
BRANCH   6  24
ATOM     24  O   UNL     1     143.172 116.931 140.068  1.00  0.00    -0.507 OA
ATOM     25  H   UNL     1     142.264 116.950 140.506  1.00  0.00     0.293 HD
ENDBRANCH   6  24
BRANCH   8  26
ATOM     26  O   UNL     1     147.458 115.123 138.942  1.00  0.00    -0.508 OA
ATOM     27  H   UNL     1     147.822 116.062 138.835  1.00  0.00     0.293 HD
ENDBRANCH   8  26
TORSDOF 6
ENDMDL
MODEL 9
REMARK VINA RESULT:    -4.459      2.188      4.118
REMARK INTER + INTRA:          -5.659
REMARK INTER:                  -5.359
REMARK INTRA:                  -0.299
REMARK UNBOUND:                -0.288
REMARK SMILES O=c1c(O)c(-c2ccc(O)c(O)c2)oc2cc(O)cc(O)c12
REMARK SMILES IDX 5 1 3 2 2 3 1 4 22 5 20 6 19 7 17 8 16 9 15 10 14 11 6 12
REMARK SMILES IDX 7 13 8 14 9 15 13 16 11 17 10 18 12 20 4 22 21 24 18 26
REMARK H PARENT 10 19 12 21 4 23 21 25 18 27
REMARK Flexibility Score: inf
ROOT
ATOM      1  C   UNL     1     146.265 109.887 139.128  1.00  0.00     0.180 A 
ATOM      2  C   UNL     1     147.471 109.197 138.916  1.00  0.00     0.208 A 
ATOM      3  C   UNL     1     148.673 109.924 138.875  1.00  0.00     0.238 A 
ATOM      4  O   UNL     1     149.743 109.306 138.631  1.00  0.00    -0.285 OA
ATOM      5  C   UNL     1     148.654 111.327 139.061  1.00  0.00     0.111 A 
ATOM      6  C   UNL     1     149.816 112.156 139.078  1.00  0.00     0.134 A 
ATOM      7  C   UNL     1     149.669 113.548 139.140  1.00  0.00     0.093 A 
ATOM      8  C   UNL     1     148.409 114.135 139.250  1.00  0.00     0.123 A 
ATOM      9  C   UNL     1     147.270 113.329 139.295  1.00  0.00     0.094 A 
ATOM     10  C   UNL     1     147.382 111.940 139.199  1.00  0.00     0.146 A 
ATOM     11  O   UNL     1     146.273 111.210 139.234  1.00  0.00    -0.452 OA
ENDROOT
BRANCH   1  12
ATOM     12  C   UNL     1     144.962 109.188 139.210  1.00  0.00     0.025 A 
ATOM     13  C   UNL     1     144.439 108.845 140.467  1.00  0.00     0.016 A 
ATOM     14  C   UNL     1     143.221 108.166 140.566  1.00  0.00     0.051 A 
ATOM     15  C   UNL     1     142.517 107.808 139.409  1.00  0.00     0.157 A 
ATOM     16  C   UNL     1     144.262 108.807 138.050  1.00  0.00     0.062 A 
ATOM     17  C   UNL     1     143.040 108.125 138.150  1.00  0.00     0.158 A 
BRANCH  15  18
ATOM     18  O   UNL     1     141.302 107.133 139.503  1.00  0.00    -0.504 OA
ATOM     19  H   UNL     1     140.536 107.329 138.868  1.00  0.00     0.293 HD
ENDBRANCH  15  18
BRANCH  17  20
ATOM     20  O   UNL     1     142.344 107.754 137.000  1.00  0.00    -0.504 OA
ATOM     21  H   UNL     1     142.449 106.834 136.590  1.00  0.00     0.293 HD
ENDBRANCH  17  20
ENDBRANCH   1  12
BRANCH   2  22
ATOM     22  O   UNL     1     147.464 107.814 138.713  1.00  0.00    -0.502 OA
ATOM     23  H   UNL     1     146.736 107.346 138.188  1.00  0.00     0.293 HD
ENDBRANCH   2  22
BRANCH   6  24
ATOM     24  O   UNL     1     151.125 111.667 139.064  1.00  0.00    -0.507 OA
ATOM     25  H   UNL     1     151.917 112.133 139.479  1.00  0.00     0.293 HD
ENDBRANCH   6  24
BRANCH   8  26
ATOM     26  O   UNL     1     148.301 115.522 139.325  1.00  0.00    -0.508 OA
ATOM     27  H   UNL     1     147.630 116.033 138.763  1.00  0.00     0.293 HD
ENDBRANCH   8  26
TORSDOF 6
ENDMDL
