MODEL 1
REMARK VINA RESULT:    -5.405      0.000      0.000
REMARK INTER + INTRA:          -5.879
REMARK INTER:                  -5.879
REMARK INTRA:                   0.000
REMARK UNBOUND:                 0.000
REMARK SMILES Cc1cc(O)c2c(c1)C(=O)c1cc(O)cc(O)c1C2=O
REMARK SMILES IDX 1 1 2 2 8 3 7 4 6 5 4 6 3 7 19 8 20 9 18 10 11 11 9 12 10 13
REMARK SMILES IDX 12 14 13 15 15 16 16 17 5 18 17 20 14 22
REMARK H PARENT 5 19 17 21 14 23
REMARK Flexibility Score: inf
ROOT
ATOM      1  C   UNL     1       3.612  -4.491   7.002  1.00  0.00     0.044 C 
ATOM      2  C   UNL     1       4.704  -5.459   6.647  1.00  0.00    -0.047 A 
ATOM      3  C   UNL     1       5.903  -5.461   7.367  1.00  0.00     0.016 A 
ATOM      4  C   UNL     1       6.941  -6.344   7.025  1.00  0.00     0.038 A 
ATOM      5  C   UNL     1       6.776  -7.238   5.945  1.00  0.00     0.076 A 
ATOM      6  C   UNL     1       5.592  -7.173   5.167  1.00  0.00     0.127 A 
ATOM      7  C   UNL     1       4.564  -6.300   5.539  1.00  0.00     0.050 A 
ATOM      8  C   UNL     1       7.833  -8.256   5.707  1.00  0.00     0.201 C 
ATOM      9  O   UNL     1       7.529  -9.369   5.202  1.00  0.00    -0.288 OA
ATOM     10  C   UNL     1       9.204  -8.032   6.234  1.00  0.00     0.076 A 
ATOM     11  C   UNL     1       9.366  -7.134   7.314  1.00  0.00     0.041 A 
ATOM     12  C   UNL     1       8.212  -6.335   7.789  1.00  0.00     0.194 C 
ATOM     13  O   UNL     1       8.319  -5.628   8.828  1.00  0.00    -0.289 OA
ATOM     14  C   UNL     1      10.623  -6.999   7.928  1.00  0.00     0.059 A 
ATOM     15  C   UNL     1      11.718  -7.737   7.471  1.00  0.00     0.120 A 
ATOM     16  C   UNL     1      11.571  -8.593   6.381  1.00  0.00     0.093 A 
ATOM     17  C   UNL     1      10.337  -8.729   5.739  1.00  0.00     0.131 A 
ENDROOT
BRANCH   6  18
ATOM     18  O   UNL     1       5.410  -7.924   4.003  1.00  0.00    -0.507 OA
ATOM     19  H   UNL     1       6.164  -8.189   3.386  1.00  0.00     0.293 HD
ENDBRANCH   6  18
BRANCH  17  20
ATOM     20  O   UNL     1      10.289  -9.535   4.598  1.00  0.00    -0.507 OA
ATOM     21  H   UNL     1      10.643 -10.481   4.568  1.00  0.00     0.293 HD
ENDBRANCH  17  20
BRANCH  15  22
ATOM     22  O   UNL     1      12.963  -7.615   8.086  1.00  0.00    -0.508 OA
ATOM     23  H   UNL     1      13.330  -8.342   8.688  1.00  0.00     0.293 HD
ENDBRANCH  15  22
TORSDOF 3
ENDMDL
MODEL 2
REMARK VINA RESULT:    -5.343     13.580     15.572
REMARK INTER + INTRA:          -5.811
REMARK INTER:                  -5.811
REMARK INTRA:                   0.000
REMARK UNBOUND:                 0.000
REMARK SMILES Cc1cc(O)c2c(c1)C(=O)c1cc(O)cc(O)c1C2=O
REMARK SMILES IDX 1 1 2 2 8 3 7 4 6 5 4 6 3 7 19 8 20 9 18 10 11 11 9 12 10 13
REMARK SMILES IDX 12 14 13 15 15 16 16 17 5 18 17 20 14 22
REMARK H PARENT 5 19 17 21 14 23
REMARK Flexibility Score: inf
ROOT
ATOM      1  C   UNL     1      17.829   3.556   7.004  1.00  0.00     0.044 C 
ATOM      2  C   UNL     1      16.720   4.517   6.688  1.00  0.00    -0.047 A 
ATOM      3  C   UNL     1      15.531   4.488   7.423  1.00  0.00     0.016 A 
ATOM      4  C   UNL     1      14.478   5.364   7.116  1.00  0.00     0.038 A 
ATOM      5  C   UNL     1      14.616   6.286   6.055  1.00  0.00     0.076 A 
ATOM      6  C   UNL     1      15.790   6.254   5.259  1.00  0.00     0.127 A 
ATOM      7  C   UNL     1      16.834   5.386   5.597  1.00  0.00     0.050 A 
ATOM      8  C   UNL     1      13.543   7.295   5.855  1.00  0.00     0.201 C 
ATOM      9  O   UNL     1      13.826   8.423   5.372  1.00  0.00    -0.288 OA
ATOM     10  C   UNL     1      12.183   7.042   6.396  1.00  0.00     0.076 A 
ATOM     11  C   UNL     1      12.047   6.117   7.457  1.00  0.00     0.041 A 
ATOM     12  C   UNL     1      13.218   5.322   7.897  1.00  0.00     0.194 C 
ATOM     13  O   UNL     1      13.134   4.590   8.921  1.00  0.00    -0.289 OA
ATOM     14  C   UNL     1      10.801   5.952   8.085  1.00  0.00     0.059 A 
ATOM     15  C   UNL     1       9.690   6.685   7.659  1.00  0.00     0.120 A 
ATOM     16  C   UNL     1       9.811   7.568   6.588  1.00  0.00     0.093 A 
ATOM     17  C   UNL     1      11.035   7.735   5.932  1.00  0.00     0.131 A 
ENDROOT
BRANCH   6  18
ATOM     18  O   UNL     1      15.947   7.034   4.111  1.00  0.00    -0.507 OA
ATOM     19  H   UNL     1      16.777   7.574   3.912  1.00  0.00     0.293 HD
ENDBRANCH   6  18
BRANCH  17  20
ATOM     20  O   UNL     1      11.056   8.568   4.810  1.00  0.00    -0.507 OA
ATOM     21  H   UNL     1      11.458   8.299   3.923  1.00  0.00     0.293 HD
ENDBRANCH  17  20
BRANCH  15  22
ATOM     22  O   UNL     1       8.455   6.533   8.288  1.00  0.00    -0.508 OA
ATOM     23  H   UNL     1       7.878   7.332   8.523  1.00  0.00     0.293 HD
ENDBRANCH  15  22
TORSDOF 3
ENDMDL
MODEL 3
REMARK VINA RESULT:    -5.190     13.322     15.396
REMARK INTER + INTRA:          -5.645
REMARK INTER:                  -5.645
REMARK INTRA:                   0.000
REMARK UNBOUND:                 0.000
REMARK SMILES Cc1cc(O)c2c(c1)C(=O)c1cc(O)cc(O)c1C2=O
REMARK SMILES IDX 1 1 2 2 8 3 7 4 6 5 4 6 3 7 19 8 20 9 18 10 11 11 9 12 10 13
REMARK SMILES IDX 12 14 13 15 15 16 16 17 5 18 17 20 14 22
REMARK H PARENT 5 19 17 21 14 23
REMARK Flexibility Score: inf
ROOT
ATOM      1  C   UNL     1      19.684   5.694   3.953  1.00  0.00     0.044 C 
ATOM      2  C   UNL     1      18.509   5.244   4.771  1.00  0.00    -0.047 A 
ATOM      3  C   UNL     1      17.355   6.032   4.839  1.00  0.00     0.016 A 
ATOM      4  C   UNL     1      16.262   5.632   5.625  1.00  0.00     0.038 A 
ATOM      5  C   UNL     1      16.324   4.425   6.355  1.00  0.00     0.076 A 
ATOM      6  C   UNL     1      17.527   3.674   6.349  1.00  0.00     0.127 A 
ATOM      7  C   UNL     1      18.596   4.081   5.543  1.00  0.00     0.050 A 
ATOM      8  C   UNL     1      15.096   3.962   7.054  1.00  0.00     0.201 C 
ATOM      9  O   UNL     1      14.893   2.729   7.213  1.00  0.00    -0.288 OA
ATOM     10  C   UNL     1      14.030   4.937   7.395  1.00  0.00     0.076 A 
ATOM     11  C   UNL     1      13.972   6.146   6.664  1.00  0.00     0.041 A 
ATOM     12  C   UNL     1      15.045   6.476   5.697  1.00  0.00     0.194 C 
ATOM     13  O   UNL     1      14.934   7.489   4.953  1.00  0.00    -0.289 OA
ATOM     14  C   UNL     1      12.899   7.032   6.862  1.00  0.00     0.059 A 
ATOM     15  C   UNL     1      11.895   6.734   7.788  1.00  0.00     0.120 A 
ATOM     16  C   UNL     1      11.970   5.562   8.539  1.00  0.00     0.093 A 
ATOM     17  C   UNL     1      13.038   4.674   8.376  1.00  0.00     0.131 A 
ENDROOT
BRANCH   6  18
ATOM     18  O   UNL     1      17.718   2.546   7.151  1.00  0.00    -0.507 OA
ATOM     19  H   UNL     1      18.155   2.575   8.061  1.00  0.00     0.293 HD
ENDBRANCH   6  18
BRANCH  17  20
ATOM     20  O   UNL     1      13.092   3.568   9.228  1.00  0.00    -0.507 OA
ATOM     21  H   UNL     1      12.463   3.433  10.007  1.00  0.00     0.293 HD
ENDBRANCH  17  20
BRANCH  15  22
ATOM     22  O   UNL     1      10.822   7.604   7.977  1.00  0.00    -0.508 OA
ATOM     23  H   UNL     1      10.729   8.153   8.824  1.00  0.00     0.293 HD
ENDBRANCH  15  22
TORSDOF 3
ENDMDL
MODEL 4
REMARK VINA RESULT:    -5.150      1.990      5.815
REMARK INTER + INTRA:          -5.601
REMARK INTER:                  -5.601
REMARK INTRA:                   0.000
REMARK UNBOUND:                 0.000
REMARK SMILES Cc1cc(O)c2c(c1)C(=O)c1cc(O)cc(O)c1C2=O
REMARK SMILES IDX 1 1 2 2 8 3 7 4 6 5 4 6 3 7 19 8 20 9 18 10 11 11 9 12 10 13
REMARK SMILES IDX 12 14 13 15 15 16 16 17 5 18 17 20 14 22
REMARK H PARENT 5 19 17 21 14 23
REMARK Flexibility Score: inf
ROOT
ATOM      1  C   UNL     1      11.372  -7.273   8.481  1.00  0.00     0.044 C 
ATOM      2  C   UNL     1      10.046  -7.183   7.782  1.00  0.00    -0.047 A 
ATOM      3  C   UNL     1       9.345  -5.972   7.756  1.00  0.00     0.016 A 
ATOM      4  C   UNL     1       8.092  -5.885   7.129  1.00  0.00     0.038 A 
ATOM      5  C   UNL     1       7.529  -7.028   6.518  1.00  0.00     0.076 A 
ATOM      6  C   UNL     1       8.205  -8.271   6.621  1.00  0.00     0.127 A 
ATOM      7  C   UNL     1       9.462  -8.329   7.233  1.00  0.00     0.050 A 
ATOM      8  C   UNL     1       6.275  -6.863   5.738  1.00  0.00     0.201 C 
ATOM      9  O   UNL     1       6.044  -7.618   4.756  1.00  0.00    -0.288 OA
ATOM     10  C   UNL     1       5.392  -5.697   5.998  1.00  0.00     0.076 A 
ATOM     11  C   UNL     1       5.958  -4.556   6.612  1.00  0.00     0.041 A 
ATOM     12  C   UNL     1       7.352  -4.600   7.111  1.00  0.00     0.194 C 
ATOM     13  O   UNL     1       7.901  -3.550   7.544  1.00  0.00    -0.289 OA
ATOM     14  C   UNL     1       5.191  -3.386   6.751  1.00  0.00     0.059 A 
ATOM     15  C   UNL     1       3.869  -3.346   6.300  1.00  0.00     0.120 A 
ATOM     16  C   UNL     1       3.297  -4.482   5.731  1.00  0.00     0.093 A 
ATOM     17  C   UNL     1       4.030  -5.665   5.600  1.00  0.00     0.131 A 
ENDROOT
BRANCH   6  18
ATOM     18  O   UNL     1       7.654  -9.471   6.167  1.00  0.00    -0.507 OA
ATOM     19  H   UNL     1       6.760  -9.533   5.700  1.00  0.00     0.293 HD
ENDBRANCH   6  18
BRANCH  17  20
ATOM     20  O   UNL     1       3.361  -6.787   5.105  1.00  0.00    -0.507 OA
ATOM     21  H   UNL     1       2.826  -7.419   5.684  1.00  0.00     0.293 HD
ENDBRANCH  17  20
BRANCH  15  22
ATOM     22  O   UNL     1       3.111  -2.183   6.424  1.00  0.00    -0.508 OA
ATOM     23  H   UNL     1       2.695  -1.913   7.308  1.00  0.00     0.293 HD
ENDBRANCH  15  22
TORSDOF 3
ENDMDL
MODEL 5
REMARK VINA RESULT:    -5.116     12.923     14.156
REMARK INTER + INTRA:          -5.565
REMARK INTER:                  -5.565
REMARK INTRA:                   0.000
REMARK UNBOUND:                 0.000
REMARK SMILES Cc1cc(O)c2c(c1)C(=O)c1cc(O)cc(O)c1C2=O
REMARK SMILES IDX 1 1 2 2 8 3 7 4 6 5 4 6 3 7 19 8 20 9 18 10 11 11 9 12 10 13
REMARK SMILES IDX 12 14 13 15 15 16 16 17 5 18 17 20 14 22
REMARK H PARENT 5 19 17 21 14 23
REMARK Flexibility Score: inf
ROOT
ATOM      1  C   UNL     1      10.094   6.302   8.572  1.00  0.00     0.044 C 
ATOM      2  C   UNL     1      11.413   6.218   7.860  1.00  0.00    -0.047 A 
ATOM      3  C   UNL     1      12.112   5.007   7.814  1.00  0.00     0.016 A 
ATOM      4  C   UNL     1      13.359   4.925   7.174  1.00  0.00     0.038 A 
ATOM      5  C   UNL     1      13.918   6.074   6.571  1.00  0.00     0.076 A 
ATOM      6  C   UNL     1      13.244   7.316   6.694  1.00  0.00     0.127 A 
ATOM      7  C   UNL     1      11.993   7.369   7.318  1.00  0.00     0.050 A 
ATOM      8  C   UNL     1      15.165   5.916   5.777  1.00  0.00     0.201 C 
ATOM      9  O   UNL     1      15.388   6.681   4.802  1.00  0.00    -0.288 OA
ATOM     10  C   UNL     1      16.048   4.746   6.017  1.00  0.00     0.076 A 
ATOM     11  C   UNL     1      15.487   3.599   6.623  1.00  0.00     0.041 A 
ATOM     12  C   UNL     1      14.097   3.639   7.136  1.00  0.00     0.194 C 
ATOM     13  O   UNL     1      13.551   2.585   7.562  1.00  0.00    -0.289 OA
ATOM     14  C   UNL     1      16.252   2.426   6.743  1.00  0.00     0.059 A 
ATOM     15  C   UNL     1      17.570   2.390   6.279  1.00  0.00     0.120 A 
ATOM     16  C   UNL     1      18.139   3.531   5.717  1.00  0.00     0.093 A 
ATOM     17  C   UNL     1      17.406   4.717   5.606  1.00  0.00     0.131 A 
ENDROOT
BRANCH   6  18
ATOM     18  O   UNL     1      13.794   8.521   6.248  1.00  0.00    -0.507 OA
ATOM     19  H   UNL     1      13.416   9.055   5.478  1.00  0.00     0.293 HD
ENDBRANCH   6  18
BRANCH  17  20
ATOM     20  O   UNL     1      18.073   5.843   5.117  1.00  0.00    -0.507 OA
ATOM     21  H   UNL     1      17.822   6.310   4.256  1.00  0.00     0.293 HD
ENDBRANCH  17  20
BRANCH  15  22
ATOM     22  O   UNL     1      18.328   1.225   6.384  1.00  0.00    -0.508 OA
ATOM     23  H   UNL     1      17.968   0.398   6.845  1.00  0.00     0.293 HD
ENDBRANCH  15  22
TORSDOF 3
ENDMDL
MODEL 6
REMARK VINA RESULT:    -5.094      1.983      3.949
REMARK INTER + INTRA:          -5.541
REMARK INTER:                  -5.541
REMARK INTRA:                   0.000
REMARK UNBOUND:                 0.000
REMARK SMILES Cc1cc(O)c2c(c1)C(=O)c1cc(O)cc(O)c1C2=O
REMARK SMILES IDX 1 1 2 2 8 3 7 4 6 5 4 6 3 7 19 8 20 9 18 10 11 11 9 12 10 13
REMARK SMILES IDX 12 14 13 15 15 16 16 17 5 18 17 20 14 22
REMARK H PARENT 5 19 17 21 14 23
REMARK Flexibility Score: inf
ROOT
ATOM      1  C   UNL     1       1.647  -6.060   3.961  1.00  0.00     0.044 C 
ATOM      2  C   UNL     1       2.872  -5.683   4.742  1.00  0.00    -0.047 A 
ATOM      3  C   UNL     1       3.959  -6.561   4.814  1.00  0.00     0.016 A 
ATOM      4  C   UNL     1       5.098  -6.229   5.566  1.00  0.00     0.038 A 
ATOM      5  C   UNL     1       5.151  -4.998   6.257  1.00  0.00     0.076 A 
ATOM      6  C   UNL     1       4.013  -4.151   6.249  1.00  0.00     0.127 A 
ATOM      7  C   UNL     1       2.898  -4.493   5.477  1.00  0.00     0.050 A 
ATOM      8  C   UNL     1       6.427  -4.617   6.917  1.00  0.00     0.201 C 
ATOM      9  O   UNL     1       6.734  -3.400   7.031  1.00  0.00    -0.288 OA
ATOM     10  C   UNL     1       7.417  -5.666   7.270  1.00  0.00     0.076 A 
ATOM     11  C   UNL     1       7.360  -6.898   6.578  1.00  0.00     0.041 A 
ATOM     12  C   UNL     1       6.243  -7.168   5.642  1.00  0.00     0.194 C 
ATOM     13  O   UNL     1       6.254  -8.209   4.931  1.00  0.00    -0.289 OA
ATOM     14  C   UNL     1       8.361  -7.862   6.785  1.00  0.00     0.059 A 
ATOM     15  C   UNL     1       9.405  -7.619   7.681  1.00  0.00     0.120 A 
ATOM     16  C   UNL     1       9.442  -6.423   8.395  1.00  0.00     0.093 A 
ATOM     17  C   UNL     1       8.448  -5.455   8.223  1.00  0.00     0.131 A 
ENDROOT
BRANCH   6  18
ATOM     18  O   UNL     1       3.933  -2.986   7.016  1.00  0.00    -0.507 OA
ATOM     19  H   UNL     1       4.737  -2.526   7.418  1.00  0.00     0.293 HD
ENDBRANCH   6  18
BRANCH  17  20
ATOM     20  O   UNL     1       8.503  -4.322   9.039  1.00  0.00    -0.507 OA
ATOM     21  H   UNL     1       7.791  -4.088   9.718  1.00  0.00     0.293 HD
ENDBRANCH  17  20
BRANCH  15  22
ATOM     22  O   UNL     1      10.406  -8.569   7.880  1.00  0.00    -0.508 OA
ATOM     23  H   UNL     1      11.386  -8.310   7.899  1.00  0.00     0.293 HD
ENDBRANCH  15  22
TORSDOF 3
ENDMDL
MODEL 7
REMARK VINA RESULT:    -5.064     12.859     14.776
REMARK INTER + INTRA:          -5.508
REMARK INTER:                  -5.508
REMARK INTRA:                   0.000
REMARK UNBOUND:                 0.000
REMARK SMILES Cc1cc(O)c2c(c1)C(=O)c1cc(O)cc(O)c1C2=O
REMARK SMILES IDX 1 1 2 2 8 3 7 4 6 5 4 6 3 7 19 8 20 9 18 10 11 11 9 12 10 13
REMARK SMILES IDX 12 14 13 15 15 16 16 17 5 18 17 20 14 22
REMARK H PARENT 5 19 17 21 14 23
REMARK Flexibility Score: inf
ROOT
ATOM      1  C   UNL     1      17.452   3.990   7.289  1.00  0.00     0.044 C 
ATOM      2  C   UNL     1      15.987   4.157   7.008  1.00  0.00    -0.047 A 
ATOM      3  C   UNL     1      15.442   5.436   6.850  1.00  0.00     0.016 A 
ATOM      4  C   UNL     1      14.067   5.604   6.615  1.00  0.00     0.038 A 
ATOM      5  C   UNL     1      13.224   4.474   6.538  1.00  0.00     0.076 A 
ATOM      6  C   UNL     1      13.767   3.186   6.783  1.00  0.00     0.127 A 
ATOM      7  C   UNL     1      15.142   3.043   6.995  1.00  0.00     0.050 A 
ATOM      8  C   UNL     1      11.806   4.680   6.141  1.00  0.00     0.201 C 
ATOM      9  O   UNL     1      11.191   3.773   5.519  1.00  0.00    -0.288 OA
ATOM     10  C   UNL     1      11.180   6.017   6.310  1.00  0.00     0.076 A 
ATOM     11  C   UNL     1      12.028   7.146   6.389  1.00  0.00     0.041 A 
ATOM     12  C   UNL     1      13.497   6.963   6.454  1.00  0.00     0.194 C 
ATOM     13  O   UNL     1      14.260   7.966   6.399  1.00  0.00    -0.289 OA
ATOM     14  C   UNL     1      11.472   8.436   6.412  1.00  0.00     0.059 A 
ATOM     15  C   UNL     1      10.086   8.612   6.371  1.00  0.00     0.120 A 
ATOM     16  C   UNL     1       9.247   7.500   6.333  1.00  0.00     0.093 A 
ATOM     17  C   UNL     1       9.774   6.205   6.331  1.00  0.00     0.131 A 
ENDROOT
BRANCH   6  18
ATOM     18  O   UNL     1      12.979   2.036   6.861  1.00  0.00    -0.507 OA
ATOM     19  H   UNL     1      13.069   1.346   7.594  1.00  0.00     0.293 HD
ENDBRANCH   6  18
BRANCH  17  20
ATOM     20  O   UNL     1       8.869   5.141   6.384  1.00  0.00    -0.507 OA
ATOM     21  H   UNL     1       9.098   4.232   6.760  1.00  0.00     0.293 HD
ENDBRANCH  17  20
BRANCH  15  22
ATOM     22  O   UNL     1       9.532   9.891   6.381  1.00  0.00    -0.508 OA
ATOM     23  H   UNL     1       9.802  10.591   5.699  1.00  0.00     0.293 HD
ENDBRANCH  15  22
TORSDOF 3
ENDMDL
MODEL 8
REMARK VINA RESULT:    -5.048     12.987     14.138
REMARK INTER + INTRA:          -5.490
REMARK INTER:                  -5.490
REMARK INTRA:                   0.000
REMARK UNBOUND:                 0.000
REMARK SMILES Cc1cc(O)c2c(c1)C(=O)c1cc(O)cc(O)c1C2=O
REMARK SMILES IDX 1 1 2 2 8 3 7 4 6 5 4 6 3 7 19 8 20 9 18 10 11 11 9 12 10 13
REMARK SMILES IDX 12 14 13 15 15 16 16 17 5 18 17 20 14 22
REMARK H PARENT 5 19 17 21 14 23
REMARK Flexibility Score: inf
ROOT
ATOM      1  C   UNL     1      12.833  10.051   7.784  1.00  0.00     0.044 C 
ATOM      2  C   UNL     1      12.986   8.565   7.644  1.00  0.00    -0.047 A 
ATOM      3  C   UNL     1      14.235   8.010   7.345  1.00  0.00     0.016 A 
ATOM      4  C   UNL     1      14.382   6.623   7.184  1.00  0.00     0.038 A 
ATOM      5  C   UNL     1      13.261   5.775   7.325  1.00  0.00     0.076 A 
ATOM      6  C   UNL     1      11.982   6.350   7.545  1.00  0.00     0.127 A 
ATOM      7  C   UNL     1      11.864   7.733   7.721  1.00  0.00     0.050 A 
ATOM      8  C   UNL     1      13.482   4.306   7.296  1.00  0.00     0.201 C 
ATOM      9  O   UNL     1      12.719   3.544   7.949  1.00  0.00    -0.288 OA
ATOM     10  C   UNL     1      14.704   3.756   6.656  1.00  0.00     0.076 A 
ATOM     11  C   UNL     1      15.824   4.608   6.514  1.00  0.00     0.041 A 
ATOM     12  C   UNL     1      15.708   6.044   6.861  1.00  0.00     0.194 C 
ATOM     13  O   UNL     1      16.734   6.779   6.856  1.00  0.00    -0.289 OA
ATOM     14  C   UNL     1      17.041   4.089   6.039  1.00  0.00     0.059 A 
ATOM     15  C   UNL     1      17.149   2.739   5.692  1.00  0.00     0.120 A 
ATOM     16  C   UNL     1      16.036   1.906   5.793  1.00  0.00     0.093 A 
ATOM     17  C   UNL     1      14.808   2.403   6.242  1.00  0.00     0.131 A 
ENDROOT
BRANCH   6  18
ATOM     18  O   UNL     1      10.807   5.595   7.558  1.00  0.00    -0.507 OA
ATOM     19  H   UNL     1       9.901   5.978   7.787  1.00  0.00     0.293 HD
ENDBRANCH   6  18
BRANCH  17  20
ATOM     20  O   UNL     1      13.717   1.530   6.229  1.00  0.00    -0.507 OA
ATOM     21  H   UNL     1      13.457   0.974   5.427  1.00  0.00     0.293 HD
ENDBRANCH  17  20
BRANCH  15  22
ATOM     22  O   UNL     1      18.357   2.219   5.233  1.00  0.00    -0.508 OA
ATOM     23  H   UNL     1      18.409   1.308   4.791  1.00  0.00     0.293 HD
ENDBRANCH  15  22
TORSDOF 3
ENDMDL
MODEL 9
REMARK VINA RESULT:    -4.749     13.595     14.700
REMARK INTER + INTRA:          -5.165
REMARK INTER:                  -5.165
REMARK INTRA:                   0.000
REMARK UNBOUND:                 0.000
REMARK SMILES Cc1cc(O)c2c(c1)C(=O)c1cc(O)cc(O)c1C2=O
REMARK SMILES IDX 1 1 2 2 8 3 7 4 6 5 4 6 3 7 19 8 20 9 18 10 11 11 9 12 10 13
REMARK SMILES IDX 12 14 13 15 15 16 16 17 5 18 17 20 14 22
REMARK H PARENT 5 19 17 21 14 23
REMARK Flexibility Score: inf
ROOT
ATOM      1  C   UNL     1       9.253  10.104   4.851  1.00  0.00     0.044 C 
ATOM      2  C   UNL     1       9.966   8.992   5.561  1.00  0.00    -0.047 A 
ATOM      3  C   UNL     1      11.356   8.868   5.459  1.00  0.00     0.016 A 
ATOM      4  C   UNL     1      12.030   7.814   6.098  1.00  0.00     0.038 A 
ATOM      5  C   UNL     1      11.301   6.867   6.850  1.00  0.00     0.076 A 
ATOM      6  C   UNL     1       9.885   6.949   6.881  1.00  0.00     0.127 A 
ATOM      7  C   UNL     1       9.238   8.019   6.254  1.00  0.00     0.050 A 
ATOM      8  C   UNL     1      12.060   5.856   7.632  1.00  0.00     0.201 C 
ATOM      9  O   UNL     1      11.575   5.397   8.701  1.00  0.00    -0.288 OA
ATOM     10  C   UNL     1      13.458   5.529   7.254  1.00  0.00     0.076 A 
ATOM     11  C   UNL     1      14.185   6.478   6.498  1.00  0.00     0.041 A 
ATOM     12  C   UNL     1      13.502   7.687   5.979  1.00  0.00     0.194 C 
ATOM     13  O   UNL     1      14.171   8.595   5.414  1.00  0.00    -0.289 OA
ATOM     14  C   UNL     1      15.550   6.268   6.238  1.00  0.00     0.059 A 
ATOM     15  C   UNL     1      16.192   5.119   6.709  1.00  0.00     0.120 A 
ATOM     16  C   UNL     1      15.470   4.163   7.420  1.00  0.00     0.093 A 
ATOM     17  C   UNL     1      14.106   4.338   7.674  1.00  0.00     0.131 A 
ENDROOT
BRANCH   6  18
ATOM     18  O   UNL     1       9.085   5.976   7.485  1.00  0.00    -0.507 OA
ATOM     19  H   UNL     1       8.949   5.907   8.484  1.00  0.00     0.293 HD
ENDBRANCH   6  18
BRANCH  17  20
ATOM     20  O   UNL     1      13.430   3.295   8.313  1.00  0.00    -0.507 OA
ATOM     21  H   UNL     1      12.522   3.399   8.743  1.00  0.00     0.293 HD
ENDBRANCH  17  20
BRANCH  15  22
ATOM     22  O   UNL     1      17.549   4.914   6.464  1.00  0.00    -0.508 OA
ATOM     23  H   UNL     1      18.090   5.561   5.903  1.00  0.00     0.293 HD
ENDBRANCH  15  22
TORSDOF 3
ENDMDL
