MODEL 1
REMARK VINA RESULT:    -4.600      0.000      0.000
REMARK INTER + INTRA:         -15.407
REMARK INTER:                 -11.591
REMARK INTRA:                  -3.816
REMARK UNBOUND:                -3.816
REMARK SMILES CCCCCCCCCCCCCCCCCCCCCCCCCCCC(=O)[O-]
REMARK SMILES IDX 15 1 16 2 17 3 18 4 19 5 20 6 21 7 22 8 23 9 24 10 25 11
REMARK SMILES IDX 26 12 27 13 28 14 29 15 30 16 14 17 13 18 12 19 11 20 10 21
REMARK SMILES IDX 9 22 8 23 7 24 6 25 5 26 4 27 3 28 2 29 1 30
REMARK H PARENT
REMARK Flexibility Score: inf
ROOT
ATOM      1  C   UNL     1       9.707  -4.103  -0.248  1.00  0.00     0.000 C 
ENDROOT
BRANCH   1   2
ATOM      2  C   UNL     1       8.953  -5.111  -1.134  1.00  0.00     0.000 C 
BRANCH   2   3
ATOM      3  C   UNL     1       7.623  -4.596  -1.722  1.00  0.00     0.000 C 
BRANCH   3   4
ATOM      4  C   UNL     1       7.483  -4.728  -3.249  1.00  0.00     0.000 C 
BRANCH   4   5
ATOM      5  C   UNL     1       6.036  -4.800  -3.771  1.00  0.00     0.000 C 
BRANCH   5   6
ATOM      6  C   UNL     1       5.922  -5.228  -5.250  1.00  0.00     0.000 C 
BRANCH   6   7
ATOM      7  C   UNL     1       5.189  -6.569  -5.425  1.00  0.00     0.000 C 
BRANCH   7   8
ATOM      8  C   UNL     1       5.718  -7.669  -4.488  1.00  0.00     0.000 C 
BRANCH   8   9
ATOM      9  C   UNL     1       7.035  -8.312  -4.970  1.00  0.00     0.000 C 
BRANCH   9  10
ATOM     10  C   UNL     1       8.173  -8.140  -3.950  1.00  0.00     0.000 C 
BRANCH  10  11
ATOM     11  C   UNL     1       9.454  -7.567  -4.579  1.00  0.00     0.000 C 
BRANCH  11  12
ATOM     12  C   UNL     1       9.205  -6.819  -5.906  1.00  0.00     0.006 C 
BRANCH  12  13
ATOM     13  C   UNL     1      10.421  -5.991  -6.344  1.00  0.00     0.053 C 
BRANCH  13  14
ATOM     14  C   UNL     1      11.294  -6.786  -7.265  1.00  0.00     0.041 C 
ATOM     15  O   UNL     1      12.251  -7.464  -6.806  1.00  0.00    -0.550 OA
ATOM     16  O   UNL     1      11.031  -6.805  -8.630  1.00  0.00    -0.550 OA
ENDBRANCH  13  14
ENDBRANCH  12  13
ENDBRANCH  11  12
ENDBRANCH  10  11
ENDBRANCH   9  10
ENDBRANCH   8   9
ENDBRANCH   7   8
ENDBRANCH   6   7
ENDBRANCH   5   6
ENDBRANCH   4   5
ENDBRANCH   3   4
ENDBRANCH   2   3
ENDBRANCH   1   2
BRANCH   1  17
ATOM     17  C   UNL     1      11.231  -4.308  -0.272  1.00  0.00     0.000 C 
BRANCH  17  18
ATOM     18  C   UNL     1      11.998  -3.128   0.348  1.00  0.00     0.000 C 
BRANCH  18  19
ATOM     19  C   UNL     1      11.082  -1.934   0.671  1.00  0.00     0.000 C 
BRANCH  19  20
ATOM     20  C   UNL     1      11.616  -0.607   0.109  1.00  0.00     0.000 C 
BRANCH  20  21
ATOM     21  C   UNL     1      11.273   0.600   1.000  1.00  0.00     0.000 C 
BRANCH  21  22
ATOM     22  C   UNL     1      10.326   0.219   2.159  1.00  0.00    -0.000 C 
BRANCH  22  23
ATOM     23  C   UNL     1      10.925   0.475   3.552  1.00  0.00    -0.000 C 
BRANCH  23  24
ATOM     24  C   UNL     1      12.441   0.239   3.602  1.00  0.00    -0.000 C 
BRANCH  24  25
ATOM     25  C   UNL     1      12.805  -1.229   3.881  1.00  0.00    -0.000 C 
BRANCH  25  26
ATOM     26  C   UNL     1      14.027  -1.721   3.075  1.00  0.00    -0.000 C 
BRANCH  26  27
ATOM     27  C   UNL     1      14.665  -0.599   2.242  1.00  0.00    -0.000 C 
BRANCH  27  28
ATOM     28  C   UNL     1      15.126  -1.124   0.874  1.00  0.00    -0.000 C 
BRANCH  28  29
ATOM     29  C   UNL     1      15.298  -0.002  -0.161  1.00  0.00    -0.003 C 
ATOM     30  C   UNL     1      15.114  -0.492  -1.597  1.00  0.00     0.004 C 
ENDBRANCH  28  29
ENDBRANCH  27  28
ENDBRANCH  26  27
ENDBRANCH  25  26
ENDBRANCH  24  25
ENDBRANCH  23  24
ENDBRANCH  22  23
ENDBRANCH  21  22
ENDBRANCH  20  21
ENDBRANCH  19  20
ENDBRANCH  18  19
ENDBRANCH  17  18
ENDBRANCH   1  17
TORSDOF 26
ENDMDL
MODEL 2
REMARK VINA RESULT:    -4.577      1.396      2.284
REMARK INTER + INTRA:         -15.351
REMARK INTER:                 -12.469
REMARK INTRA:                  -2.882
REMARK UNBOUND:                -3.816
REMARK SMILES CCCCCCCCCCCCCCCCCCCCCCCCCCCC(=O)[O-]
REMARK SMILES IDX 15 1 16 2 17 3 18 4 19 5 20 6 21 7 22 8 23 9 24 10 25 11
REMARK SMILES IDX 26 12 27 13 28 14 29 15 30 16 14 17 13 18 12 19 11 20 10 21
REMARK SMILES IDX 9 22 8 23 7 24 6 25 5 26 4 27 3 28 2 29 1 30
REMARK H PARENT
REMARK Flexibility Score: inf
ROOT
ATOM      1  C   UNL     1      11.563  -3.603   0.036  1.00  0.00     0.000 C 
ENDROOT
BRANCH   1   2
ATOM      2  C   UNL     1      10.554  -4.665  -0.436  1.00  0.00     0.000 C 
BRANCH   2   3
ATOM      3  C   UNL     1       9.070  -4.269  -0.286  1.00  0.00     0.000 C 
BRANCH   3   4
ATOM      4  C   UNL     1       8.142  -4.751  -1.415  1.00  0.00     0.000 C 
BRANCH   4   5
ATOM      5  C   UNL     1       6.811  -3.988  -1.540  1.00  0.00     0.000 C 
BRANCH   5   6
ATOM      6  C   UNL     1       6.142  -4.113  -2.926  1.00  0.00     0.000 C 
BRANCH   6   7
ATOM      7  C   UNL     1       7.161  -4.303  -4.062  1.00  0.00     0.000 C 
BRANCH   7   8
ATOM      8  C   UNL     1       7.106  -5.707  -4.690  1.00  0.00     0.000 C 
BRANCH   8   9
ATOM      9  C   UNL     1       7.758  -5.787  -6.085  1.00  0.00     0.000 C 
BRANCH   9  10
ATOM     10  C   UNL     1       8.717  -4.613  -6.347  1.00  0.00     0.000 C 
BRANCH  10  11
ATOM     11  C   UNL     1      10.140  -5.075  -6.699  1.00  0.00     0.000 C 
BRANCH  11  12
ATOM     12  C   UNL     1      10.299  -6.611  -6.725  1.00  0.00     0.006 C 
BRANCH  12  13
ATOM     13  C   UNL     1      10.685  -7.132  -8.117  1.00  0.00     0.053 C 
BRANCH  13  14
ATOM     14  C   UNL     1      11.955  -7.922  -8.050  1.00  0.00     0.041 C 
ATOM     15  O   UNL     1      13.024  -7.374  -7.670  1.00  0.00    -0.550 OA
ATOM     16  O   UNL     1      11.952  -9.274  -8.373  1.00  0.00    -0.550 OA
ENDBRANCH  13  14
ENDBRANCH  12  13
ENDBRANCH  11  12
ENDBRANCH  10  11
ENDBRANCH   9  10
ENDBRANCH   8   9
ENDBRANCH   7   8
ENDBRANCH   6   7
ENDBRANCH   5   6
ENDBRANCH   4   5
ENDBRANCH   3   4
ENDBRANCH   2   3
ENDBRANCH   1   2
BRANCH   1  17
ATOM     17  C   UNL     1      10.887  -2.312   0.528  1.00  0.00     0.000 C 
BRANCH  17  18
ATOM     18  C   UNL     1      11.669  -1.048   0.138  1.00  0.00     0.000 C 
BRANCH  18  19
ATOM     19  C   UNL     1      11.082   0.228   0.768  1.00  0.00     0.000 C 
BRANCH  19  20
ATOM     20  C   UNL     1      11.834   0.664   2.036  1.00  0.00     0.000 C 
BRANCH  20  21
ATOM     21  C   UNL     1      11.125   0.229   3.331  1.00  0.00     0.000 C 
BRANCH  21  22
ATOM     22  C   UNL     1      12.123  -0.218   4.421  1.00  0.00    -0.000 C 
BRANCH  22  23
ATOM     23  C   UNL     1      13.596  -0.004   4.031  1.00  0.00    -0.000 C 
BRANCH  23  24
ATOM     24  C   UNL     1      14.390  -1.316   3.956  1.00  0.00    -0.000 C 
BRANCH  24  25
ATOM     25  C   UNL     1      13.737  -2.354   3.027  1.00  0.00    -0.000 C 
BRANCH  25  26
ATOM     26  C   UNL     1      14.595  -2.693   1.789  1.00  0.00    -0.000 C 
BRANCH  26  27
ATOM     27  C   UNL     1      15.666  -1.626   1.513  1.00  0.00    -0.000 C 
BRANCH  27  28
ATOM     28  C   UNL     1      15.096  -0.486   0.655  1.00  0.00    -0.000 C 
BRANCH  28  29
ATOM     29  C   UNL     1      15.877  -0.285  -0.652  1.00  0.00    -0.003 C 
ATOM     30  C   UNL     1      15.010  -0.495  -1.894  1.00  0.00     0.004 C 
ENDBRANCH  28  29
ENDBRANCH  27  28
ENDBRANCH  26  27
ENDBRANCH  25  26
ENDBRANCH  24  25
ENDBRANCH  23  24
ENDBRANCH  22  23
ENDBRANCH  21  22
ENDBRANCH  20  21
ENDBRANCH  19  20
ENDBRANCH  18  19
ENDBRANCH  17  18
ENDBRANCH   1  17
TORSDOF 26
ENDMDL
MODEL 3
REMARK VINA RESULT:    -4.556      3.645      5.447
REMARK INTER + INTRA:         -15.296
REMARK INTER:                 -11.084
REMARK INTRA:                  -4.212
REMARK UNBOUND:                -3.816
REMARK SMILES CCCCCCCCCCCCCCCCCCCCCCCCCCCC(=O)[O-]
REMARK SMILES IDX 15 1 16 2 17 3 18 4 19 5 20 6 21 7 22 8 23 9 24 10 25 11
REMARK SMILES IDX 26 12 27 13 28 14 29 15 30 16 14 17 13 18 12 19 11 20 10 21
REMARK SMILES IDX 9 22 8 23 7 24 6 25 5 26 4 27 3 28 2 29 1 30
REMARK H PARENT
REMARK Flexibility Score: inf
ROOT
ATOM      1  C   UNL     1      13.345  -3.429   1.795  1.00  0.00     0.000 C 
ENDROOT
BRANCH   1   2
ATOM      2  C   UNL     1      14.824  -3.813   1.609  1.00  0.00     0.000 C 
BRANCH   2   3
ATOM      3  C   UNL     1      15.118  -5.326   1.670  1.00  0.00     0.000 C 
BRANCH   3   4
ATOM      4  C   UNL     1      13.970  -6.239   1.203  1.00  0.00     0.000 C 
BRANCH   4   5
ATOM      5  C   UNL     1      14.251  -7.749   1.306  1.00  0.00     0.000 C 
BRANCH   5   6
ATOM      6  C   UNL     1      13.275  -8.627   0.492  1.00  0.00     0.000 C 
BRANCH   6   7
ATOM      7  C   UNL     1      13.733 -10.091   0.395  1.00  0.00     0.000 C 
BRANCH   7   8
ATOM      8  C   UNL     1      13.327 -10.761  -0.930  1.00  0.00     0.000 C 
BRANCH   8   9
ATOM      9  C   UNL     1      12.014 -10.209  -1.524  1.00  0.00     0.000 C 
BRANCH   9  10
ATOM     10  C   UNL     1      12.175  -9.780  -2.992  1.00  0.00     0.000 C 
BRANCH  10  11
ATOM     11  C   UNL     1      12.602  -8.310  -3.137  1.00  0.00     0.000 C 
BRANCH  11  12
ATOM     12  C   UNL     1      11.449  -7.309  -2.905  1.00  0.00     0.006 C 
BRANCH  12  13
ATOM     13  C   UNL     1      11.644  -6.482  -1.627  1.00  0.00     0.053 C 
BRANCH  13  14
ATOM     14  C   UNL     1      10.334  -6.264  -0.935  1.00  0.00     0.041 C 
ATOM     15  O   UNL     1       9.542  -7.227  -0.758  1.00  0.00    -0.550 OA
ATOM     16  O   UNL     1      10.002  -5.003  -0.456  1.00  0.00    -0.550 OA
ENDBRANCH  13  14
ENDBRANCH  12  13
ENDBRANCH  11  12
ENDBRANCH  10  11
ENDBRANCH   9  10
ENDBRANCH   8   9
ENDBRANCH   7   8
ENDBRANCH   6   7
ENDBRANCH   5   6
ENDBRANCH   4   5
ENDBRANCH   3   4
ENDBRANCH   2   3
ENDBRANCH   1   2
BRANCH   1  17
ATOM     17  C   UNL     1      12.722  -2.815   0.529  1.00  0.00     0.000 C 
BRANCH  17  18
ATOM     18  C   UNL     1      11.564  -1.854   0.845  1.00  0.00     0.000 C 
BRANCH  18  19
ATOM     19  C   UNL     1      11.754  -0.470   0.199  1.00  0.00     0.000 C 
BRANCH  19  20
ATOM     20  C   UNL     1      11.191   0.670   1.063  1.00  0.00     0.000 C 
BRANCH  20  21
ATOM     21  C   UNL     1      10.109   0.193   2.048  1.00  0.00     0.000 C 
BRANCH  21  22
ATOM     22  C   UNL     1      10.421   0.607   3.503  1.00  0.00    -0.000 C 
BRANCH  22  23
ATOM     23  C   UNL     1      11.926   0.720   3.800  1.00  0.00    -0.000 C 
BRANCH  23  24
ATOM     24  C   UNL     1      12.518  -0.574   4.375  1.00  0.00    -0.000 C 
BRANCH  24  25
ATOM     25  C   UNL     1      13.967  -0.818   3.920  1.00  0.00    -0.000 C 
BRANCH  25  26
ATOM     26  C   UNL     1      14.411   0.106   2.766  1.00  0.00    -0.000 C 
BRANCH  26  27
ATOM     27  C   UNL     1      15.717  -0.368   2.110  1.00  0.00    -0.000 C 
BRANCH  27  28
ATOM     28  C   UNL     1      15.853   0.195   0.687  1.00  0.00    -0.000 C 
BRANCH  28  29
ATOM     29  C   UNL     1      15.742  -0.893  -0.391  1.00  0.00    -0.003 C 
ATOM     30  C   UNL     1      15.013  -0.408  -1.644  1.00  0.00     0.004 C 
ENDBRANCH  28  29
ENDBRANCH  27  28
ENDBRANCH  26  27
ENDBRANCH  25  26
ENDBRANCH  24  25
ENDBRANCH  23  24
ENDBRANCH  22  23
ENDBRANCH  21  22
ENDBRANCH  20  21
ENDBRANCH  19  20
ENDBRANCH  18  19
ENDBRANCH  17  18
ENDBRANCH   1  17
TORSDOF 26
ENDMDL
MODEL 4
REMARK VINA RESULT:    -4.555      2.545      4.287
REMARK INTER + INTRA:         -15.296
REMARK INTER:                 -10.888
REMARK INTRA:                  -4.408
REMARK UNBOUND:                -3.816
REMARK SMILES CCCCCCCCCCCCCCCCCCCCCCCCCCCC(=O)[O-]
REMARK SMILES IDX 15 1 16 2 17 3 18 4 19 5 20 6 21 7 22 8 23 9 24 10 25 11
REMARK SMILES IDX 26 12 27 13 28 14 29 15 30 16 14 17 13 18 12 19 11 20 10 21
REMARK SMILES IDX 9 22 8 23 7 24 6 25 5 26 4 27 3 28 2 29 1 30
REMARK H PARENT
REMARK Flexibility Score: inf
ROOT
ATOM      1  C   UNL     1      11.260  -3.128   0.085  1.00  0.00     0.000 C 
ENDROOT
BRANCH   1   2
ATOM      2  C   UNL     1      10.032  -3.993  -0.248  1.00  0.00     0.000 C 
BRANCH   2   3
ATOM      3  C   UNL     1      10.289  -5.514  -0.258  1.00  0.00     0.000 C 
BRANCH   3   4
ATOM      4  C   UNL     1      11.663  -5.947  -0.802  1.00  0.00     0.000 C 
BRANCH   4   5
ATOM      5  C   UNL     1      12.688  -6.368   0.268  1.00  0.00     0.000 C 
BRANCH   5   6
ATOM      6  C   UNL     1      12.975  -7.885   0.299  1.00  0.00     0.000 C 
BRANCH   6   7
ATOM      7  C   UNL     1      11.752  -8.712   0.728  1.00  0.00     0.000 C 
BRANCH   7   8
ATOM      8  C   UNL     1      11.660 -10.068   0.006  1.00  0.00     0.000 C 
BRANCH   8   9
ATOM      9  C   UNL     1      10.453 -10.181  -0.948  1.00  0.00     0.000 C 
BRANCH   9  10
ATOM     10  C   UNL     1       9.467  -9.013  -0.778  1.00  0.00     0.000 C 
BRANCH  10  11
ATOM     11  C   UNL     1       8.762  -8.635  -2.091  1.00  0.00     0.000 C 
BRANCH  11  12
ATOM     12  C   UNL     1       9.666  -8.770  -3.335  1.00  0.00     0.006 C 
BRANCH  12  13
ATOM     13  C   UNL     1      10.272  -7.425  -3.762  1.00  0.00     0.053 C 
BRANCH  13  14
ATOM     14  C   UNL     1      11.739  -7.570  -4.025  1.00  0.00     0.041 C 
ATOM     15  O   UNL     1      12.289  -6.902  -4.941  1.00  0.00    -0.550 OA
ATOM     16  O   UNL     1      12.508  -8.417  -3.236  1.00  0.00    -0.550 OA
ENDBRANCH  13  14
ENDBRANCH  12  13
ENDBRANCH  11  12
ENDBRANCH  10  11
ENDBRANCH   9  10
ENDBRANCH   8   9
ENDBRANCH   7   8
ENDBRANCH   6   7
ENDBRANCH   5   6
ENDBRANCH   4   5
ENDBRANCH   3   4
ENDBRANCH   2   3
ENDBRANCH   1   2
BRANCH   1  17
ATOM     17  C   UNL     1      10.904  -1.874   0.902  1.00  0.00     0.000 C 
BRANCH  17  18
ATOM     18  C   UNL     1      11.691  -0.632   0.454  1.00  0.00     0.000 C 
BRANCH  18  19
ATOM     19  C   UNL     1      11.286   0.635   1.229  1.00  0.00     0.000 C 
BRANCH  19  20
ATOM     20  C   UNL     1      10.592   0.318   2.564  1.00  0.00     0.000 C 
BRANCH  20  21
ATOM     21  C   UNL     1      11.354   0.875   3.779  1.00  0.00     0.000 C 
BRANCH  21  22
ATOM     22  C   UNL     1      12.716   0.178   3.984  1.00  0.00    -0.000 C 
BRANCH  22  23
ATOM     23  C   UNL     1      12.601  -1.335   4.235  1.00  0.00    -0.000 C 
BRANCH  23  24
ATOM     24  C   UNL     1      13.861  -2.107   3.818  1.00  0.00    -0.000 C 
BRANCH  24  25
ATOM     25  C   UNL     1      13.566  -3.220   2.799  1.00  0.00    -0.000 C 
BRANCH  25  26
ATOM     26  C   UNL     1      14.735  -3.485   1.826  1.00  0.00    -0.000 C 
BRANCH  26  27
ATOM     27  C   UNL     1      15.697  -2.291   1.733  1.00  0.00    -0.000 C 
BRANCH  27  28
ATOM     28  C   UNL     1      15.332  -1.382   0.548  1.00  0.00    -0.000 C 
BRANCH  28  29
ATOM     29  C   UNL     1      15.244   0.099   0.947  1.00  0.00    -0.003 C 
ATOM     30  C   UNL     1      16.020   0.410   2.227  1.00  0.00     0.004 C 
ENDBRANCH  28  29
ENDBRANCH  27  28
ENDBRANCH  26  27
ENDBRANCH  25  26
ENDBRANCH  24  25
ENDBRANCH  23  24
ENDBRANCH  22  23
ENDBRANCH  21  22
ENDBRANCH  20  21
ENDBRANCH  19  20
ENDBRANCH  18  19
ENDBRANCH  17  18
ENDBRANCH   1  17
TORSDOF 26
ENDMDL
MODEL 5
REMARK VINA RESULT:    -4.475      2.563      4.024
REMARK INTER + INTRA:         -15.093
REMARK INTER:                 -11.678
REMARK INTRA:                  -3.415
REMARK UNBOUND:                -3.816
REMARK SMILES CCCCCCCCCCCCCCCCCCCCCCCCCCCC(=O)[O-]
REMARK SMILES IDX 15 1 16 2 17 3 18 4 19 5 20 6 21 7 22 8 23 9 24 10 25 11
REMARK SMILES IDX 26 12 27 13 28 14 29 15 30 16 14 17 13 18 12 19 11 20 10 21
REMARK SMILES IDX 9 22 8 23 7 24 6 25 5 26 4 27 3 28 2 29 1 30
REMARK H PARENT
REMARK Flexibility Score: inf
ROOT
ATOM      1  C   UNL     1       9.998  -3.874  -0.138  1.00  0.00     0.000 C 
ENDROOT
BRANCH   1   2
ATOM      2  C   UNL     1       9.649  -5.201  -0.836  1.00  0.00     0.000 C 
BRANCH   2   3
ATOM      3  C   UNL     1      10.666  -6.340  -0.617  1.00  0.00     0.000 C 
BRANCH   3   4
ATOM      4  C   UNL     1      10.516  -7.547  -1.561  1.00  0.00     0.000 C 
BRANCH   4   5
ATOM      5  C   UNL     1      11.102  -7.353  -2.971  1.00  0.00     0.000 C 
BRANCH   5   6
ATOM      6  C   UNL     1      10.085  -7.580  -4.111  1.00  0.00     0.000 C 
BRANCH   6   7
ATOM      7  C   UNL     1       8.627  -7.508  -3.628  1.00  0.00     0.000 C 
BRANCH   7   8
ATOM      8  C   UNL     1       7.769  -6.530  -4.451  1.00  0.00     0.000 C 
BRANCH   8   9
ATOM      9  C   UNL     1       7.871  -5.066  -3.972  1.00  0.00     0.000 C 
BRANCH   9  10
ATOM     10  C   UNL     1       6.756  -4.700  -2.979  1.00  0.00     0.000 C 
BRANCH  10  11
ATOM     11  C   UNL     1       5.601  -3.930  -3.640  1.00  0.00     0.000 C 
BRANCH  11  12
ATOM     12  C   UNL     1       4.468  -4.844  -4.154  1.00  0.00     0.006 C 
BRANCH  12  13
ATOM     13  C   UNL     1       4.586  -5.126  -5.659  1.00  0.00     0.053 C 
BRANCH  13  14
ATOM     14  C   UNL     1       3.687  -4.217  -6.437  1.00  0.00     0.041 C 
ATOM     15  O   UNL     1       2.676  -3.701  -5.889  1.00  0.00    -0.550 OA
ATOM     16  O   UNL     1       3.983  -3.910  -7.760  1.00  0.00    -0.550 OA
ENDBRANCH  13  14
ENDBRANCH  12  13
ENDBRANCH  11  12
ENDBRANCH  10  11
ENDBRANCH   9  10
ENDBRANCH   8   9
ENDBRANCH   7   8
ENDBRANCH   6   7
ENDBRANCH   5   6
ENDBRANCH   4   5
ENDBRANCH   3   4
ENDBRANCH   2   3
ENDBRANCH   1   2
BRANCH   1  17
ATOM     17  C   UNL     1      11.510  -3.686   0.071  1.00  0.00     0.000 C 
BRANCH  17  18
ATOM     18  C   UNL     1      11.927  -2.207   0.087  1.00  0.00     0.000 C 
BRANCH  18  19
ATOM     19  C   UNL     1      10.988  -1.339   0.944  1.00  0.00     0.000 C 
BRANCH  19  20
ATOM     20  C   UNL     1      11.310   0.161   0.843  1.00  0.00     0.000 C 
BRANCH  20  21
ATOM     21  C   UNL     1      11.674   0.786   2.202  1.00  0.00     0.000 C 
BRANCH  21  22
ATOM     22  C   UNL     1      11.331  -0.146   3.384  1.00  0.00    -0.000 C 
BRANCH  22  23
ATOM     23  C   UNL     1      12.353  -0.084   4.532  1.00  0.00    -0.000 C 
BRANCH  23  24
ATOM     24  C   UNL     1      13.730  -0.636   4.136  1.00  0.00    -0.000 C 
BRANCH  24  25
ATOM     25  C   UNL     1      13.654  -2.052   3.540  1.00  0.00    -0.000 C 
BRANCH  25  26
ATOM     26  C   UNL     1      15.008  -2.565   3.004  1.00  0.00    -0.000 C 
BRANCH  26  27
ATOM     27  C   UNL     1      15.142  -2.374   1.485  1.00  0.00    -0.000 C 
BRANCH  27  28
ATOM     28  C   UNL     1      15.878  -1.066   1.158  1.00  0.00    -0.000 C 
BRANCH  28  29
ATOM     29  C   UNL     1      15.022  -0.102   0.323  1.00  0.00    -0.003 C 
ATOM     30  C   UNL     1      15.109  -0.387  -1.177  1.00  0.00     0.004 C 
ENDBRANCH  28  29
ENDBRANCH  27  28
ENDBRANCH  26  27
ENDBRANCH  25  26
ENDBRANCH  24  25
ENDBRANCH  23  24
ENDBRANCH  22  23
ENDBRANCH  21  22
ENDBRANCH  20  21
ENDBRANCH  19  20
ENDBRANCH  18  19
ENDBRANCH  17  18
ENDBRANCH   1  17
TORSDOF 26
ENDMDL
MODEL 6
REMARK VINA RESULT:    -4.474      2.821      6.053
REMARK INTER + INTRA:         -15.090
REMARK INTER:                 -11.265
REMARK INTRA:                  -3.825
REMARK UNBOUND:                -3.816
REMARK SMILES CCCCCCCCCCCCCCCCCCCCCCCCCCCC(=O)[O-]
REMARK SMILES IDX 15 1 16 2 17 3 18 4 19 5 20 6 21 7 22 8 23 9 24 10 25 11
REMARK SMILES IDX 26 12 27 13 28 14 29 15 30 16 14 17 13 18 12 19 11 20 10 21
REMARK SMILES IDX 9 22 8 23 7 24 6 25 5 26 4 27 3 28 2 29 1 30
REMARK H PARENT
REMARK Flexibility Score: inf
ROOT
ATOM      1  C   UNL     1      13.913  -2.753   3.201  1.00  0.00     0.000 C 
ENDROOT
BRANCH   1   2
ATOM      2  C   UNL     1      14.522  -3.531   2.021  1.00  0.00     0.000 C 
BRANCH   2   3
ATOM      3  C   UNL     1      13.559  -4.509   1.318  1.00  0.00     0.000 C 
BRANCH   3   4
ATOM      4  C   UNL     1      14.069  -5.955   1.184  1.00  0.00     0.000 C 
BRANCH   4   5
ATOM      5  C   UNL     1      12.989  -7.005   0.866  1.00  0.00     0.000 C 
BRANCH   5   6
ATOM      6  C   UNL     1      12.293  -6.798  -0.496  1.00  0.00     0.000 C 
BRANCH   6   7
ATOM      7  C   UNL     1      10.791  -6.499  -0.356  1.00  0.00     0.000 C 
BRANCH   7   8
ATOM      8  C   UNL     1      10.447  -5.021  -0.613  1.00  0.00     0.000 C 
BRANCH   8   9
ATOM      9  C   UNL     1       8.964  -4.784  -0.967  1.00  0.00     0.000 C 
BRANCH   9  10
ATOM     10  C   UNL     1       8.370  -5.939  -1.789  1.00  0.00     0.000 C 
BRANCH  10  11
ATOM     11  C   UNL     1       8.389  -5.664  -3.302  1.00  0.00     0.000 C 
BRANCH  11  12
ATOM     12  C   UNL     1       7.106  -4.976  -3.816  1.00  0.00     0.006 C 
BRANCH  12  13
ATOM     13  C   UNL     1       6.223  -5.928  -4.635  1.00  0.00     0.053 C 
BRANCH  13  14
ATOM     14  C   UNL     1       4.834  -5.383  -4.758  1.00  0.00     0.041 C 
ATOM     15  O   UNL     1       3.884  -6.137  -5.098  1.00  0.00    -0.550 OA
ATOM     16  O   UNL     1       4.581  -4.048  -4.465  1.00  0.00    -0.550 OA
ENDBRANCH  13  14
ENDBRANCH  12  13
ENDBRANCH  11  12
ENDBRANCH  10  11
ENDBRANCH   9  10
ENDBRANCH   8   9
ENDBRANCH   7   8
ENDBRANCH   6   7
ENDBRANCH   5   6
ENDBRANCH   4   5
ENDBRANCH   3   4
ENDBRANCH   2   3
ENDBRANCH   1   2
BRANCH   1  17
ATOM     17  C   UNL     1      14.963  -2.320   4.239  1.00  0.00     0.000 C 
BRANCH  17  18
ATOM     18  C   UNL     1      16.401  -2.622   3.788  1.00  0.00     0.000 C 
BRANCH  18  19
ATOM     19  C   UNL     1      17.183  -1.349   3.416  1.00  0.00     0.000 C 
BRANCH  19  20
ATOM     20  C   UNL     1      16.333  -0.074   3.541  1.00  0.00     0.000 C 
BRANCH  20  21
ATOM     21  C   UNL     1      16.167   0.665   2.201  1.00  0.00     0.000 C 
BRANCH  21  22
ATOM     22  C   UNL     1      16.669  -0.174   1.006  1.00  0.00    -0.000 C 
BRANCH  22  23
ATOM     23  C   UNL     1      15.543  -0.642   0.067  1.00  0.00    -0.000 C 
BRANCH  23  24
ATOM     24  C   UNL     1      14.150  -0.214   0.548  1.00  0.00    -0.000 C 
BRANCH  24  25
ATOM     25  C   UNL     1      13.031  -0.641  -0.418  1.00  0.00    -0.000 C 
BRANCH  25  26
ATOM     26  C   UNL     1      11.613  -0.432   0.155  1.00  0.00    -0.000 C 
BRANCH  26  27
ATOM     27  C   UNL     1      11.177  -1.589   1.066  1.00  0.00    -0.000 C 
BRANCH  27  28
ATOM     28  C   UNL     1      10.650  -1.061   2.410  1.00  0.00    -0.000 C 
BRANCH  28  29
ATOM     29  C   UNL     1      11.187   0.339   2.745  1.00  0.00    -0.003 C 
ATOM     30  C   UNL     1      12.105   0.340   3.968  1.00  0.00     0.004 C 
ENDBRANCH  28  29
ENDBRANCH  27  28
ENDBRANCH  26  27
ENDBRANCH  25  26
ENDBRANCH  24  25
ENDBRANCH  23  24
ENDBRANCH  22  23
ENDBRANCH  21  22
ENDBRANCH  20  21
ENDBRANCH  19  20
ENDBRANCH  18  19
ENDBRANCH  17  18
ENDBRANCH   1  17
TORSDOF 26
ENDMDL
MODEL 7
REMARK VINA RESULT:    -4.430      2.881      3.896
REMARK INTER + INTRA:         -14.979
REMARK INTER:                 -10.996
REMARK INTRA:                  -3.983
REMARK UNBOUND:                -3.816
REMARK SMILES CCCCCCCCCCCCCCCCCCCCCCCCCCCC(=O)[O-]
REMARK SMILES IDX 15 1 16 2 17 3 18 4 19 5 20 6 21 7 22 8 23 9 24 10 25 11
REMARK SMILES IDX 26 12 27 13 28 14 29 15 30 16 14 17 13 18 12 19 11 20 10 21
REMARK SMILES IDX 9 22 8 23 7 24 6 25 5 26 4 27 3 28 2 29 1 30
REMARK H PARENT
REMARK Flexibility Score: inf
ROOT
ATOM      1  C   UNL     1       9.217  -4.149   0.007  1.00  0.00     0.000 C 
ENDROOT
BRANCH   1   2
ATOM      2  C   UNL     1       8.149  -4.522  -1.036  1.00  0.00     0.000 C 
BRANCH   2   3
ATOM      3  C   UNL     1       8.583  -5.588  -2.063  1.00  0.00     0.000 C 
BRANCH   3   4
ATOM      4  C   UNL     1       7.832  -5.552  -3.407  1.00  0.00     0.000 C 
BRANCH   4   5
ATOM      5  C   UNL     1       7.166  -6.877  -3.821  1.00  0.00     0.000 C 
BRANCH   5   6
ATOM      6  C   UNL     1       8.165  -8.017  -4.114  1.00  0.00     0.000 C 
BRANCH   6   7
ATOM      7  C   UNL     1       7.892  -9.276  -3.275  1.00  0.00     0.000 C 
BRANCH   7   8
ATOM      8  C   UNL     1       7.724  -8.974  -1.776  1.00  0.00     0.000 C 
BRANCH   8   9
ATOM      9  C   UNL     1       8.867  -9.530  -0.901  1.00  0.00     0.000 C 
BRANCH   9  10
ATOM     10  C   UNL     1       9.931  -8.465  -0.588  1.00  0.00     0.000 C 
BRANCH  10  11
ATOM     11  C   UNL     1      11.021  -8.378  -1.669  1.00  0.00     0.000 C 
BRANCH  11  12
ATOM     12  C   UNL     1      12.258  -7.565  -1.230  1.00  0.00     0.006 C 
BRANCH  12  13
ATOM     13  C   UNL     1      13.052  -8.268  -0.120  1.00  0.00     0.053 C 
BRANCH  13  14
ATOM     14  C   UNL     1      13.142  -7.398   1.095  1.00  0.00     0.041 C 
ATOM     15  O   UNL     1      12.869  -7.865   2.233  1.00  0.00    -0.550 OA
ATOM     16  O   UNL     1      13.560  -6.077   0.976  1.00  0.00    -0.550 OA
ENDBRANCH  13  14
ENDBRANCH  12  13
ENDBRANCH  11  12
ENDBRANCH  10  11
ENDBRANCH   9  10
ENDBRANCH   8   9
ENDBRANCH   7   8
ENDBRANCH   6   7
ENDBRANCH   5   6
ENDBRANCH   4   5
ENDBRANCH   3   4
ENDBRANCH   2   3
ENDBRANCH   1   2
BRANCH   1  17
ATOM     17  C   UNL     1      10.652  -4.295  -0.528  1.00  0.00     0.000 C 
BRANCH  17  18
ATOM     18  C   UNL     1      11.630  -3.302   0.120  1.00  0.00     0.000 C 
BRANCH  18  19
ATOM     19  C   UNL     1      10.939  -2.000   0.567  1.00  0.00     0.000 C 
BRANCH  19  20
ATOM     20  C   UNL     1      11.716  -0.742   0.146  1.00  0.00     0.000 C 
BRANCH  20  21
ATOM     21  C   UNL     1      11.380   0.484   1.014  1.00  0.00     0.000 C 
BRANCH  21  22
ATOM     22  C   UNL     1      11.287   0.130   2.514  1.00  0.00    -0.000 C 
BRANCH  22  23
ATOM     23  C   UNL     1      12.641   0.187   3.244  1.00  0.00    -0.000 C 
BRANCH  23  24
ATOM     24  C   UNL     1      12.892  -1.038   4.133  1.00  0.00    -0.000 C 
BRANCH  24  25
ATOM     25  C   UNL     1      13.124  -2.324   3.321  1.00  0.00    -0.000 C 
BRANCH  25  26
ATOM     26  C   UNL     1      14.601  -2.543   2.928  1.00  0.00    -0.000 C 
BRANCH  26  27
ATOM     27  C   UNL     1      14.874  -2.169   1.464  1.00  0.00    -0.000 C 
BRANCH  27  28
ATOM     28  C   UNL     1      15.743  -0.904   1.372  1.00  0.00    -0.000 C 
BRANCH  28  29
ATOM     29  C   UNL     1      15.292   0.040   0.248  1.00  0.00    -0.003 C 
ATOM     30  C   UNL     1      15.351  -0.618  -1.131  1.00  0.00     0.004 C 
ENDBRANCH  28  29
ENDBRANCH  27  28
ENDBRANCH  26  27
ENDBRANCH  25  26
ENDBRANCH  24  25
ENDBRANCH  23  24
ENDBRANCH  22  23
ENDBRANCH  21  22
ENDBRANCH  20  21
ENDBRANCH  19  20
ENDBRANCH  18  19
ENDBRANCH  17  18
ENDBRANCH   1  17
TORSDOF 26
ENDMDL
MODEL 8
REMARK VINA RESULT:    -4.422      1.484      2.759
REMARK INTER + INTRA:         -14.960
REMARK INTER:                 -11.765
REMARK INTRA:                  -3.195
REMARK UNBOUND:                -3.816
REMARK SMILES CCCCCCCCCCCCCCCCCCCCCCCCCCCC(=O)[O-]
REMARK SMILES IDX 15 1 16 2 17 3 18 4 19 5 20 6 21 7 22 8 23 9 24 10 25 11
REMARK SMILES IDX 26 12 27 13 28 14 29 15 30 16 14 17 13 18 12 19 11 20 10 21
REMARK SMILES IDX 9 22 8 23 7 24 6 25 5 26 4 27 3 28 2 29 1 30
REMARK H PARENT
REMARK Flexibility Score: inf
ROOT
ATOM      1  C   UNL     1      10.143  -3.816  -0.254  1.00  0.00     0.000 C 
ENDROOT
BRANCH   1   2
ATOM      2  C   UNL     1       9.944  -5.301  -0.608  1.00  0.00     0.000 C 
BRANCH   2   3
ATOM      3  C   UNL     1      11.233  -6.148  -0.619  1.00  0.00     0.000 C 
BRANCH   3   4
ATOM      4  C   UNL     1      11.034  -7.646  -0.914  1.00  0.00     0.000 C 
BRANCH   4   5
ATOM      5  C   UNL     1       9.580  -8.143  -0.829  1.00  0.00     0.000 C 
BRANCH   5   6
ATOM      6  C   UNL     1       9.048  -8.757  -2.143  1.00  0.00     0.000 C 
BRANCH   6   7
ATOM      7  C   UNL     1       9.231  -7.823  -3.351  1.00  0.00     0.000 C 
BRANCH   7   8
ATOM      8  C   UNL     1       8.249  -6.638  -3.347  1.00  0.00     0.000 C 
BRANCH   8   9
ATOM      9  C   UNL     1       7.622  -6.349  -4.727  1.00  0.00     0.000 C 
BRANCH   9  10
ATOM     10  C   UNL     1       7.905  -4.915  -5.205  1.00  0.00     0.000 C 
BRANCH  10  11
ATOM     11  C   UNL     1       8.545  -4.870  -6.602  1.00  0.00     0.000 C 
BRANCH  11  12
ATOM     12  C   UNL     1      10.072  -5.098  -6.587  1.00  0.00     0.006 C 
BRANCH  12  13
ATOM     13  C   UNL     1      10.449  -6.537  -6.965  1.00  0.00     0.053 C 
BRANCH  13  14
ATOM     14  C   UNL     1      11.860  -6.835  -6.561  1.00  0.00     0.041 C 
ATOM     15  O   UNL     1      12.171  -6.904  -5.342  1.00  0.00    -0.550 OA
ATOM     16  O   UNL     1      12.826  -7.071  -7.532  1.00  0.00    -0.550 OA
ENDBRANCH  13  14
ENDBRANCH  12  13
ENDBRANCH  11  12
ENDBRANCH  10  11
ENDBRANCH   9  10
ENDBRANCH   8   9
ENDBRANCH   7   8
ENDBRANCH   6   7
ENDBRANCH   5   6
ENDBRANCH   4   5
ENDBRANCH   3   4
ENDBRANCH   2   3
ENDBRANCH   1   2
BRANCH   1  17
ATOM     17  C   UNL     1      11.590  -3.485   0.148  1.00  0.00     0.000 C 
BRANCH  17  18
ATOM     18  C   UNL     1      11.889  -1.978   0.099  1.00  0.00     0.000 C 
BRANCH  18  19
ATOM     19  C   UNL     1      11.040  -1.175   1.100  1.00  0.00     0.000 C 
BRANCH  19  20
ATOM     20  C   UNL     1      11.607   0.228   1.368  1.00  0.00     0.000 C 
BRANCH  20  21
ATOM     21  C   UNL     1      11.620   0.591   2.864  1.00  0.00     0.000 C 
BRANCH  21  22
ATOM     22  C   UNL     1      12.887   0.073   3.578  1.00  0.00    -0.000 C 
BRANCH  22  23
ATOM     23  C   UNL     1      12.719  -1.329   4.189  1.00  0.00    -0.000 C 
BRANCH  23  24
ATOM     24  C   UNL     1      13.958  -2.215   4.000  1.00  0.00    -0.000 C 
BRANCH  24  25
ATOM     25  C   UNL     1      14.540  -2.128   2.579  1.00  0.00    -0.000 C 
BRANCH  25  26
ATOM     26  C   UNL     1      16.029  -1.720   2.550  1.00  0.00    -0.000 C 
BRANCH  26  27
ATOM     27  C   UNL     1      16.253  -0.387   1.821  1.00  0.00    -0.000 C 
BRANCH  27  28
ATOM     28  C   UNL     1      15.207  -0.184   0.714  1.00  0.00    -0.000 C 
BRANCH  28  29
ATOM     29  C   UNL     1      15.813  -0.284  -0.694  1.00  0.00    -0.003 C 
ATOM     30  C   UNL     1      14.749  -0.411  -1.785  1.00  0.00     0.004 C 
ENDBRANCH  28  29
ENDBRANCH  27  28
ENDBRANCH  26  27
ENDBRANCH  25  26
ENDBRANCH  24  25
ENDBRANCH  23  24
ENDBRANCH  22  23
ENDBRANCH  21  22
ENDBRANCH  20  21
ENDBRANCH  19  20
ENDBRANCH  18  19
ENDBRANCH  17  18
ENDBRANCH   1  17
TORSDOF 26
ENDMDL
MODEL 9
REMARK VINA RESULT:    -4.421      1.522      3.746
REMARK INTER + INTRA:         -14.957
REMARK INTER:                 -11.848
REMARK INTRA:                  -3.110
REMARK UNBOUND:                -3.816
REMARK SMILES CCCCCCCCCCCCCCCCCCCCCCCCCCCC(=O)[O-]
REMARK SMILES IDX 15 1 16 2 17 3 18 4 19 5 20 6 21 7 22 8 23 9 24 10 25 11
REMARK SMILES IDX 26 12 27 13 28 14 29 15 30 16 14 17 13 18 12 19 11 20 10 21
REMARK SMILES IDX 9 22 8 23 7 24 6 25 5 26 4 27 3 28 2 29 1 30
REMARK H PARENT
REMARK Flexibility Score: inf
ROOT
ATOM      1  C   UNL     1      10.881  -3.272   0.108  1.00  0.00     0.000 C 
ENDROOT
BRANCH   1   2
ATOM      2  C   UNL     1      11.236  -4.695  -0.358  1.00  0.00     0.000 C 
BRANCH   2   3
ATOM      3  C   UNL     1      10.026  -5.613  -0.632  1.00  0.00     0.000 C 
BRANCH   3   4
ATOM      4  C   UNL     1       8.791  -4.914  -1.230  1.00  0.00     0.000 C 
BRANCH   4   5
ATOM      5  C   UNL     1       7.865  -5.819  -2.061  1.00  0.00     0.000 C 
BRANCH   5   6
ATOM      6  C   UNL     1       7.878  -5.511  -3.574  1.00  0.00     0.000 C 
BRANCH   6   7
ATOM      7  C   UNL     1       7.089  -4.240  -3.928  1.00  0.00     0.000 C 
BRANCH   7   8
ATOM      8  C   UNL     1       5.589  -4.352  -3.599  1.00  0.00     0.000 C 
BRANCH   8   9
ATOM      9  C   UNL     1       4.836  -5.366  -4.486  1.00  0.00     0.000 C 
BRANCH   9  10
ATOM     10  C   UNL     1       4.864  -4.971  -5.972  1.00  0.00     0.000 C 
BRANCH  10  11
ATOM     11  C   UNL     1       5.621  -5.988  -6.843  1.00  0.00     0.000 C 
BRANCH  11  12
ATOM     12  C   UNL     1       6.983  -5.467  -7.352  1.00  0.00     0.006 C 
BRANCH  12  13
ATOM     13  C   UNL     1       8.116  -6.476  -7.117  1.00  0.00     0.053 C 
BRANCH  13  14
ATOM     14  C   UNL     1       9.429  -5.770  -6.979  1.00  0.00     0.041 C 
ATOM     15  O   UNL     1       9.470  -4.578  -6.573  1.00  0.00    -0.550 OA
ATOM     16  O   UNL     1      10.613  -6.439  -7.265  1.00  0.00    -0.550 OA
ENDBRANCH  13  14
ENDBRANCH  12  13
ENDBRANCH  11  12
ENDBRANCH  10  11
ENDBRANCH   9  10
ENDBRANCH   8   9
ENDBRANCH   7   8
ENDBRANCH   6   7
ENDBRANCH   5   6
ENDBRANCH   4   5
ENDBRANCH   3   4
ENDBRANCH   2   3
ENDBRANCH   1   2
BRANCH   1  17
ATOM     17  C   UNL     1      12.121  -2.429   0.454  1.00  0.00     0.000 C 
BRANCH  17  18
ATOM     18  C   UNL     1      11.884  -0.922   0.267  1.00  0.00     0.000 C 
BRANCH  18  19
ATOM     19  C   UNL     1      13.188  -0.148   0.005  1.00  0.00     0.000 C 
BRANCH  19  20
ATOM     20  C   UNL     1      13.846  -0.528  -1.331  1.00  0.00     0.000 C 
BRANCH  20  21
ATOM     21  C   UNL     1      15.340  -0.162  -1.385  1.00  0.00     0.000 C 
BRANCH  21  22
ATOM     22  C   UNL     1      16.134  -0.775  -0.211  1.00  0.00    -0.000 C 
BRANCH  22  23
ATOM     23  C   UNL     1      16.910   0.265   0.615  1.00  0.00    -0.000 C 
BRANCH  23  24
ATOM     24  C   UNL     1      17.070  -0.141   2.087  1.00  0.00    -0.000 C 
BRANCH  24  25
ATOM     25  C   UNL     1      16.109  -1.270   2.500  1.00  0.00    -0.000 C 
BRANCH  25  26
ATOM     26  C   UNL     1      14.831  -0.761   3.200  1.00  0.00    -0.000 C 
BRANCH  26  27
ATOM     27  C   UNL     1      13.976  -1.910   3.756  1.00  0.00    -0.000 C 
BRANCH  27  28
ATOM     28  C   UNL     1      12.515  -1.471   3.936  1.00  0.00    -0.000 C 
BRANCH  28  29
ATOM     29  C   UNL     1      12.392  -0.019   4.422  1.00  0.00    -0.003 C 
ATOM     30  C   UNL     1      11.434   0.809   3.565  1.00  0.00     0.004 C 
ENDBRANCH  28  29
ENDBRANCH  27  28
ENDBRANCH  26  27
ENDBRANCH  25  26
ENDBRANCH  24  25
ENDBRANCH  23  24
ENDBRANCH  22  23
ENDBRANCH  21  22
ENDBRANCH  20  21
ENDBRANCH  19  20
ENDBRANCH  18  19
ENDBRANCH  17  18
ENDBRANCH   1  17
TORSDOF 26
ENDMDL
