MODEL 1
REMARK VINA RESULT:    -3.130      0.000      0.000
REMARK INTER + INTRA:          -3.446
REMARK INTER:                  -3.405
REMARK INTRA:                  -0.041
REMARK UNBOUND:                -0.041
REMARK SMILES COc1ccccc1O
REMARK SMILES IDX 3 1 4 2 5 3 6 4 7 5 8 6 2 7 1 8 9 9
REMARK H PARENT 9 10
REMARK Flexibility Score: inf
ROOT
ATOM      1  C   UNL     1       0.902  -7.095 -18.010  1.00  0.00     0.160 A 
ATOM      2  C   UNL     1       1.486  -7.778 -19.097  1.00  0.00     0.050 A 
ATOM      3  C   UNL     1       2.864  -8.011 -19.124  1.00  0.00     0.004 A 
ATOM      4  C   UNL     1       3.670  -7.571 -18.073  1.00  0.00     0.004 A 
ATOM      5  C   UNL     1       3.101  -6.894 -16.992  1.00  0.00     0.050 A 
ATOM      6  C   UNL     1       1.719  -6.654 -16.957  1.00  0.00     0.157 A 
ENDROOT
BRANCH   1   7
ATOM      7  O   UNL     1      -0.476  -6.838 -17.941  1.00  0.00    -0.493 OA
ATOM      8  C   UNL     1      -1.200  -6.063 -18.892  1.00  0.00     0.278 C 
ENDBRANCH   1   7
BRANCH   6   9
ATOM      9  O   UNL     1       1.150  -5.980 -15.879  1.00  0.00    -0.504 OA
ATOM     10  H   UNL     1       1.692  -5.342 -15.307  1.00  0.00     0.293 HD
ENDBRANCH   6   9
TORSDOF 2
ENDMDL
MODEL 2
REMARK VINA RESULT:    -2.804      4.573      6.814
REMARK INTER + INTRA:          -3.092
REMARK INTER:                  -3.065
REMARK INTRA:                  -0.026
REMARK UNBOUND:                -0.041
REMARK SMILES COc1ccccc1O
REMARK SMILES IDX 3 1 4 2 5 3 6 4 7 5 8 6 2 7 1 8 9 9
REMARK H PARENT 9 10
REMARK Flexibility Score: inf
ROOT
ATOM      1  C   UNL     1      -4.057  -5.318 -16.887  1.00  0.00     0.160 A 
ATOM      2  C   UNL     1      -5.223  -4.565 -17.135  1.00  0.00     0.050 A 
ATOM      3  C   UNL     1      -5.916  -3.970 -16.076  1.00  0.00     0.004 A 
ATOM      4  C   UNL     1      -5.455  -4.117 -14.767  1.00  0.00     0.004 A 
ATOM      5  C   UNL     1      -4.301  -4.861 -14.512  1.00  0.00     0.050 A 
ATOM      6  C   UNL     1      -3.600  -5.462 -15.567  1.00  0.00     0.157 A 
ENDROOT
BRANCH   1   7
ATOM      7  O   UNL     1      -3.330  -5.933 -17.919  1.00  0.00    -0.493 OA
ATOM      8  C   UNL     1      -2.282  -5.306 -18.651  1.00  0.00     0.278 C 
ENDBRANCH   1   7
BRANCH   6   9
ATOM      9  O   UNL     1      -2.448  -6.203 -15.314  1.00  0.00    -0.504 OA
ATOM     10  H   UNL     1      -1.986  -6.173 -14.413  1.00  0.00     0.293 HD
ENDBRANCH   6   9
TORSDOF 2
ENDMDL
MODEL 3
REMARK VINA RESULT:    -2.793      5.974      8.388
REMARK INTER + INTRA:          -3.079
REMARK INTER:                  -3.050
REMARK INTRA:                  -0.029
REMARK UNBOUND:                -0.041
REMARK SMILES COc1ccccc1O
REMARK SMILES IDX 3 1 4 2 5 3 6 4 7 5 8 6 2 7 1 8 9 9
REMARK H PARENT 9 10
REMARK Flexibility Score: inf
ROOT
ATOM      1  C   UNL     1      -5.065  -3.946 -16.257  1.00  0.00     0.160 A 
ATOM      2  C   UNL     1      -6.276  -3.552 -16.864  1.00  0.00     0.050 A 
ATOM      3  C   UNL     1      -7.434  -3.405 -16.096  1.00  0.00     0.004 A 
ATOM      4  C   UNL     1      -7.399  -3.647 -14.721  1.00  0.00     0.004 A 
ATOM      5  C   UNL     1      -6.205  -4.037 -14.111  1.00  0.00     0.050 A 
ATOM      6  C   UNL     1      -5.038  -4.187 -14.875  1.00  0.00     0.157 A 
ENDROOT
BRANCH   1   7
ATOM      7  O   UNL     1      -3.879  -4.106 -16.990  1.00  0.00    -0.493 OA
ATOM      8  C   UNL     1      -3.487  -5.313 -17.636  1.00  0.00     0.278 C 
ENDBRANCH   1   7
BRANCH   6   9
ATOM      9  O   UNL     1      -3.845  -4.575 -14.267  1.00  0.00    -0.504 OA
ATOM     10  H   UNL     1      -3.092  -3.916 -14.109  1.00  0.00     0.293 HD
ENDBRANCH   6   9
TORSDOF 2
ENDMDL
MODEL 4
REMARK VINA RESULT:    -2.773      4.484      5.562
REMARK INTER + INTRA:          -3.058
REMARK INTER:                  -3.027
REMARK INTRA:                  -0.031
REMARK UNBOUND:                -0.041
REMARK SMILES COc1ccccc1O
REMARK SMILES IDX 3 1 4 2 5 3 6 4 7 5 8 6 2 7 1 8 9 9
REMARK H PARENT 9 10
REMARK Flexibility Score: inf
ROOT
ATOM      1  C   UNL     1      -3.708  -5.339 -17.148  1.00  0.00     0.160 A 
ATOM      2  C   UNL     1      -4.120  -6.645 -16.812  1.00  0.00     0.050 A 
ATOM      3  C   UNL     1      -3.578  -7.749 -17.479  1.00  0.00     0.004 A 
ATOM      4  C   UNL     1      -2.626  -7.562 -18.482  1.00  0.00     0.004 A 
ATOM      5  C   UNL     1      -2.212  -6.273 -18.822  1.00  0.00     0.050 A 
ATOM      6  C   UNL     1      -2.750  -5.160 -18.159  1.00  0.00     0.157 A 
ENDROOT
BRANCH   1   7
ATOM      7  O   UNL     1      -4.225  -4.204 -16.505  1.00  0.00    -0.493 OA
ATOM      8  C   UNL     1      -4.568  -4.146 -15.124  1.00  0.00     0.278 C 
ENDBRANCH   1   7
BRANCH   6   9
ATOM      9  O   UNL     1      -2.338  -3.873 -18.496  1.00  0.00    -0.504 OA
ATOM     10  H   UNL     1      -2.830  -3.324 -19.192  1.00  0.00     0.293 HD
ENDBRANCH   6   9
TORSDOF 2
ENDMDL
MODEL 5
REMARK VINA RESULT:    -2.750      5.235      6.453
REMARK INTER + INTRA:          -3.033
REMARK INTER:                  -2.991
REMARK INTRA:                  -0.042
REMARK UNBOUND:                -0.041
REMARK SMILES COc1ccccc1O
REMARK SMILES IDX 3 1 4 2 5 3 6 4 7 5 8 6 2 7 1 8 9 9
REMARK H PARENT 9 10
REMARK Flexibility Score: inf
ROOT
ATOM      1  C   UNL     1      -3.899  -6.207 -15.016  1.00  0.00     0.160 A 
ATOM      2  C   UNL     1      -5.043  -6.730 -14.377  1.00  0.00     0.050 A 
ATOM      3  C   UNL     1      -5.025  -8.024 -13.849  1.00  0.00     0.004 A 
ATOM      4  C   UNL     1      -3.873  -8.806 -13.950  1.00  0.00     0.004 A 
ATOM      5  C   UNL     1      -2.736  -8.297 -14.581  1.00  0.00     0.050 A 
ATOM      6  C   UNL     1      -2.745  -6.999 -15.114  1.00  0.00     0.157 A 
ENDROOT
BRANCH   1   7
ATOM      7  O   UNL     1      -3.873  -4.913 -15.560  1.00  0.00    -0.493 OA
ATOM      8  C   UNL     1      -4.371  -4.572 -16.850  1.00  0.00     0.278 C 
ENDBRANCH   1   7
BRANCH   6   9
ATOM      9  O   UNL     1      -1.611  -6.489 -15.742  1.00  0.00    -0.504 OA
ATOM     10  H   UNL     1      -0.684  -6.628 -15.356  1.00  0.00     0.293 HD
ENDBRANCH   6   9
TORSDOF 2
ENDMDL
MODEL 6
REMARK VINA RESULT:    -2.730      3.633      6.189
REMARK INTER + INTRA:          -3.011
REMARK INTER:                  -2.968
REMARK INTRA:                  -0.043
REMARK UNBOUND:                -0.041
REMARK SMILES COc1ccccc1O
REMARK SMILES IDX 3 1 4 2 5 3 6 4 7 5 8 6 2 7 1 8 9 9
REMARK H PARENT 9 10
REMARK Flexibility Score: inf
ROOT
ATOM      1  C   UNL     1      -2.972  -6.253 -16.520  1.00  0.00     0.160 A 
ATOM      2  C   UNL     1      -3.450  -6.141 -15.198  1.00  0.00     0.050 A 
ATOM      3  C   UNL     1      -4.234  -5.046 -14.822  1.00  0.00     0.004 A 
ATOM      4  C   UNL     1      -4.548  -4.056 -15.755  1.00  0.00     0.004 A 
ATOM      5  C   UNL     1      -4.079  -4.158 -17.066  1.00  0.00     0.050 A 
ATOM      6  C   UNL     1      -3.292  -5.253 -17.452  1.00  0.00     0.157 A 
ENDROOT
BRANCH   1   7
ATOM      7  O   UNL     1      -2.182  -7.334 -16.941  1.00  0.00    -0.493 OA
ATOM      8  C   UNL     1      -0.775  -7.429 -16.745  1.00  0.00     0.278 C 
ENDBRANCH   1   7
BRANCH   6   9
ATOM      9  O   UNL     1      -2.824  -5.356 -18.760  1.00  0.00    -0.504 OA
ATOM     10  H   UNL     1      -2.387  -6.205 -19.101  1.00  0.00     0.293 HD
ENDBRANCH   6   9
TORSDOF 2
ENDMDL
MODEL 7
REMARK VINA RESULT:    -2.726     13.833     15.222
REMARK INTER + INTRA:          -3.007
REMARK INTER:                  -2.966
REMARK INTRA:                  -0.041
REMARK UNBOUND:                -0.041
REMARK SMILES COc1ccccc1O
REMARK SMILES IDX 3 1 4 2 5 3 6 4 7 5 8 6 2 7 1 8 9 9
REMARK H PARENT 9 10
REMARK Flexibility Score: inf
ROOT
ATOM      1  C   UNL     1      -4.962   6.704 -17.727  1.00  0.00     0.160 A 
ATOM      2  C   UNL     1      -6.061   7.373 -17.151  1.00  0.00     0.050 A 
ATOM      3  C   UNL     1      -7.209   6.662 -16.788  1.00  0.00     0.004 A 
ATOM      4  C   UNL     1      -7.272   5.283 -16.994  1.00  0.00     0.004 A 
ATOM      5  C   UNL     1      -6.189   4.611 -17.563  1.00  0.00     0.050 A 
ATOM      6  C   UNL     1      -5.034   5.316 -17.931  1.00  0.00     0.157 A 
ENDROOT
BRANCH   1   7
ATOM      7  O   UNL     1      -3.790   7.377 -18.106  1.00  0.00    -0.493 OA
ATOM      8  C   UNL     1      -2.719   7.690 -17.222  1.00  0.00     0.278 C 
ENDBRANCH   1   7
BRANCH   6   9
ATOM      9  O   UNL     1      -3.951   4.647 -18.498  1.00  0.00    -0.504 OA
ATOM     10  H   UNL     1      -3.925   4.425 -19.486  1.00  0.00     0.293 HD
ENDBRANCH   6   9
TORSDOF 2
ENDMDL
MODEL 8
REMARK VINA RESULT:    -2.622      5.707      6.287
REMARK INTER + INTRA:          -2.893
REMARK INTER:                  -2.847
REMARK INTRA:                  -0.046
REMARK UNBOUND:                -0.041
REMARK SMILES COc1ccccc1O
REMARK SMILES IDX 3 1 4 2 5 3 6 4 7 5 8 6 2 7 1 8 9 9
REMARK H PARENT 9 10
REMARK Flexibility Score: inf
ROOT
ATOM      1  C   UNL     1      -4.423  -5.029 -16.580  1.00  0.00     0.160 A 
ATOM      2  C   UNL     1      -4.358  -5.995 -17.605  1.00  0.00     0.050 A 
ATOM      3  C   UNL     1      -3.787  -7.247 -17.358  1.00  0.00     0.004 A 
ATOM      4  C   UNL     1      -3.279  -7.549 -16.093  1.00  0.00     0.004 A 
ATOM      5  C   UNL     1      -3.339  -6.598 -15.072  1.00  0.00     0.050 A 
ATOM      6  C   UNL     1      -3.909  -5.339 -15.310  1.00  0.00     0.157 A 
ENDROOT
BRANCH   1   7
ATOM      7  O   UNL     1      -4.986  -3.760 -16.783  1.00  0.00    -0.493 OA
ATOM      8  C   UNL     1      -6.385  -3.500 -16.848  1.00  0.00     0.278 C 
ENDBRANCH   1   7
BRANCH   6   9
ATOM      9  O   UNL     1      -3.970  -4.391 -14.292  1.00  0.00    -0.504 OA
ATOM     10  H   UNL     1      -3.961  -3.397 -14.492  1.00  0.00     0.293 HD
ENDBRANCH   6   9
TORSDOF 2
ENDMDL
