MODEL 1
REMARK VINA RESULT:    -2.649      0.000      0.000
REMARK INTER + INTRA:          -2.974
REMARK INTER:                  -2.959
REMARK INTRA:                  -0.015
REMARK UNBOUND:                -0.015
REMARK SMILES CCCC(=O)[O-]
REMARK SMILES IDX 3 1 4 2 5 3 6 4 2 5 1 6
REMARK H PARENT
REMARK Flexibility Score: inf
ROOT
ATOM      1  C   UNL     1     155.685 156.157 165.983  1.00  0.00     0.052 C 
ENDROOT
BRANCH   1   2
ATOM      2  C   UNL     1     155.957 155.193 167.094  1.00  0.00     0.041 C 
ATOM      3  O   UNL     1     157.020 154.518 167.100  1.00  0.00    -0.550 OA
ATOM      4  O   UNL     1     155.014 155.004 168.096  1.00  0.00    -0.550 OA
ENDBRANCH   1   2
BRANCH   1   5
ATOM      5  C   UNL     1     154.220 156.602 166.007  1.00  0.00     0.003 C 
ATOM      6  C   UNL     1     154.057 157.994 165.404  1.00  0.00     0.004 C 
ENDBRANCH   1   5
TORSDOF 2
ENDMDL
MODEL 2
REMARK VINA RESULT:    -2.597      2.955      3.871
REMARK INTER + INTRA:          -2.915
REMARK INTER:                  -2.910
REMARK INTRA:                  -0.005
REMARK UNBOUND:                -0.015
REMARK SMILES CCCC(=O)[O-]
REMARK SMILES IDX 3 1 4 2 5 3 6 4 2 5 1 6
REMARK H PARENT
REMARK Flexibility Score: inf
ROOT
ATOM      1  C   UNL     1     154.397 156.553 166.041  1.00  0.00     0.052 C 
ENDROOT
BRANCH   1   2
ATOM      2  C   UNL     1     154.117 157.689 165.109  1.00  0.00     0.041 C 
ATOM      3  O   UNL     1     154.080 158.871 165.543  1.00  0.00    -0.550 OA
ATOM      4  O   UNL     1     153.848 157.440 163.769  1.00  0.00    -0.550 OA
ENDBRANCH   1   2
BRANCH   1   5
ATOM      5  C   UNL     1     155.858 156.109 165.919  1.00  0.00     0.003 C 
ATOM      6  C   UNL     1     156.230 155.130 167.028  1.00  0.00     0.004 C 
ENDBRANCH   1   5
TORSDOF 2
ENDMDL
MODEL 3
REMARK VINA RESULT:    -2.505      2.195      2.951
REMARK INTER + INTRA:          -2.813
REMARK INTER:                  -2.742
REMARK INTRA:                  -0.071
REMARK UNBOUND:                -0.015
REMARK SMILES CCCC(=O)[O-]
REMARK SMILES IDX 3 1 4 2 5 3 6 4 2 5 1 6
REMARK H PARENT
REMARK Flexibility Score: inf
ROOT
ATOM      1  C   UNL     1     155.986 156.023 165.951  1.00  0.00     0.052 C 
ENDROOT
BRANCH   1   2
ATOM      2  C   UNL     1     154.599 156.577 166.025  1.00  0.00     0.041 C 
ATOM      3  O   UNL     1     154.363 157.748 165.625  1.00  0.00    -0.550 OA
ATOM      4  O   UNL     1     153.576 155.820 166.580  1.00  0.00    -0.550 OA
ENDBRANCH   1   2
BRANCH   1   5
ATOM      5  C   UNL     1     155.986 154.676 165.223  1.00  0.00     0.003 C 
ATOM      6  C   UNL     1     155.618 154.845 163.752  1.00  0.00     0.004 C 
ENDBRANCH   1   5
TORSDOF 2
ENDMDL
MODEL 4
REMARK VINA RESULT:    -2.497      2.214      3.235
REMARK INTER + INTRA:          -2.804
REMARK INTER:                  -2.739
REMARK INTRA:                  -0.065
REMARK UNBOUND:                -0.015
REMARK SMILES CCCC(=O)[O-]
REMARK SMILES IDX 3 1 4 2 5 3 6 4 2 5 1 6
REMARK H PARENT
REMARK Flexibility Score: inf
ROOT
ATOM      1  C   UNL     1     154.029 158.628 165.317  1.00  0.00     0.052 C 
ENDROOT
BRANCH   1   2
ATOM      2  C   UNL     1     154.122 157.206 165.772  1.00  0.00     0.041 C 
ATOM      3  O   UNL     1     153.076 156.560 166.047  1.00  0.00    -0.550 OA
ATOM      4  O   UNL     1     155.364 156.609 165.939  1.00  0.00    -0.550 OA
ENDBRANCH   1   2
BRANCH   1   5
ATOM      5  C   UNL     1     153.137 158.737 164.077  1.00  0.00     0.003 C 
ATOM      6  C   UNL     1     153.861 158.236 162.832  1.00  0.00     0.004 C 
ENDBRANCH   1   5
TORSDOF 2
ENDMDL
MODEL 5
REMARK VINA RESULT:    -2.476      2.932      3.597
REMARK INTER + INTRA:          -2.780
REMARK INTER:                  -2.750
REMARK INTRA:                  -0.031
REMARK UNBOUND:                -0.015
REMARK SMILES CCCC(=O)[O-]
REMARK SMILES IDX 3 1 4 2 5 3 6 4 2 5 1 6
REMARK H PARENT
REMARK Flexibility Score: inf
ROOT
ATOM      1  C   UNL     1     155.116 155.303 164.429  1.00  0.00     0.052 C 
ENDROOT
BRANCH   1   2
ATOM      2  C   UNL     1     153.662 155.033 164.205  1.00  0.00     0.041 C 
ATOM      3  O   UNL     1     153.034 155.652 163.306  1.00  0.00    -0.550 OA
ATOM      4  O   UNL     1     152.989 154.132 165.019  1.00  0.00    -0.550 OA
ENDBRANCH   1   2
BRANCH   1   5
ATOM      5  C   UNL     1     155.317 156.123 165.708  1.00  0.00     0.003 C 
ATOM      6  C   UNL     1     156.221 155.391 166.695  1.00  0.00     0.004 C 
ENDBRANCH   1   5
TORSDOF 2
ENDMDL
MODEL 6
REMARK VINA RESULT:    -2.470      1.880      2.348
REMARK INTER + INTRA:          -2.774
REMARK INTER:                  -2.733
REMARK INTRA:                  -0.041
REMARK UNBOUND:                -0.015
REMARK SMILES CCCC(=O)[O-]
REMARK SMILES IDX 3 1 4 2 5 3 6 4 2 5 1 6
REMARK H PARENT
REMARK Flexibility Score: inf
ROOT
ATOM      1  C   UNL     1     156.227 155.083 167.145  1.00  0.00     0.052 C 
ENDROOT
BRANCH   1   2
ATOM      2  C   UNL     1     154.939 154.739 167.822  1.00  0.00     0.041 C 
ATOM      3  O   UNL     1     153.935 155.489 167.692  1.00  0.00    -0.550 OA
ATOM      4  O   UNL     1     154.859 153.617 168.637  1.00  0.00    -0.550 OA
ENDBRANCH   1   2
BRANCH   1   5
ATOM      5  C   UNL     1     155.967 155.949 165.908  1.00  0.00     0.003 C 
ATOM      6  C   UNL     1     155.786 155.089 164.662  1.00  0.00     0.004 C 
ENDBRANCH   1   5
TORSDOF 2
ENDMDL
MODEL 7
REMARK VINA RESULT:    -2.448     15.012     16.069
REMARK INTER + INTRA:          -2.749
REMARK INTER:                  -2.710
REMARK INTRA:                  -0.038
REMARK UNBOUND:                -0.015
REMARK SMILES CCCC(=O)[O-]
REMARK SMILES IDX 3 1 4 2 5 3 6 4 2 5 1 6
REMARK H PARENT
REMARK Flexibility Score: inf
ROOT
ATOM      1  C   UNL     1     166.082 152.615 177.248  1.00  0.00     0.052 C 
ENDROOT
BRANCH   1   2
ATOM      2  C   UNL     1     166.669 153.678 176.374  1.00  0.00     0.041 C 
ATOM      3  O   UNL     1     167.831 153.544 175.906  1.00  0.00    -0.550 OA
ATOM      4  O   UNL     1     165.952 154.840 176.115  1.00  0.00    -0.550 OA
ENDBRANCH   1   2
BRANCH   1   5
ATOM      5  C   UNL     1     166.944 151.350 177.204  1.00  0.00     0.003 C 
ATOM      6  C   UNL     1     167.632 151.105 178.543  1.00  0.00     0.004 C 
ENDBRANCH   1   5
TORSDOF 2
ENDMDL
MODEL 8
REMARK VINA RESULT:    -2.442      1.813      2.287
REMARK INTER + INTRA:          -2.742
REMARK INTER:                  -2.672
REMARK INTRA:                  -0.071
REMARK UNBOUND:                -0.015
REMARK SMILES CCCC(=O)[O-]
REMARK SMILES IDX 3 1 4 2 5 3 6 4 2 5 1 6
REMARK H PARENT
REMARK Flexibility Score: inf
ROOT
ATOM      1  C   UNL     1     154.003 157.456 165.259  1.00  0.00     0.052 C 
ENDROOT
BRANCH   1   2
ATOM      2  C   UNL     1     154.688 156.430 166.105  1.00  0.00     0.041 C 
ATOM      3  O   UNL     1     155.897 156.143 165.896  1.00  0.00    -0.550 OA
ATOM      4  O   UNL     1     153.981 155.757 167.092  1.00  0.00    -0.550 OA
ENDBRANCH   1   2
BRANCH   1   5
ATOM      5  C   UNL     1     153.999 157.023 163.790  1.00  0.00     0.003 C 
ATOM      6  C   UNL     1     153.199 155.739 163.596  1.00  0.00     0.004 C 
ENDBRANCH   1   5
TORSDOF 2
ENDMDL
MODEL 9
REMARK VINA RESULT:    -2.424      1.657      2.082
REMARK INTER + INTRA:          -2.722
REMARK INTER:                  -2.685
REMARK INTRA:                  -0.037
REMARK UNBOUND:                -0.015
REMARK SMILES CCCC(=O)[O-]
REMARK SMILES IDX 3 1 4 2 5 3 6 4 2 5 1 6
REMARK H PARENT
REMARK Flexibility Score: inf
ROOT
ATOM      1  C   UNL     1     155.911 156.097 166.003  1.00  0.00     0.052 C 
ENDROOT
BRANCH   1   2
ATOM      2  C   UNL     1     156.233 154.902 165.163  1.00  0.00     0.041 C 
ATOM      3  O   UNL     1     155.863 154.855 163.960  1.00  0.00    -0.550 OA
ATOM      4  O   UNL     1     156.900 153.819 165.721  1.00  0.00    -0.550 OA
ENDBRANCH   1   2
BRANCH   1   5
ATOM      5  C   UNL     1     154.403 156.366 165.995  1.00  0.00     0.003 C 
ATOM      6  C   UNL     1     154.094 157.756 165.449  1.00  0.00     0.004 C 
ENDBRANCH   1   5
TORSDOF 2
ENDMDL
