MODEL 1
REMARK VINA RESULT:    -5.279      0.000      0.000
REMARK INTER + INTRA:          -5.742
REMARK INTER:                  -5.742
REMARK INTRA:                   0.000
REMARK UNBOUND:                 0.000
REMARK SMILES Cc1cc(O)c2c(c1)C(=O)c1cc(O)cc(O)c1C2=O
REMARK SMILES IDX 1 1 2 2 8 3 7 4 6 5 4 6 3 7 19 8 20 9 18 10 11 11 9 12 10 13
REMARK SMILES IDX 12 14 13 15 15 16 16 17 5 18 17 20 14 22
REMARK H PARENT 5 19 17 21 14 23
REMARK Flexibility Score: inf
ROOT
ATOM      1  C   UNL     1       4.958  24.038   7.774  1.00  0.00     0.044 C 
ATOM      2  C   UNL     1       6.161  24.902   7.535  1.00  0.00    -0.047 A 
ATOM      3  C   UNL     1       7.327  24.352   6.990  1.00  0.00     0.016 A 
ATOM      4  C   UNL     1       8.443  25.162   6.723  1.00  0.00     0.038 A 
ATOM      5  C   UNL     1       8.384  26.550   6.979  1.00  0.00     0.076 A 
ATOM      6  C   UNL     1       7.216  27.094   7.575  1.00  0.00     0.127 A 
ATOM      7  C   UNL     1       6.111  26.272   7.813  1.00  0.00     0.050 A 
ATOM      8  C   UNL     1       9.528  27.394   6.547  1.00  0.00     0.201 C 
ATOM      9  O   UNL     1       9.333  28.593   6.215  1.00  0.00    -0.288 OA
ATOM     10  C   UNL     1      10.860  26.773   6.326  1.00  0.00     0.076 A 
ATOM     11  C   UNL     1      10.915  25.384   6.069  1.00  0.00     0.041 A 
ATOM     12  C   UNL     1       9.685  24.565   6.174  1.00  0.00     0.194 C 
ATOM     13  O   UNL     1       9.701  23.353   5.822  1.00  0.00    -0.289 OA
ATOM     14  C   UNL     1      12.137  24.786   5.718  1.00  0.00     0.059 A 
ATOM     15  C   UNL     1      13.304  25.552   5.637  1.00  0.00     0.120 A 
ATOM     16  C   UNL     1      13.261  26.914   5.929  1.00  0.00     0.093 A 
ATOM     17  C   UNL     1      12.061  27.530   6.299  1.00  0.00     0.131 A 
ENDROOT
BRANCH   6  18
ATOM     18  O   UNL     1       7.123  28.430   7.973  1.00  0.00    -0.507 OA
ATOM     19  H   UNL     1       7.893  28.948   8.373  1.00  0.00     0.293 HD
ENDBRANCH   6  18
BRANCH  17  20
ATOM     20  O   UNL     1      12.114  28.876   6.665  1.00  0.00    -0.507 OA
ATOM     21  H   UNL     1      12.651  29.571   6.165  1.00  0.00     0.293 HD
ENDBRANCH  17  20
BRANCH  15  22
ATOM     22  O   UNL     1      14.515  24.964   5.278  1.00  0.00    -0.508 OA
ATOM     23  H   UNL     1      14.549  24.090   4.766  1.00  0.00     0.293 HD
ENDBRANCH  15  22
TORSDOF 3
ENDMDL
MODEL 2
REMARK VINA RESULT:    -5.270      8.326     11.597
REMARK INTER + INTRA:          -5.732
REMARK INTER:                  -5.732
REMARK INTRA:                   0.000
REMARK UNBOUND:                 0.000
REMARK SMILES Cc1cc(O)c2c(c1)C(=O)c1cc(O)cc(O)c1C2=O
REMARK SMILES IDX 1 1 2 2 8 3 7 4 6 5 4 6 3 7 19 8 20 9 18 10 11 11 9 12 10 13
REMARK SMILES IDX 12 14 13 15 15 16 16 17 5 18 17 20 14 22
REMARK H PARENT 5 19 17 21 14 23
REMARK Flexibility Score: inf
ROOT
ATOM      1  C   UNL     1      16.631  37.676   7.988  1.00  0.00     0.044 C 
ATOM      2  C   UNL     1      15.437  36.814   7.700  1.00  0.00    -0.047 A 
ATOM      3  C   UNL     1      14.284  37.374   7.135  1.00  0.00     0.016 A 
ATOM      4  C   UNL     1      13.177  36.568   6.822  1.00  0.00     0.038 A 
ATOM      5  C   UNL     1      13.232  35.175   7.051  1.00  0.00     0.076 A 
ATOM      6  C   UNL     1      14.385  34.620   7.666  1.00  0.00     0.127 A 
ATOM      7  C   UNL     1      15.482  35.440   7.950  1.00  0.00     0.050 A 
ATOM      8  C   UNL     1      12.102  34.338   6.572  1.00  0.00     0.201 C 
ATOM      9  O   UNL     1      12.308  33.147   6.220  1.00  0.00    -0.288 OA
ATOM     10  C   UNL     1      10.775  34.962   6.328  1.00  0.00     0.076 A 
ATOM     11  C   UNL     1      10.724  36.355   6.099  1.00  0.00     0.041 A 
ATOM     12  C   UNL     1      11.949  37.174   6.254  1.00  0.00     0.194 C 
ATOM     13  O   UNL     1      11.939  38.393   5.926  1.00  0.00    -0.289 OA
ATOM     14  C   UNL     1       9.510  36.959   5.728  1.00  0.00     0.059 A 
ATOM     15  C   UNL     1       8.348  36.193   5.601  1.00  0.00     0.120 A 
ATOM     16  C   UNL     1       8.385  34.825   5.866  1.00  0.00     0.093 A 
ATOM     17  C   UNL     1       9.576  34.204   6.255  1.00  0.00     0.131 A 
ENDROOT
BRANCH   6  18
ATOM     18  O   UNL     1      14.471  33.277   8.039  1.00  0.00    -0.507 OA
ATOM     19  H   UNL     1      13.763  32.802   8.581  1.00  0.00     0.293 HD
ENDBRANCH   6  18
BRANCH  17  20
ATOM     20  O   UNL     1       9.517  32.850   6.591  1.00  0.00    -0.507 OA
ATOM     21  H   UNL     1       9.956  32.458   7.414  1.00  0.00     0.293 HD
ENDBRANCH  17  20
BRANCH  15  22
ATOM     22  O   UNL     1       7.145  36.786   5.222  1.00  0.00    -0.508 OA
ATOM     23  H   UNL     1       7.092  37.768   4.974  1.00  0.00     0.293 HD
ENDBRANCH  15  22
TORSDOF 3
ENDMDL
MODEL 3
REMARK VINA RESULT:    -5.243      1.798      2.361
REMARK INTER + INTRA:          -5.702
REMARK INTER:                  -5.702
REMARK INTRA:                   0.000
REMARK UNBOUND:                 0.000
REMARK SMILES Cc1cc(O)c2c(c1)C(=O)c1cc(O)cc(O)c1C2=O
REMARK SMILES IDX 1 1 2 2 8 3 7 4 6 5 4 6 3 7 19 8 20 9 18 10 11 11 9 12 10 13
REMARK SMILES IDX 12 14 13 15 15 16 16 17 5 18 17 20 14 22
REMARK H PARENT 5 19 17 21 14 23
REMARK Flexibility Score: inf
ROOT
ATOM      1  C   UNL     1       4.951  23.848   7.697  1.00  0.00     0.044 C 
ATOM      2  C   UNL     1       5.708  25.129   7.508  1.00  0.00    -0.047 A 
ATOM      3  C   UNL     1       7.054  25.102   7.126  1.00  0.00     0.016 A 
ATOM      4  C   UNL     1       7.759  26.297   6.904  1.00  0.00     0.038 A 
ATOM      5  C   UNL     1       7.101  27.539   7.041  1.00  0.00     0.076 A 
ATOM      6  C   UNL     1       5.749  27.562   7.473  1.00  0.00     0.127 A 
ATOM      7  C   UNL     1       5.062  26.359   7.668  1.00  0.00     0.050 A 
ATOM      8  C   UNL     1       7.837  28.771   6.656  1.00  0.00     0.201 C 
ATOM      9  O   UNL     1       7.206  29.766   6.210  1.00  0.00    -0.288 OA
ATOM     10  C   UNL     1       9.322  28.760   6.617  1.00  0.00     0.076 A 
ATOM     11  C   UNL     1       9.978  27.515   6.480  1.00  0.00     0.041 A 
ATOM     12  C   UNL     1       9.193  26.259   6.530  1.00  0.00     0.194 C 
ATOM     13  O   UNL     1       9.753  25.155   6.281  1.00  0.00    -0.289 OA
ATOM     14  C   UNL     1      11.371  27.475   6.300  1.00  0.00     0.059 A 
ATOM     15  C   UNL     1      12.117  28.656   6.272  1.00  0.00     0.120 A 
ATOM     16  C   UNL     1      11.479  29.883   6.448  1.00  0.00     0.093 A 
ATOM     17  C   UNL     1      10.097  29.950   6.648  1.00  0.00     0.131 A 
ENDROOT
BRANCH   6  18
ATOM     18  O   UNL     1       5.064  28.747   7.751  1.00  0.00    -0.507 OA
ATOM     19  H   UNL     1       4.127  28.775   8.128  1.00  0.00     0.293 HD
ENDBRANCH   6  18
BRANCH  17  20
ATOM     20  O   UNL     1       9.542  31.205   6.907  1.00  0.00    -0.507 OA
ATOM     21  H   UNL     1       8.618  31.339   7.294  1.00  0.00     0.293 HD
ENDBRANCH  17  20
BRANCH  15  22
ATOM     22  O   UNL     1      13.497  28.620   6.082  1.00  0.00    -0.508 OA
ATOM     23  H   UNL     1      13.904  28.618   5.154  1.00  0.00     0.293 HD
ENDBRANCH  15  22
TORSDOF 3
ENDMDL
MODEL 4
REMARK VINA RESULT:    -5.197      1.917      6.580
REMARK INTER + INTRA:          -5.652
REMARK INTER:                  -5.652
REMARK INTRA:                   0.000
REMARK UNBOUND:                 0.000
REMARK SMILES Cc1cc(O)c2c(c1)C(=O)c1cc(O)cc(O)c1C2=O
REMARK SMILES IDX 1 1 2 2 8 3 7 4 6 5 4 6 3 7 19 8 20 9 18 10 11 11 9 12 10 13
REMARK SMILES IDX 12 14 13 15 15 16 16 17 5 18 17 20 14 22
REMARK H PARENT 5 19 17 21 14 23
REMARK Flexibility Score: inf
ROOT
ATOM      1  C   UNL     1      12.774  27.117   6.026  1.00  0.00     0.044 C 
ATOM      2  C   UNL     1      11.379  26.599   6.214  1.00  0.00    -0.047 A 
ATOM      3  C   UNL     1      10.313  27.492   6.377  1.00  0.00     0.016 A 
ATOM      4  C   UNL     1       8.997  27.019   6.511  1.00  0.00     0.038 A 
ATOM      5  C   UNL     1       8.738  25.630   6.452  1.00  0.00     0.076 A 
ATOM      6  C   UNL     1       9.828  24.728   6.332  1.00  0.00     0.127 A 
ATOM      7  C   UNL     1      11.126  25.225   6.181  1.00  0.00     0.050 A 
ATOM      8  C   UNL     1       7.323  25.179   6.449  1.00  0.00     0.201 C 
ATOM      9  O   UNL     1       7.004  24.117   5.851  1.00  0.00    -0.288 OA
ATOM     10  C   UNL     1       6.263  26.073   6.983  1.00  0.00     0.076 A 
ATOM     11  C   UNL     1       6.525  27.460   7.040  1.00  0.00     0.041 A 
ATOM     12  C   UNL     1       7.878  27.969   6.715  1.00  0.00     0.194 C 
ATOM     13  O   UNL     1       8.083  29.212   6.639  1.00  0.00    -0.289 OA
ATOM     14  C   UNL     1       5.502  28.351   7.407  1.00  0.00     0.059 A 
ATOM     15  C   UNL     1       4.229  27.872   7.733  1.00  0.00     0.120 A 
ATOM     16  C   UNL     1       3.978  26.502   7.719  1.00  0.00     0.093 A 
ATOM     17  C   UNL     1       4.985  25.593   7.375  1.00  0.00     0.131 A 
ENDROOT
BRANCH   6  18
ATOM     18  O   UNL     1       9.670  23.342   6.391  1.00  0.00    -0.507 OA
ATOM     19  H   UNL     1      10.019  22.772   7.148  1.00  0.00     0.293 HD
ENDBRANCH   6  18
BRANCH  17  20
ATOM     20  O   UNL     1       4.685  24.233   7.470  1.00  0.00    -0.507 OA
ATOM     21  H   UNL     1       5.151  23.518   6.928  1.00  0.00     0.293 HD
ENDBRANCH  17  20
BRANCH  15  22
ATOM     22  O   UNL     1       3.209  28.753   8.086  1.00  0.00    -0.508 OA
ATOM     23  H   UNL     1       2.278  28.672   7.694  1.00  0.00     0.293 HD
ENDBRANCH  15  22
TORSDOF 3
ENDMDL
MODEL 5
REMARK VINA RESULT:    -5.158      8.531     10.319
REMARK INTER + INTRA:          -5.610
REMARK INTER:                  -5.610
REMARK INTRA:                   0.000
REMARK UNBOUND:                 0.000
REMARK SMILES Cc1cc(O)c2c(c1)C(=O)c1cc(O)cc(O)c1C2=O
REMARK SMILES IDX 1 1 2 2 8 3 7 4 6 5 4 6 3 7 19 8 20 9 18 10 11 11 9 12 10 13
REMARK SMILES IDX 12 14 13 15 15 16 16 17 5 18 17 20 14 22
REMARK H PARENT 5 19 17 21 14 23
REMARK Flexibility Score: inf
ROOT
ATOM      1  C   UNL     1       8.749  34.824   6.079  1.00  0.00     0.044 C 
ATOM      2  C   UNL     1      10.166  35.289   6.236  1.00  0.00    -0.047 A 
ATOM      3  C   UNL     1      11.197  34.359   6.416  1.00  0.00     0.016 A 
ATOM      4  C   UNL     1      12.532  34.782   6.520  1.00  0.00     0.038 A 
ATOM      5  C   UNL     1      12.846  36.156   6.416  1.00  0.00     0.076 A 
ATOM      6  C   UNL     1      11.793  37.098   6.280  1.00  0.00     0.127 A 
ATOM      7  C   UNL     1      10.474  36.651   6.158  1.00  0.00     0.050 A 
ATOM      8  C   UNL     1      14.279  36.548   6.384  1.00  0.00     0.201 C 
ATOM      9  O   UNL     1      14.633  37.578   5.750  1.00  0.00    -0.288 OA
ATOM     10  C   UNL     1      15.308  35.629   6.934  1.00  0.00     0.076 A 
ATOM     11  C   UNL     1      14.990  34.255   7.036  1.00  0.00     0.041 A 
ATOM     12  C   UNL     1      13.614  33.793   6.742  1.00  0.00     0.194 C 
ATOM     13  O   UNL     1      13.357  32.557   6.706  1.00  0.00    -0.289 OA
ATOM     14  C   UNL     1      15.981  33.335   7.420  1.00  0.00     0.059 A 
ATOM     15  C   UNL     1      17.275  33.771   7.718  1.00  0.00     0.120 A 
ATOM     16  C   UNL     1      17.582  35.129   7.658  1.00  0.00     0.093 A 
ATOM     17  C   UNL     1      16.609  36.067   7.297  1.00  0.00     0.131 A 
ENDROOT
BRANCH   6  18
ATOM     18  O   UNL     1      12.008  38.478   6.294  1.00  0.00    -0.507 OA
ATOM     19  H   UNL     1      11.344  39.149   5.934  1.00  0.00     0.293 HD
ENDBRANCH   6  18
BRANCH  17  20
ATOM     20  O   UNL     1      16.965  37.416   7.347  1.00  0.00    -0.507 OA
ATOM     21  H   UNL     1      16.927  38.035   6.548  1.00  0.00     0.293 HD
ENDBRANCH  17  20
BRANCH  15  22
ATOM     22  O   UNL     1      18.263  32.860   8.087  1.00  0.00    -0.508 OA
ATOM     23  H   UNL     1      18.030  31.950   8.470  1.00  0.00     0.293 HD
ENDBRANCH  15  22
TORSDOF 3
ENDMDL
MODEL 6
REMARK VINA RESULT:    -5.084      7.357      9.158
REMARK INTER + INTRA:          -5.530
REMARK INTER:                  -5.530
REMARK INTRA:                   0.000
REMARK UNBOUND:                 0.000
REMARK SMILES Cc1cc(O)c2c(c1)C(=O)c1cc(O)cc(O)c1C2=O
REMARK SMILES IDX 1 1 2 2 8 3 7 4 6 5 4 6 3 7 19 8 20 9 18 10 11 11 9 12 10 13
REMARK SMILES IDX 12 14 13 15 15 16 16 17 5 18 17 20 14 22
REMARK H PARENT 5 19 17 21 14 23
REMARK Flexibility Score: inf
ROOT
ATOM      1  C   UNL     1       8.378  31.569   5.731  1.00  0.00     0.044 C 
ATOM      2  C   UNL     1       9.335  32.685   6.029  1.00  0.00    -0.047 A 
ATOM      3  C   UNL     1      10.692  32.412   6.238  1.00  0.00     0.016 A 
ATOM      4  C   UNL     1      11.604  33.454   6.475  1.00  0.00     0.038 A 
ATOM      5  C   UNL     1      11.156  34.795   6.476  1.00  0.00     0.076 A 
ATOM      6  C   UNL     1       9.772  35.062   6.309  1.00  0.00     0.127 A 
ATOM      7  C   UNL     1       8.888  34.009   6.055  1.00  0.00     0.050 A 
ATOM      8  C   UNL     1      12.172  35.875   6.582  1.00  0.00     0.201 C 
ATOM      9  O   UNL     1      11.959  36.991   6.039  1.00  0.00    -0.288 OA
ATOM     10  C   UNL     1      13.507  35.576   7.161  1.00  0.00     0.076 A 
ATOM     11  C   UNL     1      13.951  34.234   7.158  1.00  0.00     0.041 A 
ATOM     12  C   UNL     1      13.033  33.154   6.727  1.00  0.00     0.194 C 
ATOM     13  O   UNL     1      13.463  31.974   6.600  1.00  0.00    -0.289 OA
ATOM     14  C   UNL     1      15.261  33.930   7.567  1.00  0.00     0.059 A 
ATOM     15  C   UNL     1      16.123  34.944   7.994  1.00  0.00     0.120 A 
ATOM     16  C   UNL     1      15.675  36.264   8.037  1.00  0.00     0.093 A 
ATOM     17  C   UNL     1      14.371  36.590   7.653  1.00  0.00     0.131 A 
ENDROOT
BRANCH   6  18
ATOM     18  O   UNL     1       9.232  36.345   6.419  1.00  0.00    -0.507 OA
ATOM     19  H   UNL     1       8.536  36.601   7.106  1.00  0.00     0.293 HD
ENDBRANCH   6  18
BRANCH  17  20
ATOM     20  O   UNL     1      13.966  37.917   7.809  1.00  0.00    -0.507 OA
ATOM     21  H   UNL     1      13.065  38.266   7.510  1.00  0.00     0.293 HD
ENDBRANCH  17  20
BRANCH  15  22
ATOM     22  O   UNL     1      17.426  34.648   8.389  1.00  0.00    -0.508 OA
ATOM     23  H   UNL     1      18.168  35.336   8.329  1.00  0.00     0.293 HD
ENDBRANCH  15  22
TORSDOF 3
ENDMDL
MODEL 7
REMARK VINA RESULT:    -5.045      1.548      6.358
REMARK INTER + INTRA:          -5.487
REMARK INTER:                  -5.487
REMARK INTRA:                   0.000
REMARK UNBOUND:                 0.000
REMARK SMILES Cc1cc(O)c2c(c1)C(=O)c1cc(O)cc(O)c1C2=O
REMARK SMILES IDX 1 1 2 2 8 3 7 4 6 5 4 6 3 7 19 8 20 9 18 10 11 11 9 12 10 13
REMARK SMILES IDX 12 14 13 15 15 16 16 17 5 18 17 20 14 22
REMARK H PARENT 5 19 17 21 14 23
REMARK Flexibility Score: inf
ROOT
ATOM      1  C   UNL     1      13.251  29.117   5.731  1.00  0.00     0.044 C 
ATOM      2  C   UNL     1      12.176  28.108   6.007  1.00  0.00    -0.047 A 
ATOM      3  C   UNL     1      10.865  28.528   6.261  1.00  0.00     0.016 A 
ATOM      4  C   UNL     1       9.842  27.589   6.477  1.00  0.00     0.038 A 
ATOM      5  C   UNL     1      10.130  26.207   6.413  1.00  0.00     0.076 A 
ATOM      6  C   UNL     1      11.469  25.788   6.202  1.00  0.00     0.127 A 
ATOM      7  C   UNL     1      12.466  26.741   5.969  1.00  0.00     0.050 A 
ATOM      8  C   UNL     1       8.997  25.249   6.501  1.00  0.00     0.201 C 
ATOM      9  O   UNL     1       9.066  24.140   5.909  1.00  0.00    -0.288 OA
ATOM     10  C   UNL     1       7.717  25.676   7.124  1.00  0.00     0.076 A 
ATOM     11  C   UNL     1       7.433  27.060   7.186  1.00  0.00     0.041 A 
ATOM     12  C   UNL     1       8.463  28.043   6.776  1.00  0.00     0.194 C 
ATOM     13  O   UNL     1       8.172  29.269   6.707  1.00  0.00    -0.289 OA
ATOM     14  C   UNL     1       6.177  27.496   7.639  1.00  0.00     0.059 A 
ATOM     15  C   UNL     1       5.210  26.572   8.046  1.00  0.00     0.120 A 
ATOM     16  C   UNL     1       5.501  25.209   8.025  1.00  0.00     0.093 A 
ATOM     17  C   UNL     1       6.750  24.750   7.596  1.00  0.00     0.131 A 
ENDROOT
BRANCH   6  18
ATOM     18  O   UNL     1      11.857  24.447   6.247  1.00  0.00    -0.507 OA
ATOM     19  H   UNL     1      11.867  23.841   5.439  1.00  0.00     0.293 HD
ENDBRANCH   6  18
BRANCH  17  20
ATOM     20  O   UNL     1       7.000  23.379   7.688  1.00  0.00    -0.507 OA
ATOM     21  H   UNL     1       6.296  22.670   7.532  1.00  0.00     0.293 HD
ENDBRANCH  17  20
BRANCH  15  22
ATOM     22  O   UNL     1       3.959  27.000   8.484  1.00  0.00    -0.508 OA
ATOM     23  H   UNL     1       3.340  26.388   9.003  1.00  0.00     0.293 HD
ENDBRANCH  15  22
TORSDOF 3
ENDMDL
MODEL 8
REMARK VINA RESULT:    -5.009     12.065     13.112
REMARK INTER + INTRA:          -5.448
REMARK INTER:                  -5.448
REMARK INTRA:                   0.000
REMARK UNBOUND:                 0.000
REMARK SMILES Cc1cc(O)c2c(c1)C(=O)c1cc(O)cc(O)c1C2=O
REMARK SMILES IDX 1 1 2 2 8 3 7 4 6 5 4 6 3 7 19 8 20 9 18 10 11 11 9 12 10 13
REMARK SMILES IDX 12 14 13 15 15 16 16 17 5 18 17 20 14 22
REMARK H PARENT 5 19 17 21 14 23
REMARK Flexibility Score: inf
ROOT
ATOM      1  C   UNL     1      11.537  41.031   8.565  1.00  0.00     0.044 C 
ATOM      2  C   UNL     1      12.517  40.185   7.806  1.00  0.00    -0.047 A 
ATOM      3  C   UNL     1      13.150  39.106   8.433  1.00  0.00     0.016 A 
ATOM      4  C   UNL     1      14.035  38.282   7.718  1.00  0.00     0.038 A 
ATOM      5  C   UNL     1      14.272  38.525   6.346  1.00  0.00     0.076 A 
ATOM      6  C   UNL     1      13.663  39.648   5.728  1.00  0.00     0.127 A 
ATOM      7  C   UNL     1      12.770  40.441   6.455  1.00  0.00     0.050 A 
ATOM      8  C   UNL     1      15.097  37.547   5.592  1.00  0.00     0.201 C 
ATOM      9  O   UNL     1      14.887  37.364   4.363  1.00  0.00    -0.288 OA
ATOM     10  C   UNL     1      16.034  36.654   6.322  1.00  0.00     0.076 A 
ATOM     11  C   UNL     1      15.794  36.413   7.694  1.00  0.00     0.041 A 
ATOM     12  C   UNL     1      14.726  37.160   8.398  1.00  0.00     0.194 C 
ATOM     13  O   UNL     1      14.422  36.859   9.586  1.00  0.00    -0.289 OA
ATOM     14  C   UNL     1      16.572  35.468   8.385  1.00  0.00     0.059 A 
ATOM     15  C   UNL     1      17.594  34.776   7.728  1.00  0.00     0.120 A 
ATOM     16  C   UNL     1      17.860  35.040   6.386  1.00  0.00     0.093 A 
ATOM     17  C   UNL     1      17.113  35.989   5.681  1.00  0.00     0.131 A 
ENDROOT
BRANCH   6  18
ATOM     18  O   UNL     1      13.940  40.029   4.413  1.00  0.00    -0.507 OA
ATOM     19  H   UNL     1      14.476  39.464   3.769  1.00  0.00     0.293 HD
ENDBRANCH   6  18
BRANCH  17  20
ATOM     20  O   UNL     1      17.496  36.266   4.367  1.00  0.00    -0.507 OA
ATOM     21  H   UNL     1      18.437  36.523   4.101  1.00  0.00     0.293 HD
ENDBRANCH  17  20
BRANCH  15  22
ATOM     22  O   UNL     1      18.359  33.830   8.407  1.00  0.00    -0.508 OA
ATOM     23  H   UNL     1      17.941  33.181   9.064  1.00  0.00     0.293 HD
ENDBRANCH  15  22
TORSDOF 3
ENDMDL
MODEL 9
REMARK VINA RESULT:    -4.943      5.384      7.869
REMARK INTER + INTRA:          -5.376
REMARK INTER:                  -5.376
REMARK INTRA:                   0.000
REMARK UNBOUND:                 0.000
REMARK SMILES Cc1cc(O)c2c(c1)C(=O)c1cc(O)cc(O)c1C2=O
REMARK SMILES IDX 1 1 2 2 8 3 7 4 6 5 4 6 3 7 19 8 20 9 18 10 11 11 9 12 10 13
REMARK SMILES IDX 12 14 13 15 15 16 16 17 5 18 17 20 14 22
REMARK H PARENT 5 19 17 21 14 23
REMARK Flexibility Score: inf
ROOT
ATOM      1  C   UNL     1      12.862  27.763   6.190  1.00  0.00     0.044 C 
ATOM      2  C   UNL     1      11.868  28.886   6.229  1.00  0.00    -0.047 A 
ATOM      3  C   UNL     1      12.276  30.198   5.963  1.00  0.00     0.016 A 
ATOM      4  C   UNL     1      11.345  31.249   5.955  1.00  0.00     0.038 A 
ATOM      5  C   UNL     1       9.977  30.981   6.190  1.00  0.00     0.076 A 
ATOM      6  C   UNL     1       9.577  29.656   6.505  1.00  0.00     0.127 A 
ATOM      7  C   UNL     1      10.519  28.623   6.487  1.00  0.00     0.050 A 
ATOM      8  C   UNL     1       9.005  32.093   6.028  1.00  0.00     0.201 C 
ATOM      9  O   UNL     1       7.826  31.847   5.658  1.00  0.00    -0.288 OA
ATOM     10  C   UNL     1       9.474  33.500   6.115  1.00  0.00     0.076 A 
ATOM     11  C   UNL     1      10.842  33.765   5.879  1.00  0.00     0.041 A 
ATOM     12  C   UNL     1      11.791  32.641   5.704  1.00  0.00     0.194 C 
ATOM     13  O   UNL     1      12.985  32.870   5.366  1.00  0.00    -0.289 OA
ATOM     14  C   UNL     1      11.296  35.093   5.815  1.00  0.00     0.059 A 
ATOM     15  C   UNL     1      10.408  36.156   6.000  1.00  0.00     0.120 A 
ATOM     16  C   UNL     1       9.066  35.899   6.274  1.00  0.00     0.093 A 
ATOM     17  C   UNL     1       8.591  34.586   6.361  1.00  0.00     0.131 A 
ENDROOT
BRANCH   6  18
ATOM     18  O   UNL     1       8.269  29.329   6.870  1.00  0.00    -0.507 OA
ATOM     19  H   UNL     1       7.455  29.829   6.539  1.00  0.00     0.293 HD
ENDBRANCH   6  18
BRANCH  17  20
ATOM     20  O   UNL     1       7.256  34.405   6.728  1.00  0.00    -0.507 OA
ATOM     21  H   UNL     1       6.790  33.508   6.718  1.00  0.00     0.293 HD
ENDBRANCH  17  20
BRANCH  15  22
ATOM     22  O   UNL     1      10.853  37.474   5.926  1.00  0.00    -0.508 OA
ATOM     23  H   UNL     1      10.509  38.111   5.216  1.00  0.00     0.293 HD
ENDBRANCH  15  22
TORSDOF 3
ENDMDL
