MODEL 1
REMARK VINA RESULT:    -6.081      0.000      0.000
REMARK INTER + INTRA:         -15.491
REMARK INTER:                 -12.835
REMARK INTRA:                  -2.656
REMARK UNBOUND:                -2.656
REMARK SMILES CCC(=O)CCCCC[C@@H]1NC(=O)[C@H]2CCCCN2C(=O)[C@@H]([C@@H](C)CC)NC(=O)[C@@H](Cc2cn(OC)c3ccccc23)NC1=O
REMARK SMILES IDX 9 1 10 2 44 3 43 4 45 6 30 7 28 8 27 9 29 11 22 12 23 14
REMARK SMILES IDX 24 15 25 16 26 17 31 18 32 19 33 20 42 21 34 22 37 23 41 24
REMARK SMILES IDX 38 25 40 26 39 27 35 28 36 29 11 30 12 31 13 33 14 34 19 35
REMARK SMILES IDX 15 36 18 37 16 38 17 39 20 40 21 41 8 43 7 44 6 45 5 46 3 47
REMARK SMILES IDX 4 48 2 49 1 50
REMARK H PARENT 43 5 27 10 11 32
REMARK Flexibility Score: 80.00
ROOT
ATOM      1  C   UNL     1      20.562 -29.175  21.158  1.00  0.00     0.035 C 
ENDROOT
BRANCH   1   2
ATOM      2  C   UNL     1      20.103 -30.648  21.260  1.00  0.00     0.171 C 
BRANCH   2   3
ATOM      3  C   UNL     1      20.910 -31.489  22.215  1.00  0.00     0.243 C 
ATOM      4  N   UNL     1      21.259 -32.836  21.863  1.00  0.00    -0.342 N 
ATOM      5  H   UNL     1      21.049 -33.172  20.896  1.00  0.00     0.164 HD
ATOM      6  O   UNL     1      21.163 -31.054  23.373  1.00  0.00    -0.273 OA
BRANCH   4   7
ATOM      7  C   UNL     1      21.630 -33.818  22.883  1.00  0.00     0.175 C 
BRANCH   7   8
ATOM      8  C   UNL     1      20.412 -34.577  23.352  1.00  0.00     0.243 C 
ATOM      9  N   UNL     1      19.287 -34.797  22.474  1.00  0.00    -0.342 N 
ATOM     10  H   UNL     1      19.282 -34.338  21.535  1.00  0.00     0.164 HD
ATOM     11  O   UNL     1      20.408 -35.052  24.517  1.00  0.00    -0.273 OA
BRANCH   9  12
ATOM     12  C   UNL     1      18.191 -35.716  22.803  1.00  0.00     0.174 CG0
ATOM     13  G   UNL     1      16.917 -34.935  23.040  1.00  0.00     0.000 G0
BRANCH  12  14
ATOM     14  C   UNL     1      18.027 -36.791  21.690  1.00  0.00     0.018 C 
ATOM     15  C   UNL     1      18.469 -36.251  20.316  1.00  0.00     0.010 C 
BRANCH  14  16
ATOM     16  C   UNL     1      18.742 -38.130  22.023  1.00  0.00     0.002 C 
ATOM     17  C   UNL     1      19.409 -38.182  23.401  1.00  0.00     0.004 C 
ENDBRANCH  14  16
ENDBRANCH  12  14
ENDBRANCH   9  12
ENDBRANCH   7   8
BRANCH   7  18
ATOM     18  C   UNL     1      22.703 -34.776  22.329  1.00  0.00     0.073 C 
BRANCH  18  19
ATOM     19  C   UNL     1      24.046 -34.527  22.956  1.00  0.00    -0.016 A 
ATOM     20  C   UNL     1      24.747 -33.326  22.968  1.00  0.00     0.134 A 
ATOM     21  C   UNL     1      24.836 -35.435  23.643  1.00  0.00     0.006 A 
ATOM     22  N   UNL     1      25.921 -33.487  23.626  1.00  0.00    -0.191 N 
ATOM     23  C   UNL     1      25.972 -34.768  24.027  1.00  0.00     0.087 A 
ATOM     24  C   UNL     1      24.629 -36.776  23.965  1.00  0.00     0.011 A 
ATOM     25  C   UNL     1      26.983 -35.396  24.753  1.00  0.00     0.030 A 
ATOM     26  C   UNL     1      25.637 -37.441  24.687  1.00  0.00     0.001 A 
ATOM     27  C   UNL     1      26.809 -36.756  25.075  1.00  0.00     0.002 A 
BRANCH  22  28
ATOM     28  O   UNL     1      26.887 -32.532  23.885  1.00  0.00    -0.417 OA
ATOM     29  C   UNL     1      26.744 -31.173  23.482  1.00  0.00     0.313 C 
ENDBRANCH  22  28
ENDBRANCH  18  19
ENDBRANCH   7  18
ENDBRANCH   4   7
ENDBRANCH   2   3
BRANCH   2  30
ATOM     30  N   UNL     1      18.688 -30.763  21.608  1.00  0.00    -0.343 N 
ATOM     31  C   UNL     1      18.001 -32.008  21.424  1.00  0.00     0.243 C 
ATOM     32  H   UNL     1      18.288 -30.097  22.310  1.00  0.00     0.164 HD
ATOM     33  O   UNL     1      18.247 -32.717  20.407  1.00  0.00    -0.273 OA
BRANCH  31  34
ATOM     34  C   UNL     1      16.970 -32.456  22.430  1.00  0.00     0.174 C 
ATOM     35  N   UNL     1      16.505 -33.828  22.152  1.00  0.00    -0.329 N 
ATOM     36  C   UNL     1      15.785 -31.472  22.484  1.00  0.00     0.035 C 
ATOM     37  C   UNL     1      15.507 -34.076  21.098  1.00  0.00     0.120 C 
ATOM     38  C   UNL     1      14.844 -31.649  21.284  1.00  0.00     0.004 C 
ATOM     39  C   UNL     1      14.340 -33.092  21.217  1.00  0.00     0.022 C 
BRANCH  35  40
ATOM     40  C   UNL     1      16.890 -34.901  23.033  1.00  0.00     0.246 CG0
ATOM     41  O   UNL     1      16.145 -35.186  24.006  1.00  0.00    -0.272 OA
ATOM     42  G   UNL     1      18.147 -35.713  22.804  1.00  0.00     0.000 G0
ENDBRANCH  35  40
ENDBRANCH  31  34
ENDBRANCH   2  30
ENDBRANCH   1   2
BRANCH   1  43
ATOM     43  C   UNL     1      19.443 -28.138  20.934  1.00  0.00     0.003 C 
BRANCH  43  44
ATOM     44  C   UNL     1      19.876 -26.702  21.287  1.00  0.00     0.001 C 
BRANCH  44  45
ATOM     45  C   UNL     1      20.654 -25.958  20.189  1.00  0.00     0.008 C 
BRANCH  45  46
ATOM     46  C   UNL     1      21.905 -25.234  20.720  1.00  0.00     0.075 C 
BRANCH  46  47
ATOM     47  C   UNL     1      22.776 -26.079  21.625  1.00  0.00     0.132 C 
ATOM     48  O   UNL     1      22.884 -25.740  22.797  1.00  0.00    -0.300 OA
BRANCH  47  49
ATOM     49  C   UNL     1      23.504 -27.319  21.131  1.00  0.00     0.072 C 
ATOM     50  C   UNL     1      23.840 -27.271  19.642  1.00  0.00     0.012 C 
ENDBRANCH  47  49
ENDBRANCH  46  47
ENDBRANCH  45  46
ENDBRANCH  44  45
ENDBRANCH  43  44
ENDBRANCH   1  43
TORSDOF 12
ENDMDL
MODEL 2
REMARK VINA RESULT:    -6.033      3.335      7.964
REMARK INTER + INTRA:         -15.390
REMARK INTER:                 -11.508
REMARK INTRA:                  -3.882
REMARK UNBOUND:                -2.656
REMARK SMILES CCC(=O)CCCCC[C@@H]1NC(=O)[C@H]2CCCCN2C(=O)[C@@H]([C@@H](C)CC)NC(=O)[C@@H](Cc2cn(OC)c3ccccc23)NC1=O
REMARK SMILES IDX 9 1 10 2 44 3 43 4 45 6 30 7 28 8 27 9 29 11 22 12 23 14
REMARK SMILES IDX 24 15 25 16 26 17 31 18 32 19 33 20 42 21 34 22 37 23 41 24
REMARK SMILES IDX 38 25 40 26 39 27 35 28 36 29 11 30 12 31 13 33 14 34 19 35
REMARK SMILES IDX 15 36 18 37 16 38 17 39 20 40 21 41 8 43 7 44 6 45 5 46 3 47
REMARK SMILES IDX 4 48 2 49 1 50
REMARK H PARENT 43 5 27 10 11 32
REMARK Flexibility Score: 80.00
ROOT
ATOM      1  C   UNL     1      16.016 -31.432  24.370  1.00  0.00     0.035 C 
ENDROOT
BRANCH   1   2
ATOM      2  C   UNL     1      17.533 -31.728  24.325  1.00  0.00     0.171 C 
BRANCH   2   3
ATOM      3  C   UNL     1      18.219 -31.281  23.060  1.00  0.00     0.243 C 
ATOM      4  N   UNL     1      19.183 -32.137  22.428  1.00  0.00    -0.342 N 
ATOM      5  H   UNL     1      19.306 -33.109  22.792  1.00  0.00     0.164 HD
ATOM      6  O   UNL     1      18.042 -30.106  22.631  1.00  0.00    -0.273 OA
BRANCH   4   7
ATOM      7  C   UNL     1      20.178 -31.605  21.496  1.00  0.00     0.175 C 
BRANCH   7   8
ATOM      8  C   UNL     1      21.332 -30.990  22.252  1.00  0.00     0.243 C 
ATOM      9  N   UNL     1      21.959 -31.686  23.351  1.00  0.00    -0.342 N 
ATOM     10  H   UNL     1      21.540 -32.583  23.685  1.00  0.00     0.164 HD
ATOM     11  O   UNL     1      21.768 -29.869  21.881  1.00  0.00    -0.273 OA
BRANCH   9  12
ATOM     12  C   UNL     1      23.217 -31.237  23.959  1.00  0.00     0.174 CG0
ATOM     13  G   UNL     1      22.934 -30.543  25.274  1.00  0.00     0.000 G0
BRANCH  12  14
ATOM     14  C   UNL     1      24.201 -32.432  24.121  1.00  0.00     0.018 C 
ATOM     15  C   UNL     1      23.459 -33.782  24.086  1.00  0.00     0.010 C 
BRANCH  14  16
ATOM     16  C   UNL     1      25.368 -32.406  23.096  1.00  0.00     0.002 C 
ATOM     17  C   UNL     1      25.358 -33.549  22.075  1.00  0.00     0.004 C 
ENDBRANCH  14  16
ENDBRANCH  12  14
ENDBRANCH   9  12
ENDBRANCH   7   8
BRANCH   7  18
ATOM     18  C   UNL     1      20.665 -32.719  20.549  1.00  0.00     0.073 C 
BRANCH  18  19
ATOM     19  C   UNL     1      20.023 -34.040  20.871  1.00  0.00    -0.016 A 
ATOM     20  C   UNL     1      20.564 -35.058  21.649  1.00  0.00     0.134 A 
ATOM     21  C   UNL     1      18.778 -34.492  20.465  1.00  0.00     0.006 A 
ATOM     22  N   UNL     1      19.695 -36.096  21.714  1.00  0.00    -0.191 N 
ATOM     23  C   UNL     1      18.618 -35.750  20.990  1.00  0.00     0.087 A 
ATOM     24  C   UNL     1      17.785 -33.887  19.696  1.00  0.00     0.011 A 
ATOM     25  C   UNL     1      17.458 -36.493  20.776  1.00  0.00     0.030 A 
ATOM     26  C   UNL     1      16.606 -34.616  19.453  1.00  0.00     0.001 A 
ATOM     27  C   UNL     1      16.445 -35.913  19.987  1.00  0.00     0.002 A 
BRANCH  22  28
ATOM     28  O   UNL     1      19.840 -37.282  22.409  1.00  0.00    -0.417 OA
ATOM     29  C   UNL     1      21.051 -37.635  23.073  1.00  0.00     0.313 C 
ENDBRANCH  22  28
ENDBRANCH  18  19
ENDBRANCH   7  18
ENDBRANCH   4   7
ENDBRANCH   2   3
BRANCH   2  30
ATOM     30  N   UNL     1      18.241 -31.160  25.472  1.00  0.00    -0.343 N 
ATOM     31  C   UNL     1      19.597 -31.538  25.738  1.00  0.00     0.243 C 
ATOM     32  H   UNL     1      17.916 -30.243  25.857  1.00  0.00     0.164 HD
ATOM     33  O   UNL     1      19.962 -32.736  25.562  1.00  0.00    -0.273 OA
BRANCH  31  34
ATOM     34  C   UNL     1      20.579 -30.513  26.247  1.00  0.00     0.174 C 
ATOM     35  N   UNL     1      21.957 -31.039  26.249  1.00  0.00    -0.329 N 
ATOM     36  C   UNL     1      20.178 -30.011  27.648  1.00  0.00     0.035 C 
ATOM     37  C   UNL     1      22.411 -31.932  27.329  1.00  0.00     0.120 C 
ATOM     38  C   UNL     1      20.521 -31.035  28.738  1.00  0.00     0.004 C 
ATOM     39  C   UNL     1      22.013 -31.371  28.697  1.00  0.00     0.022 C 
BRANCH  35  40
ATOM     40  C   UNL     1      22.913 -30.533  25.296  1.00  0.00     0.246 CG0
ATOM     41  O   UNL     1      23.545 -29.481  25.569  1.00  0.00    -0.272 OA
ATOM     42  G   UNL     1      23.198 -31.248  23.992  1.00  0.00     0.000 G0
ENDBRANCH  35  40
ENDBRANCH  31  34
ENDBRANCH   2  30
ENDBRANCH   1   2
BRANCH   1  43
ATOM     43  C   UNL     1      15.099 -32.550  23.836  1.00  0.00     0.003 C 
BRANCH  43  44
ATOM     44  C   UNL     1      15.853 -33.592  22.986  1.00  0.00     0.001 C 
BRANCH  44  45
ATOM     45  C   UNL     1      15.907 -35.011  23.578  1.00  0.00     0.008 C 
BRANCH  45  46
ATOM     46  C   UNL     1      16.314 -35.031  25.063  1.00  0.00     0.075 C 
BRANCH  46  47
ATOM     47  C   UNL     1      17.484 -35.939  25.377  1.00  0.00     0.132 C 
ATOM     48  O   UNL     1      18.581 -35.638  24.922  1.00  0.00    -0.300 OA
BRANCH  47  49
ATOM     49  C   UNL     1      17.343 -37.188  26.230  1.00  0.00     0.072 C 
ATOM     50  C   UNL     1      18.658 -37.939  26.427  1.00  0.00     0.012 C 
ENDBRANCH  47  49
ENDBRANCH  46  47
ENDBRANCH  45  46
ENDBRANCH  44  45
ENDBRANCH  43  44
ENDBRANCH   1  43
TORSDOF 12
ENDMDL
MODEL 3
REMARK VINA RESULT:    -6.021      1.783      2.395
REMARK INTER + INTRA:         -15.366
REMARK INTER:                 -11.919
REMARK INTRA:                  -3.447
REMARK UNBOUND:                -2.656
REMARK SMILES CCC(=O)CCCCC[C@@H]1NC(=O)[C@H]2CCCCN2C(=O)[C@@H]([C@@H](C)CC)NC(=O)[C@@H](Cc2cn(OC)c3ccccc23)NC1=O
REMARK SMILES IDX 9 1 10 2 44 3 43 4 45 6 30 7 28 8 27 9 29 11 22 12 23 14
REMARK SMILES IDX 24 15 25 16 26 17 31 18 32 19 33 20 42 21 34 22 37 23 41 24
REMARK SMILES IDX 38 25 40 26 39 27 35 28 36 29 11 30 12 31 13 33 14 34 19 35
REMARK SMILES IDX 15 36 18 37 16 38 17 39 20 40 21 41 8 43 7 44 6 45 5 46 3 47
REMARK SMILES IDX 4 48 2 49 1 50
REMARK H PARENT 43 5 27 10 11 32
REMARK Flexibility Score: 80.00
ROOT
ATOM      1  C   UNL     1      20.725 -27.802  20.788  1.00  0.00     0.035 C 
ENDROOT
BRANCH   1   2
ATOM      2  C   UNL     1      20.248 -29.262  20.972  1.00  0.00     0.171 C 
BRANCH   2   3
ATOM      3  C   UNL     1      21.122 -30.096  21.872  1.00  0.00     0.243 C 
ATOM      4  N   UNL     1      21.427 -31.453  21.516  1.00  0.00    -0.342 N 
ATOM      5  H   UNL     1      21.134 -31.803  20.576  1.00  0.00     0.164 HD
ATOM      6  O   UNL     1      21.475 -29.645  22.998  1.00  0.00    -0.273 OA
BRANCH   4   7
ATOM      7  C   UNL     1      21.870 -32.422  22.520  1.00  0.00     0.175 C 
BRANCH   7   8
ATOM      8  C   UNL     1      20.687 -32.976  23.277  1.00  0.00     0.243 C 
ATOM      9  N   UNL     1      19.517 -33.458  22.582  1.00  0.00    -0.342 N 
ATOM     10  H   UNL     1      19.455 -33.328  21.547  1.00  0.00     0.164 HD
ATOM     11  O   UNL     1      20.753 -33.046  24.532  1.00  0.00    -0.273 OA
BRANCH   9  12
ATOM     12  C   UNL     1      18.449 -34.210  23.253  1.00  0.00     0.174 CG0
ATOM     13  G   UNL     1      17.273 -33.298  23.529  1.00  0.00     0.000 G0
BRANCH  12  14
ATOM     14  C   UNL     1      18.047 -35.455  22.410  1.00  0.00     0.018 C 
ATOM     15  C   UNL     1      18.812 -35.503  21.074  1.00  0.00     0.010 C 
BRANCH  14  16
ATOM     16  C   UNL     1      18.193 -36.792  23.188  1.00  0.00     0.002 C 
ATOM     17  C   UNL     1      18.364 -36.643  24.704  1.00  0.00     0.004 C 
ENDBRANCH  14  16
ENDBRANCH  12  14
ENDBRANCH   9  12
ENDBRANCH   7   8
BRANCH   7  18
ATOM     18  C   UNL     1      22.676 -33.549  21.847  1.00  0.00     0.073 C 
BRANCH  18  19
ATOM     19  C   UNL     1      23.332 -34.445  22.861  1.00  0.00    -0.016 A 
ATOM     20  C   UNL     1      24.451 -34.148  23.631  1.00  0.00     0.134 A 
ATOM     21  C   UNL     1      22.948 -35.725  23.227  1.00  0.00     0.006 A 
ATOM     22  N   UNL     1      24.750 -35.200  24.430  1.00  0.00    -0.191 N 
ATOM     23  C   UNL     1      23.839 -36.155  24.176  1.00  0.00     0.087 A 
ATOM     24  C   UNL     1      21.883 -36.521  22.807  1.00  0.00     0.011 A 
ATOM     25  C   UNL     1      23.733 -37.413  24.768  1.00  0.00     0.030 A 
ATOM     26  C   UNL     1      21.755 -37.801  23.377  1.00  0.00     0.001 A 
ATOM     27  C   UNL     1      22.678 -38.246  24.349  1.00  0.00     0.002 A 
BRANCH  22  28
ATOM     28  O   UNL     1      25.765 -35.296  25.364  1.00  0.00    -0.417 OA
ATOM     29  C   UNL     1      25.973 -34.307  26.369  1.00  0.00     0.313 C 
ENDBRANCH  22  28
ENDBRANCH  18  19
ENDBRANCH   7  18
ENDBRANCH   4   7
ENDBRANCH   2   3
BRANCH   2  30
ATOM     30  N   UNL     1      18.869 -29.336  21.451  1.00  0.00    -0.343 N 
ATOM     31  C   UNL     1      18.185 -30.595  21.481  1.00  0.00     0.243 C 
ATOM     32  H   UNL     1      18.521 -28.589  22.096  1.00  0.00     0.164 HD
ATOM     33  O   UNL     1      18.354 -31.424  20.542  1.00  0.00    -0.273 OA
BRANCH  31  34
ATOM     34  C   UNL     1      17.248 -30.917  22.619  1.00  0.00     0.174 C 
ATOM     35  N   UNL     1      16.777 -32.314  22.552  1.00  0.00    -0.329 N 
ATOM     36  C   UNL     1      16.060 -29.935  22.652  1.00  0.00     0.035 C 
ATOM     37  C   UNL     1      15.696 -32.690  21.625  1.00  0.00     0.120 C 
ATOM     38  C   UNL     1      15.024 -30.259  21.568  1.00  0.00     0.004 C 
ATOM     39  C   UNL     1      14.532 -31.700  21.722  1.00  0.00     0.022 C 
BRANCH  35  40
ATOM     40  C   UNL     1      17.247 -33.270  23.521  1.00  0.00     0.246 CG0
ATOM     41  O   UNL     1      16.649 -33.362  24.624  1.00  0.00    -0.272 OA
ATOM     42  G   UNL     1      18.420 -34.185  23.240  1.00  0.00     0.000 G0
ENDBRANCH  35  40
ENDBRANCH  31  34
ENDBRANCH   2  30
ENDBRANCH   1   2
BRANCH   1  43
ATOM     43  C   UNL     1      22.242 -27.613  20.586  1.00  0.00     0.003 C 
BRANCH  43  44
ATOM     44  C   UNL     1      22.811 -26.424  21.384  1.00  0.00     0.001 C 
BRANCH  44  45
ATOM     45  C   UNL     1      22.040 -26.059  22.665  1.00  0.00     0.008 C 
BRANCH  45  46
ATOM     46  C   UNL     1      22.751 -24.989  23.513  1.00  0.00     0.075 C 
BRANCH  46  47
ATOM     47  C   UNL     1      22.723 -23.599  22.913  1.00  0.00     0.132 C 
ATOM     48  O   UNL     1      21.632 -23.069  22.746  1.00  0.00    -0.300 OA
BRANCH  47  49
ATOM     49  C   UNL     1      23.989 -22.853  22.524  1.00  0.00     0.072 C 
ATOM     50  C   UNL     1      24.375 -23.039  21.058  1.00  0.00     0.012 C 
ENDBRANCH  47  49
ENDBRANCH  46  47
ENDBRANCH  45  46
ENDBRANCH  44  45
ENDBRANCH  43  44
ENDBRANCH   1  43
TORSDOF 12
ENDMDL
MODEL 4
REMARK VINA RESULT:    -5.954      1.380      2.143
REMARK INTER + INTRA:         -15.224
REMARK INTER:                 -12.686
REMARK INTRA:                  -2.538
REMARK UNBOUND:                -2.656
REMARK SMILES CCC(=O)CCCCC[C@@H]1NC(=O)[C@H]2CCCCN2C(=O)[C@@H]([C@@H](C)CC)NC(=O)[C@@H](Cc2cn(OC)c3ccccc23)NC1=O
REMARK SMILES IDX 9 1 10 2 44 3 43 4 45 6 30 7 28 8 27 9 29 11 22 12 23 14
REMARK SMILES IDX 24 15 25 16 26 17 31 18 32 19 33 20 42 21 34 22 37 23 41 24
REMARK SMILES IDX 38 25 40 26 39 27 35 28 36 29 11 30 12 31 13 33 14 34 19 35
REMARK SMILES IDX 15 36 18 37 16 38 17 39 20 40 21 41 8 43 7 44 6 45 5 46 3 47
REMARK SMILES IDX 4 48 2 49 1 50
REMARK H PARENT 43 5 27 10 11 32
REMARK Flexibility Score: 80.00
ROOT
ATOM      1  C   UNL     1      20.322 -28.742  21.201  1.00  0.00     0.035 C 
ENDROOT
BRANCH   1   2
ATOM      2  C   UNL     1      19.849 -30.214  21.235  1.00  0.00     0.171 C 
BRANCH   2   3
ATOM      3  C   UNL     1      20.650 -31.106  22.147  1.00  0.00     0.243 C 
ATOM      4  N   UNL     1      20.977 -32.442  21.735  1.00  0.00    -0.342 N 
ATOM      5  H   UNL     1      20.756 -32.734  20.757  1.00  0.00     0.164 HD
ATOM      6  O   UNL     1      20.919 -30.725  23.321  1.00  0.00    -0.273 OA
BRANCH   4   7
ATOM      7  C   UNL     1      21.341 -33.472  22.710  1.00  0.00     0.175 C 
BRANCH   7   8
ATOM      8  C   UNL     1      20.114 -34.226  23.163  1.00  0.00     0.243 C 
ATOM      9  N   UNL     1      18.988 -34.418  22.279  1.00  0.00    -0.342 N 
ATOM     10  H   UNL     1      18.990 -33.942  21.349  1.00  0.00     0.164 HD
ATOM     11  O   UNL     1      20.103 -34.722  24.320  1.00  0.00    -0.273 OA
BRANCH   9  12
ATOM     12  C   UNL     1      17.882 -35.331  22.591  1.00  0.00     0.174 CG0
ATOM     13  G   UNL     1      16.614 -34.540  22.831  1.00  0.00     0.000 G0
BRANCH  12  14
ATOM     14  C   UNL     1      17.714 -36.389  21.462  1.00  0.00     0.018 C 
ATOM     15  C   UNL     1      18.224 -35.856  20.110  1.00  0.00     0.010 C 
BRANCH  14  16
ATOM     16  C   UNL     1      18.362 -37.759  21.807  1.00  0.00     0.002 C 
ATOM     17  C   UNL     1      19.765 -37.675  22.417  1.00  0.00     0.004 C 
ENDBRANCH  14  16
ENDBRANCH  12  14
ENDBRANCH   9  12
ENDBRANCH   7   8
BRANCH   7  18
ATOM     18  C   UNL     1      22.388 -34.427  22.104  1.00  0.00     0.073 C 
BRANCH  18  19
ATOM     19  C   UNL     1      23.437 -34.811  23.110  1.00  0.00    -0.016 A 
ATOM     20  C   UNL     1      23.369 -35.860  24.021  1.00  0.00     0.134 A 
ATOM     21  C   UNL     1      24.665 -34.205  23.319  1.00  0.00     0.006 A 
ATOM     22  N   UNL     1      24.502 -35.895  24.764  1.00  0.00    -0.191 N 
ATOM     23  C   UNL     1      25.280 -34.886  24.338  1.00  0.00     0.087 A 
ATOM     24  C   UNL     1      25.280 -33.128  22.681  1.00  0.00     0.011 A 
ATOM     25  C   UNL     1      26.549 -34.534  24.797  1.00  0.00     0.030 A 
ATOM     26  C   UNL     1      26.556 -32.741  23.128  1.00  0.00     0.001 A 
ATOM     27  C   UNL     1      27.186 -33.438  24.183  1.00  0.00     0.002 A 
BRANCH  22  28
ATOM     28  O   UNL     1      24.841 -36.800  25.753  1.00  0.00    -0.417 OA
ATOM     29  C   UNL     1      24.454 -36.625  27.113  1.00  0.00     0.313 C 
ENDBRANCH  22  28
ENDBRANCH  18  19
ENDBRANCH   7  18
ENDBRANCH   4   7
ENDBRANCH   2   3
BRANCH   2  30
ATOM     30  N   UNL     1      18.434 -30.332  21.582  1.00  0.00    -0.343 N 
ATOM     31  C   UNL     1      17.735 -31.560  21.343  1.00  0.00     0.243 C 
ATOM     32  H   UNL     1      18.042 -29.695  22.314  1.00  0.00     0.164 HD
ATOM     33  O   UNL     1      17.973 -32.225  20.295  1.00  0.00    -0.273 OA
BRANCH  31  34
ATOM     34  C   UNL     1      16.703 -32.044  22.331  1.00  0.00     0.174 C 
ATOM     35  N   UNL     1      16.239 -33.406  22.003  1.00  0.00    -0.329 N 
ATOM     36  C   UNL     1      15.517 -31.063  22.418  1.00  0.00     0.035 C 
ATOM     37  C   UNL     1      15.242 -33.616  20.939  1.00  0.00     0.120 C 
ATOM     38  C   UNL     1      14.579 -31.197  21.211  1.00  0.00     0.004 C 
ATOM     39  C   UNL     1      14.075 -32.637  21.091  1.00  0.00     0.022 C 
BRANCH  35  40
ATOM     40  C   UNL     1      16.622 -34.510  22.846  1.00  0.00     0.246 CG0
ATOM     41  O   UNL     1      15.887 -34.815  23.821  1.00  0.00    -0.272 OA
ATOM     42  G   UNL     1      17.865 -35.330  22.575  1.00  0.00     0.000 G0
ENDBRANCH  35  40
ENDBRANCH  31  34
ENDBRANCH   2  30
ENDBRANCH   1   2
BRANCH   1  43
ATOM     43  C   UNL     1      21.751 -28.509  20.673  1.00  0.00     0.003 C 
BRANCH  43  44
ATOM     44  C   UNL     1      22.736 -28.074  21.776  1.00  0.00     0.001 C 
BRANCH  44  45
ATOM     45  C   UNL     1      22.212 -26.996  22.741  1.00  0.00     0.008 C 
BRANCH  45  46
ATOM     46  C   UNL     1      22.616 -25.569  22.328  1.00  0.00     0.075 C 
BRANCH  46  47
ATOM     47  C   UNL     1      22.344 -25.240  20.876  1.00  0.00     0.132 C 
ATOM     48  O   UNL     1      21.177 -25.132  20.521  1.00  0.00    -0.300 OA
BRANCH  47  49
ATOM     49  C   UNL     1      23.459 -25.038  19.863  1.00  0.00     0.072 C 
ATOM     50  C   UNL     1      24.288 -23.780  20.117  1.00  0.00     0.012 C 
ENDBRANCH  47  49
ENDBRANCH  46  47
ENDBRANCH  45  46
ENDBRANCH  44  45
ENDBRANCH  43  44
ENDBRANCH   1  43
TORSDOF 12
ENDMDL
MODEL 5
REMARK VINA RESULT:    -5.895      1.332      1.677
REMARK INTER + INTRA:         -15.099
REMARK INTER:                 -12.960
REMARK INTRA:                  -2.138
REMARK UNBOUND:                -2.656
REMARK SMILES CCC(=O)CCCCC[C@@H]1NC(=O)[C@H]2CCCCN2C(=O)[C@@H]([C@@H](C)CC)NC(=O)[C@@H](Cc2cn(OC)c3ccccc23)NC1=O
REMARK SMILES IDX 9 1 10 2 44 3 43 4 45 6 30 7 28 8 27 9 29 11 22 12 23 14
REMARK SMILES IDX 24 15 25 16 26 17 31 18 32 19 33 20 42 21 34 22 37 23 41 24
REMARK SMILES IDX 38 25 40 26 39 27 35 28 36 29 11 30 12 31 13 33 14 34 19 35
REMARK SMILES IDX 15 36 18 37 16 38 17 39 20 40 21 41 8 43 7 44 6 45 5 46 3 47
REMARK SMILES IDX 4 48 2 49 1 50
REMARK H PARENT 43 5 27 10 11 32
REMARK Flexibility Score: 80.00
ROOT
ATOM      1  C   UNL     1      20.146 -28.553  21.231  1.00  0.00     0.035 C 
ENDROOT
BRANCH   1   2
ATOM      2  C   UNL     1      19.746 -30.046  21.251  1.00  0.00     0.171 C 
BRANCH   2   3
ATOM      3  C   UNL     1      20.618 -30.915  22.119  1.00  0.00     0.243 C 
ATOM      4  N   UNL     1      20.893 -32.269  21.729  1.00  0.00    -0.342 N 
ATOM      5  H   UNL     1      20.580 -32.593  20.787  1.00  0.00     0.164 HD
ATOM      6  O   UNL     1      20.997 -30.495  23.249  1.00  0.00    -0.273 OA
BRANCH   4   7
ATOM      7  C   UNL     1      21.335 -33.268  22.705  1.00  0.00     0.175 C 
BRANCH   7   8
ATOM      8  C   UNL     1      20.170 -34.117  23.154  1.00  0.00     0.243 C 
ATOM      9  N   UNL     1      18.991 -34.260  22.333  1.00  0.00    -0.342 N 
ATOM     10  H   UNL     1      18.910 -33.688  21.462  1.00  0.00     0.164 HD
ATOM     11  O   UNL     1      20.259 -34.733  24.248  1.00  0.00    -0.273 OA
BRANCH   9  12
ATOM     12  C   UNL     1      17.942 -35.247  22.617  1.00  0.00     0.174 CG0
ATOM     13  G   UNL     1      16.634 -34.540  22.899  1.00  0.00     0.000 G0
BRANCH  12  14
ATOM     14  C   UNL     1      17.823 -36.267  21.448  1.00  0.00     0.018 C 
ATOM     15  C   UNL     1      18.370 -35.683  20.131  1.00  0.00     0.010 C 
BRANCH  14  16
ATOM     16  C   UNL     1      18.475 -37.641  21.766  1.00  0.00     0.002 C 
ATOM     17  C   UNL     1      19.126 -37.742  23.150  1.00  0.00     0.004 C 
ENDBRANCH  14  16
ENDBRANCH  12  14
ENDBRANCH   9  12
ENDBRANCH   7   8
BRANCH   7  18
ATOM     18  C   UNL     1      22.455 -34.137  22.101  1.00  0.00     0.073 C 
BRANCH  18  19
ATOM     19  C   UNL     1      23.794 -33.812  22.703  1.00  0.00    -0.016 A 
ATOM     20  C   UNL     1      24.161 -32.621  23.320  1.00  0.00     0.134 A 
ATOM     21  C   UNL     1      24.910 -34.631  22.764  1.00  0.00     0.006 A 
ATOM     22  N   UNL     1      25.448 -32.699  23.737  1.00  0.00    -0.191 N 
ATOM     23  C   UNL     1      25.898 -33.916  23.392  1.00  0.00     0.087 A 
ATOM     24  C   UNL     1      25.115 -35.941  22.333  1.00  0.00     0.011 A 
ATOM     25  C   UNL     1      27.162 -34.457  23.626  1.00  0.00     0.030 A 
ATOM     26  C   UNL     1      26.384 -36.512  22.543  1.00  0.00     0.001 A 
ATOM     27  C   UNL     1      27.403 -35.772  23.183  1.00  0.00     0.002 A 
BRANCH  22  28
ATOM     28  O   UNL     1      26.178 -31.743  24.420  1.00  0.00    -0.417 OA
ATOM     29  C   UNL     1      27.183 -30.956  23.788  1.00  0.00     0.313 C 
ENDBRANCH  22  28
ENDBRANCH  18  19
ENDBRANCH   7  18
ENDBRANCH   4   7
ENDBRANCH   2   3
BRANCH   2  30
ATOM     30  N   UNL     1      18.350 -30.239  21.642  1.00  0.00    -0.343 N 
ATOM     31  C   UNL     1      17.724 -31.517  21.467  1.00  0.00     0.243 C 
ATOM     32  H   UNL     1      17.938 -29.600  22.361  1.00  0.00     0.164 HD
ATOM     33  O   UNL     1      17.977 -32.204  20.437  1.00  0.00    -0.273 OA
BRANCH  31  34
ATOM     34  C   UNL     1      16.750 -32.026  22.500  1.00  0.00     0.174 C 
ATOM     35  N   UNL     1      16.226 -33.357  22.137  1.00  0.00    -0.329 N 
ATOM     36  C   UNL     1      15.602 -31.022  22.720  1.00  0.00     0.035 C 
ATOM     37  C   UNL     1      15.152 -33.486  21.138  1.00  0.00     0.120 C 
ATOM     38  C   UNL     1      14.578 -31.069  21.578  1.00  0.00     0.004 C 
ATOM     39  C   UNL     1      14.026 -32.488  21.422  1.00  0.00     0.022 C 
BRANCH  35  40
ATOM     40  C   UNL     1      16.636 -34.512  22.894  1.00  0.00     0.246 CG0
ATOM     41  O   UNL     1      15.878 -34.948  23.799  1.00  0.00    -0.272 OA
ATOM     42  G   UNL     1      17.936 -35.234  22.612  1.00  0.00     0.000 G0
ENDBRANCH  35  40
ENDBRANCH  31  34
ENDBRANCH   2  30
ENDBRANCH   1   2
BRANCH   1  43
ATOM     43  C   UNL     1      21.603 -28.255  20.826  1.00  0.00     0.003 C 
BRANCH  43  44
ATOM     44  C   UNL     1      22.301 -27.263  21.777  1.00  0.00     0.001 C 
BRANCH  44  45
ATOM     45  C   UNL     1      22.018 -25.776  21.503  1.00  0.00     0.008 C 
BRANCH  45  46
ATOM     46  C   UNL     1      22.866 -24.830  22.374  1.00  0.00     0.075 C 
BRANCH  46  47
ATOM     47  C   UNL     1      23.646 -23.795  21.592  1.00  0.00     0.132 C 
ATOM     48  O   UNL     1      23.981 -24.075  20.447  1.00  0.00    -0.300 OA
BRANCH  47  49
ATOM     49  C   UNL     1      24.015 -22.440  22.172  1.00  0.00     0.072 C 
ATOM     50  C   UNL     1      24.349 -22.490  23.662  1.00  0.00     0.012 C 
ENDBRANCH  47  49
ENDBRANCH  46  47
ENDBRANCH  45  46
ENDBRANCH  44  45
ENDBRANCH  43  44
ENDBRANCH   1  43
TORSDOF 12
ENDMDL
MODEL 6
REMARK VINA RESULT:    -5.892      2.608      7.661
REMARK INTER + INTRA:         -15.092
REMARK INTER:                 -12.530
REMARK INTRA:                  -2.562
REMARK UNBOUND:                -2.656
REMARK SMILES CCC(=O)CCCCC[C@@H]1NC(=O)[C@H]2CCCCN2C(=O)[C@@H]([C@@H](C)CC)NC(=O)[C@@H](Cc2cn(OC)c3ccccc23)NC1=O
REMARK SMILES IDX 9 1 10 2 44 3 43 4 45 6 30 7 28 8 27 9 29 11 22 12 23 14
REMARK SMILES IDX 24 15 25 16 26 17 31 18 32 19 33 20 42 21 34 22 37 23 41 24
REMARK SMILES IDX 38 25 40 26 39 27 35 28 36 29 11 30 12 31 13 33 14 34 19 35
REMARK SMILES IDX 15 36 18 37 16 38 17 39 20 40 21 41 8 43 7 44 6 45 5 46 3 47
REMARK SMILES IDX 4 48 2 49 1 50
REMARK H PARENT 43 5 27 10 11 32
REMARK Flexibility Score: 80.00
ROOT
ATOM      1  C   UNL     1      22.356 -27.650  21.184  1.00  0.00     0.035 C 
ENDROOT
BRANCH   1   2
ATOM      2  C   UNL     1      21.925 -28.749  22.182  1.00  0.00     0.171 C 
BRANCH   2   3
ATOM      3  C   UNL     1      20.826 -29.651  21.683  1.00  0.00     0.243 C 
ATOM      4  N   UNL     1      19.663 -29.880  22.494  1.00  0.00    -0.342 N 
ATOM      5  H   UNL     1      19.544 -29.320  23.368  1.00  0.00     0.164 HD
ATOM      6  O   UNL     1      20.989 -30.305  20.615  1.00  0.00    -0.273 OA
BRANCH   4   7
ATOM      7  C   UNL     1      18.807 -31.048  22.284  1.00  0.00     0.175 C 
BRANCH   7   8
ATOM      8  C   UNL     1      19.595 -32.321  22.485  1.00  0.00     0.243 C 
ATOM      9  N   UNL     1      20.134 -32.668  23.779  1.00  0.00    -0.342 N 
ATOM     10  H   UNL     1      20.059 -31.976  24.559  1.00  0.00     0.164 HD
ATOM     11  O   UNL     1      19.741 -33.100  21.508  1.00  0.00    -0.273 OA
BRANCH   9  12
ATOM     12  C   UNL     1      20.700 -33.989  24.074  1.00  0.00     0.174 CG0
ATOM     13  G   UNL     1      22.212 -33.920  24.042  1.00  0.00     0.000 G0
BRANCH  12  14
ATOM     14  C   UNL     1      20.161 -34.523  25.432  1.00  0.00     0.018 C 
ATOM     15  C   UNL     1      19.118 -33.565  26.040  1.00  0.00     0.010 C 
BRANCH  14  16
ATOM     16  C   UNL     1      19.607 -35.972  25.343  1.00  0.00     0.002 C 
ATOM     17  C   UNL     1      18.081 -36.087  25.416  1.00  0.00     0.004 C 
ENDBRANCH  14  16
ENDBRANCH  12  14
ENDBRANCH   9  12
ENDBRANCH   7   8
BRANCH   7  18
ATOM     18  C   UNL     1      17.593 -30.991  23.232  1.00  0.00     0.073 C 
BRANCH  18  19
ATOM     19  C   UNL     1      16.348 -31.510  22.569  1.00  0.00    -0.016 A 
ATOM     20  C   UNL     1      16.264 -32.570  21.673  1.00  0.00     0.134 A 
ATOM     21  C   UNL     1      15.053 -31.043  22.727  1.00  0.00     0.006 A 
ATOM     22  N   UNL     1      14.976 -32.745  21.289  1.00  0.00    -0.191 N 
ATOM     23  C   UNL     1      14.248 -31.813  21.926  1.00  0.00     0.087 A 
ATOM     24  C   UNL     1      14.533 -30.021  23.521  1.00  0.00     0.011 A 
ATOM     25  C   UNL     1      12.871 -31.610  21.856  1.00  0.00     0.030 A 
ATOM     26  C   UNL     1      13.148 -29.784  23.464  1.00  0.00     0.001 A 
ATOM     27  C   UNL     1      12.322 -30.572  22.632  1.00  0.00     0.002 A 
BRANCH  22  28
ATOM     28  O   UNL     1      14.468 -33.707  20.435  1.00  0.00    -0.417 OA
ATOM     29  C   UNL     1      15.206 -34.869  20.070  1.00  0.00     0.313 C 
ENDBRANCH  22  28
ENDBRANCH  18  19
ENDBRANCH   7  18
ENDBRANCH   4   7
ENDBRANCH   2   3
BRANCH   2  30
ATOM     30  N   UNL     1      23.051 -29.573  22.618  1.00  0.00    -0.343 N 
ATOM     31  C   UNL     1      22.879 -30.527  23.673  1.00  0.00     0.243 C 
ATOM     32  H   UNL     1      23.839 -29.738  21.949  1.00  0.00     0.164 HD
ATOM     33  O   UNL     1      22.152 -30.240  24.667  1.00  0.00    -0.273 OA
BRANCH  31  34
ATOM     34  C   UNL     1      23.582 -31.860  23.606  1.00  0.00     0.174 C 
ATOM     35  N   UNL     1      22.990 -32.830  24.547  1.00  0.00    -0.329 N 
ATOM     36  C   UNL     1      25.094 -31.701  23.856  1.00  0.00     0.035 C 
ATOM     37  C   UNL     1      23.332 -32.781  25.979  1.00  0.00     0.120 C 
ATOM     38  C   UNL     1      25.406 -31.493  25.344  1.00  0.00     0.004 C 
ATOM     39  C   UNL     1      24.846 -32.654  26.168  1.00  0.00     0.022 C 
BRANCH  35  40
ATOM     40  C   UNL     1      22.222 -33.938  24.037  1.00  0.00     0.246 CG0
ATOM     41  O   UNL     1      22.830 -34.931  23.560  1.00  0.00    -0.272 OA
ATOM     42  G   UNL     1      20.710 -33.953  24.085  1.00  0.00     0.000 G0
ENDBRANCH  35  40
ENDBRANCH  31  34
ENDBRANCH   2  30
ENDBRANCH   1   2
BRANCH   1  43
ATOM     43  C   UNL     1      21.243 -26.686  20.726  1.00  0.00     0.003 C 
BRANCH  43  44
ATOM     44  C   UNL     1      21.760 -25.261  20.444  1.00  0.00     0.001 C 
BRANCH  44  45
ATOM     45  C   UNL     1      23.077 -24.887  21.147  1.00  0.00     0.008 C 
BRANCH  45  46
ATOM     46  C   UNL     1      22.866 -24.016  22.399  1.00  0.00     0.075 C 
BRANCH  46  47
ATOM     47  C   UNL     1      22.162 -24.723  23.538  1.00  0.00     0.132 C 
ATOM     48  O   UNL     1      22.827 -25.461  24.254  1.00  0.00    -0.300 OA
BRANCH  47  49
ATOM     49  C   UNL     1      20.678 -24.544  23.817  1.00  0.00     0.072 C 
ATOM     50  C   UNL     1      19.973 -23.654  22.795  1.00  0.00     0.012 C 
ENDBRANCH  47  49
ENDBRANCH  46  47
ENDBRANCH  45  46
ENDBRANCH  44  45
ENDBRANCH  43  44
ENDBRANCH   1  43
TORSDOF 12
ENDMDL
MODEL 7
REMARK VINA RESULT:    -5.763      2.609      8.017
REMARK INTER + INTRA:         -14.820
REMARK INTER:                 -11.305
REMARK INTRA:                  -3.515
REMARK UNBOUND:                -2.656
REMARK SMILES CCC(=O)CCCCC[C@@H]1NC(=O)[C@H]2CCCCN2C(=O)[C@@H]([C@@H](C)CC)NC(=O)[C@@H](Cc2cn(OC)c3ccccc23)NC1=O
REMARK SMILES IDX 9 1 10 2 44 3 43 4 45 6 30 7 28 8 27 9 29 11 22 12 23 14
REMARK SMILES IDX 24 15 25 16 26 17 31 18 32 19 33 20 42 21 34 22 37 23 41 24
REMARK SMILES IDX 38 25 40 26 39 27 35 28 36 29 11 30 12 31 13 33 14 34 19 35
REMARK SMILES IDX 15 36 18 37 16 38 17 39 20 40 21 41 8 43 7 44 6 45 5 46 3 47
REMARK SMILES IDX 4 48 2 49 1 50
REMARK H PARENT 43 5 27 10 11 32
REMARK Flexibility Score: 80.00
ROOT
ATOM      1  C   UNL     1      18.841 -32.162  20.609  1.00  0.00     0.035 C 
ENDROOT
BRANCH   1   2
ATOM      2  C   UNL     1      20.201 -32.404  21.303  1.00  0.00     0.171 C 
BRANCH   2   3
ATOM      3  C   UNL     1      20.611 -31.322  22.268  1.00  0.00     0.243 C 
ATOM      4  N   UNL     1      21.990 -30.936  22.367  1.00  0.00    -0.342 N 
ATOM      5  H   UNL     1      22.672 -31.331  21.680  1.00  0.00     0.164 HD
ATOM      6  O   UNL     1      19.765 -30.850  23.078  1.00  0.00    -0.273 OA
BRANCH   4   7
ATOM      7  C   UNL     1      22.505 -30.247  23.551  1.00  0.00     0.175 C 
BRANCH   7   8
ATOM      8  C   UNL     1      22.990 -31.248  24.574  1.00  0.00     0.243 C 
ATOM      9  N   UNL     1      23.654 -32.464  24.170  1.00  0.00    -0.342 N 
ATOM     10  H   UNL     1      23.710 -32.695  23.152  1.00  0.00     0.164 HD
ATOM     11  O   UNL     1      22.839 -30.983  25.795  1.00  0.00    -0.273 OA
BRANCH   9  12
ATOM     12  C   UNL     1      24.341 -33.346  25.121  1.00  0.00     0.174 CG0
ATOM     13  G   UNL     1      23.568 -34.638  25.276  1.00  0.00     0.000 G0
BRANCH  12  14
ATOM     14  C   UNL     1      25.813 -33.588  24.675  1.00  0.00     0.018 C 
ATOM     15  C   UNL     1      26.110 -32.914  23.321  1.00  0.00     0.010 C 
BRANCH  14  16
ATOM     16  C   UNL     1      26.854 -33.171  25.750  1.00  0.00     0.002 C 
ATOM     17  C   UNL     1      27.055 -31.659  25.903  1.00  0.00     0.004 C 
ENDBRANCH  14  16
ENDBRANCH  12  14
ENDBRANCH   9  12
ENDBRANCH   7   8
BRANCH   7  18
ATOM     18  C   UNL     1      23.631 -29.274  23.149  1.00  0.00     0.073 C 
BRANCH  18  19
ATOM     19  C   UNL     1      23.111 -27.878  22.948  1.00  0.00    -0.016 A 
ATOM     20  C   UNL     1      22.518 -27.066  23.909  1.00  0.00     0.134 A 
ATOM     21  C   UNL     1      23.128 -27.133  21.780  1.00  0.00     0.006 A 
ATOM     22  N   UNL     1      22.177 -25.876  23.357  1.00  0.00    -0.191 N 
ATOM     23  C   UNL     1      22.544 -25.926  22.065  1.00  0.00     0.087 A 
ATOM     24  C   UNL     1      23.625 -27.425  20.510  1.00  0.00     0.011 A 
ATOM     25  C   UNL     1      22.407 -24.928  21.100  1.00  0.00     0.030 A 
ATOM     26  C   UNL     1      23.492 -26.444  19.511  1.00  0.00     0.001 A 
ATOM     27  C   UNL     1      22.883 -25.203  19.804  1.00  0.00     0.002 A 
BRANCH  22  28
ATOM     28  O   UNL     1      21.596 -24.787  23.979  1.00  0.00    -0.417 OA
ATOM     29  C   UNL     1      22.366 -23.771  24.614  1.00  0.00     0.313 C 
ENDBRANCH  22  28
ENDBRANCH  18  19
ENDBRANCH   7  18
ENDBRANCH   4   7
ENDBRANCH   2   3
BRANCH   2  30
ATOM     30  N   UNL     1      20.248 -33.693  21.991  1.00  0.00    -0.343 N 
ATOM     31  C   UNL     1      21.491 -34.188  22.506  1.00  0.00     0.243 C 
ATOM     32  H   UNL     1      19.371 -34.062  22.427  1.00  0.00     0.164 HD
ATOM     33  O   UNL     1      22.556 -34.018  21.847  1.00  0.00    -0.273 OA
BRANCH  31  34
ATOM     34  C   UNL     1      21.521 -34.930  23.819  1.00  0.00     0.174 C 
ATOM     35  N   UNL     1      22.897 -35.311  24.192  1.00  0.00    -0.329 N 
ATOM     36  C   UNL     1      20.598 -36.163  23.779  1.00  0.00     0.035 C 
ATOM     37  C   UNL     1      23.536 -36.486  23.575  1.00  0.00     0.120 C 
ATOM     38  C   UNL     1      21.228 -37.319  22.991  1.00  0.00     0.004 C 
ATOM     39  C   UNL     1      22.587 -37.687  23.589  1.00  0.00     0.022 C 
BRANCH  35  40
ATOM     40  C   UNL     1      23.545 -34.645  25.293  1.00  0.00     0.246 CG0
ATOM     41  O   UNL     1      23.481 -35.160  26.439  1.00  0.00    -0.272 OA
ATOM     42  G   UNL     1      24.325 -33.362  25.105  1.00  0.00     0.000 G0
ENDBRANCH  35  40
ENDBRANCH  31  34
ENDBRANCH   2  30
ENDBRANCH   1   2
BRANCH   1  43
ATOM     43  C   UNL     1      17.761 -33.233  20.858  1.00  0.00     0.003 C 
BRANCH  43  44
ATOM     44  C   UNL     1      16.518 -32.677  21.582  1.00  0.00     0.001 C 
BRANCH  44  45
ATOM     45  C   UNL     1      15.785 -33.676  22.494  1.00  0.00     0.008 C 
BRANCH  45  46
ATOM     46  C   UNL     1      16.704 -34.786  23.036  1.00  0.00     0.075 C 
BRANCH  46  47
ATOM     47  C   UNL     1      17.374 -34.452  24.352  1.00  0.00     0.132 C 
ATOM     48  O   UNL     1      18.287 -33.636  24.340  1.00  0.00    -0.300 OA
BRANCH  47  49
ATOM     49  C   UNL     1      16.950 -35.084  25.668  1.00  0.00     0.072 C 
ATOM     50  C   UNL     1      17.612 -36.436  25.931  1.00  0.00     0.012 C 
ENDBRANCH  47  49
ENDBRANCH  46  47
ENDBRANCH  45  46
ENDBRANCH  44  45
ENDBRANCH  43  44
ENDBRANCH   1  43
TORSDOF 12
ENDMDL
MODEL 8
REMARK VINA RESULT:    -5.750      2.789      6.781
REMARK INTER + INTRA:         -14.793
REMARK INTER:                 -11.593
REMARK INTRA:                  -3.201
REMARK UNBOUND:                -2.656
REMARK SMILES CCC(=O)CCCCC[C@@H]1NC(=O)[C@H]2CCCCN2C(=O)[C@@H]([C@@H](C)CC)NC(=O)[C@@H](Cc2cn(OC)c3ccccc23)NC1=O
REMARK SMILES IDX 9 1 10 2 44 3 43 4 45 6 30 7 28 8 27 9 29 11 22 12 23 14
REMARK SMILES IDX 24 15 25 16 26 17 31 18 32 19 33 20 42 21 34 22 37 23 41 24
REMARK SMILES IDX 38 25 40 26 39 27 35 28 36 29 11 30 12 31 13 33 14 34 19 35
REMARK SMILES IDX 15 36 18 37 16 38 17 39 20 40 21 41 8 43 7 44 6 45 5 46 3 47
REMARK SMILES IDX 4 48 2 49 1 50
REMARK H PARENT 43 5 27 10 11 32
REMARK Flexibility Score: 80.00
ROOT
ATOM      1  C   UNL     1      25.346 -32.127  23.148  1.00  0.00     0.035 C 
ENDROOT
BRANCH   1   2
ATOM      2  C   UNL     1      23.819 -32.002  23.353  1.00  0.00     0.171 C 
BRANCH   2   3
ATOM      3  C   UNL     1      23.003 -33.037  22.624  1.00  0.00     0.243 C 
ATOM      4  N   UNL     1      21.819 -32.644  21.912  1.00  0.00    -0.342 N 
ATOM      5  H   UNL     1      21.609 -31.625  21.814  1.00  0.00     0.164 HD
ATOM      6  O   UNL     1      23.287 -34.261  22.747  1.00  0.00    -0.273 OA
BRANCH   4   7
ATOM      7  C   UNL     1      20.774 -33.613  21.579  1.00  0.00     0.175 C 
BRANCH   7   8
ATOM      8  C   UNL     1      19.952 -33.943  22.802  1.00  0.00     0.243 C 
ATOM      9  N   UNL     1      19.355 -32.900  23.603  1.00  0.00    -0.342 N 
ATOM     10  H   UNL     1      19.581 -31.904  23.383  1.00  0.00     0.164 HD
ATOM     11  O   UNL     1      19.762 -35.153  23.093  1.00  0.00    -0.273 OA
BRANCH   9  12
ATOM     12  C   UNL     1      18.367 -33.174  24.653  1.00  0.00     0.174 CG0
ATOM     13  G   UNL     1      19.041 -33.161  26.009  1.00  0.00     0.000 G0
BRANCH  12  14
ATOM     14  C   UNL     1      17.187 -32.163  24.569  1.00  0.00     0.018 C 
ATOM     15  C   UNL     1      17.466 -31.057  23.533  1.00  0.00     0.010 C 
BRANCH  14  16
ATOM     16  C   UNL     1      15.816 -32.844  24.309  1.00  0.00     0.002 C 
ATOM     17  C   UNL     1      15.891 -34.329  23.936  1.00  0.00     0.004 C 
ENDBRANCH  14  16
ENDBRANCH  12  14
ENDBRANCH   9  12
ENDBRANCH   7   8
BRANCH   7  18
ATOM     18  C   UNL     1      19.888 -33.066  20.444  1.00  0.00     0.073 C 
BRANCH  18  19
ATOM     19  C   UNL     1      18.705 -33.957  20.184  1.00  0.00    -0.016 A 
ATOM     20  C   UNL     1      18.740 -35.269  19.723  1.00  0.00     0.134 A 
ATOM     21  C   UNL     1      17.365 -33.651  20.358  1.00  0.00     0.006 A 
ATOM     22  N   UNL     1      17.477 -35.748  19.610  1.00  0.00    -0.191 N 
ATOM     23  C   UNL     1      16.649 -34.761  19.991  1.00  0.00     0.087 A 
ATOM     24  C   UNL     1      16.739 -32.495  20.823  1.00  0.00     0.011 A 
ATOM     25  C   UNL     1      15.257 -34.792  20.054  1.00  0.00     0.030 A 
ATOM     26  C   UNL     1      15.333 -32.490  20.888  1.00  0.00     0.001 A 
ATOM     27  C   UNL     1      14.596 -33.632  20.502  1.00  0.00     0.002 A 
BRANCH  22  28
ATOM     28  O   UNL     1      17.082 -37.013  19.217  1.00  0.00    -0.417 OA
ATOM     29  C   UNL     1      18.006 -38.085  19.053  1.00  0.00     0.313 C 
ENDBRANCH  22  28
ENDBRANCH  18  19
ENDBRANCH   7  18
ENDBRANCH   4   7
ENDBRANCH   2   3
BRANCH   2  30
ATOM     30  N   UNL     1      23.449 -32.019  24.768  1.00  0.00    -0.343 N 
ATOM     31  C   UNL     1      22.112 -31.690  25.165  1.00  0.00     0.243 C 
ATOM     32  H   UNL     1      24.011 -32.608  25.426  1.00  0.00     0.164 HD
ATOM     33  O   UNL     1      21.491 -30.761  24.574  1.00  0.00    -0.273 OA
BRANCH  31  34
ATOM     34  C   UNL     1      21.457 -32.438  26.300  1.00  0.00     0.174 C 
ATOM     35  N   UNL     1      20.016 -32.136  26.385  1.00  0.00    -0.329 N 
ATOM     36  C   UNL     1      22.163 -32.141  27.638  1.00  0.00     0.035 C 
ATOM     37  C   UNL     1      19.554 -30.886  27.012  1.00  0.00     0.120 C 
ATOM     38  C   UNL     1      21.782 -30.761  28.188  1.00  0.00     0.004 C 
ATOM     39  C   UNL     1      20.264 -30.657  28.349  1.00  0.00     0.022 C 
BRANCH  35  40
ATOM     40  C   UNL     1      19.055 -33.146  26.022  1.00  0.00     0.246 CG0
ATOM     41  O   UNL     1      18.745 -34.024  26.868  1.00  0.00    -0.272 OA
ATOM     42  G   UNL     1      18.387 -33.164  24.663  1.00  0.00     0.000 G0
ENDBRANCH  35  40
ENDBRANCH  31  34
ENDBRANCH   2  30
ENDBRANCH   1   2
BRANCH   1  43
ATOM     43  C   UNL     1      26.157 -30.830  23.337  1.00  0.00     0.003 C 
BRANCH  43  44
ATOM     44  C   UNL     1      25.299 -29.652  23.839  1.00  0.00     0.001 C 
BRANCH  44  45
ATOM     45  C   UNL     1      24.838 -28.663  22.754  1.00  0.00     0.008 C 
BRANCH  45  46
ATOM     46  C   UNL     1      23.312 -28.454  22.738  1.00  0.00     0.075 C 
BRANCH  46  47
ATOM     47  C   UNL     1      22.866 -27.176  22.059  1.00  0.00     0.132 C 
ATOM     48  O   UNL     1      23.253 -26.113  22.528  1.00  0.00    -0.300 OA
BRANCH  47  49
ATOM     49  C   UNL     1      21.972 -27.174  20.830  1.00  0.00     0.072 C 
ATOM     50  C   UNL     1      22.386 -26.142  19.782  1.00  0.00     0.012 C 
ENDBRANCH  47  49
ENDBRANCH  46  47
ENDBRANCH  45  46
ENDBRANCH  44  45
ENDBRANCH  43  44
ENDBRANCH   1  43
TORSDOF 12
ENDMDL
MODEL 9
REMARK VINA RESULT:    -5.709      2.788      8.395
REMARK INTER + INTRA:         -14.706
REMARK INTER:                 -12.101
REMARK INTRA:                  -2.605
REMARK UNBOUND:                -2.656
REMARK SMILES CCC(=O)CCCCC[C@@H]1NC(=O)[C@H]2CCCCN2C(=O)[C@@H]([C@@H](C)CC)NC(=O)[C@@H](Cc2cn(OC)c3ccccc23)NC1=O
REMARK SMILES IDX 9 1 10 2 44 3 43 4 45 6 30 7 28 8 27 9 29 11 22 12 23 14
REMARK SMILES IDX 24 15 25 16 26 17 31 18 32 19 33 20 42 21 34 22 37 23 41 24
REMARK SMILES IDX 38 25 40 26 39 27 35 28 36 29 11 30 12 31 13 33 14 34 19 35
REMARK SMILES IDX 15 36 18 37 16 38 17 39 20 40 21 41 8 43 7 44 6 45 5 46 3 47
REMARK SMILES IDX 4 48 2 49 1 50
REMARK H PARENT 43 5 27 10 11 32
REMARK Flexibility Score: 80.00
ROOT
ATOM      1  C   UNL     1      18.509 -32.384  22.087  1.00  0.00     0.035 C 
ENDROOT
BRANCH   1   2
ATOM      2  C   UNL     1      20.020 -32.566  22.360  1.00  0.00     0.171 C 
BRANCH   2   3
ATOM      3  C   UNL     1      20.629 -31.503  23.236  1.00  0.00     0.243 C 
ATOM      4  N   UNL     1      21.858 -30.871  22.845  1.00  0.00    -0.342 N 
ATOM      5  H   UNL     1      22.248 -31.076  21.898  1.00  0.00     0.164 HD
ATOM      6  O   UNL     1      20.130 -31.263  24.371  1.00  0.00    -0.273 OA
BRANCH   4   7
ATOM      7  C   UNL     1      22.708 -30.189  23.823  1.00  0.00     0.175 C 
BRANCH   7   8
ATOM      8  C   UNL     1      23.418 -31.195  24.697  1.00  0.00     0.243 C 
ATOM      9  N   UNL     1      24.162 -32.290  24.120  1.00  0.00    -0.342 N 
ATOM     10  H   UNL     1      24.123 -32.437  23.086  1.00  0.00     0.164 HD
ATOM     11  O   UNL     1      23.382 -31.041  25.945  1.00  0.00    -0.273 OA
BRANCH   9  12
ATOM     12  C   UNL     1      25.050 -33.149  24.911  1.00  0.00     0.174 CG0
ATOM     13  G   UNL     1      24.373 -34.474  25.188  1.00  0.00     0.000 G0
BRANCH  12  14
ATOM     14  C   UNL     1      26.421 -33.324  24.195  1.00  0.00     0.018 C 
ATOM     15  C   UNL     1      26.954 -31.980  23.663  1.00  0.00     0.010 C 
BRANCH  14  16
ATOM     16  C   UNL     1      27.483 -34.041  25.073  1.00  0.00     0.002 C 
ATOM     17  C   UNL     1      28.096 -35.299  24.449  1.00  0.00     0.004 C 
ENDBRANCH  14  16
ENDBRANCH  12  14
ENDBRANCH   9  12
ENDBRANCH   7   8
BRANCH   7  18
ATOM     18  C   UNL     1      23.714 -29.272  23.100  1.00  0.00     0.073 C 
BRANCH  18  19
ATOM     19  C   UNL     1      23.192 -27.868  22.972  1.00  0.00    -0.016 A 
ATOM     20  C   UNL     1      22.615 -27.101  23.978  1.00  0.00     0.134 A 
ATOM     21  C   UNL     1      23.192 -27.071  21.838  1.00  0.00     0.006 A 
ATOM     22  N   UNL     1      22.267 -25.888  23.486  1.00  0.00    -0.191 N 
ATOM     23  C   UNL     1      22.613 -25.878  22.188  1.00  0.00     0.087 A 
ATOM     24  C   UNL     1      23.668 -27.304  20.549  1.00  0.00     0.011 A 
ATOM     25  C   UNL     1      22.462 -24.837  21.272  1.00  0.00     0.030 A 
ATOM     26  C   UNL     1      23.520 -26.278  19.598  1.00  0.00     0.001 A 
ATOM     27  C   UNL     1      22.917 -25.052  19.957  1.00  0.00     0.002 A 
BRANCH  22  28
ATOM     28  O   UNL     1      21.696 -24.828  24.167  1.00  0.00    -0.417 OA
ATOM     29  C   UNL     1      22.394 -24.107  25.179  1.00  0.00     0.313 C 
ENDBRANCH  22  28
ENDBRANCH  18  19
ENDBRANCH   7  18
ENDBRANCH   4   7
ENDBRANCH   2   3
BRANCH   2  30
ATOM     30  N   UNL     1      20.324 -33.878  22.929  1.00  0.00    -0.343 N 
ATOM     31  C   UNL     1      21.678 -34.346  22.974  1.00  0.00     0.243 C 
ATOM     32  H   UNL     1      19.652 -34.295  23.615  1.00  0.00     0.164 HD
ATOM     33  O   UNL     1      22.456 -34.111  22.006  1.00  0.00    -0.273 OA
BRANCH  31  34
ATOM     34  C   UNL     1      22.163 -35.136  24.164  1.00  0.00     0.174 C 
ATOM     35  N   UNL     1      23.636 -35.212  24.197  1.00  0.00    -0.329 N 
ATOM     36  C   UNL     1      21.537 -36.544  24.186  1.00  0.00     0.035 C 
ATOM     37  C   UNL     1      24.351 -36.170  23.337  1.00  0.00     0.120 C 
ATOM     38  C   UNL     1      22.200 -37.477  23.164  1.00  0.00     0.004 C 
ATOM     39  C   UNL     1      23.706 -37.557  23.420  1.00  0.00     0.022 C 
BRANCH  35  40
ATOM     40  C   UNL     1      24.363 -34.480  25.203  1.00  0.00     0.246 CG0
ATOM     41  O   UNL     1      24.446 -34.957  26.364  1.00  0.00    -0.272 OA
ATOM     42  G   UNL     1      25.055 -33.169  24.895  1.00  0.00     0.000 G0
ENDBRANCH  35  40
ENDBRANCH  31  34
ENDBRANCH   2  30
ENDBRANCH   1   2
BRANCH   1  43
ATOM     43  C   UNL     1      18.076 -32.496  20.612  1.00  0.00     0.003 C 
BRANCH  43  44
ATOM     44  C   UNL     1      18.510 -33.823  19.957  1.00  0.00     0.001 C 
BRANCH  44  45
ATOM     45  C   UNL     1      17.433 -34.525  19.113  1.00  0.00     0.008 C 
BRANCH  45  46
ATOM     46  C   UNL     1      16.763 -35.701  19.847  1.00  0.00     0.075 C 
BRANCH  46  47
ATOM     47  C   UNL     1      17.552 -36.993  19.804  1.00  0.00     0.132 C 
ATOM     48  O   UNL     1      17.586 -37.608  18.745  1.00  0.00    -0.300 OA
BRANCH  47  49
ATOM     49  C   UNL     1      18.294 -37.537  21.013  1.00  0.00     0.072 C 
ATOM     50  C   UNL     1      18.129 -36.675  22.264  1.00  0.00     0.012 C 
ENDBRANCH  47  49
ENDBRANCH  46  47
ENDBRANCH  45  46
ENDBRANCH  44  45
ENDBRANCH  43  44
ENDBRANCH   1  43
TORSDOF 12
ENDMDL
