MODEL 1
REMARK VINA RESULT:    -5.633      0.000      0.000
REMARK INTER + INTRA:          -6.501
REMARK INTER:                  -6.456
REMARK INTRA:                  -0.045
REMARK UNBOUND:                -0.045
REMARK SMILES O=C([O-])c1cc(O)c(O)c(O)c1
REMARK SMILES IDX 4 1 5 2 12 3 6 4 10 5 8 6 2 7 1 8 3 9 7 10 11 12 9 14
REMARK H PARENT 7 11 11 13 9 15
REMARK Flexibility Score: inf
ROOT
ATOM      1  C   UNL     1      15.056  73.832  69.537  1.00  0.00     0.005 A 
ATOM      2  C   UNL     1      13.799  74.434  69.712  1.00  0.00     0.060 A 
ATOM      3  C   UNL     1      16.058  74.055  70.497  1.00  0.00     0.060 A 
ATOM      4  C   UNL     1      13.544  75.246  70.826  1.00  0.00     0.162 A 
ATOM      5  C   UNL     1      15.812  74.863  71.612  1.00  0.00     0.162 A 
ATOM      6  C   UNL     1      14.552  75.462  71.781  1.00  0.00     0.200 A 
ENDROOT
BRANCH   1   7
ATOM      7  C   UNL     1      15.318  72.977  68.358  1.00  0.00     0.072 C 
ATOM      8  O   UNL     1      15.566  73.492  67.236  1.00  0.00    -0.545 OA
ATOM      9  O   UNL     1      15.295  71.592  68.474  1.00  0.00    -0.545 OA
ENDBRANCH   1   7
BRANCH   4  10
ATOM     10  O   UNL     1      12.293  75.838  70.987  1.00  0.00    -0.504 OA
ATOM     11  H   UNL     1      11.909  76.469  70.292  1.00  0.00     0.293 HD
ENDBRANCH   4  10
BRANCH   5  12
ATOM     12  O   UNL     1      16.833  75.060  72.543  1.00  0.00    -0.504 OA
ATOM     13  H   UNL     1      17.486  74.327  72.788  1.00  0.00     0.293 HD
ENDBRANCH   5  12
BRANCH   6  14
ATOM     14  O   UNL     1      14.315  76.268  72.896  1.00  0.00    -0.502 OA
ATOM     15  H   UNL     1      14.700  76.054  73.808  1.00  0.00     0.293 HD
ENDBRANCH   6  14
TORSDOF 4
ENDMDL
MODEL 2
REMARK VINA RESULT:    -5.623      0.197      2.434
REMARK INTER + INTRA:          -6.490
REMARK INTER:                  -6.444
REMARK INTRA:                  -0.046
REMARK UNBOUND:                -0.045
REMARK SMILES O=C([O-])c1cc(O)c(O)c(O)c1
REMARK SMILES IDX 4 1 5 2 12 3 6 4 10 5 8 6 2 7 1 8 3 9 7 10 11 12 9 14
REMARK H PARENT 7 11 11 13 9 15
REMARK Flexibility Score: inf
ROOT
ATOM      1  C   UNL     1      15.116  73.939  69.596  1.00  0.00     0.005 A 
ATOM      2  C   UNL     1      16.068  74.089  70.618  1.00  0.00     0.060 A 
ATOM      3  C   UNL     1      13.868  74.573  69.730  1.00  0.00     0.060 A 
ATOM      4  C   UNL     1      15.783  74.857  71.755  1.00  0.00     0.162 A 
ATOM      5  C   UNL     1      13.575  75.342  70.861  1.00  0.00     0.162 A 
ATOM      6  C   UNL     1      14.533  75.487  71.879  1.00  0.00     0.200 A 
ENDROOT
BRANCH   1   7
ATOM      7  C   UNL     1      15.424  73.126  68.399  1.00  0.00     0.072 C 
ATOM      8  O   UNL     1      15.448  73.653  67.256  1.00  0.00    -0.545 OA
ATOM      9  O   UNL     1      15.692  71.768  68.521  1.00  0.00    -0.545 OA
ENDBRANCH   1   7
BRANCH   4  10
ATOM     10  O   UNL     1      16.737  74.996  72.761  1.00  0.00    -0.504 OA
ATOM     11  H   UNL     1      16.662  75.719  73.469  1.00  0.00     0.293 HD
ENDBRANCH   4  10
BRANCH   5  12
ATOM     12  O   UNL     1      12.325  75.955  70.956  1.00  0.00    -0.504 OA
ATOM     13  H   UNL     1      12.196  76.846  71.418  1.00  0.00     0.293 HD
ENDBRANCH   5  12
BRANCH   6  14
ATOM     14  O   UNL     1      14.232  76.256  73.005  1.00  0.00    -0.502 OA
ATOM     15  H   UNL     1      14.613  76.046  73.920  1.00  0.00     0.293 HD
ENDBRANCH   6  14
TORSDOF 4
ENDMDL
MODEL 3
REMARK VINA RESULT:    -5.565      1.555      4.247
REMARK INTER + INTRA:          -6.423
REMARK INTER:                  -6.378
REMARK INTRA:                  -0.046
REMARK UNBOUND:                -0.045
REMARK SMILES O=C([O-])c1cc(O)c(O)c(O)c1
REMARK SMILES IDX 4 1 5 2 12 3 6 4 10 5 8 6 2 7 1 8 3 9 7 10 11 12 9 14
REMARK H PARENT 7 11 11 13 9 15
REMARK Flexibility Score: inf
ROOT
ATOM      1  C   UNL     1      14.978  75.443  71.475  1.00  0.00     0.005 A 
ATOM      2  C   UNL     1      14.293  76.322  70.619  1.00  0.00     0.060 A 
ATOM      3  C   UNL     1      15.557  74.281  70.937  1.00  0.00     0.060 A 
ATOM      4  C   UNL     1      14.186  76.046  69.249  1.00  0.00     0.162 A 
ATOM      5  C   UNL     1      15.456  73.999  69.571  1.00  0.00     0.162 A 
ATOM      6  C   UNL     1      14.769  74.882  68.721  1.00  0.00     0.200 A 
ENDROOT
BRANCH   1   7
ATOM      7  C   UNL     1      15.086  75.740  72.921  1.00  0.00     0.072 C 
ATOM      8  O   UNL     1      14.482  75.030  73.767  1.00  0.00    -0.545 OA
ATOM      9  O   UNL     1      15.858  76.807  73.364  1.00  0.00    -0.545 OA
ENDBRANCH   1   7
BRANCH   4  10
ATOM     10  O   UNL     1      13.503  76.926  68.411  1.00  0.00    -0.504 OA
ATOM     11  H   UNL     1      13.495  77.925  68.582  1.00  0.00     0.293 HD
ENDBRANCH   4  10
BRANCH   5  12
ATOM     12  O   UNL     1      16.045  72.835  69.076  1.00  0.00    -0.504 OA
ATOM     13  H   UNL     1      17.046  72.748  68.953  1.00  0.00     0.293 HD
ENDBRANCH   5  12
BRANCH   6  14
ATOM     14  O   UNL     1      14.672  74.593  67.359  1.00  0.00    -0.502 OA
ATOM     15  H   UNL     1      15.463  74.261  66.819  1.00  0.00     0.293 HD
ENDBRANCH   6  14
TORSDOF 4
ENDMDL
MODEL 4
REMARK VINA RESULT:    -5.535      1.533      4.682
REMARK INTER + INTRA:          -6.389
REMARK INTER:                  -6.343
REMARK INTRA:                  -0.046
REMARK UNBOUND:                -0.045
REMARK SMILES O=C([O-])c1cc(O)c(O)c(O)c1
REMARK SMILES IDX 4 1 5 2 12 3 6 4 10 5 8 6 2 7 1 8 3 9 7 10 11 12 9 14
REMARK H PARENT 7 11 11 13 9 15
REMARK Flexibility Score: inf
ROOT
ATOM      1  C   UNL     1      15.011  75.426  71.396  1.00  0.00     0.005 A 
ATOM      2  C   UNL     1      15.576  74.249  70.879  1.00  0.00     0.060 A 
ATOM      3  C   UNL     1      14.318  76.287  70.527  1.00  0.00     0.060 A 
ATOM      4  C   UNL     1      15.454  73.934  69.519  1.00  0.00     0.162 A 
ATOM      5  C   UNL     1      14.190  75.980  69.169  1.00  0.00     0.162 A 
ATOM      6  C   UNL     1      14.759  74.801  68.659  1.00  0.00     0.200 A 
ENDROOT
BRANCH   1   7
ATOM      7  C   UNL     1      15.144  75.753  72.832  1.00  0.00     0.072 C 
ATOM      8  O   UNL     1      14.537  75.075  73.703  1.00  0.00    -0.545 OA
ATOM      9  O   UNL     1      15.945  76.813  73.242  1.00  0.00    -0.545 OA
ENDBRANCH   1   7
BRANCH   4  10
ATOM     10  O   UNL     1      16.021  72.763  69.019  1.00  0.00    -0.504 OA
ATOM     11  H   UNL     1      16.388  72.045  69.634  1.00  0.00     0.293 HD
ENDBRANCH   4  10
BRANCH   5  12
ATOM     12  O   UNL     1      13.494  76.861  68.339  1.00  0.00    -0.504 OA
ATOM     13  H   UNL     1      13.935  77.322  67.554  1.00  0.00     0.293 HD
ENDBRANCH   5  12
BRANCH   6  14
ATOM     14  O   UNL     1      14.627  74.502  67.301  1.00  0.00    -0.502 OA
ATOM     15  H   UNL     1      15.209  74.935  66.594  1.00  0.00     0.293 HD
ENDBRANCH   6  14
TORSDOF 4
ENDMDL
MODEL 5
REMARK VINA RESULT:    -5.257      1.833      4.068
REMARK INTER + INTRA:          -6.070
REMARK INTER:                  -6.018
REMARK INTRA:                  -0.053
REMARK UNBOUND:                -0.045
REMARK SMILES O=C([O-])c1cc(O)c(O)c(O)c1
REMARK SMILES IDX 4 1 5 2 12 3 6 4 10 5 8 6 2 7 1 8 3 9 7 10 11 12 9 14
REMARK H PARENT 7 11 11 13 9 15
REMARK Flexibility Score: inf
ROOT
ATOM      1  C   UNL     1      15.732  75.758  71.393  1.00  0.00     0.005 A 
ATOM      2  C   UNL     1      15.145  76.852  70.735  1.00  0.00     0.060 A 
ATOM      3  C   UNL     1      15.389  74.456  70.989  1.00  0.00     0.060 A 
ATOM      4  C   UNL     1      14.231  76.652  69.692  1.00  0.00     0.162 A 
ATOM      5  C   UNL     1      14.478  74.248  69.948  1.00  0.00     0.162 A 
ATOM      6  C   UNL     1      13.895  75.346  69.294  1.00  0.00     0.200 A 
ENDROOT
BRANCH   1   7
ATOM      7  C   UNL     1      16.695  75.976  72.494  1.00  0.00     0.072 C 
ATOM      8  O   UNL     1      16.903  77.134  72.943  1.00  0.00    -0.545 OA
ATOM      9  O   UNL     1      17.385  74.904  73.049  1.00  0.00    -0.545 OA
ENDBRANCH   1   7
BRANCH   4  10
ATOM     10  O   UNL     1      13.656  77.746  69.048  1.00  0.00    -0.504 OA
ATOM     11  H   UNL     1      13.886  77.980  68.088  1.00  0.00     0.293 HD
ENDBRANCH   4  10
BRANCH   5  12
ATOM     12  O   UNL     1      14.163  72.939  69.577  1.00  0.00    -0.504 OA
ATOM     13  H   UNL     1      14.803  72.362  69.045  1.00  0.00     0.293 HD
ENDBRANCH   5  12
BRANCH   6  14
ATOM     14  O   UNL     1      12.986  75.130  68.257  1.00  0.00    -0.502 OA
ATOM     15  H   UNL     1      13.276  75.071  67.288  1.00  0.00     0.293 HD
ENDBRANCH   6  14
TORSDOF 4
ENDMDL
MODEL 6
REMARK VINA RESULT:    -4.993      1.394      2.031
REMARK INTER + INTRA:          -5.767
REMARK INTER:                  -5.717
REMARK INTRA:                  -0.050
REMARK UNBOUND:                -0.045
REMARK SMILES O=C([O-])c1cc(O)c(O)c(O)c1
REMARK SMILES IDX 4 1 5 2 12 3 6 4 10 5 8 6 2 7 1 8 3 9 7 10 11 12 9 14
REMARK H PARENT 7 11 11 13 9 15
REMARK Flexibility Score: inf
ROOT
ATOM      1  C   UNL     1      14.619  73.893  69.086  1.00  0.00     0.005 A 
ATOM      2  C   UNL     1      14.157  75.012  68.374  1.00  0.00     0.060 A 
ATOM      3  C   UNL     1      14.542  73.899  70.489  1.00  0.00     0.060 A 
ATOM      4  C   UNL     1      13.627  76.120  69.049  1.00  0.00     0.162 A 
ATOM      5  C   UNL     1      14.014  75.000  71.171  1.00  0.00     0.162 A 
ATOM      6  C   UNL     1      13.553  76.116  70.452  1.00  0.00     0.200 A 
ENDROOT
BRANCH   1   7
ATOM      7  C   UNL     1      15.178  72.727  68.366  1.00  0.00     0.072 C 
ATOM      8  O   UNL     1      14.976  71.557  68.787  1.00  0.00    -0.545 OA
ATOM      9  O   UNL     1      15.934  72.907  67.214  1.00  0.00    -0.545 OA
ENDBRANCH   1   7
BRANCH   4  10
ATOM     10  O   UNL     1      13.172  77.224  68.330  1.00  0.00    -0.504 OA
ATOM     11  H   UNL     1      13.381  78.172  68.622  1.00  0.00     0.293 HD
ENDBRANCH   4  10
BRANCH   5  12
ATOM     12  O   UNL     1      13.954  74.967  72.565  1.00  0.00    -0.504 OA
ATOM     13  H   UNL     1      14.468  75.621  73.141  1.00  0.00     0.293 HD
ENDBRANCH   5  12
BRANCH   6  14
ATOM     14  O   UNL     1      13.028  77.211  71.140  1.00  0.00    -0.502 OA
ATOM     15  H   UNL     1      13.403  77.521  72.029  1.00  0.00     0.293 HD
ENDBRANCH   6  14
TORSDOF 4
ENDMDL
MODEL 7
REMARK VINA RESULT:    -4.579      9.973     12.022
REMARK INTER + INTRA:          -5.293
REMARK INTER:                  -5.242
REMARK INTRA:                  -0.051
REMARK UNBOUND:                -0.045
REMARK SMILES O=C([O-])c1cc(O)c(O)c(O)c1
REMARK SMILES IDX 4 1 5 2 12 3 6 4 10 5 8 6 2 7 1 8 3 9 7 10 11 12 9 14
REMARK H PARENT 7 11 11 13 9 15
REMARK Flexibility Score: inf
ROOT
ATOM      1  C   UNL     1       3.636  78.311  68.820  1.00  0.00     0.005 A 
ATOM      2  C   UNL     1       3.296  77.009  68.415  1.00  0.00     0.060 A 
ATOM      3  C   UNL     1       4.899  78.823  68.475  1.00  0.00     0.060 A 
ATOM      4  C   UNL     1       4.200  76.230  67.680  1.00  0.00     0.162 A 
ATOM      5  C   UNL     1       5.806  78.053  67.741  1.00  0.00     0.162 A 
ATOM      6  C   UNL     1       5.459  76.752  67.340  1.00  0.00     0.200 A 
ENDROOT
BRANCH   1   7
ATOM      7  C   UNL     1       2.677  79.127  69.596  1.00  0.00     0.072 C 
ATOM      8  O   UNL     1       1.844  78.579  70.364  1.00  0.00    -0.545 OA
ATOM      9  O   UNL     1       2.685  80.513  69.490  1.00  0.00    -0.545 OA
ENDBRANCH   1   7
BRANCH   4  10
ATOM     10  O   UNL     1       3.850  74.940  67.286  1.00  0.00    -0.504 OA
ATOM     11  H   UNL     1       2.918  74.720  66.952  1.00  0.00     0.293 HD
ENDBRANCH   4  10
BRANCH   5  12
ATOM     12  O   UNL     1       7.050  78.598  67.418  1.00  0.00    -0.504 OA
ATOM     13  H   UNL     1       7.356  78.712  66.461  1.00  0.00     0.293 HD
ENDBRANCH   5  12
BRANCH   6  14
ATOM     14  O   UNL     1       6.371  75.989  66.608  1.00  0.00    -0.502 OA
ATOM     15  H   UNL     1       6.195  75.707  65.651  1.00  0.00     0.293 HD
ENDBRANCH   6  14
TORSDOF 4
ENDMDL
MODEL 8
REMARK VINA RESULT:    -4.572      9.980     12.161
REMARK INTER + INTRA:          -5.285
REMARK INTER:                  -5.234
REMARK INTRA:                  -0.051
REMARK UNBOUND:                -0.045
REMARK SMILES O=C([O-])c1cc(O)c(O)c(O)c1
REMARK SMILES IDX 4 1 5 2 12 3 6 4 10 5 8 6 2 7 1 8 3 9 7 10 11 12 9 14
REMARK H PARENT 7 11 11 13 9 15
REMARK Flexibility Score: inf
ROOT
ATOM      1  C   UNL     1       3.626  78.351  68.787  1.00  0.00     0.005 A 
ATOM      2  C   UNL     1       4.890  78.856  68.442  1.00  0.00     0.060 A 
ATOM      3  C   UNL     1       3.288  77.041  68.404  1.00  0.00     0.060 A 
ATOM      4  C   UNL     1       5.803  78.070  67.726  1.00  0.00     0.162 A 
ATOM      5  C   UNL     1       4.194  76.249  67.691  1.00  0.00     0.162 A 
ATOM      6  C   UNL     1       5.457  76.762  67.349  1.00  0.00     0.200 A 
ENDROOT
BRANCH   1   7
ATOM      7  C   UNL     1       2.666  79.186  69.542  1.00  0.00     0.072 C 
ATOM      8  O   UNL     1       1.782  78.654  70.263  1.00  0.00    -0.545 OA
ATOM      9  O   UNL     1       2.728  80.573  69.465  1.00  0.00    -0.545 OA
ENDBRANCH   1   7
BRANCH   4  10
ATOM     10  O   UNL     1       7.054  78.585  67.390  1.00  0.00    -0.504 OA
ATOM     11  H   UNL     1       7.253  79.578  67.441  1.00  0.00     0.293 HD
ENDBRANCH   4  10
BRANCH   5  12
ATOM     12  O   UNL     1       3.821  74.954  67.330  1.00  0.00    -0.504 OA
ATOM     13  H   UNL     1       3.080  74.455  67.804  1.00  0.00     0.293 HD
ENDBRANCH   5  12
BRANCH   6  14
ATOM     14  O   UNL     1       6.355  75.965  66.636  1.00  0.00    -0.502 OA
ATOM     15  H   UNL     1       7.296  75.785  66.965  1.00  0.00     0.293 HD
ENDBRANCH   6  14
TORSDOF 4
ENDMDL
MODEL 9
REMARK VINA RESULT:    -4.558      1.848      3.699
REMARK INTER + INTRA:          -5.269
REMARK INTER:                  -5.217
REMARK INTRA:                  -0.052
REMARK UNBOUND:                -0.045
REMARK SMILES O=C([O-])c1cc(O)c(O)c(O)c1
REMARK SMILES IDX 4 1 5 2 12 3 6 4 10 5 8 6 2 7 1 8 3 9 7 10 11 12 9 14
REMARK H PARENT 7 11 11 13 9 15
REMARK Flexibility Score: inf
ROOT
ATOM      1  C   UNL     1      14.498  76.015  69.614  1.00  0.00     0.005 A 
ATOM      2  C   UNL     1      15.031  76.410  70.852  1.00  0.00     0.060 A 
ATOM      3  C   UNL     1      14.864  74.767  69.082  1.00  0.00     0.060 A 
ATOM      4  C   UNL     1      15.915  75.575  71.549  1.00  0.00     0.162 A 
ATOM      5  C   UNL     1      15.745  73.927  69.771  1.00  0.00     0.162 A 
ATOM      6  C   UNL     1      16.274  74.328  71.009  1.00  0.00     0.200 A 
ENDROOT
BRANCH   1   7
ATOM      7  C   UNL     1      13.566  76.902  68.883  1.00  0.00     0.072 C 
ATOM      8  O   UNL     1      13.491  78.126  69.168  1.00  0.00    -0.545 OA
ATOM      9  O   UNL     1      12.760  76.395  67.871  1.00  0.00    -0.545 OA
ENDBRANCH   1   7
BRANCH   4  10
ATOM     10  O   UNL     1      16.436  75.979  72.776  1.00  0.00    -0.504 OA
ATOM     11  H   UNL     1      17.143  76.703  72.842  1.00  0.00     0.293 HD
ENDBRANCH   4  10
BRANCH   5  12
ATOM     12  O   UNL     1      16.083  72.695  69.209  1.00  0.00    -0.504 OA
ATOM     13  H   UNL     1      15.438  72.171  68.632  1.00  0.00     0.293 HD
ENDBRANCH   5  12
BRANCH   6  14
ATOM     14  O   UNL     1      17.153  73.484  71.690  1.00  0.00    -0.502 OA
ATOM     15  H   UNL     1      18.078  73.270  71.337  1.00  0.00     0.293 HD
ENDBRANCH   6  14
TORSDOF 4
ENDMDL
