MODEL 1
REMARK VINA RESULT:    -8.273      0.000      0.000
REMARK INTER + INTRA:         -13.275
REMARK INTER:                 -13.109
REMARK INTRA:                  -0.165
REMARK UNBOUND:                -0.165
REMARK SMILES C[C@H]1O[C@H](O[C@@H]2[C@@H](Oc3cc(O)c4c(c3)O[C@@H](c3ccc(O)cc3)CC4=O)O[C@H](CO)[C@H](O)[C@H]2O)[C@@H](O)[C@H](O)[C@@H]1O
REMARK SMILES IDX 6 1 34 2 32 3 29 4 28 5 7 6 5 7 4 8 1 9 2 10 40 11 3 12
REMARK SMILES IDX 38 13 36 14 41 15 39 17 37 19 35 21 8 23 9 24 10 25 15 26
REMARK SMILES IDX 11 27 14 28 13 29 16 30 26 31 17 32 27 33 25 34 12 35 18 37
REMARK SMILES IDX 19 38 24 39 20 40 23 41 21 42 22 43 33 45 30 47 31 48
REMARK H PARENT 41 16 39 18 37 20 35 22 12 36 22 44 33 46 31 49
REMARK Flexibility Score: inf
ROOT
ATOM      1  C   UNL     1     -13.718 -41.320 -17.584  1.00  0.00     0.221 C 
ATOM      2  C   UNL     1     -13.560 -40.575 -16.245  1.00  0.00     0.181 C 
ATOM      3  C   UNL     1     -12.850 -41.469 -15.206  1.00  0.00     0.177 C 
ATOM      4  C   UNL     1     -11.547 -42.031 -15.816  1.00  0.00     0.179 C 
ATOM      5  O   UNL     1     -11.826 -42.757 -17.001  1.00  0.00    -0.332 OA
ATOM      6  C   UNL     1     -12.362 -41.921 -18.018  1.00  0.00     0.339 C 
ENDROOT
BRANCH   1   7
ATOM      7  O   UNL     1     -14.679 -42.345 -17.392  1.00  0.00    -0.337 OA
BRANCH   7   8
ATOM      8  C   UNL     1     -15.881 -41.885 -16.788  1.00  0.00     0.282 C 
ATOM      9  C   UNL     1     -16.498 -39.027 -19.012  1.00  0.00     0.041 C 
ATOM     10  C   UNL     1     -16.325 -40.499 -18.633  1.00  0.00     0.150 C 
ATOM     11  C   UNL     1     -17.525 -41.337 -19.126  1.00  0.00     0.174 C 
ATOM     12  O   UNL     1     -16.198 -40.571 -17.221  1.00  0.00    -0.344 OA
ATOM     13  C   UNL     1     -17.440 -42.800 -18.606  1.00  0.00     0.179 C 
ATOM     14  C   UNL     1     -17.024 -42.867 -17.115  1.00  0.00     0.202 C 
BRANCH  11  15
ATOM     15  O   UNL     1     -17.572 -41.320 -20.532  1.00  0.00    -0.388 OA
ATOM     16  H   UNL     1     -16.705 -40.955 -20.846  1.00  0.00     0.211 HD
ENDBRANCH  11  15
BRANCH  13  17
ATOM     17  O   UNL     1     -16.596 -43.601 -19.400  1.00  0.00    -0.387 OA
ATOM     18  H   UNL     1     -16.119 -43.015 -20.040  1.00  0.00     0.211 HD
ENDBRANCH  13  17
BRANCH  14  19
ATOM     19  O   UNL     1     -18.125 -42.631 -16.269  1.00  0.00    -0.385 OA
ATOM     20  H   UNL     1     -18.927 -43.018 -16.704  1.00  0.00     0.211 HD
ENDBRANCH  14  19
ENDBRANCH   7   8
ENDBRANCH   1   7
BRANCH   2  21
ATOM     21  O   UNL     1     -12.823 -39.394 -16.449  1.00  0.00    -0.387 OA
ATOM     22  H   UNL     1     -12.839 -39.206 -17.426  1.00  0.00     0.211 HD
ENDBRANCH   2  21
BRANCH   6  23
ATOM     23  O   UNL     1     -11.458 -40.871 -18.380  1.00  0.00    -0.462 OA
BRANCH  23  24
ATOM     24  C   UNL     1     -10.494 -40.932 -19.398  1.00  0.00     0.130 A 
ATOM     25  C   UNL     1     -10.522 -41.900 -20.419  1.00  0.00     0.093 A 
ATOM     26  C   UNL     1      -9.455 -39.999 -19.368  1.00  0.00     0.094 A 
ATOM     27  C   UNL     1      -9.479 -41.975 -21.357  1.00  0.00     0.133 A 
ATOM     28  C   UNL     1      -8.426 -40.048 -20.311  1.00  0.00     0.138 A 
ATOM     29  C   UNL     1      -8.409 -41.057 -21.291  1.00  0.00     0.102 A 
ATOM     30  O   UNL     1      -7.404 -39.094 -20.259  1.00  0.00    -0.484 OA
ATOM     31  C   UNL     1      -7.224 -41.129 -22.186  1.00  0.00     0.174 C 
ATOM     32  C   UNL     1      -6.483 -38.907 -21.335  1.00  0.00     0.211 C 
ATOM     33  O   UNL     1      -7.167 -41.964 -23.125  1.00  0.00    -0.294 OA
ATOM     34  C   UNL     1      -6.031 -40.260 -21.903  1.00  0.00     0.131 C 
BRANCH  27  35
ATOM     35  O   UNL     1      -9.505 -42.963 -22.339  1.00  0.00    -0.507 OA
ATOM     36  H   UNL     1      -9.757 -42.755 -23.299  1.00  0.00     0.293 HD
ENDBRANCH  27  35
BRANCH  32  37
ATOM     37  C   UNL     1      -5.300 -38.098 -20.854  1.00  0.00    -0.007 A 
ATOM     38  C   UNL     1      -4.591 -38.495 -19.707  1.00  0.00     0.011 A 
ATOM     39  C   UNL     1      -4.909 -36.927 -21.531  1.00  0.00     0.011 A 
ATOM     40  C   UNL     1      -3.497 -37.749 -19.261  1.00  0.00     0.046 A 
ATOM     41  C   UNL     1      -3.814 -36.187 -21.082  1.00  0.00     0.046 A 
ATOM     42  C   UNL     1      -3.099 -36.600 -19.951  1.00  0.00     0.115 A 
BRANCH  42  43
ATOM     43  O   UNL     1      -1.994 -35.878 -19.506  1.00  0.00    -0.508 OA
ATOM     44  H   UNL     1      -1.549 -35.184 -20.093  1.00  0.00     0.293 HD
ENDBRANCH  42  43
ENDBRANCH  32  37
ENDBRANCH  23  24
ENDBRANCH   6  23
BRANCH   3  45
ATOM     45  O   UNL     1     -13.689 -42.528 -14.817  1.00  0.00    -0.387 OA
ATOM     46  H   UNL     1     -14.587 -42.139 -14.638  1.00  0.00     0.211 HD
ENDBRANCH   3  45
BRANCH   4  47
ATOM     47  C   UNL     1     -10.815 -42.966 -14.838  1.00  0.00     0.191 C 
BRANCH  47  48
ATOM     48  O   UNL     1     -11.327 -42.843 -13.540  1.00  0.00    -0.394 OA
ATOM     49  H   UNL     1     -11.140 -41.910 -13.242  1.00  0.00     0.210 HD
ENDBRANCH  47  48
ENDBRANCH   4  47
TORSDOF 14
ENDMDL
MODEL 2
REMARK VINA RESULT:    -8.074      1.949      2.392
REMARK INTER + INTRA:         -12.959
REMARK INTER:                 -11.940
REMARK INTRA:                  -1.019
REMARK UNBOUND:                -0.165
REMARK SMILES C[C@H]1O[C@H](O[C@@H]2[C@@H](Oc3cc(O)c4c(c3)O[C@@H](c3ccc(O)cc3)CC4=O)O[C@H](CO)[C@H](O)[C@H]2O)[C@@H](O)[C@H](O)[C@@H]1O
REMARK SMILES IDX 6 1 34 2 32 3 29 4 28 5 7 6 5 7 4 8 1 9 2 10 40 11 3 12
REMARK SMILES IDX 38 13 36 14 41 15 39 17 37 19 35 21 8 23 9 24 10 25 15 26
REMARK SMILES IDX 11 27 14 28 13 29 16 30 26 31 17 32 27 33 25 34 12 35 18 37
REMARK SMILES IDX 19 38 24 39 20 40 23 41 21 42 22 43 33 45 30 47 31 48
REMARK H PARENT 41 16 39 18 37 20 35 22 12 36 22 44 33 46 31 49
REMARK Flexibility Score: inf
ROOT
ATOM      1  C   UNL     1     -13.419 -40.975 -16.870  1.00  0.00     0.221 C 
ATOM      2  C   UNL     1     -13.285 -40.590 -15.385  1.00  0.00     0.181 C 
ATOM      3  C   UNL     1     -12.520 -41.684 -14.607  1.00  0.00     0.177 C 
ATOM      4  C   UNL     1     -11.198 -42.005 -15.337  1.00  0.00     0.179 C 
ATOM      5  O   UNL     1     -11.452 -42.415 -16.670  1.00  0.00    -0.332 OA
ATOM      6  C   UNL     1     -12.040 -41.375 -17.440  1.00  0.00     0.339 C 
ENDROOT
BRANCH   1   7
ATOM      7  O   UNL     1     -14.326 -42.062 -16.950  1.00  0.00    -0.337 OA
BRANCH   7   8
ATOM      8  C   UNL     1     -15.587 -41.790 -16.353  1.00  0.00     0.282 C 
ATOM      9  C   UNL     1     -16.716 -39.213 -18.717  1.00  0.00     0.041 C 
ATOM     10  C   UNL     1     -16.281 -40.608 -18.262  1.00  0.00     0.150 C 
ATOM     11  C   UNL     1     -17.316 -41.672 -18.691  1.00  0.00     0.174 C 
ATOM     12  O   UNL     1     -16.136 -40.579 -16.850  1.00  0.00    -0.344 OA
ATOM     13  C   UNL     1     -16.970 -43.066 -18.095  1.00  0.00     0.179 C 
ATOM     14  C   UNL     1     -16.540 -42.975 -16.610  1.00  0.00     0.202 C 
BRANCH  11  15
ATOM     15  O   UNL     1     -17.374 -41.741 -20.095  1.00  0.00    -0.388 OA
ATOM     16  H   UNL     1     -16.447 -41.624 -20.429  1.00  0.00     0.211 HD
ENDBRANCH  11  15
BRANCH  13  17
ATOM     17  O   UNL     1     -16.001 -43.747 -18.858  1.00  0.00    -0.387 OA
ATOM     18  H   UNL     1     -15.594 -44.450 -18.293  1.00  0.00     0.211 HD
ENDBRANCH  13  17
BRANCH  14  19
ATOM     19  O   UNL     1     -17.660 -42.891 -15.760  1.00  0.00    -0.385 OA
ATOM     20  H   UNL     1     -18.260 -42.191 -16.122  1.00  0.00     0.211 HD
ENDBRANCH  14  19
ENDBRANCH   7   8
ENDBRANCH   1   7
BRANCH   2  21
ATOM     21  O   UNL     1     -12.610 -39.361 -15.276  1.00  0.00    -0.387 OA
ATOM     22  H   UNL     1     -11.649 -39.540 -15.465  1.00  0.00     0.211 HD
ENDBRANCH   2  21
BRANCH   6  23
ATOM     23  O   UNL     1     -11.193 -40.223 -17.518  1.00  0.00    -0.462 OA
BRANCH  23  24
ATOM     24  C   UNL     1     -10.960 -39.451 -18.667  1.00  0.00     0.130 A 
ATOM     25  C   UNL     1     -11.997 -38.991 -19.500  1.00  0.00     0.093 A 
ATOM     26  C   UNL     1      -9.636 -39.155 -18.996  1.00  0.00     0.094 A 
ATOM     27  C   UNL     1     -11.702 -38.304 -20.689  1.00  0.00     0.133 A 
ATOM     28  C   UNL     1      -9.332 -38.451 -20.162  1.00  0.00     0.138 A 
ATOM     29  C   UNL     1     -10.358 -38.051 -21.038  1.00  0.00     0.102 A 
ATOM     30  O   UNL     1      -7.996 -38.163 -20.460  1.00  0.00    -0.484 OA
ATOM     31  C   UNL     1      -9.960 -37.415 -22.321  1.00  0.00     0.174 C 
ATOM     32  C   UNL     1      -7.626 -37.221 -21.469  1.00  0.00     0.211 C 
ATOM     33  O   UNL     1     -10.822 -36.975 -23.125  1.00  0.00    -0.294 OA
ATOM     34  C   UNL     1      -8.510 -37.387 -22.714  1.00  0.00     0.131 C 
BRANCH  27  35
ATOM     35  O   UNL     1     -12.739 -37.889 -21.521  1.00  0.00    -0.507 OA
ATOM     36  H   UNL     1     -13.356 -37.125 -21.265  1.00  0.00     0.293 HD
ENDBRANCH  27  35
BRANCH  32  37
ATOM     37  C   UNL     1      -6.165 -37.395 -21.814  1.00  0.00    -0.007 A 
ATOM     38  C   UNL     1      -5.269 -36.323 -21.661  1.00  0.00     0.011 A 
ATOM     39  C   UNL     1      -5.688 -38.622 -22.314  1.00  0.00     0.011 A 
ATOM     40  C   UNL     1      -3.918 -36.482 -21.979  1.00  0.00     0.046 A 
ATOM     41  C   UNL     1      -4.336 -38.776 -22.628  1.00  0.00     0.046 A 
ATOM     42  C   UNL     1      -3.445 -37.709 -22.454  1.00  0.00     0.115 A 
BRANCH  42  43
ATOM     43  O   UNL     1      -2.092 -37.859 -22.747  1.00  0.00    -0.508 OA
ATOM     44  H   UNL     1      -1.774 -38.528 -23.436  1.00  0.00     0.293 HD
ENDBRANCH  42  43
ENDBRANCH  32  37
ENDBRANCH  23  24
ENDBRANCH   6  23
BRANCH   3  45
ATOM     45  O   UNL     1     -13.303 -42.849 -14.505  1.00  0.00    -0.387 OA
ATOM     46  H   UNL     1     -12.694 -43.623 -14.649  1.00  0.00     0.211 HD
ENDBRANCH   3  45
BRANCH   4  47
ATOM     47  C   UNL     1     -10.411 -43.120 -14.629  1.00  0.00     0.191 C 
BRANCH  47  48
ATOM     48  O   UNL     1     -10.919 -43.365 -13.347  1.00  0.00    -0.394 OA
ATOM     49  H   UNL     1     -11.633 -44.054 -13.447  1.00  0.00     0.210 HD
ENDBRANCH  47  48
ENDBRANCH   4  47
TORSDOF 14
ENDMDL
MODEL 3
REMARK VINA RESULT:    -7.794      1.958      2.499
REMARK INTER + INTRA:         -12.516
REMARK INTER:                 -11.411
REMARK INTRA:                  -1.106
REMARK UNBOUND:                -0.165
REMARK SMILES C[C@H]1O[C@H](O[C@@H]2[C@@H](Oc3cc(O)c4c(c3)O[C@@H](c3ccc(O)cc3)CC4=O)O[C@H](CO)[C@H](O)[C@H]2O)[C@@H](O)[C@H](O)[C@@H]1O
REMARK SMILES IDX 6 1 34 2 32 3 29 4 28 5 7 6 5 7 4 8 1 9 2 10 40 11 3 12
REMARK SMILES IDX 38 13 36 14 41 15 39 17 37 19 35 21 8 23 9 24 10 25 15 26
REMARK SMILES IDX 11 27 14 28 13 29 16 30 26 31 17 32 27 33 25 34 12 35 18 37
REMARK SMILES IDX 19 38 24 39 20 40 23 41 21 42 22 43 33 45 30 47 31 48
REMARK H PARENT 41 16 39 18 37 20 35 22 12 36 22 44 33 46 31 49
REMARK Flexibility Score: inf
ROOT
ATOM      1  C   UNL     1     -12.778 -40.841 -17.122  1.00  0.00     0.221 C 
ATOM      2  C   UNL     1     -12.117 -40.297 -15.841  1.00  0.00     0.181 C 
ATOM      3  C   UNL     1     -11.779 -41.451 -14.872  1.00  0.00     0.177 C 
ATOM      4  C   UNL     1     -10.982 -42.539 -15.625  1.00  0.00     0.179 C 
ATOM      5  O   UNL     1     -11.719 -43.013 -16.740  1.00  0.00    -0.332 OA
ATOM      6  C   UNL     1     -11.930 -41.993 -17.707  1.00  0.00     0.339 C 
ENDROOT
BRANCH   1   7
ATOM      7  O   UNL     1     -14.072 -41.302 -16.773  1.00  0.00    -0.337 OA
BRANCH   7   8
ATOM      8  C   UNL     1     -14.903 -40.289 -16.222  1.00  0.00     0.282 C 
ATOM      9  C   UNL     1     -16.635 -39.326 -19.315  1.00  0.00     0.041 C 
ATOM     10  C   UNL     1     -16.215 -40.250 -18.171  1.00  0.00     0.150 C 
ATOM     11  C   UNL     1     -17.452 -40.882 -17.495  1.00  0.00     0.174 C 
ATOM     12  O   UNL     1     -15.465 -39.480 -17.244  1.00  0.00    -0.344 OA
ATOM     13  C   UNL     1     -17.049 -41.693 -16.231  1.00  0.00     0.179 C 
ATOM     14  C   UNL     1     -16.006 -40.943 -15.365  1.00  0.00     0.202 C 
BRANCH  11  15
ATOM     15  O   UNL     1     -18.125 -41.711 -18.412  1.00  0.00    -0.388 OA
ATOM     16  H   UNL     1     -18.235 -41.188 -19.247  1.00  0.00     0.211 HD
ENDBRANCH  11  15
BRANCH  13  17
ATOM     17  O   UNL     1     -16.600 -42.990 -16.548  1.00  0.00    -0.387 OA
ATOM     18  H   UNL     1     -15.846 -43.216 -15.948  1.00  0.00     0.211 HD
ENDBRANCH  13  17
BRANCH  14  19
ATOM     19  O   UNL     1     -16.623 -39.977 -14.547  1.00  0.00    -0.385 OA
ATOM     20  H   UNL     1     -17.495 -40.345 -14.253  1.00  0.00     0.211 HD
ENDBRANCH  14  19
ENDBRANCH   7   8
ENDBRANCH   1   7
BRANCH   2  21
ATOM     21  O   UNL     1     -10.947 -39.592 -16.178  1.00  0.00    -0.387 OA
ATOM     22  H   UNL     1     -10.356 -40.227 -16.667  1.00  0.00     0.211 HD
ENDBRANCH   2  21
BRANCH   6  23
ATOM     23  O   UNL     1     -10.695 -41.477 -18.218  1.00  0.00    -0.462 OA
BRANCH  23  24
ATOM     24  C   UNL     1     -10.564 -40.466 -19.183  1.00  0.00     0.130 A 
ATOM     25  C   UNL     1     -11.664 -39.922 -19.873  1.00  0.00     0.093 A 
ATOM     26  C   UNL     1      -9.278 -40.008 -19.476  1.00  0.00     0.094 A 
ATOM     27  C   UNL     1     -11.466 -38.982 -20.897  1.00  0.00     0.133 A 
ATOM     28  C   UNL     1      -9.072 -39.055 -20.475  1.00  0.00     0.138 A 
ATOM     29  C   UNL     1     -10.159 -38.560 -21.219  1.00  0.00     0.102 A 
ATOM     30  O   UNL     1      -7.772 -38.611 -20.740  1.00  0.00    -0.484 OA
ATOM     31  C   UNL     1      -9.860 -37.642 -22.349  1.00  0.00     0.174 C 
ATOM     32  C   UNL     1      -7.511 -37.453 -21.536  1.00  0.00     0.211 C 
ATOM     33  O   UNL     1     -10.782 -37.110 -23.018  1.00  0.00    -0.294 OA
ATOM     34  C   UNL     1      -8.432 -37.422 -22.765  1.00  0.00     0.131 C 
BRANCH  27  35
ATOM     35  O   UNL     1     -12.563 -38.482 -21.594  1.00  0.00    -0.507 OA
ATOM     36  H   UNL     1     -13.039 -37.633 -21.306  1.00  0.00     0.293 HD
ENDBRANCH  27  35
BRANCH  32  37
ATOM     37  C   UNL     1      -6.057 -37.440 -21.948  1.00  0.00    -0.007 A 
ATOM     38  C   UNL     1      -5.255 -36.318 -21.677  1.00  0.00     0.011 A 
ATOM     39  C   UNL     1      -5.494 -38.537 -22.629  1.00  0.00     0.011 A 
ATOM     40  C   UNL     1      -3.910 -36.304 -22.057  1.00  0.00     0.046 A 
ATOM     41  C   UNL     1      -4.149 -38.518 -23.004  1.00  0.00     0.046 A 
ATOM     42  C   UNL     1      -3.351 -37.405 -22.712  1.00  0.00     0.115 A 
BRANCH  42  43
ATOM     43  O   UNL     1      -2.005 -37.385 -23.066  1.00  0.00    -0.508 OA
ATOM     44  H   UNL     1      -1.510 -36.513 -23.206  1.00  0.00     0.293 HD
ENDBRANCH  42  43
ENDBRANCH  32  37
ENDBRANCH  23  24
ENDBRANCH   6  23
BRANCH   3  45
ATOM     45  O   UNL     1     -12.958 -42.006 -14.342  1.00  0.00    -0.387 OA
ATOM     46  H   UNL     1     -13.669 -41.316 -14.426  1.00  0.00     0.211 HD
ENDBRANCH   3  45
BRANCH   4  47
ATOM     47  C   UNL     1     -10.652 -43.736 -14.719  1.00  0.00     0.191 C 
BRANCH  47  48
ATOM     48  O   UNL     1     -10.674 -43.370 -13.367  1.00  0.00    -0.394 OA
ATOM     49  H   UNL     1      -9.730 -43.381 -13.049  1.00  0.00     0.210 HD
ENDBRANCH  47  48
ENDBRANCH   4  47
TORSDOF 14
ENDMDL
MODEL 4
REMARK VINA RESULT:    -7.513      2.197      3.375
REMARK INTER + INTRA:         -12.071
REMARK INTER:                 -11.175
REMARK INTRA:                  -0.896
REMARK UNBOUND:                -0.165
REMARK SMILES C[C@H]1O[C@H](O[C@@H]2[C@@H](Oc3cc(O)c4c(c3)O[C@@H](c3ccc(O)cc3)CC4=O)O[C@H](CO)[C@H](O)[C@H]2O)[C@@H](O)[C@H](O)[C@@H]1O
REMARK SMILES IDX 6 1 34 2 32 3 29 4 28 5 7 6 5 7 4 8 1 9 2 10 40 11 3 12
REMARK SMILES IDX 38 13 36 14 41 15 39 17 37 19 35 21 8 23 9 24 10 25 15 26
REMARK SMILES IDX 11 27 14 28 13 29 16 30 26 31 17 32 27 33 25 34 12 35 18 37
REMARK SMILES IDX 19 38 24 39 20 40 23 41 21 42 22 43 33 45 30 47 31 48
REMARK H PARENT 41 16 39 18 37 20 35 22 12 36 22 44 33 46 31 49
REMARK Flexibility Score: inf
ROOT
ATOM      1  C   UNL     1     -13.511 -40.707 -16.778  1.00  0.00     0.221 C 
ATOM      2  C   UNL     1     -12.247 -41.360 -16.188  1.00  0.00     0.181 C 
ATOM      3  C   UNL     1     -11.594 -42.307 -17.219  1.00  0.00     0.177 C 
ATOM      4  C   UNL     1     -11.397 -41.557 -18.554  1.00  0.00     0.179 C 
ATOM      5  O   UNL     1     -12.637 -41.064 -19.035  1.00  0.00    -0.332 OA
ATOM      6  C   UNL     1     -13.194 -40.092 -18.160  1.00  0.00     0.339 C 
ENDROOT
BRANCH   1   7
ATOM      7  O   UNL     1     -14.499 -41.717 -16.897  1.00  0.00    -0.337 OA
BRANCH   7   8
ATOM      8  C   UNL     1     -15.671 -41.452 -16.137  1.00  0.00     0.282 C 
ATOM      9  C   UNL     1     -17.496 -39.535 -18.685  1.00  0.00     0.041 C 
ATOM     10  C   UNL     1     -16.814 -40.758 -18.070  1.00  0.00     0.150 C 
ATOM     11  C   UNL     1     -17.756 -41.982 -18.097  1.00  0.00     0.174 C 
ATOM     12  O   UNL     1     -16.447 -40.427 -16.739  1.00  0.00    -0.344 OA
ATOM     13  C   UNL     1     -17.138 -43.185 -17.329  1.00  0.00     0.179 C 
ATOM     14  C   UNL     1     -16.489 -42.751 -15.991  1.00  0.00     0.202 C 
BRANCH  11  15
ATOM     15  O   UNL     1     -18.031 -42.342 -19.429  1.00  0.00    -0.388 OA
ATOM     16  H   UNL     1     -18.885 -42.845 -19.423  1.00  0.00     0.211 HD
ENDBRANCH  11  15
BRANCH  13  17
ATOM     17  O   UNL     1     -16.225 -43.910 -18.120  1.00  0.00    -0.387 OA
ATOM     18  H   UNL     1     -15.704 -43.269 -18.665  1.00  0.00     0.211 HD
ENDBRANCH  13  17
BRANCH  14  19
ATOM     19  O   UNL     1     -17.457 -42.605 -14.980  1.00  0.00    -0.385 OA
ATOM     20  H   UNL     1     -17.002 -42.727 -14.108  1.00  0.00     0.211 HD
ENDBRANCH  14  19
ENDBRANCH   7   8
ENDBRANCH   1   7
BRANCH   2  21
ATOM     21  O   UNL     1     -11.335 -40.360 -15.807  1.00  0.00    -0.387 OA
ATOM     22  H   UNL     1     -10.438 -40.789 -15.758  1.00  0.00     0.211 HD
ENDBRANCH   2  21
BRANCH   6  23
ATOM     23  O   UNL     1     -12.332 -38.959 -18.002  1.00  0.00    -0.462 OA
BRANCH  23  24
ATOM     24  C   UNL     1     -11.567 -38.361 -19.016  1.00  0.00     0.130 A 
ATOM     25  C   UNL     1     -12.069 -37.347 -19.853  1.00  0.00     0.093 A 
ATOM     26  C   UNL     1     -10.262 -38.821 -19.204  1.00  0.00     0.094 A 
ATOM     27  C   UNL     1     -11.292 -36.852 -20.914  1.00  0.00     0.133 A 
ATOM     28  C   UNL     1      -9.473 -38.318 -20.240  1.00  0.00     0.138 A 
ATOM     29  C   UNL     1      -9.991 -37.357 -21.126  1.00  0.00     0.102 A 
ATOM     30  O   UNL     1      -8.166 -38.793 -20.397  1.00  0.00    -0.484 OA
ATOM     31  C   UNL     1      -9.145 -36.954 -22.279  1.00  0.00     0.174 C 
ATOM     32  C   UNL     1      -7.215 -38.140 -21.240  1.00  0.00     0.211 C 
ATOM     33  O   UNL     1      -9.515 -36.055 -23.077  1.00  0.00    -0.294 OA
ATOM     34  C   UNL     1      -7.871 -37.701 -22.557  1.00  0.00     0.131 C 
BRANCH  27  35
ATOM     35  O   UNL     1     -11.818 -35.875 -21.755  1.00  0.00    -0.507 OA
ATOM     36  H   UNL     1     -11.324 -35.010 -21.944  1.00  0.00     0.293 HD
ENDBRANCH  27  35
BRANCH  32  37
ATOM     37  C   UNL     1      -6.048 -39.065 -21.498  1.00  0.00    -0.007 A 
ATOM     38  C   UNL     1      -5.764 -39.500 -22.804  1.00  0.00     0.011 A 
ATOM     39  C   UNL     1      -5.247 -39.522 -20.434  1.00  0.00     0.011 A 
ATOM     40  C   UNL     1      -4.685 -40.355 -23.044  1.00  0.00     0.046 A 
ATOM     41  C   UNL     1      -4.168 -40.374 -20.680  1.00  0.00     0.046 A 
ATOM     42  C   UNL     1      -3.878 -40.786 -21.987  1.00  0.00     0.115 A 
BRANCH  42  43
ATOM     43  O   UNL     1      -2.794 -41.621 -22.244  1.00  0.00    -0.508 OA
ATOM     44  H   UNL     1      -2.082 -41.367 -22.916  1.00  0.00     0.293 HD
ENDBRANCH  42  43
ENDBRANCH  32  37
ENDBRANCH  23  24
ENDBRANCH   6  23
BRANCH   3  45
ATOM     45  O   UNL     1     -12.402 -43.440 -17.423  1.00  0.00    -0.387 OA
ATOM     46  H   UNL     1     -12.994 -43.241 -18.197  1.00  0.00     0.211 HD
ENDBRANCH   3  45
BRANCH   4  47
ATOM     47  C   UNL     1     -10.786 -42.465 -19.635  1.00  0.00     0.191 C 
BRANCH  47  48
ATOM     48  O   UNL     1      -9.424 -42.194 -19.815  1.00  0.00    -0.394 OA
ATOM     49  H   UNL     1      -8.953 -43.072 -19.819  1.00  0.00     0.210 HD
ENDBRANCH  47  48
ENDBRANCH   4  47
TORSDOF 14
ENDMDL
MODEL 5
REMARK VINA RESULT:    -6.831      2.483     10.575
REMARK INTER + INTRA:         -10.989
REMARK INTER:                  -9.589
REMARK INTRA:                  -1.401
REMARK UNBOUND:                -0.165
REMARK SMILES C[C@H]1O[C@H](O[C@@H]2[C@@H](Oc3cc(O)c4c(c3)O[C@@H](c3ccc(O)cc3)CC4=O)O[C@H](CO)[C@H](O)[C@H]2O)[C@@H](O)[C@H](O)[C@@H]1O
REMARK SMILES IDX 6 1 34 2 32 3 29 4 28 5 7 6 5 7 4 8 1 9 2 10 40 11 3 12
REMARK SMILES IDX 38 13 36 14 41 15 39 17 37 19 35 21 8 23 9 24 10 25 15 26
REMARK SMILES IDX 11 27 14 28 13 29 16 30 26 31 17 32 27 33 25 34 12 35 18 37
REMARK SMILES IDX 19 38 24 39 20 40 23 41 21 42 22 43 33 45 30 47 31 48
REMARK H PARENT 41 16 39 18 37 20 35 22 12 36 22 44 33 46 31 49
REMARK Flexibility Score: inf
ROOT
ATOM      1  C   UNL     1      -8.860 -39.907 -21.055  1.00  0.00     0.221 C 
ATOM      2  C   UNL     1      -8.774 -40.357 -22.525  1.00  0.00     0.181 C 
ATOM      3  C   UNL     1      -8.244 -41.805 -22.620  1.00  0.00     0.177 C 
ATOM      4  C   UNL     1      -9.072 -42.717 -21.689  1.00  0.00     0.179 C 
ATOM      5  O   UNL     1      -9.018 -42.245 -20.353  1.00  0.00    -0.332 OA
ATOM      6  C   UNL     1      -9.619 -40.964 -20.221  1.00  0.00     0.339 C 
ENDROOT
BRANCH   1   7
ATOM      7  O   UNL     1      -7.535 -39.752 -20.576  1.00  0.00    -0.337 OA
BRANCH   7   8
ATOM      8  C   UNL     1      -7.200 -38.405 -20.266  1.00  0.00     0.282 C 
ATOM      9  C   UNL     1      -3.767 -38.999 -19.099  1.00  0.00     0.041 C 
ATOM     10  C   UNL     1      -4.925 -38.968 -20.099  1.00  0.00     0.150 C 
ATOM     11  C   UNL     1      -4.520 -38.208 -21.382  1.00  0.00     0.174 C 
ATOM     12  O   UNL     1      -6.030 -38.343 -19.465  1.00  0.00    -0.344 OA
ATOM     13  C   UNL     1      -5.734 -38.028 -22.336  1.00  0.00     0.179 C 
ATOM     14  C   UNL     1      -7.017 -37.610 -21.575  1.00  0.00     0.202 C 
BRANCH  11  15
ATOM     15  O   UNL     1      -3.482 -38.898 -22.037  1.00  0.00    -0.388 OA
ATOM     16  H   UNL     1      -2.638 -38.429 -21.815  1.00  0.00     0.211 HD
ENDBRANCH  11  15
BRANCH  13  17
ATOM     17  O   UNL     1      -5.968 -39.172 -23.125  1.00  0.00    -0.387 OA
ATOM     18  H   UNL     1      -5.641 -38.992 -24.042  1.00  0.00     0.211 HD
ENDBRANCH  13  17
BRANCH  14  19
ATOM     19  O   UNL     1      -7.023 -36.228 -21.308  1.00  0.00    -0.385 OA
ATOM     20  H   UNL     1      -7.952 -35.969 -21.079  1.00  0.00     0.211 HD
ENDBRANCH  14  19
ENDBRANCH   7   8
ENDBRANCH   1   7
BRANCH   2  21
ATOM     21  O   UNL     1     -10.046 -40.270 -23.119  1.00  0.00    -0.387 OA
ATOM     22  H   UNL     1     -10.611 -40.974 -22.701  1.00  0.00     0.211 HD
ENDBRANCH   2  21
BRANCH   6  23
ATOM     23  O   UNL     1     -11.001 -40.980 -20.597  1.00  0.00    -0.462 OA
BRANCH  23  24
ATOM     24  C   UNL     1     -12.036 -40.283 -19.954  1.00  0.00     0.130 A 
ATOM     25  C   UNL     1     -12.182 -38.886 -20.037  1.00  0.00     0.093 A 
ATOM     26  C   UNL     1     -12.936 -41.021 -19.182  1.00  0.00     0.094 A 
ATOM     27  C   UNL     1     -13.178 -38.230 -19.295  1.00  0.00     0.133 A 
ATOM     28  C   UNL     1     -13.945 -40.382 -18.460  1.00  0.00     0.138 A 
ATOM     29  C   UNL     1     -14.054 -38.980 -18.480  1.00  0.00     0.102 A 
ATOM     30  O   UNL     1     -14.836 -41.150 -17.702  1.00  0.00    -0.484 OA
ATOM     31  C   UNL     1     -15.070 -38.354 -17.594  1.00  0.00     0.174 C 
ATOM     32  C   UNL     1     -16.046 -40.608 -17.170  1.00  0.00     0.211 C 
ATOM     33  O   UNL     1     -15.268 -37.112 -17.605  1.00  0.00    -0.294 OA
ATOM     34  C   UNL     1     -15.804 -39.204 -16.596  1.00  0.00     0.131 C 
BRANCH  27  35
ATOM     35  O   UNL     1     -13.285 -36.843 -19.360  1.00  0.00    -0.507 OA
ATOM     36  H   UNL     1     -13.990 -36.388 -19.930  1.00  0.00     0.293 HD
ENDBRANCH  27  35
BRANCH  32  37
ATOM     37  C   UNL     1     -16.597 -41.538 -16.115  1.00  0.00    -0.007 A 
ATOM     38  C   UNL     1     -17.381 -42.645 -16.486  1.00  0.00     0.011 A 
ATOM     39  C   UNL     1     -16.355 -41.297 -14.749  1.00  0.00     0.011 A 
ATOM     40  C   UNL     1     -17.891 -43.507 -15.511  1.00  0.00     0.046 A 
ATOM     41  C   UNL     1     -16.865 -42.163 -13.779  1.00  0.00     0.046 A 
ATOM     42  C   UNL     1     -17.627 -43.276 -14.158  1.00  0.00     0.115 A 
BRANCH  42  43
ATOM     43  O   UNL     1     -18.125 -44.154 -13.200  1.00  0.00    -0.508 OA
ATOM     44  H   UNL     1     -19.103 -44.412 -13.180  1.00  0.00     0.293 HD
ENDBRANCH  42  43
ENDBRANCH  32  37
ENDBRANCH  23  24
ENDBRANCH   6  23
BRANCH   3  45
ATOM     45  O   UNL     1      -6.887 -41.853 -22.252  1.00  0.00    -0.387 OA
ATOM     46  H   UNL     1      -6.624 -42.812 -22.235  1.00  0.00     0.211 HD
ENDBRANCH   3  45
BRANCH   4  47
ATOM     47  C   UNL     1      -8.562 -44.168 -21.710  1.00  0.00     0.191 C 
BRANCH  47  48
ATOM     48  O   UNL     1      -9.378 -45.004 -20.938  1.00  0.00    -0.394 OA
ATOM     49  H   UNL     1      -9.079 -45.939 -21.111  1.00  0.00     0.210 HD
ENDBRANCH  47  48
ENDBRANCH   4  47
TORSDOF 14
ENDMDL
MODEL 6
REMARK VINA RESULT:    -5.392      2.504     10.706
REMARK INTER + INTRA:          -8.710
REMARK INTER:                  -8.912
REMARK INTRA:                   0.203
REMARK UNBOUND:                -0.165
REMARK SMILES C[C@H]1O[C@H](O[C@@H]2[C@@H](Oc3cc(O)c4c(c3)O[C@@H](c3ccc(O)cc3)CC4=O)O[C@H](CO)[C@H](O)[C@H]2O)[C@@H](O)[C@H](O)[C@@H]1O
REMARK SMILES IDX 6 1 34 2 32 3 29 4 28 5 7 6 5 7 4 8 1 9 2 10 40 11 3 12
REMARK SMILES IDX 38 13 36 14 41 15 39 17 37 19 35 21 8 23 9 24 10 25 15 26
REMARK SMILES IDX 11 27 14 28 13 29 16 30 26 31 17 32 27 33 25 34 12 35 18 37
REMARK SMILES IDX 19 38 24 39 20 40 23 41 21 42 22 43 33 45 30 47 31 48
REMARK H PARENT 41 16 39 18 37 20 35 22 12 36 22 44 33 46 31 49
REMARK Flexibility Score: inf
ROOT
ATOM      1  C   UNL     1      -8.737 -38.342 -19.958  1.00  0.00     0.221 C 
ATOM      2  C   UNL     1      -9.347 -37.463 -21.066  1.00  0.00     0.181 C 
ATOM      3  C   UNL     1      -9.878 -38.338 -22.223  1.00  0.00     0.177 C 
ATOM      4  C   UNL     1     -10.805 -39.435 -21.653  1.00  0.00     0.179 C 
ATOM      5  O   UNL     1     -10.114 -40.223 -20.698  1.00  0.00    -0.332 OA
ATOM      6  C   UNL     1      -9.728 -39.459 -19.563  1.00  0.00     0.339 C 
ENDROOT
BRANCH   1   7
ATOM      7  O   UNL     1      -7.535 -38.897 -20.465  1.00  0.00    -0.337 OA
BRANCH   7   8
ATOM      8  C   UNL     1      -6.463 -37.964 -20.524  1.00  0.00     0.282 C 
ATOM      9  C   UNL     1      -3.854 -40.108 -19.075  1.00  0.00     0.041 C 
ATOM     10  C   UNL     1      -4.904 -39.670 -20.099  1.00  0.00     0.150 C 
ATOM     11  C   UNL     1      -4.302 -39.638 -21.522  1.00  0.00     0.174 C 
ATOM     12  O   UNL     1      -5.375 -38.388 -19.717  1.00  0.00    -0.344 OA
ATOM     13  C   UNL     1      -5.308 -39.040 -22.545  1.00  0.00     0.179 C 
ATOM     14  C   UNL     1      -6.025 -37.783 -21.991  1.00  0.00     0.202 C 
BRANCH  11  15
ATOM     15  O   UNL     1      -3.925 -40.938 -21.909  1.00  0.00    -0.388 OA
ATOM     16  H   UNL     1      -3.222 -40.841 -22.601  1.00  0.00     0.211 HD
ENDBRANCH  11  15
BRANCH  13  17
ATOM     17  O   UNL     1      -6.241 -39.994 -22.996  1.00  0.00    -0.387 OA
ATOM     18  H   UNL     1      -6.008 -40.246 -23.925  1.00  0.00     0.211 HD
ENDBRANCH  13  17
BRANCH  14  19
ATOM     19  O   UNL     1      -5.216 -36.638 -22.119  1.00  0.00    -0.385 OA
ATOM     20  H   UNL     1      -4.278 -36.912 -21.953  1.00  0.00     0.211 HD
ENDBRANCH  14  19
ENDBRANCH   7   8
ENDBRANCH   1   7
BRANCH   2  21
ATOM     21  O   UNL     1     -10.390 -36.686 -20.531  1.00  0.00    -0.387 OA
ATOM     22  H   UNL     1      -9.977 -36.049 -19.887  1.00  0.00     0.211 HD
ENDBRANCH   2  21
BRANCH   6  23
ATOM     23  O   UNL     1     -10.858 -38.892 -18.891  1.00  0.00    -0.462 OA
BRANCH  23  24
ATOM     24  C   UNL     1     -12.199 -39.261 -19.083  1.00  0.00     0.130 A 
ATOM     25  C   UNL     1     -12.945 -38.867 -20.210  1.00  0.00     0.093 A 
ATOM     26  C   UNL     1     -12.810 -40.033 -18.094  1.00  0.00     0.094 A 
ATOM     27  C   UNL     1     -14.310 -39.184 -20.305  1.00  0.00     0.133 A 
ATOM     28  C   UNL     1     -14.161 -40.375 -18.190  1.00  0.00     0.138 A 
ATOM     29  C   UNL     1     -14.931 -39.924 -19.276  1.00  0.00     0.102 A 
ATOM     30  O   UNL     1     -14.742 -41.157 -17.186  1.00  0.00    -0.484 OA
ATOM     31  C   UNL     1     -16.388 -40.218 -19.258  1.00  0.00     0.174 C 
ATOM     32  C   UNL     1     -16.020 -41.775 -17.347  1.00  0.00     0.211 C 
ATOM     33  O   UNL     1     -17.129 -39.902 -20.223  1.00  0.00    -0.294 OA
ATOM     34  C   UNL     1     -17.006 -40.812 -18.023  1.00  0.00     0.131 C 
BRANCH  27  35
ATOM     35  O   UNL     1     -15.042 -38.755 -21.409  1.00  0.00    -0.507 OA
ATOM     36  H   UNL     1     -15.968 -38.352 -21.313  1.00  0.00     0.293 HD
ENDBRANCH  27  35
BRANCH  32  37
ATOM     37  C   UNL     1     -16.538 -42.225 -16.000  1.00  0.00    -0.007 A 
ATOM     38  C   UNL     1     -17.450 -43.292 -15.912  1.00  0.00     0.011 A 
ATOM     39  C   UNL     1     -16.136 -41.568 -14.821  1.00  0.00     0.011 A 
ATOM     40  C   UNL     1     -17.930 -43.709 -14.668  1.00  0.00     0.046 A 
ATOM     41  C   UNL     1     -16.618 -41.991 -13.580  1.00  0.00     0.046 A 
ATOM     42  C   UNL     1     -17.509 -43.068 -13.499  1.00  0.00     0.115 A 
BRANCH  42  43
ATOM     43  O   UNL     1     -17.980 -43.508 -12.265  1.00  0.00    -0.508 OA
ATOM     44  H   UNL     1     -18.438 -42.877 -11.621  1.00  0.00     0.293 HD
ENDBRANCH  42  43
ENDBRANCH  32  37
ENDBRANCH  23  24
ENDBRANCH   6  23
BRANCH   3  45
ATOM     45  O   UNL     1      -8.809 -38.931 -22.918  1.00  0.00    -0.387 OA
ATOM     46  H   UNL     1      -8.872 -39.913 -22.768  1.00  0.00     0.211 HD
ENDBRANCH   3  45
BRANCH   4  47
ATOM     47  C   UNL     1     -11.333 -40.366 -22.757  1.00  0.00     0.191 C 
BRANCH  47  48
ATOM     48  O   UNL     1     -10.522 -41.499 -22.896  1.00  0.00    -0.394 OA
ATOM     49  H   UNL     1      -9.642 -41.277 -22.483  1.00  0.00     0.210 HD
ENDBRANCH  47  48
ENDBRANCH   4  47
TORSDOF 14
ENDMDL
