MODEL 1
REMARK VINA RESULT:    -6.164      0.000      0.000
REMARK INTER + INTRA:          -6.344
REMARK INTER:                  -6.344
REMARK INTRA:                   0.000
REMARK UNBOUND:                 0.000
REMARK SMILES O=c1ccc2ccc(O)cc2o1
REMARK SMILES IDX 6 1 7 2 8 3 10 4 11 5 5 6 4 7 3 8 2 9 1 10 12 11 9 12
REMARK H PARENT 9 13
REMARK Flexibility Score: inf
ROOT
ATOM      1  C   UNL     1     -38.613  -8.772 -13.722  1.00  0.00     0.016 A 
ATOM      2  C   UNL     1     -40.010  -8.738 -13.775  1.00  0.00     0.047 A 
ATOM      3  C   UNL     1     -40.696  -7.529 -13.609  1.00  0.00     0.119 A 
ATOM      4  C   UNL     1     -39.979  -6.343 -13.388  1.00  0.00     0.094 A 
ATOM      5  C   UNL     1     -38.581  -6.367 -13.332  1.00  0.00     0.142 A 
ATOM      6  C   UNL     1     -37.894  -7.590 -13.500  1.00  0.00     0.018 A 
ATOM      7  C   UNL     1     -36.497  -7.582 -13.439  1.00  0.00     0.019 A 
ATOM      8  C   UNL     1     -35.828  -6.379 -13.216  1.00  0.00     0.094 A 
ATOM      9  C   UNL     1     -36.575  -5.207 -13.060  1.00  0.00     0.336 A 
ATOM     10  O   UNL     1     -35.989  -4.110 -12.858  1.00  0.00    -0.246 OA
ATOM     11  O   UNL     1     -37.904  -5.242 -13.122  1.00  0.00    -0.423 OA
ENDROOT
BRANCH   3  12
ATOM     12  O   UNL     1     -42.087  -7.516 -13.667  1.00  0.00    -0.508 OA
ATOM     13  H   UNL     1     -42.608  -8.287 -14.068  1.00  0.00     0.293 HD
ENDBRANCH   3  12
TORSDOF 1
ENDMDL
MODEL 2
REMARK VINA RESULT:    -5.991      6.695      8.726
REMARK INTER + INTRA:          -6.166
REMARK INTER:                  -6.166
REMARK INTRA:                   0.000
REMARK UNBOUND:                 0.000
REMARK SMILES O=c1ccc2ccc(O)cc2o1
REMARK SMILES IDX 6 1 7 2 8 3 10 4 11 5 5 6 4 7 3 8 2 9 1 10 12 11 9 12
REMARK H PARENT 9 13
REMARK Flexibility Score: inf
ROOT
ATOM      1  C   UNL     1     -31.284  -2.728 -18.125  1.00  0.00     0.016 A 
ATOM      2  C   UNL     1     -31.451  -2.097 -19.362  1.00  0.00     0.047 A 
ATOM      3  C   UNL     1     -32.605  -2.323 -20.122  1.00  0.00     0.119 A 
ATOM      4  C   UNL     1     -33.601  -3.187 -19.641  1.00  0.00     0.094 A 
ATOM      5  C   UNL     1     -33.442  -3.824 -18.405  1.00  0.00     0.142 A 
ATOM      6  C   UNL     1     -32.276  -3.592 -17.642  1.00  0.00     0.018 A 
ATOM      7  C   UNL     1     -32.147  -4.243 -16.411  1.00  0.00     0.019 A 
ATOM      8  C   UNL     1     -33.162  -5.093 -15.976  1.00  0.00     0.094 A 
ATOM      9  C   UNL     1     -34.289  -5.273 -16.784  1.00  0.00     0.336 A 
ATOM     10  O   UNL     1     -35.217  -6.037 -16.408  1.00  0.00    -0.246 OA
ATOM     11  O   UNL     1     -34.388  -4.643 -17.952  1.00  0.00    -0.423 OA
ENDROOT
BRANCH   3  12
ATOM     12  O   UNL     1     -32.753  -1.685 -21.350  1.00  0.00    -0.508 OA
ATOM     13  H   UNL     1     -31.998  -1.655 -22.026  1.00  0.00     0.293 HD
ENDBRANCH   3  12
TORSDOF 1
ENDMDL
MODEL 3
REMARK VINA RESULT:    -5.815      1.264      1.695
REMARK INTER + INTRA:          -5.985
REMARK INTER:                  -5.985
REMARK INTRA:                   0.000
REMARK UNBOUND:                 0.000
REMARK SMILES O=c1ccc2ccc(O)cc2o1
REMARK SMILES IDX 6 1 7 2 8 3 10 4 11 5 5 6 4 7 3 8 2 9 1 10 12 11 9 12
REMARK H PARENT 9 13
REMARK Flexibility Score: inf
ROOT
ATOM      1  C   UNL     1     -36.739  -8.004 -13.765  1.00  0.00     0.016 A 
ATOM      2  C   UNL     1     -37.873  -8.744 -14.116  1.00  0.00     0.047 A 
ATOM      3  C   UNL     1     -39.136  -8.141 -14.132  1.00  0.00     0.119 A 
ATOM      4  C   UNL     1     -39.268  -6.785 -13.794  1.00  0.00     0.094 A 
ATOM      5  C   UNL     1     -38.139  -6.036 -13.442  1.00  0.00     0.142 A 
ATOM      6  C   UNL     1     -36.867  -6.650 -13.427  1.00  0.00     0.018 A 
ATOM      7  C   UNL     1     -35.759  -5.875 -13.071  1.00  0.00     0.019 A 
ATOM      8  C   UNL     1     -35.939  -4.532 -12.742  1.00  0.00     0.094 A 
ATOM      9  C   UNL     1     -37.229  -3.992 -12.779  1.00  0.00     0.336 A 
ATOM     10  O   UNL     1     -37.412  -2.781 -12.487  1.00  0.00    -0.246 OA
ATOM     11  O   UNL     1     -38.267  -4.751 -13.122  1.00  0.00    -0.423 OA
ENDROOT
BRANCH   3  12
ATOM     12  O   UNL     1     -40.252  -8.895 -14.484  1.00  0.00    -0.508 OA
ATOM     13  H   UNL     1     -41.171  -8.687 -14.110  1.00  0.00     0.293 HD
ENDBRANCH   3  12
TORSDOF 1
ENDMDL
MODEL 4
REMARK VINA RESULT:    -5.658      1.316      4.128
REMARK INTER + INTRA:          -5.824
REMARK INTER:                  -5.824
REMARK INTRA:                   0.000
REMARK UNBOUND:                 0.000
REMARK SMILES O=c1ccc2ccc(O)cc2o1
REMARK SMILES IDX 6 1 7 2 8 3 10 4 11 5 5 6 4 7 3 8 2 9 1 10 12 11 9 12
REMARK H PARENT 9 13
REMARK Flexibility Score: inf
ROOT
ATOM      1  C   UNL     1     -35.968  -6.355 -13.668  1.00  0.00     0.016 A 
ATOM      2  C   UNL     1     -35.975  -4.960 -13.566  1.00  0.00     0.047 A 
ATOM      3  C   UNL     1     -37.177  -4.271 -13.369  1.00  0.00     0.119 A 
ATOM      4  C   UNL     1     -38.383  -4.981 -13.274  1.00  0.00     0.094 A 
ATOM      5  C   UNL     1     -38.386  -6.377 -13.376  1.00  0.00     0.142 A 
ATOM      6  C   UNL     1     -37.170  -7.069 -13.574  1.00  0.00     0.018 A 
ATOM      7  C   UNL     1     -37.206  -8.463 -13.672  1.00  0.00     0.019 A 
ATOM      8  C   UNL     1     -38.429  -9.125 -13.572  1.00  0.00     0.094 A 
ATOM      9  C   UNL     1     -39.593  -8.375 -13.375  1.00  0.00     0.336 A 
ATOM     10  O   UNL     1     -40.706  -8.954 -13.282  1.00  0.00    -0.246 OA
ATOM     11  O   UNL     1     -39.532  -7.048 -13.286  1.00  0.00    -0.423 OA
ENDROOT
BRANCH   3  12
ATOM     12  O   UNL     1     -37.163  -2.882 -13.270  1.00  0.00    -0.508 OA
ATOM     13  H   UNL     1     -36.858  -2.415 -12.423  1.00  0.00     0.293 HD
ENDBRANCH   3  12
TORSDOF 1
ENDMDL
MODEL 5
REMARK VINA RESULT:    -5.580      1.885      3.135
REMARK INTER + INTRA:          -5.743
REMARK INTER:                  -5.743
REMARK INTRA:                   0.000
REMARK UNBOUND:                 0.000
REMARK SMILES O=c1ccc2ccc(O)cc2o1
REMARK SMILES IDX 6 1 7 2 8 3 10 4 11 5 5 6 4 7 3 8 2 9 1 10 12 11 9 12
REMARK H PARENT 9 13
REMARK Flexibility Score: inf
ROOT
ATOM      1  C   UNL     1     -39.802  -8.045 -13.367  1.00  0.00     0.016 A 
ATOM      2  C   UNL     1     -38.834  -8.815 -14.021  1.00  0.00     0.047 A 
ATOM      3  C   UNL     1     -37.580  -8.269 -14.322  1.00  0.00     0.119 A 
ATOM      4  C   UNL     1     -37.292  -6.943 -13.966  1.00  0.00     0.094 A 
ATOM      5  C   UNL     1     -38.254  -6.165 -13.312  1.00  0.00     0.142 A 
ATOM      6  C   UNL     1     -39.518  -6.720 -13.010  1.00  0.00     0.018 A 
ATOM      7  C   UNL     1     -40.458  -5.918 -12.356  1.00  0.00     0.019 A 
ATOM      8  C   UNL     1     -40.125  -4.606 -12.024  1.00  0.00     0.094 A 
ATOM      9  C   UNL     1     -38.854  -4.124 -12.354  1.00  0.00     0.336 A 
ATOM     10  O   UNL     1     -38.535  -2.941 -12.062  1.00  0.00    -0.246 OA
ATOM     11  O   UNL     1     -37.977  -4.908 -12.977  1.00  0.00    -0.423 OA
ENDROOT
BRANCH   3  12
ATOM     12  O   UNL     1     -36.630  -9.051 -14.973  1.00  0.00    -0.508 OA
ATOM     13  H   UNL     1     -36.110  -8.700 -15.769  1.00  0.00     0.293 HD
ENDBRANCH   3  12
TORSDOF 1
ENDMDL
MODEL 6
REMARK VINA RESULT:    -5.428      1.517      4.771
REMARK INTER + INTRA:          -5.587
REMARK INTER:                  -5.587
REMARK INTRA:                   0.000
REMARK UNBOUND:                 0.000
REMARK SMILES O=c1ccc2ccc(O)cc2o1
REMARK SMILES IDX 6 1 7 2 8 3 10 4 11 5 5 6 4 7 3 8 2 9 1 10 12 11 9 12
REMARK H PARENT 9 13
REMARK Flexibility Score: inf
ROOT
ATOM      1  C   UNL     1     -38.325  -4.065 -12.699  1.00  0.00     0.016 A 
ATOM      2  C   UNL     1     -36.983  -3.749 -12.935  1.00  0.00     0.047 A 
ATOM      3  C   UNL     1     -36.101  -4.720 -13.424  1.00  0.00     0.119 A 
ATOM      4  C   UNL     1     -36.565  -6.019 -13.681  1.00  0.00     0.094 A 
ATOM      5  C   UNL     1     -37.906  -6.345 -13.449  1.00  0.00     0.142 A 
ATOM      6  C   UNL     1     -38.791  -5.362 -12.955  1.00  0.00     0.018 A 
ATOM      7  C   UNL     1     -40.125  -5.719 -12.732  1.00  0.00     0.019 A 
ATOM      8  C   UNL     1     -40.539  -7.022 -13.002  1.00  0.00     0.094 A 
ATOM      9  C   UNL     1     -39.606  -7.943 -13.490  1.00  0.00     0.336 A 
ATOM     10  O   UNL     1     -39.961  -9.125 -13.740  1.00  0.00    -0.246 OA
ATOM     11  O   UNL     1     -38.342  -7.578 -13.693  1.00  0.00    -0.423 OA
ENDROOT
BRANCH   3  12
ATOM     12  O   UNL     1     -34.769  -4.385 -13.652  1.00  0.00    -0.508 OA
ATOM     13  H   UNL     1     -34.366  -3.533 -13.278  1.00  0.00     0.293 HD
ENDBRANCH   3  12
TORSDOF 1
ENDMDL
MODEL 7
REMARK VINA RESULT:    -5.393      2.620      3.092
REMARK INTER + INTRA:          -5.550
REMARK INTER:                  -5.550
REMARK INTRA:                   0.000
REMARK UNBOUND:                 0.000
REMARK SMILES O=c1ccc2ccc(O)cc2o1
REMARK SMILES IDX 6 1 7 2 8 3 10 4 11 5 5 6 4 7 3 8 2 9 1 10 12 11 9 12
REMARK H PARENT 9 13
REMARK Flexibility Score: inf
ROOT
ATOM      1  C   UNL     1     -37.954  -6.111 -13.370  1.00  0.00     0.016 A 
ATOM      2  C   UNL     1     -38.958  -7.067 -13.557  1.00  0.00     0.047 A 
ATOM      3  C   UNL     1     -38.956  -7.884 -14.694  1.00  0.00     0.119 A 
ATOM      4  C   UNL     1     -37.941  -7.744 -15.653  1.00  0.00     0.094 A 
ATOM      5  C   UNL     1     -36.932  -6.791 -15.475  1.00  0.00     0.142 A 
ATOM      6  C   UNL     1     -36.939  -5.969 -14.326  1.00  0.00     0.018 A 
ATOM      7  C   UNL     1     -35.918  -5.025 -14.176  1.00  0.00     0.019 A 
ATOM      8  C   UNL     1     -34.932  -4.923 -15.156  1.00  0.00     0.094 A 
ATOM      9  C   UNL     1     -34.988  -5.771 -16.268  1.00  0.00     0.336 A 
ATOM     10  O   UNL     1     -34.106  -5.694 -17.163  1.00  0.00    -0.246 OA
ATOM     11  O   UNL     1     -35.971  -6.660 -16.386  1.00  0.00    -0.423 OA
ENDROOT
BRANCH   3  12
ATOM     12  O   UNL     1     -39.964  -8.829 -14.862  1.00  0.00    -0.508 OA
ATOM     13  H   UNL     1     -39.766  -9.823 -14.842  1.00  0.00     0.293 HD
ENDBRANCH   3  12
TORSDOF 1
ENDMDL
MODEL 8
REMARK VINA RESULT:    -5.381      2.047      3.766
REMARK INTER + INTRA:          -5.538
REMARK INTER:                  -5.538
REMARK INTRA:                   0.000
REMARK UNBOUND:                 0.000
REMARK SMILES O=c1ccc2ccc(O)cc2o1
REMARK SMILES IDX 6 1 7 2 8 3 10 4 11 5 5 6 4 7 3 8 2 9 1 10 12 11 9 12
REMARK H PARENT 9 13
REMARK Flexibility Score: inf
ROOT
ATOM      1  C   UNL     1     -40.446  -5.903 -12.287  1.00  0.00     0.016 A 
ATOM      2  C   UNL     1     -40.112  -4.588 -11.946  1.00  0.00     0.047 A 
ATOM      3  C   UNL     1     -38.879  -4.047 -12.331  1.00  0.00     0.119 A 
ATOM      4  C   UNL     1     -37.972  -4.827 -13.064  1.00  0.00     0.094 A 
ATOM      5  C   UNL     1     -38.297  -6.144 -13.410  1.00  0.00     0.142 A 
ATOM      6  C   UNL     1     -39.542  -6.685 -13.019  1.00  0.00     0.018 A 
ATOM      7  C   UNL     1     -39.837  -8.003 -13.379  1.00  0.00     0.019 A 
ATOM      8  C   UNL     1     -38.904  -8.740 -14.106  1.00  0.00     0.094 A 
ATOM      9  C   UNL     1     -37.691  -8.138 -14.460  1.00  0.00     0.336 A 
ATOM     10  O   UNL     1     -36.835  -8.787 -15.117  1.00  0.00    -0.246 OA
ATOM     11  O   UNL     1     -37.434  -6.882 -14.104  1.00  0.00    -0.423 OA
ENDROOT
BRANCH   3  12
ATOM     12  O   UNL     1     -38.566  -2.736 -11.982  1.00  0.00    -0.508 OA
ATOM     13  H   UNL     1     -38.238  -2.069 -12.671  1.00  0.00     0.293 HD
ENDBRANCH   3  12
TORSDOF 1
ENDMDL
MODEL 9
REMARK VINA RESULT:    -5.270      1.436      2.291
REMARK INTER + INTRA:          -5.424
REMARK INTER:                  -5.424
REMARK INTRA:                   0.000
REMARK UNBOUND:                 0.000
REMARK SMILES O=c1ccc2ccc(O)cc2o1
REMARK SMILES IDX 6 1 7 2 8 3 10 4 11 5 5 6 4 7 3 8 2 9 1 10 12 11 9 12
REMARK H PARENT 9 13
REMARK Flexibility Score: inf
ROOT
ATOM      1  C   UNL     1     -39.963  -5.751 -12.632  1.00  0.00     0.016 A 
ATOM      2  C   UNL     1     -40.489  -6.991 -13.009  1.00  0.00     0.047 A 
ATOM      3  C   UNL     1     -39.713  -7.895 -13.745  1.00  0.00     0.119 A 
ATOM      4  C   UNL     1     -38.401  -7.557 -14.107  1.00  0.00     0.094 A 
ATOM      5  C   UNL     1     -37.866  -6.318 -13.735  1.00  0.00     0.142 A 
ATOM      6  C   UNL     1     -38.652  -5.410 -12.993  1.00  0.00     0.018 A 
ATOM      7  C   UNL     1     -38.090  -4.180 -12.636  1.00  0.00     0.019 A 
ATOM      8  C   UNL     1     -36.782  -3.889 -13.019  1.00  0.00     0.094 A 
ATOM      9  C   UNL     1     -36.062  -4.838 -13.753  1.00  0.00     0.336 A 
ATOM     10  O   UNL     1     -34.879  -4.593 -14.108  1.00  0.00    -0.246 OA
ATOM     11  O   UNL     1     -36.621  -6.000 -14.081  1.00  0.00    -0.423 OA
ENDROOT
BRANCH   3  12
ATOM     12  O   UNL     1     -40.255  -9.125 -14.111  1.00  0.00    -0.508 OA
ATOM     13  H   UNL     1     -41.235  -9.337 -13.960  1.00  0.00     0.293 HD
ENDBRANCH   3  12
TORSDOF 1
ENDMDL
