MODEL 1
REMARK VINA RESULT:   126.093      0.000      0.000
REMARK INTER + INTRA:         138.192
REMARK INTER:                 137.150
REMARK INTRA:                   1.043
REMARK UNBOUND:                 1.043
REMARK SMILES CC1(C)CC[C@@]2(C(=O)[O-])CC[C@@]3(C)C(=CC[C@@H]4[C@]5(C)CC[C@H](O)C(C)(C)[C@H]5CC[C@@]43C)[C@H]2C1
REMARK SMILES IDX 6 1 5 2 10 3 32 4 4 5 11 6 14 7 33 8 2 9 12 10 15 11 1 12
REMARK SMILES IDX 3 13 13 14 30 15 16 16 17 17 29 18 31 19 18 20 28 21 27 22
REMARK SMILES IDX 20 23 19 24 24 25 21 26 22 27 25 28 26 29 7 30 8 31 9 32
REMARK SMILES IDX 23 33
REMARK H PARENT 23 34
REMARK Flexibility Score: inf
ROOT
ATOM      1  C   UNL     1       8.749  40.992  14.384  1.00  0.00     0.017 C 
ATOM      2  C   UNL     1       8.402  40.636  15.870  1.00  0.00     0.014 C 
ATOM      3  C   UNL     1      10.207  40.519  14.070  1.00  0.00     0.014 C 
ATOM      4  C   UNL     1       7.737  40.295  13.408  1.00  0.00     0.028 C 
ATOM      5  C   UNL     1       6.888  40.384  16.091  1.00  0.00     0.007 C 
ATOM      6  C   UNL     1      10.608  40.630  12.575  1.00  0.00     0.013 C 
ATOM      7  C   UNL     1       8.265  40.327  11.955  1.00  0.00    -0.064 C 
ATOM      8  C   UNL     1       7.216  38.947  13.967  1.00  0.00     0.015 C 
ATOM      9  C   UNL     1       6.367  39.160  15.267  1.00  0.00    -0.035 C 
ATOM     10  C   UNL     1       9.673  39.829  11.609  1.00  0.00    -0.006 C 
ATOM     11  C   UNL     1       7.717  41.293  11.187  1.00  0.00    -0.027 C 
ATOM     12  C   UNL     1       4.890  39.395  14.892  1.00  0.00     0.011 C 
ATOM     13  C   UNL     1       6.452  37.875  16.124  1.00  0.00     0.011 C 
ATOM     14  C   UNL     1       9.815  38.305  11.926  1.00  0.00     0.017 C 
ATOM     15  C   UNL     1      10.035  40.087  10.034  1.00  0.00    -0.020 C 
ATOM     16  C   UNL     1       8.476  42.165  10.245  1.00  0.00     0.032 C 
ATOM     17  C   UNL     1       9.828  41.620   9.651  1.00  0.00     0.006 C 
ATOM     18  C   UNL     1       9.108  39.243   9.090  1.00  0.00     0.008 C 
ATOM     19  C   UNL     1      11.506  39.611   9.789  1.00  0.00     0.012 C 
ATOM     20  C   UNL     1       9.968  41.979   8.094  1.00  0.00    -0.025 C 
ATOM     21  C   UNL     1       9.239  39.558   7.587  1.00  0.00     0.005 C 
ATOM     22  C   UNL     1       8.970  41.048   7.291  1.00  0.00     0.003 C 
ATOM     23  C   UNL     1       9.617  43.494   7.834  1.00  0.00     0.010 C 
ATOM     24  C   UNL     1      11.460  41.828   7.648  1.00  0.00     0.012 C 
ATOM     25  C   UNL     1       8.751  41.410   5.765  1.00  0.00    -0.006 C 
ATOM     26  C   UNL     1       9.426  43.843   6.346  1.00  0.00     0.033 C 
ATOM     27  C   UNL     1       8.402  42.926   5.639  1.00  0.00     0.120 C 
ATOM     28  C   UNL     1       7.561  40.598   5.186  1.00  0.00     0.014 C 
ATOM     29  C   UNL     1       9.978  41.076   4.874  1.00  0.00     0.014 C 
ENDROOT
BRANCH   1  30
ATOM     30  C   UNL     1       8.667  42.513  14.222  1.00  0.00     0.048 C 
ATOM     31  O   UNL     1       8.348  43.253  15.189  1.00  0.00    -0.550 OA
ATOM     32  O   UNL     1       9.034  43.116  13.033  1.00  0.00    -0.550 OA
ENDBRANCH   1  30
BRANCH  27  33
ATOM     33  O   UNL     1       7.073  43.163   6.060  1.00  0.00    -0.393 OA
ATOM     34  H   UNL     1       6.935  42.828   6.982  1.00  0.00     0.210 HD
ENDBRANCH  27  33
TORSDOF 2
ENDMDL
MODEL 2
REMARK VINA RESULT:   127.114      2.525      8.079
REMARK INTER + INTRA:         139.303
REMARK INTER:                 139.158
REMARK INTRA:                   0.145
REMARK UNBOUND:                 1.043
REMARK SMILES CC1(C)CC[C@@]2(C(=O)[O-])CC[C@@]3(C)C(=CC[C@@H]4[C@]5(C)CC[C@H](O)C(C)(C)[C@H]5CC[C@@]43C)[C@H]2C1
REMARK SMILES IDX 6 1 5 2 10 3 32 4 4 5 11 6 14 7 33 8 2 9 12 10 15 11 1 12
REMARK SMILES IDX 3 13 13 14 30 15 16 16 17 17 29 18 31 19 18 20 28 21 27 22
REMARK SMILES IDX 20 23 19 24 24 25 21 26 22 27 25 28 26 29 7 30 8 31 9 32
REMARK SMILES IDX 23 33
REMARK H PARENT 23 34
REMARK Flexibility Score: inf
ROOT
ATOM      1  C   UNL     1       8.367  43.223   8.129  1.00  0.00     0.017 C 
ATOM      2  C   UNL     1       9.007  43.566   6.740  1.00  0.00     0.014 C 
ATOM      3  C   UNL     1       7.296  44.307   8.483  1.00  0.00     0.014 C 
ATOM      4  C   UNL     1       7.698  41.804   8.082  1.00  0.00     0.028 C 
ATOM      5  C   UNL     1       9.496  42.310   5.975  1.00  0.00     0.007 C 
ATOM      6  C   UNL     1       6.444  43.980   9.738  1.00  0.00     0.013 C 
ATOM      7  C   UNL     1       6.759  41.600   9.294  1.00  0.00    -0.064 C 
ATOM      8  C   UNL     1       7.157  41.457   6.673  1.00  0.00     0.015 C 
ATOM      9  C   UNL     1       8.320  41.336   5.630  1.00  0.00    -0.035 C 
ATOM     10  C   UNL     1       5.672  42.623   9.641  1.00  0.00    -0.006 C 
ATOM     11  C   UNL     1       7.297  40.868  10.294  1.00  0.00    -0.027 C 
ATOM     12  C   UNL     1       8.854  39.889   5.610  1.00  0.00     0.011 C 
ATOM     13  C   UNL     1       7.759  41.665   4.227  1.00  0.00     0.011 C 
ATOM     14  C   UNL     1       4.622  42.727   8.487  1.00  0.00     0.017 C 
ATOM     15  C   UNL     1       4.904  42.240  11.034  1.00  0.00    -0.020 C 
ATOM     16  C   UNL     1       7.184  41.195  11.745  1.00  0.00     0.032 C 
ATOM     17  C   UNL     1       5.950  42.050  12.221  1.00  0.00     0.006 C 
ATOM     18  C   UNL     1       4.108  40.895  10.896  1.00  0.00     0.008 C 
ATOM     19  C   UNL     1       3.863  43.368  11.341  1.00  0.00     0.012 C 
ATOM     20  C   UNL     1       5.353  41.492  13.601  1.00  0.00    -0.025 C 
ATOM     21  C   UNL     1       3.508  40.349  12.207  1.00  0.00     0.005 C 
ATOM     22  C   UNL     1       4.590  40.139  13.286  1.00  0.00     0.003 C 
ATOM     23  C   UNL     1       6.503  41.229  14.646  1.00  0.00     0.010 C 
ATOM     24  C   UNL     1       4.446  42.580  14.263  1.00  0.00     0.012 C 
ATOM     25  C   UNL     1       4.144  39.280  14.539  1.00  0.00    -0.006 C 
ATOM     26  C   UNL     1       6.057  40.411  15.872  1.00  0.00     0.033 C 
ATOM     27  C   UNL     1       5.366  39.082  15.490  1.00  0.00     0.120 C 
ATOM     28  C   UNL     1       3.663  37.876  14.083  1.00  0.00     0.014 C 
ATOM     29  C   UNL     1       2.963  39.910  15.324  1.00  0.00     0.014 C 
ENDROOT
BRANCH   1  30
ATOM     30  C   UNL     1       9.473  43.243   9.187  1.00  0.00     0.048 C 
ATOM     31  O   UNL     1      10.570  42.655   8.993  1.00  0.00    -0.550 OA
ATOM     32  O   UNL     1       9.330  43.987  10.343  1.00  0.00    -0.550 OA
ENDBRANCH   1  30
BRANCH  27  33
ATOM     33  O   UNL     1       6.265  38.134  14.947  1.00  0.00    -0.393 OA
ATOM     34  H   UNL     1       7.112  38.572  14.680  1.00  0.00     0.210 HD
ENDBRANCH  27  33
TORSDOF 2
ENDMDL
MODEL 3
REMARK VINA RESULT:   127.230      2.152      7.906
REMARK INTER + INTRA:         139.430
REMARK INTER:                 139.260
REMARK INTRA:                   0.170
REMARK UNBOUND:                 1.043
REMARK SMILES CC1(C)CC[C@@]2(C(=O)[O-])CC[C@@]3(C)C(=CC[C@@H]4[C@]5(C)CC[C@H](O)C(C)(C)[C@H]5CC[C@@]43C)[C@H]2C1
REMARK SMILES IDX 6 1 5 2 10 3 32 4 4 5 11 6 14 7 33 8 2 9 12 10 15 11 1 12
REMARK SMILES IDX 3 13 13 14 30 15 16 16 17 17 29 18 31 19 18 20 28 21 27 22
REMARK SMILES IDX 20 23 19 24 24 25 21 26 22 27 25 28 26 29 7 30 8 31 9 32
REMARK SMILES IDX 23 33
REMARK H PARENT 23 34
REMARK Flexibility Score: inf
ROOT
ATOM      1  C   UNL     1       8.595  42.959   7.841  1.00  0.00     0.017 C 
ATOM      2  C   UNL     1       8.972  43.199   6.338  1.00  0.00     0.014 C 
ATOM      3  C   UNL     1       7.443  43.938   8.243  1.00  0.00     0.014 C 
ATOM      4  C   UNL     1       8.136  41.474   8.055  1.00  0.00     0.028 C 
ATOM      5  C   UNL     1       9.520  41.925   5.645  1.00  0.00     0.007 C 
ATOM      6  C   UNL     1       6.836  43.672   9.646  1.00  0.00     0.013 C 
ATOM      7  C   UNL     1       7.421  41.312   9.417  1.00  0.00    -0.064 C 
ATOM      8  C   UNL     1       7.452  40.884   6.797  1.00  0.00     0.015 C 
ATOM      9  C   UNL     1       8.458  40.776   5.600  1.00  0.00    -0.035 C 
ATOM     10  C   UNL     1       6.261  42.227   9.821  1.00  0.00    -0.006 C 
ATOM     11  C   UNL     1       8.197  40.788  10.390  1.00  0.00    -0.027 C 
ATOM     12  C   UNL     1       9.185  39.416   5.651  1.00  0.00     0.011 C 
ATOM     13  C   UNL     1       7.659  40.849   4.278  1.00  0.00     0.011 C 
ATOM     14  C   UNL     1       5.051  42.050   8.847  1.00  0.00     0.017 C 
ATOM     15  C   UNL     1       5.765  41.934  11.352  1.00  0.00    -0.020 C 
ATOM     16  C   UNL     1       8.249  41.282  11.797  1.00  0.00     0.032 C 
ATOM     17  C   UNL     1       6.988  42.030  12.370  1.00  0.00     0.006 C 
ATOM     18  C   UNL     1       5.158  40.494  11.490  1.00  0.00     0.008 C 
ATOM     19  C   UNL     1       4.628  42.954  11.700  1.00  0.00     0.012 C 
ATOM     20  C   UNL     1       6.682  41.584  13.880  1.00  0.00    -0.025 C 
ATOM     21  C   UNL     1       4.837  40.050  12.932  1.00  0.00     0.005 C 
ATOM     22  C   UNL     1       6.083  40.118  13.839  1.00  0.00     0.003 C 
ATOM     23  C   UNL     1       7.997  41.603  14.749  1.00  0.00     0.010 C 
ATOM     24  C   UNL     1       5.734  42.627  14.558  1.00  0.00     0.012 C 
ATOM     25  C   UNL     1       5.951  39.377  15.233  1.00  0.00    -0.006 C 
ATOM     26  C   UNL     1       7.854  40.900  16.112  1.00  0.00     0.033 C 
ATOM     27  C   UNL     1       7.312  39.457  15.991  1.00  0.00     0.120 C 
ATOM     28  C   UNL     1       5.614  37.877  15.015  1.00  0.00     0.014 C 
ATOM     29  C   UNL     1       4.817  39.951  16.125  1.00  0.00     0.014 C 
ENDROOT
BRANCH   1  30
ATOM     30  C   UNL     1       9.828  43.253   8.700  1.00  0.00     0.048 C 
ATOM     31  O   UNL     1       9.738  43.941   9.751  1.00  0.00    -0.550 OA
ATOM     32  O   UNL     1      11.053  42.692   8.391  1.00  0.00    -0.550 OA
ENDBRANCH   1  30
BRANCH  27  33
ATOM     33  O   UNL     1       8.249  38.567  15.417  1.00  0.00    -0.393 OA
ATOM     34  H   UNL     1       8.725  39.001  14.664  1.00  0.00     0.210 HD
ENDBRANCH  27  33
TORSDOF 2
ENDMDL
