MODEL 1
REMARK VINA RESULT:    -3.598      0.000      0.000
REMARK INTER + INTRA:          -4.531
REMARK INTER:                  -4.439
REMARK INTRA:                  -0.092
REMARK UNBOUND:                -0.092
REMARK SMILES CCCCCC(=O)[O-]
REMARK SMILES IDX 4 1 5 2 6 3 7 4 8 5 3 6 2 7 1 8
REMARK H PARENT
REMARK Flexibility Score: inf
ROOT
ATOM      1  C   UNL     1      40.738  27.385  17.477  1.00  0.00     0.006 C 
ENDROOT
BRANCH   1   2
ATOM      2  C   UNL     1      41.393  26.246  16.685  1.00  0.00     0.053 C 
BRANCH   2   3
ATOM      3  C   UNL     1      42.188  25.366  17.596  1.00  0.00     0.041 C 
ATOM      4  O   UNL     1      42.062  25.468  18.844  1.00  0.00    -0.550 OA
ATOM      5  O   UNL     1      43.032  24.397  17.065  1.00  0.00    -0.550 OA
ENDBRANCH   2   3
ENDBRANCH   1   2
BRANCH   1   6
ATOM      6  C   UNL     1      41.646  28.619  17.599  1.00  0.00     0.000 C 
BRANCH   6   7
ATOM      7  C   UNL     1      42.201  29.080  16.243  1.00  0.00    -0.003 C 
ATOM      8  C   UNL     1      42.388  30.594  16.213  1.00  0.00     0.004 C 
ENDBRANCH   6   7
ENDBRANCH   1   6
TORSDOF 4
ENDMDL
MODEL 2
REMARK VINA RESULT:    -3.584      1.810      2.744
REMARK INTER + INTRA:          -4.514
REMARK INTER:                  -4.591
REMARK INTRA:                   0.077
REMARK UNBOUND:                -0.092
REMARK SMILES CCCCCC(=O)[O-]
REMARK SMILES IDX 4 1 5 2 6 3 7 4 8 5 3 6 2 7 1 8
REMARK H PARENT
REMARK Flexibility Score: inf
ROOT
ATOM      1  C   UNL     1      40.664  26.262  17.501  1.00  0.00     0.006 C 
ENDROOT
BRANCH   1   2
ATOM      2  C   UNL     1      39.854  26.977  18.590  1.00  0.00     0.053 C 
BRANCH   2   3
ATOM      3  C   UNL     1      40.600  26.971  19.885  1.00  0.00     0.041 C 
ATOM      4  O   UNL     1      41.555  26.169  20.063  1.00  0.00    -0.550 OA
ATOM      5  O   UNL     1      40.275  27.885  20.880  1.00  0.00    -0.550 OA
ENDBRANCH   2   3
ENDBRANCH   1   2
BRANCH   1   6
ATOM      6  C   UNL     1      41.411  27.241  16.580  1.00  0.00     0.000 C 
BRANCH   6   7
ATOM      7  C   UNL     1      41.798  28.544  17.295  1.00  0.00    -0.003 C 
ATOM      8  C   UNL     1      42.234  29.611  16.293  1.00  0.00     0.004 C 
ENDBRANCH   6   7
ENDBRANCH   1   6
TORSDOF 4
ENDMDL
MODEL 3
REMARK VINA RESULT:    -3.573      2.434      3.907
REMARK INTER + INTRA:          -4.501
REMARK INTER:                  -4.531
REMARK INTRA:                   0.030
REMARK UNBOUND:                -0.092
REMARK SMILES CCCCCC(=O)[O-]
REMARK SMILES IDX 4 1 5 2 6 3 7 4 8 5 3 6 2 7 1 8
REMARK H PARENT
REMARK Flexibility Score: inf
ROOT
ATOM      1  C   UNL     1      41.627  26.772  17.624  1.00  0.00     0.006 C 
ENDROOT
BRANCH   1   2
ATOM      2  C   UNL     1      41.402  27.907  18.630  1.00  0.00     0.053 C 
BRANCH   2   3
ATOM      3  C   UNL     1      41.004  27.354  19.961  1.00  0.00     0.041 C 
ATOM      4  O   UNL     1      41.390  26.207  20.311  1.00  0.00    -0.550 OA
ATOM      5  O   UNL     1      40.249  28.124  20.837  1.00  0.00    -0.550 OA
ENDBRANCH   2   3
ENDBRANCH   1   2
BRANCH   1   6
ATOM      6  C   UNL     1      40.440  26.588  16.664  1.00  0.00     0.000 C 
BRANCH   6   7
ATOM      7  C   UNL     1      39.117  26.339  17.402  1.00  0.00    -0.003 C 
ATOM      8  C   UNL     1      37.973  26.115  16.417  1.00  0.00     0.004 C 
ENDBRANCH   6   7
ENDBRANCH   1   6
TORSDOF 4
ENDMDL
MODEL 4
REMARK VINA RESULT:    -3.557      2.820      4.094
REMARK INTER + INTRA:          -4.481
REMARK INTER:                  -4.372
REMARK INTRA:                  -0.109
REMARK UNBOUND:                -0.092
REMARK SMILES CCCCCC(=O)[O-]
REMARK SMILES IDX 4 1 5 2 6 3 7 4 8 5 3 6 2 7 1 8
REMARK H PARENT
REMARK Flexibility Score: inf
ROOT
ATOM      1  C   UNL     1      40.632  26.178  17.641  1.00  0.00     0.006 C 
ENDROOT
BRANCH   1   2
ATOM      2  C   UNL     1      41.259  27.051  16.547  1.00  0.00     0.053 C 
BRANCH   2   3
ATOM      3  C   UNL     1      41.691  28.367  17.112  1.00  0.00     0.041 C 
ATOM      4  O   UNL     1      41.667  28.560  18.356  1.00  0.00    -0.550 OA
ATOM      5  O   UNL     1      42.168  29.363  16.269  1.00  0.00    -0.550 OA
ENDBRANCH   2   3
ENDBRANCH   1   2
BRANCH   1   6
ATOM      6  C   UNL     1      39.104  26.328  17.716  1.00  0.00     0.000 C 
BRANCH   6   7
ATOM      7  C   UNL     1      38.438  26.275  16.334  1.00  0.00    -0.003 C 
ATOM      8  C   UNL     1      37.023  25.710  16.428  1.00  0.00     0.004 C 
ENDBRANCH   6   7
ENDBRANCH   1   6
TORSDOF 4
ENDMDL
MODEL 5
REMARK VINA RESULT:    -3.529      2.116      2.399
REMARK INTER + INTRA:          -4.447
REMARK INTER:                  -4.338
REMARK INTRA:                  -0.109
REMARK UNBOUND:                -0.092
REMARK SMILES CCCCCC(=O)[O-]
REMARK SMILES IDX 4 1 5 2 6 3 7 4 8 5 3 6 2 7 1 8
REMARK H PARENT
REMARK Flexibility Score: inf
ROOT
ATOM      1  C   UNL     1      41.704  27.141  17.639  1.00  0.00     0.006 C 
ENDROOT
BRANCH   1   2
ATOM      2  C   UNL     1      40.767  26.585  16.559  1.00  0.00     0.053 C 
BRANCH   2   3
ATOM      3  C   UNL     1      39.391  26.390  17.111  1.00  0.00     0.041 C 
ATOM      4  O   UNL     1      39.176  26.537  18.343  1.00  0.00    -0.550 OA
ATOM      5  O   UNL     1      38.335  26.093  16.258  1.00  0.00    -0.550 OA
ENDBRANCH   2   3
ENDBRANCH   1   2
BRANCH   1   6
ATOM      6  C   UNL     1      41.822  28.673  17.589  1.00  0.00     0.000 C 
BRANCH   6   7
ATOM      7  C   UNL     1      42.154  29.194  16.183  1.00  0.00    -0.003 C 
ATOM      8  C   UNL     1      42.530  30.673  16.221  1.00  0.00     0.004 C 
ENDBRANCH   6   7
ENDBRANCH   1   6
TORSDOF 4
ENDMDL
MODEL 6
REMARK VINA RESULT:    -3.466      2.059      3.587
REMARK INTER + INTRA:          -4.369
REMARK INTER:                  -4.279
REMARK INTRA:                  -0.090
REMARK UNBOUND:                -0.092
REMARK SMILES CCCCCC(=O)[O-]
REMARK SMILES IDX 4 1 5 2 6 3 7 4 8 5 3 6 2 7 1 8
REMARK H PARENT
REMARK Flexibility Score: inf
ROOT
ATOM      1  C   UNL     1      40.306  27.032  17.386  1.00  0.00     0.006 C 
ENDROOT
BRANCH   1   2
ATOM      2  C   UNL     1      41.402  26.257  16.644  1.00  0.00     0.053 C 
BRANCH   2   3
ATOM      3  C   UNL     1      42.184  25.414  17.599  1.00  0.00     0.041 C 
ATOM      4  O   UNL     1      42.963  24.523  17.167  1.00  0.00    -0.550 OA
ATOM      5  O   UNL     1      42.092  25.643  18.966  1.00  0.00    -0.550 OA
ENDBRANCH   2   3
ENDBRANCH   1   2
BRANCH   1   6
ATOM      6  C   UNL     1      38.981  26.255  17.465  1.00  0.00     0.000 C 
BRANCH   6   7
ATOM      7  C   UNL     1      38.170  26.340  16.163  1.00  0.00    -0.003 C 
ATOM      8  C   UNL     1      36.823  25.637  16.310  1.00  0.00     0.004 C 
ENDBRANCH   6   7
ENDBRANCH   1   6
TORSDOF 4
ENDMDL
MODEL 7
REMARK VINA RESULT:    -3.436      2.754      3.905
REMARK INTER + INTRA:          -4.332
REMARK INTER:                  -4.288
REMARK INTRA:                  -0.044
REMARK UNBOUND:                -0.092
REMARK SMILES CCCCCC(=O)[O-]
REMARK SMILES IDX 4 1 5 2 6 3 7 4 8 5 3 6 2 7 1 8
REMARK H PARENT
REMARK Flexibility Score: inf
ROOT
ATOM      1  C   UNL     1      40.640  27.020  17.590  1.00  0.00     0.006 C 
ENDROOT
BRANCH   1   2
ATOM      2  C   UNL     1      41.380  27.814  18.674  1.00  0.00     0.053 C 
BRANCH   2   3
ATOM      3  C   UNL     1      40.950  27.366  20.035  1.00  0.00     0.041 C 
ATOM      4  O   UNL     1      39.801  26.881  20.208  1.00  0.00    -0.550 OA
ATOM      5  O   UNL     1      41.837  27.437  21.102  1.00  0.00    -0.550 OA
ENDBRANCH   2   3
ENDBRANCH   1   2
BRANCH   1   6
ATOM      6  C   UNL     1      41.561  26.048  16.835  1.00  0.00     0.000 C 
BRANCH   6   7
ATOM      7  C   UNL     1      42.395  25.171  17.780  1.00  0.00    -0.003 C 
ATOM      8  C   UNL     1      43.186  24.123  17.001  1.00  0.00     0.004 C 
ENDBRANCH   6   7
ENDBRANCH   1   6
TORSDOF 4
ENDMDL
MODEL 8
REMARK VINA RESULT:    -3.279     12.989     13.696
REMARK INTER + INTRA:          -4.138
REMARK INTER:                  -4.077
REMARK INTRA:                  -0.061
REMARK UNBOUND:                -0.092
REMARK SMILES CCCCCC(=O)[O-]
REMARK SMILES IDX 4 1 5 2 6 3 7 4 8 5 3 6 2 7 1 8
REMARK H PARENT
REMARK Flexibility Score: inf
ROOT
ATOM      1  C   UNL     1      33.817  27.425  28.697  1.00  0.00     0.006 C 
ENDROOT
BRANCH   1   2
ATOM      2  C   UNL     1      32.406  27.399  28.095  1.00  0.00     0.053 C 
BRANCH   2   3
ATOM      3  C   UNL     1      32.417  26.714  26.766  1.00  0.00     0.041 C 
ATOM      4  O   UNL     1      32.096  25.500  26.676  1.00  0.00    -0.550 OA
ATOM      5  O   UNL     1      32.735  27.429  25.618  1.00  0.00    -0.550 OA
ENDBRANCH   2   3
ENDBRANCH   1   2
BRANCH   1   6
ATOM      6  C   UNL     1      34.297  28.850  29.017  1.00  0.00     0.000 C 
BRANCH   6   7
ATOM      7  C   UNL     1      35.802  28.911  29.320  1.00  0.00    -0.003 C 
ATOM      8  C   UNL     1      36.469  30.052  28.557  1.00  0.00     0.004 C 
ENDBRANCH   6   7
ENDBRANCH   1   6
TORSDOF 4
ENDMDL
MODEL 9
REMARK VINA RESULT:    -3.267     12.720     13.455
REMARK INTER + INTRA:          -4.123
REMARK INTER:                  -3.983
REMARK INTRA:                  -0.140
REMARK UNBOUND:                -0.092
REMARK SMILES CCCCCC(=O)[O-]
REMARK SMILES IDX 4 1 5 2 6 3 7 4 8 5 3 6 2 7 1 8
REMARK H PARENT
REMARK Flexibility Score: inf
ROOT
ATOM      1  C   UNL     1      38.965  33.005  28.265  1.00  0.00     0.006 C 
ENDROOT
BRANCH   1   2
ATOM      2  C   UNL     1      39.560  32.972  29.678  1.00  0.00     0.053 C 
BRANCH   2   3
ATOM      3  C   UNL     1      40.961  32.450  29.644  1.00  0.00     0.041 C 
ATOM      4  O   UNL     1      41.184  31.222  29.810  1.00  0.00    -0.550 OA
ATOM      5  O   UNL     1      42.018  33.312  29.377  1.00  0.00    -0.550 OA
ENDBRANCH   2   3
ENDBRANCH   1   2
BRANCH   1   6
ATOM      6  C   UNL     1      37.617  32.273  28.172  1.00  0.00     0.000 C 
BRANCH   6   7
ATOM      7  C   UNL     1      37.767  30.747  28.251  1.00  0.00    -0.003 C 
ATOM      8  C   UNL     1      36.433  30.080  28.576  1.00  0.00     0.004 C 
ENDBRANCH   6   7
ENDBRANCH   1   6
TORSDOF 4
ENDMDL
