MODEL 1
REMARK VINA RESULT:    -1.976      0.000      0.000
REMARK INTER + INTRA:          -1.976
REMARK INTER:                  -1.976
REMARK INTRA:                   0.000
REMARK UNBOUND:                 0.000
REMARK SMILES CC(=O)[O-]
REMARK SMILES IDX 1 1 2 2 3 3 4 4
REMARK H PARENT
REMARK Flexibility Score: inf
ROOT
ATOM      1  C   UNL     1      18.265 -13.644 186.907  1.00  0.00     0.063 C 
ATOM      2  C   UNL     1      18.358 -15.130 186.818  1.00  0.00     0.038 C 
ATOM      3  O   UNL     1      19.457 -15.707 187.026  1.00  0.00    -0.550 OA
ATOM      4  O   UNL     1      17.245 -15.876 186.451  1.00  0.00    -0.550 OA
ENDROOT
TORSDOF 0
ENDMDL
MODEL 2
REMARK VINA RESULT:    -1.938      2.433      2.676
REMARK INTER + INTRA:          -1.938
REMARK INTER:                  -1.938
REMARK INTRA:                   0.000
REMARK UNBOUND:                 0.000
REMARK SMILES CC(=O)[O-]
REMARK SMILES IDX 1 1 2 2 3 3 4 4
REMARK H PARENT
REMARK Flexibility Score: inf
ROOT
ATOM      1  C   UNL     1      19.411 -11.713 187.467  1.00  0.00     0.063 C 
ATOM      2  C   UNL     1      18.506 -12.695 186.804  1.00  0.00     0.038 C 
ATOM      3  O   UNL     1      18.633 -13.926 187.035  1.00  0.00    -0.550 OA
ATOM      4  O   UNL     1      17.557 -12.259 185.888  1.00  0.00    -0.550 OA
ENDROOT
TORSDOF 0
ENDMDL
MODEL 3
REMARK VINA RESULT:    -1.895      2.587      3.054
REMARK INTER + INTRA:          -1.895
REMARK INTER:                  -1.895
REMARK INTRA:                   0.000
REMARK UNBOUND:                 0.000
REMARK SMILES CC(=O)[O-]
REMARK SMILES IDX 1 1 2 2 3 3 4 4
REMARK H PARENT
REMARK Flexibility Score: inf
ROOT
ATOM      1  C   UNL     1      19.416 -11.582 187.569  1.00  0.00     0.063 C 
ATOM      2  C   UNL     1      18.495 -12.485 186.821  1.00  0.00     0.038 C 
ATOM      3  O   UNL     1      17.576 -12.002 186.110  1.00  0.00    -0.550 OA
ATOM      4  O   UNL     1      18.616 -13.863 186.950  1.00  0.00    -0.550 OA
ENDROOT
TORSDOF 0
ENDMDL
MODEL 4
REMARK VINA RESULT:    -1.876      2.691      3.287
REMARK INTER + INTRA:          -1.876
REMARK INTER:                  -1.876
REMARK INTRA:                   0.000
REMARK UNBOUND:                 0.000
REMARK SMILES CC(=O)[O-]
REMARK SMILES IDX 1 1 2 2 3 3 4 4
REMARK H PARENT
REMARK Flexibility Score: inf
ROOT
ATOM      1  C   UNL     1      18.405 -14.254 186.884  1.00  0.00     0.063 C 
ATOM      2  C   UNL     1      18.488 -12.768 186.795  1.00  0.00     0.038 C 
ATOM      3  O   UNL     1      17.708 -12.136 186.035  1.00  0.00    -0.550 OA
ATOM      4  O   UNL     1      19.461 -12.081 187.510  1.00  0.00    -0.550 OA
ENDROOT
TORSDOF 0
ENDMDL
MODEL 5
REMARK VINA RESULT:    -1.839      5.449      5.759
REMARK INTER + INTRA:          -1.839
REMARK INTER:                  -1.839
REMARK INTRA:                   0.000
REMARK UNBOUND:                 0.000
REMARK SMILES CC(=O)[O-]
REMARK SMILES IDX 1 1 2 2 3 3 4 4
REMARK H PARENT
REMARK Flexibility Score: inf
ROOT
ATOM      1  C   UNL     1      19.590 -11.404 187.424  1.00  0.00     0.063 C 
ATOM      2  C   UNL     1      19.843  -9.940 187.556  1.00  0.00     0.038 C 
ATOM      3  O   UNL     1      19.753  -9.383 188.681  1.00  0.00    -0.550 OA
ATOM      4  O   UNL     1      20.125  -9.180 186.429  1.00  0.00    -0.550 OA
ENDROOT
TORSDOF 0
ENDMDL
MODEL 6
REMARK VINA RESULT:    -1.752     16.441     16.668
REMARK INTER + INTRA:          -1.752
REMARK INTER:                  -1.752
REMARK INTRA:                   0.000
REMARK UNBOUND:                 0.000
REMARK SMILES CC(=O)[O-]
REMARK SMILES IDX 1 1 2 2 3 3 4 4
REMARK H PARENT
REMARK Flexibility Score: inf
ROOT
ATOM      1  C   UNL     1      17.196 -12.448 202.557  1.00  0.00     0.063 C 
ATOM      2  C   UNL     1      18.504 -12.649 203.245  1.00  0.00     0.038 C 
ATOM      3  O   UNL     1      19.396 -11.764 203.175  1.00  0.00    -0.550 OA
ATOM      4  O   UNL     1      18.760 -13.837 203.918  1.00  0.00    -0.550 OA
ENDROOT
TORSDOF 0
ENDMDL
MODEL 7
REMARK VINA RESULT:    -1.740      1.602      1.827
REMARK INTER + INTRA:          -1.740
REMARK INTER:                  -1.740
REMARK INTRA:                   0.000
REMARK UNBOUND:                 0.000
REMARK SMILES CC(=O)[O-]
REMARK SMILES IDX 1 1 2 2 3 3 4 4
REMARK H PARENT
REMARK Flexibility Score: inf
ROOT
ATOM      1  C   UNL     1      16.906 -15.129 187.329  1.00  0.00     0.063 C 
ATOM      2  C   UNL     1      18.242 -14.584 186.954  1.00  0.00     0.038 C 
ATOM      3  O   UNL     1      19.226 -15.358 186.824  1.00  0.00    -0.550 OA
ATOM      4  O   UNL     1      18.416 -13.214 186.801  1.00  0.00    -0.550 OA
ENDROOT
TORSDOF 0
ENDMDL
MODEL 8
REMARK VINA RESULT:    -1.739     16.697     16.960
REMARK INTER + INTRA:          -1.739
REMARK INTER:                  -1.739
REMARK INTRA:                   0.000
REMARK UNBOUND:                 0.000
REMARK SMILES CC(=O)[O-]
REMARK SMILES IDX 1 1 2 2 3 3 4 4
REMARK H PARENT
REMARK Flexibility Score: inf
ROOT
ATOM      1  C   UNL     1      18.603 -13.771 204.102  1.00  0.00     0.063 C 
ATOM      2  C   UNL     1      18.616 -12.468 203.376  1.00  0.00     0.038 C 
ATOM      3  O   UNL     1      17.633 -12.131 202.666  1.00  0.00    -0.550 OA
ATOM      4  O   UNL     1      19.735 -11.648 203.439  1.00  0.00    -0.550 OA
ENDROOT
TORSDOF 0
ENDMDL
MODEL 9
REMARK VINA RESULT:    -1.722     16.439     16.610
REMARK INTER + INTRA:          -1.722
REMARK INTER:                  -1.722
REMARK INTRA:                   0.000
REMARK UNBOUND:                 0.000
REMARK SMILES CC(=O)[O-]
REMARK SMILES IDX 1 1 2 2 3 3 4 4
REMARK H PARENT
REMARK Flexibility Score: inf
ROOT
ATOM      1  C   UNL     1      19.423 -11.590 203.372  1.00  0.00     0.063 C 
ATOM      2  C   UNL     1      18.427 -12.690 203.226  1.00  0.00     0.038 C 
ATOM      3  O   UNL     1      18.598 -13.781 203.831  1.00  0.00    -0.550 OA
ATOM      4  O   UNL     1      17.338 -12.535 202.378  1.00  0.00    -0.550 OA
ENDROOT
TORSDOF 0
ENDMDL
