MODEL 1
REMARK VINA RESULT:    -5.320      0.000      0.000
REMARK INTER + INTRA:          -5.723
REMARK INTER:                  -5.631
REMARK INTRA:                  -0.092
REMARK UNBOUND:                -0.092
REMARK SMILES C=C(C)[C@H]1CC=C(C)C(=O)C1
REMARK SMILES IDX 8 1 7 2 6 3 5 4 4 5 11 6 9 7 10 8 2 9 1 10 3 11
REMARK H PARENT
REMARK Flexibility Score: inf
ROOT
ATOM      1  C   UNL     1     -45.120  25.063  22.773  1.00  0.00     0.048 C 
ATOM      2  C   UNL     1     -44.867  26.395  23.423  1.00  0.00    -0.012 C 
ATOM      3  C   UNL     1     -44.633  26.462  24.745  1.00  0.00    -0.019 C 
ATOM      4  C   UNL     1     -44.392  27.771  25.450  1.00  0.00     0.036 C 
ATOM      5  C   UNL     1     -43.673  28.773  24.526  1.00  0.00     0.025 C 
ATOM      6  C   UNL     1     -44.462  28.952  23.216  1.00  0.00     0.089 C 
ATOM      7  C   UNL     1     -44.754  27.616  22.587  1.00  0.00     0.158 C 
ATOM      8  O   UNL     1     -44.937  27.552  21.341  1.00  0.00    -0.295 OA
ENDROOT
BRANCH   5   9
ATOM      9  C   UNL     1     -43.432  30.105  25.222  1.00  0.00    -0.077 C 
ATOM     10  C   UNL     1     -42.617  30.200  26.287  1.00  0.00     0.008 C 
ATOM     11  C   UNL     1     -44.110  31.354  24.722  1.00  0.00     0.039 C 
ENDBRANCH   5   9
TORSDOF 1
ENDMDL
MODEL 2
REMARK VINA RESULT:    -4.364     14.083     15.488
REMARK INTER + INTRA:          -4.711
REMARK INTER:                  -4.616
REMARK INTRA:                  -0.095
REMARK UNBOUND:                -0.092
REMARK SMILES C=C(C)[C@H]1CC=C(C)C(=O)C1
REMARK SMILES IDX 8 1 7 2 6 3 5 4 4 5 11 6 9 7 10 8 2 9 1 10 3 11
REMARK H PARENT
REMARK Flexibility Score: inf
ROOT
ATOM      1  C   UNL     1     -34.239  25.107  32.347  1.00  0.00     0.048 C 
ATOM      2  C   UNL     1     -33.248  24.391  31.471  1.00  0.00    -0.012 C 
ATOM      3  C   UNL     1     -32.510  25.087  30.589  1.00  0.00    -0.019 C 
ATOM      4  C   UNL     1     -31.516  24.418  29.676  1.00  0.00     0.036 C 
ATOM      5  C   UNL     1     -30.886  23.184  30.351  1.00  0.00     0.025 C 
ATOM      6  C   UNL     1     -31.985  22.216  30.826  1.00  0.00     0.089 C 
ATOM      7  C   UNL     1     -33.001  22.941  31.667  1.00  0.00     0.158 C 
ATOM      8  O   UNL     1     -33.667  22.293  32.518  1.00  0.00    -0.295 OA
ENDROOT
BRANCH   5   9
ATOM      9  C   UNL     1     -29.887  22.492  29.434  1.00  0.00    -0.077 C 
ATOM     10  C   UNL     1     -29.992  22.572  28.096  1.00  0.00     0.008 C 
ATOM     11  C   UNL     1     -28.748  21.698  30.019  1.00  0.00     0.039 C 
ENDBRANCH   5   9
TORSDOF 1
ENDMDL
MODEL 3
REMARK VINA RESULT:    -4.313     14.000     15.268
REMARK INTER + INTRA:          -4.658
REMARK INTER:                  -4.560
REMARK INTRA:                  -0.098
REMARK UNBOUND:                -0.092
REMARK SMILES C=C(C)[C@H]1CC=C(C)C(=O)C1
REMARK SMILES IDX 8 1 7 2 6 3 5 4 4 5 11 6 9 7 10 8 2 9 1 10 3 11
REMARK H PARENT
REMARK Flexibility Score: inf
ROOT
ATOM      1  C   UNL     1     -29.221  21.849  29.762  1.00  0.00     0.048 C 
ATOM      2  C   UNL     1     -30.299  22.807  30.190  1.00  0.00    -0.012 C 
ATOM      3  C   UNL     1     -31.185  23.264  29.289  1.00  0.00    -0.019 C 
ATOM      4  C   UNL     1     -32.272  24.238  29.660  1.00  0.00     0.036 C 
ATOM      5  C   UNL     1     -32.748  24.011  31.108  1.00  0.00     0.025 C 
ATOM      6  C   UNL     1     -31.554  24.073  32.078  1.00  0.00     0.089 C 
ATOM      7  C   UNL     1     -30.457  23.147  31.626  1.00  0.00     0.158 C 
ATOM      8  O   UNL     1     -29.650  22.691  32.480  1.00  0.00    -0.295 OA
ENDROOT
BRANCH   5   9
ATOM      9  C   UNL     1     -33.842  24.996  31.500  1.00  0.00    -0.077 C 
ATOM     10  C   UNL     1     -34.175  25.196  32.787  1.00  0.00     0.008 C 
ATOM     11  C   UNL     1     -34.576  25.772  30.438  1.00  0.00     0.039 C 
ENDBRANCH   5   9
TORSDOF 1
ENDMDL
MODEL 4
REMARK VINA RESULT:    -4.274     13.712     15.025
REMARK INTER + INTRA:          -4.616
REMARK INTER:                  -4.522
REMARK INTRA:                  -0.094
REMARK UNBOUND:                -0.092
REMARK SMILES C=C(C)[C@H]1CC=C(C)C(=O)C1
REMARK SMILES IDX 8 1 7 2 6 3 5 4 4 5 11 6 9 7 10 8 2 9 1 10 3 11
REMARK H PARENT
REMARK Flexibility Score: inf
ROOT
ATOM      1  C   UNL     1     -35.001  24.181  32.540  1.00  0.00     0.048 C 
ATOM      2  C   UNL     1     -33.707  23.846  31.850  1.00  0.00    -0.012 C 
ATOM      3  C   UNL     1     -33.153  22.633  32.019  1.00  0.00    -0.019 C 
ATOM      4  C   UNL     1     -31.850  22.252  31.366  1.00  0.00     0.036 C 
ATOM      5  C   UNL     1     -31.688  22.950  30.002  1.00  0.00     0.025 C 
ATOM      6  C   UNL     1     -31.836  24.474  30.162  1.00  0.00     0.089 C 
ATOM      7  C   UNL     1     -33.110  24.809  30.890  1.00  0.00     0.158 C 
ATOM      8  O   UNL     1     -33.646  25.934  30.703  1.00  0.00    -0.295 OA
ENDROOT
BRANCH   5   9
ATOM      9  C   UNL     1     -30.370  22.581  29.335  1.00  0.00    -0.077 C 
ATOM     10  C   UNL     1     -30.182  22.749  28.015  1.00  0.00     0.008 C 
ATOM     11  C   UNL     1     -29.240  22.014  30.156  1.00  0.00     0.039 C 
ENDBRANCH   5   9
TORSDOF 1
ENDMDL
MODEL 5
REMARK VINA RESULT:    -4.116     14.000     15.491
REMARK INTER + INTRA:          -4.449
REMARK INTER:                  -4.353
REMARK INTRA:                  -0.096
REMARK UNBOUND:                -0.092
REMARK SMILES C=C(C)[C@H]1CC=C(C)C(=O)C1
REMARK SMILES IDX 8 1 7 2 6 3 5 4 4 5 11 6 9 7 10 8 2 9 1 10 3 11
REMARK H PARENT
REMARK Flexibility Score: inf
ROOT
ATOM      1  C   UNL     1     -34.684  25.774  30.327  1.00  0.00     0.048 C 
ATOM      2  C   UNL     1     -33.551  24.911  30.810  1.00  0.00    -0.012 C 
ATOM      3  C   UNL     1     -32.488  24.696  30.016  1.00  0.00    -0.019 C 
ATOM      4  C   UNL     1     -31.335  23.826  30.442  1.00  0.00     0.036 C 
ATOM      5  C   UNL     1     -31.110  23.911  31.965  1.00  0.00     0.025 C 
ATOM      6  C   UNL     1     -32.409  23.568  32.716  1.00  0.00     0.089 C 
ATOM      7  C   UNL     1     -33.553  24.401  32.204  1.00  0.00     0.158 C 
ATOM      8  O   UNL     1     -34.532  24.631  32.963  1.00  0.00    -0.295 OA
ENDROOT
BRANCH   5   9
ATOM      9  C   UNL     1     -29.953  23.028  32.411  1.00  0.00    -0.077 C 
ATOM     10  C   UNL     1     -29.358  22.172  31.563  1.00  0.00     0.008 C 
ATOM     11  C   UNL     1     -29.449  23.102  33.830  1.00  0.00     0.039 C 
ENDBRANCH   5   9
TORSDOF 1
ENDMDL
MODEL 6
REMARK VINA RESULT:    -4.114     15.920     17.119
REMARK INTER + INTRA:          -4.447
REMARK INTER:                  -4.351
REMARK INTRA:                  -0.095
REMARK UNBOUND:                -0.092
REMARK SMILES C=C(C)[C@H]1CC=C(C)C(=O)C1
REMARK SMILES IDX 8 1 7 2 6 3 5 4 4 5 11 6 9 7 10 8 2 9 1 10 3 11
REMARK H PARENT
REMARK Flexibility Score: inf
ROOT
ATOM      1  C   UNL     1     -33.372  13.376  29.211  1.00  0.00     0.048 C 
ATOM      2  C   UNL     1     -33.565  14.279  28.024  1.00  0.00    -0.012 C 
ATOM      3  C   UNL     1     -34.357  15.360  28.127  1.00  0.00    -0.019 C 
ATOM      4  C   UNL     1     -34.599  16.287  26.965  1.00  0.00     0.036 C 
ATOM      5  C   UNL     1     -33.359  16.369  26.053  1.00  0.00     0.025 C 
ATOM      6  C   UNL     1     -32.938  14.960  25.598  1.00  0.00     0.089 C 
ATOM      7  C   UNL     1     -32.787  14.044  26.782  1.00  0.00     0.158 C 
ATOM      8  O   UNL     1     -32.016  13.050  26.695  1.00  0.00    -0.295 OA
ENDROOT
BRANCH   5   9
ATOM      9  C   UNL     1     -33.593  17.295  24.868  1.00  0.00    -0.077 C 
ATOM     10  C   UNL     1     -33.864  16.810  23.644  1.00  0.00     0.008 C 
ATOM     11  C   UNL     1     -33.526  18.790  25.051  1.00  0.00     0.039 C 
ENDBRANCH   5   9
TORSDOF 1
ENDMDL
MODEL 7
REMARK VINA RESULT:    -4.097     14.922     16.230
REMARK INTER + INTRA:          -4.428
REMARK INTER:                  -4.331
REMARK INTRA:                  -0.097
REMARK UNBOUND:                -0.092
REMARK SMILES C=C(C)[C@H]1CC=C(C)C(=O)C1
REMARK SMILES IDX 8 1 7 2 6 3 5 4 4 5 11 6 9 7 10 8 2 9 1 10 3 11
REMARK H PARENT
REMARK Flexibility Score: inf
ROOT
ATOM      1  C   UNL     1     -30.947  19.901  23.199  1.00  0.00     0.048 C 
ATOM      2  C   UNL     1     -31.730  18.769  23.807  1.00  0.00    -0.012 C 
ATOM      3  C   UNL     1     -31.183  17.544  23.888  1.00  0.00    -0.019 C 
ATOM      4  C   UNL     1     -31.929  16.372  24.470  1.00  0.00     0.036 C 
ATOM      5  C   UNL     1     -32.884  16.825  25.591  1.00  0.00     0.025 C 
ATOM      6  C   UNL     1     -33.833  17.922  25.073  1.00  0.00     0.089 C 
ATOM      7  C   UNL     1     -33.053  19.034  24.426  1.00  0.00     0.158 C 
ATOM      8  O   UNL     1     -33.554  20.190  24.384  1.00  0.00    -0.295 OA
ENDROOT
BRANCH   5   9
ATOM      9  C   UNL     1     -33.653  15.651  26.182  1.00  0.00    -0.077 C 
ATOM     10  C   UNL     1     -34.634  15.839  27.081  1.00  0.00     0.008 C 
ATOM     11  C   UNL     1     -33.321  14.242  25.763  1.00  0.00     0.039 C 
ENDBRANCH   5   9
TORSDOF 1
ENDMDL
MODEL 8
REMARK VINA RESULT:    -4.073     15.202     16.228
REMARK INTER + INTRA:          -4.403
REMARK INTER:                  -4.307
REMARK INTRA:                  -0.097
REMARK UNBOUND:                -0.092
REMARK SMILES C=C(C)[C@H]1CC=C(C)C(=O)C1
REMARK SMILES IDX 8 1 7 2 6 3 5 4 4 5 11 6 9 7 10 8 2 9 1 10 3 11
REMARK H PARENT
REMARK Flexibility Score: inf
ROOT
ATOM      1  C   UNL     1     -34.632  16.361  26.706  1.00  0.00     0.048 C 
ATOM      2  C   UNL     1     -33.806  16.946  25.593  1.00  0.00    -0.012 C 
ATOM      3  C   UNL     1     -33.679  18.279  25.483  1.00  0.00    -0.019 C 
ATOM      4  C   UNL     1     -32.879  18.918  24.378  1.00  0.00     0.036 C 
ATOM      5  C   UNL     1     -31.685  18.030  23.975  1.00  0.00     0.025 C 
ATOM      6  C   UNL     1     -32.172  16.618  23.602  1.00  0.00     0.089 C 
ATOM      7  C   UNL     1     -33.035  16.049  24.695  1.00  0.00     0.158 C 
ATOM      8  O   UNL     1     -33.124  14.798  24.818  1.00  0.00    -0.295 OA
ENDROOT
BRANCH   5   9
ATOM      9  C   UNL     1     -30.873  18.659  22.851  1.00  0.00    -0.077 C 
ATOM     10  C   UNL     1     -30.475  17.939  21.788  1.00  0.00     0.008 C 
ATOM     11  C   UNL     1     -30.498  20.117  22.914  1.00  0.00     0.039 C 
ENDBRANCH   5   9
TORSDOF 1
ENDMDL
MODEL 9
REMARK VINA RESULT:    -4.058     15.250     15.889
REMARK INTER + INTRA:          -4.387
REMARK INTER:                  -4.298
REMARK INTRA:                  -0.089
REMARK UNBOUND:                -0.092
REMARK SMILES C=C(C)[C@H]1CC=C(C)C(=O)C1
REMARK SMILES IDX 8 1 7 2 6 3 5 4 4 5 11 6 9 7 10 8 2 9 1 10 3 11
REMARK H PARENT
REMARK Flexibility Score: inf
ROOT
ATOM      1  C   UNL     1     -33.457  16.377  23.719  1.00  0.00     0.048 C 
ATOM      2  C   UNL     1     -32.458  17.481  23.927  1.00  0.00    -0.012 C 
ATOM      3  C   UNL     1     -31.299  17.473  23.246  1.00  0.00    -0.019 C 
ATOM      4  C   UNL     1     -30.256  18.544  23.429  1.00  0.00     0.036 C 
ATOM      5  C   UNL     1     -30.908  19.903  23.754  1.00  0.00     0.025 C 
ATOM      6  C   UNL     1     -31.832  19.772  24.979  1.00  0.00     0.089 C 
ATOM      7  C   UNL     1     -32.804  18.639  24.790  1.00  0.00     0.158 C 
ATOM      8  O   UNL     1     -33.905  18.667  25.403  1.00  0.00    -0.295 OA
ENDROOT
BRANCH   5   9
ATOM      9  C   UNL     1     -29.864  20.993  23.952  1.00  0.00    -0.077 C 
ATOM     10  C   UNL     1     -29.360  21.677  22.910  1.00  0.00     0.008 C 
ATOM     11  C   UNL     1     -29.374  21.328  25.337  1.00  0.00     0.039 C 
ENDBRANCH   5   9
TORSDOF 1
ENDMDL
