MODEL 1
REMARK VINA RESULT:    -4.271      0.000      0.000
REMARK INTER + INTRA:          -4.271
REMARK INTER:                  -4.271
REMARK INTRA:                   0.000
REMARK UNBOUND:                 0.000
REMARK SMILES C=C1[C@@H]2CC[C@@H](C2)C1(C)C
REMARK SMILES IDX 9 1 8 2 6 3 5 4 4 5 3 6 7 7 2 8 1 9 10 10
REMARK H PARENT
REMARK Flexibility Score: inf
ROOT
ATOM      1  C   UNL     1      54.948  28.750  23.945  1.00  0.00     0.016 C 
ATOM      2  C   UNL     1      56.048  29.304  24.879  1.00  0.00    -0.012 C 
ATOM      3  C   UNL     1      55.494  29.956  26.196  1.00  0.00    -0.001 C 
ATOM      4  C   UNL     1      54.464  29.031  26.887  1.00  0.00     0.005 C 
ATOM      5  C   UNL     1      55.330  27.846  27.364  1.00  0.00     0.008 C 
ATOM      6  C   UNL     1      56.755  28.288  26.988  1.00  0.00     0.015 C 
ATOM      7  C   UNL     1      56.662  29.787  27.163  1.00  0.00     0.012 C 
ATOM      8  C   UNL     1      56.876  28.197  25.489  1.00  0.00    -0.068 C 
ATOM      9  C   UNL     1      57.557  27.256  24.827  1.00  0.00     0.008 C 
ATOM     10  C   UNL     1      56.927  30.296  24.087  1.00  0.00     0.016 C 
ENDROOT
TORSDOF 0
ENDMDL
MODEL 2
REMARK VINA RESULT:    -4.234      1.092      2.602
REMARK INTER + INTRA:          -4.234
REMARK INTER:                  -4.234
REMARK INTRA:                   0.000
REMARK UNBOUND:                 0.000
REMARK SMILES C=C1[C@@H]2CC[C@@H](C2)C1(C)C
REMARK SMILES IDX 9 1 8 2 6 3 5 4 4 5 3 6 7 7 2 8 1 9 10 10
REMARK H PARENT
REMARK Flexibility Score: inf
ROOT
ATOM      1  C   UNL     1      54.597  29.764  26.544  1.00  0.00     0.016 C 
ATOM      2  C   UNL     1      56.039  29.210  26.609  1.00  0.00    -0.012 C 
ATOM      3  C   UNL     1      56.115  27.669  26.903  1.00  0.00    -0.001 C 
ATOM      4  C   UNL     1      55.159  26.876  25.980  1.00  0.00     0.005 C 
ATOM      5  C   UNL     1      55.803  27.048  24.588  1.00  0.00     0.008 C 
ATOM      6  C   UNL     1      57.098  27.818  24.900  1.00  0.00     0.015 C 
ATOM      7  C   UNL     1      57.447  27.279  26.269  1.00  0.00     0.012 C 
ATOM      8  C   UNL     1      56.709  29.229  25.256  1.00  0.00    -0.068 C 
ATOM      9  C   UNL     1      56.884  30.298  24.470  1.00  0.00     0.008 C 
ATOM     10  C   UNL     1      56.841  30.021  27.650  1.00  0.00     0.016 C 
ENDROOT
TORSDOF 0
ENDMDL
MODEL 3
REMARK VINA RESULT:    -4.221      1.223      2.213
REMARK INTER + INTRA:          -4.221
REMARK INTER:                  -4.221
REMARK INTRA:                   0.000
REMARK UNBOUND:                 0.000
REMARK SMILES C=C1[C@@H]2CC[C@@H](C2)C1(C)C
REMARK SMILES IDX 9 1 8 2 6 3 5 4 4 5 3 6 7 7 2 8 1 9 10 10
REMARK H PARENT
REMARK Flexibility Score: inf
ROOT
ATOM      1  C   UNL     1      56.539  29.810  25.245  1.00  0.00     0.016 C 
ATOM      2  C   UNL     1      56.143  29.112  26.566  1.00  0.00    -0.012 C 
ATOM      3  C   UNL     1      54.593  29.035  26.804  1.00  0.00    -0.001 C 
ATOM      4  C   UNL     1      53.860  28.504  25.548  1.00  0.00     0.005 C 
ATOM      5  C   UNL     1      54.325  27.034  25.474  1.00  0.00     0.008 C 
ATOM      6  C   UNL     1      55.171  26.875  26.749  1.00  0.00     0.015 C 
ATOM      7  C   UNL     1      54.458  27.808  27.702  1.00  0.00     0.012 C 
ATOM      8  C   UNL     1      56.455  27.634  26.537  1.00  0.00    -0.068 C 
ATOM      9  C   UNL     1      57.649  27.078  26.305  1.00  0.00     0.008 C 
ATOM     10  C   UNL     1      56.857  29.817  27.741  1.00  0.00     0.016 C 
ENDROOT
TORSDOF 0
ENDMDL
MODEL 4
REMARK VINA RESULT:    -4.204      1.113      2.742
REMARK INTER + INTRA:          -4.204
REMARK INTER:                  -4.204
REMARK INTRA:                   0.000
REMARK UNBOUND:                 0.000
REMARK SMILES C=C1[C@@H]2CC[C@@H](C2)C1(C)C
REMARK SMILES IDX 9 1 8 2 6 3 5 4 4 5 3 6 7 7 2 8 1 9 10 10
REMARK H PARENT
REMARK Flexibility Score: inf
ROOT
ATOM      1  C   UNL     1      56.844  30.108  24.501  1.00  0.00     0.016 C 
ATOM      2  C   UNL     1      55.884  29.198  25.302  1.00  0.00    -0.012 C 
ATOM      3  C   UNL     1      55.782  27.734  24.745  1.00  0.00    -0.001 C 
ATOM      4  C   UNL     1      57.187  27.132  24.496  1.00  0.00     0.005 C 
ATOM      5  C   UNL     1      57.752  26.976  25.923  1.00  0.00     0.008 C 
ATOM      6  C   UNL     1      56.570  27.401  26.812  1.00  0.00     0.015 C 
ATOM      7  C   UNL     1      55.392  26.937  25.986  1.00  0.00     0.012 C 
ATOM      8  C   UNL     1      56.421  28.894  26.681  1.00  0.00    -0.068 C 
ATOM      9  C   UNL     1      56.764  29.787  27.616  1.00  0.00     0.008 C 
ATOM     10  C   UNL     1      54.496  29.871  25.372  1.00  0.00     0.016 C 
ENDROOT
TORSDOF 0
ENDMDL
MODEL 5
REMARK VINA RESULT:    -4.116     21.801     23.468
REMARK INTER + INTRA:          -4.116
REMARK INTER:                  -4.116
REMARK INTRA:                   0.000
REMARK UNBOUND:                 0.000
REMARK SMILES C=C1[C@@H]2CC[C@@H](C2)C1(C)C
REMARK SMILES IDX 9 1 8 2 6 3 5 4 4 5 3 6 7 7 2 8 1 9 10 10
REMARK H PARENT
REMARK Flexibility Score: inf
ROOT
ATOM      1  C   UNL     1      53.881  45.276  41.981  1.00  0.00     0.016 C 
ATOM      2  C   UNL     1      54.998  45.332  43.048  1.00  0.00    -0.012 C 
ATOM      3  C   UNL     1      55.334  43.940  43.691  1.00  0.00    -0.001 C 
ATOM      4  C   UNL     1      55.533  42.856  42.604  1.00  0.00     0.005 C 
ATOM      5  C   UNL     1      56.838  43.299  41.911  1.00  0.00     0.008 C 
ATOM      6  C   UNL     1      57.281  44.510  42.751  1.00  0.00     0.015 C 
ATOM      7  C   UNL     1      56.785  44.120  44.125  1.00  0.00     0.012 C 
ATOM      8  C   UNL     1      56.343  45.645  42.437  1.00  0.00    -0.068 C 
ATOM      9  C   UNL     1      56.650  46.714  41.693  1.00  0.00     0.008 C 
ATOM     10  C   UNL     1      54.611  46.370  44.125  1.00  0.00     0.016 C 
ENDROOT
TORSDOF 0
ENDMDL
MODEL 6
REMARK VINA RESULT:    -4.113     21.746     23.119
REMARK INTER + INTRA:          -4.113
REMARK INTER:                  -4.113
REMARK INTRA:                   0.000
REMARK UNBOUND:                 0.000
REMARK SMILES C=C1[C@@H]2CC[C@@H](C2)C1(C)C
REMARK SMILES IDX 9 1 8 2 6 3 5 4 4 5 3 6 7 7 2 8 1 9 10 10
REMARK H PARENT
REMARK Flexibility Score: inf
ROOT
ATOM      1  C   UNL     1      56.895  46.462  41.846  1.00  0.00     0.016 C 
ATOM      2  C   UNL     1      57.482  45.408  42.813  1.00  0.00    -0.012 C 
ATOM      3  C   UNL     1      56.423  44.782  43.789  1.00  0.00    -0.001 C 
ATOM      4  C   UNL     1      55.159  44.324  43.023  1.00  0.00     0.005 C 
ATOM      5  C   UNL     1      55.676  43.137  42.184  1.00  0.00     0.008 C 
ATOM      6  C   UNL     1      57.135  42.993  42.652  1.00  0.00     0.015 C 
ATOM      7  C   UNL     1      57.029  43.417  44.100  1.00  0.00     0.012 C 
ATOM      8  C   UNL     1      57.908  44.155  42.086  1.00  0.00    -0.068 C 
ATOM      9  C   UNL     1      58.778  44.080  41.072  1.00  0.00     0.008 C 
ATOM     10  C   UNL     1      58.658  46.039  43.590  1.00  0.00     0.016 C 
ENDROOT
TORSDOF 0
ENDMDL
MODEL 7
REMARK VINA RESULT:    -4.093     21.637     23.075
REMARK INTER + INTRA:          -4.093
REMARK INTER:                  -4.093
REMARK INTRA:                   0.000
REMARK UNBOUND:                 0.000
REMARK SMILES C=C1[C@@H]2CC[C@@H](C2)C1(C)C
REMARK SMILES IDX 9 1 8 2 6 3 5 4 4 5 3 6 7 7 2 8 1 9 10 10
REMARK H PARENT
REMARK Flexibility Score: inf
ROOT
ATOM      1  C   UNL     1      59.414  44.892  43.082  1.00  0.00     0.016 C 
ATOM      2  C   UNL     1      58.280  44.439  42.132  1.00  0.00    -0.012 C 
ATOM      3  C   UNL     1      57.482  43.189  42.647  1.00  0.00    -0.001 C 
ATOM      4  C   UNL     1      57.055  43.368  44.124  1.00  0.00     0.005 C 
ATOM      5  C   UNL     1      56.011  44.502  44.046  1.00  0.00     0.008 C 
ATOM      6  C   UNL     1      55.889  44.755  42.533  1.00  0.00     0.015 C 
ATOM      7  C   UNL     1      56.123  43.369  41.977  1.00  0.00     0.012 C 
ATOM      8  C   UNL     1      57.152  45.442  42.086  1.00  0.00    -0.068 C 
ATOM      9  C   UNL     1      57.252  46.737  41.763  1.00  0.00     0.008 C 
ATOM     10  C   UNL     1      58.872  44.188  40.728  1.00  0.00     0.016 C 
ENDROOT
TORSDOF 0
ENDMDL
MODEL 8
REMARK VINA RESULT:    -4.085      1.029      2.156
REMARK INTER + INTRA:          -4.085
REMARK INTER:                  -4.085
REMARK INTRA:                   0.000
REMARK UNBOUND:                 0.000
REMARK SMILES C=C1[C@@H]2CC[C@@H](C2)C1(C)C
REMARK SMILES IDX 9 1 8 2 6 3 5 4 4 5 3 6 7 7 2 8 1 9 10 10
REMARK H PARENT
REMARK Flexibility Score: inf
ROOT
ATOM      1  C   UNL     1      56.347  30.161  24.590  1.00  0.00     0.016 C 
ATOM      2  C   UNL     1      56.546  28.681  24.993  1.00  0.00    -0.012 C 
ATOM      3  C   UNL     1      57.236  28.490  26.390  1.00  0.00    -0.001 C 
ATOM      4  C   UNL     1      56.563  29.370  27.471  1.00  0.00     0.005 C 
ATOM      5  C   UNL     1      55.171  28.722  27.624  1.00  0.00     0.008 C 
ATOM      6  C   UNL     1      55.258  27.495  26.699  1.00  0.00     0.015 C 
ATOM      7  C   UNL     1      56.718  27.124  26.828  1.00  0.00     0.012 C 
ATOM      8  C   UNL     1      55.230  27.996  25.280  1.00  0.00    -0.068 C 
ATOM      9  C   UNL     1      54.189  27.894  24.446  1.00  0.00     0.008 C 
ATOM     10  C   UNL     1      57.329  27.958  23.875  1.00  0.00     0.016 C 
ENDROOT
TORSDOF 0
ENDMDL
