MODEL 1
REMARK VINA RESULT:    -7.711      0.000      0.000
REMARK INTER + INTRA:          -9.802
REMARK INTER:                  -9.514
REMARK INTRA:                  -0.288
REMARK UNBOUND:                -0.288
REMARK SMILES O=c1c(O)c(-c2cc(O)c(O)c(O)c2)oc2cc(O)cc(O)c12
REMARK SMILES IDX 5 1 3 2 2 3 1 4 23 5 21 6 20 7 18 8 17 9 16 10 15 11 6 12
REMARK SMILES IDX 7 13 8 14 14 15 10 16 12 17 9 18 11 20 13 22 4 24 22 26
REMARK SMILES IDX 19 28
REMARK H PARENT 9 19 11 21 13 23 4 25 22 27 19 29
REMARK Flexibility Score: inf
ROOT
ATOM      1  C   UNL     1       8.187  -2.056  -0.097  1.00  0.00     0.180 A 
ATOM      2  C   UNL     1       8.212  -0.935   0.755  1.00  0.00     0.208 A 
ATOM      3  C   UNL     1       8.655  -1.098   2.078  1.00  0.00     0.238 A 
ATOM      4  O   UNL     1       8.693  -0.100   2.848  1.00  0.00    -0.285 OA
ATOM      5  C   UNL     1       9.042  -2.377   2.530  1.00  0.00     0.111 A 
ATOM      6  C   UNL     1       9.496  -2.627   3.848  1.00  0.00     0.134 A 
ATOM      7  C   UNL     1       9.856  -3.929   4.224  1.00  0.00     0.093 A 
ATOM      8  C   UNL     1       9.769  -4.985   3.309  1.00  0.00     0.123 A 
ATOM      9  C   UNL     1       9.323  -4.743   2.009  1.00  0.00     0.094 A 
ATOM     10  C   UNL     1       8.962  -3.452   1.614  1.00  0.00     0.146 A 
ATOM     11  O   UNL     1       8.545  -3.248   0.369  1.00  0.00    -0.452 OA
ENDROOT
BRANCH   1  12
ATOM     12  C   UNL     1       7.750  -1.960  -1.509  1.00  0.00     0.029 A 
ATOM     13  C   UNL     1       8.673  -2.042  -2.566  1.00  0.00     0.062 A 
ATOM     14  C   UNL     1       8.238  -1.973  -3.896  1.00  0.00     0.162 A 
ATOM     15  C   UNL     1       6.384  -1.844  -1.802  1.00  0.00     0.062 A 
ATOM     16  C   UNL     1       6.873  -1.834  -4.182  1.00  0.00     0.200 A 
ATOM     17  C   UNL     1       5.942  -1.774  -3.131  1.00  0.00     0.162 A 
BRANCH  14  18
ATOM     18  O   UNL     1       9.155  -2.048  -4.942  1.00  0.00    -0.504 OA
ATOM     19  H   UNL     1      10.149  -2.145  -4.770  1.00  0.00     0.293 HD
ENDBRANCH  14  18
BRANCH  16  20
ATOM     20  O   UNL     1       6.458  -1.764  -5.512  1.00  0.00    -0.502 OA
ATOM     21  H   UNL     1       7.068  -2.009  -6.281  1.00  0.00     0.293 HD
ENDBRANCH  16  20
BRANCH  17  22
ATOM     22  O   UNL     1       4.583  -1.644  -3.410  1.00  0.00    -0.504 OA
ATOM     23  H   UNL     1       3.955  -2.439  -3.375  1.00  0.00     0.293 HD
ENDBRANCH  17  22
ENDBRANCH   1  12
BRANCH   2  24
ATOM     24  O   UNL     1       7.776   0.311   0.298  1.00  0.00    -0.502 OA
ATOM     25  H   UNL     1       7.248   0.420  -0.560  1.00  0.00     0.293 HD
ENDBRANCH   2  24
BRANCH   6  26
ATOM     26  O   UNL     1       9.593  -1.596   4.783  1.00  0.00    -0.507 OA
ATOM     27  H   UNL     1      10.113  -1.705   5.646  1.00  0.00     0.293 HD
ENDBRANCH   6  26
BRANCH   8  28
ATOM     28  O   UNL     1      10.125  -6.279   3.682  1.00  0.00    -0.508 OA
ATOM     29  H   UNL     1      10.397  -6.501   4.632  1.00  0.00     0.293 HD
ENDBRANCH   8  28
TORSDOF 7
ENDMDL
MODEL 2
REMARK VINA RESULT:    -7.681      0.131      1.753
REMARK INTER + INTRA:          -9.765
REMARK INTER:                  -9.503
REMARK INTRA:                  -0.262
REMARK UNBOUND:                -0.288
REMARK SMILES O=c1c(O)c(-c2cc(O)c(O)c(O)c2)oc2cc(O)cc(O)c12
REMARK SMILES IDX 5 1 3 2 2 3 1 4 23 5 21 6 20 7 18 8 17 9 16 10 15 11 6 12
REMARK SMILES IDX 7 13 8 14 14 15 10 16 12 17 9 18 11 20 13 22 4 24 22 26
REMARK SMILES IDX 19 28
REMARK H PARENT 9 19 11 21 13 23 4 25 22 27 19 29
REMARK Flexibility Score: inf
ROOT
ATOM      1  C   UNL     1       8.088  -2.127  -0.025  1.00  0.00     0.180 A 
ATOM      2  C   UNL     1       8.130  -0.984   0.796  1.00  0.00     0.208 A 
ATOM      3  C   UNL     1       8.604  -1.111   2.112  1.00  0.00     0.238 A 
ATOM      4  O   UNL     1       8.657  -0.093   2.853  1.00  0.00    -0.285 OA
ATOM      5  C   UNL     1       9.005  -2.376   2.589  1.00  0.00     0.111 A 
ATOM      6  C   UNL     1       9.491  -2.590   3.902  1.00  0.00     0.134 A 
ATOM      7  C   UNL     1       9.862  -3.881   4.304  1.00  0.00     0.093 A 
ATOM      8  C   UNL     1       9.757  -4.961   3.420  1.00  0.00     0.123 A 
ATOM      9  C   UNL     1       9.280  -4.754   2.125  1.00  0.00     0.094 A 
ATOM     10  C   UNL     1       8.906  -3.475   1.704  1.00  0.00     0.146 A 
ATOM     11  O   UNL     1       8.460  -3.306   0.465  1.00  0.00    -0.452 OA
ENDROOT
BRANCH   1  12
ATOM     12  C   UNL     1       7.618  -2.070  -1.428  1.00  0.00     0.029 A 
ATOM     13  C   UNL     1       6.263  -1.862  -1.738  1.00  0.00     0.062 A 
ATOM     14  C   UNL     1       5.842  -1.787  -3.072  1.00  0.00     0.162 A 
ATOM     15  C   UNL     1       8.550  -2.168  -2.472  1.00  0.00     0.062 A 
ATOM     16  C   UNL     1       6.774  -1.908  -4.110  1.00  0.00     0.200 A 
ATOM     17  C   UNL     1       8.135  -2.094  -3.809  1.00  0.00     0.162 A 
BRANCH  14  18
ATOM     18  O   UNL     1       4.497  -1.587  -3.375  1.00  0.00    -0.504 OA
ATOM     19  H   UNL     1       3.930  -0.921  -2.862  1.00  0.00     0.293 HD
ENDBRANCH  14  18
BRANCH  16  20
ATOM     20  O   UNL     1       6.337  -1.835  -5.433  1.00  0.00    -0.502 OA
ATOM     21  H   UNL     1       6.152  -0.952  -5.892  1.00  0.00     0.293 HD
ENDBRANCH  16  20
BRANCH  17  22
ATOM     22  O   UNL     1       9.067  -2.207  -4.839  1.00  0.00    -0.504 OA
ATOM     23  H   UNL     1       9.465  -3.102  -5.098  1.00  0.00     0.293 HD
ENDBRANCH  17  22
ENDBRANCH   1  12
BRANCH   2  24
ATOM     24  O   UNL     1       7.680   0.248   0.316  1.00  0.00    -0.502 OA
ATOM     25  H   UNL     1       7.753   0.510  -0.660  1.00  0.00     0.293 HD
ENDBRANCH   2  24
BRANCH   6  26
ATOM     26  O   UNL     1       9.606  -1.534   4.806  1.00  0.00    -0.507 OA
ATOM     27  H   UNL     1      10.473  -1.019   4.918  1.00  0.00     0.293 HD
ENDBRANCH   6  26
BRANCH   8  28
ATOM     28  O   UNL     1      10.125  -6.244   3.819  1.00  0.00    -0.508 OA
ATOM     29  H   UNL     1       9.498  -7.033   3.709  1.00  0.00     0.293 HD
ENDBRANCH   8  28
TORSDOF 7
ENDMDL
MODEL 3
REMARK VINA RESULT:    -7.463      2.160      4.145
REMARK INTER + INTRA:          -9.496
REMARK INTER:                  -9.233
REMARK INTRA:                  -0.263
REMARK UNBOUND:                -0.288
REMARK SMILES O=c1c(O)c(-c2cc(O)c(O)c(O)c2)oc2cc(O)cc(O)c12
REMARK SMILES IDX 5 1 3 2 2 3 1 4 23 5 21 6 20 7 18 8 17 9 16 10 15 11 6 12
REMARK SMILES IDX 7 13 8 14 14 15 10 16 12 17 9 18 11 20 13 22 4 24 22 26
REMARK SMILES IDX 19 28
REMARK H PARENT 9 19 11 21 13 23 4 25 22 27 19 29
REMARK Flexibility Score: inf
ROOT
ATOM      1  C   UNL     1       8.934  -2.902   2.747  1.00  0.00     0.180 A 
ATOM      2  C   UNL     1       9.105  -4.288   2.923  1.00  0.00     0.208 A 
ATOM      3  C   UNL     1       9.437  -4.775   4.198  1.00  0.00     0.238 A 
ATOM      4  O   UNL     1       9.582  -6.015   4.371  1.00  0.00    -0.285 OA
ATOM      5  C   UNL     1       9.614  -3.870   5.264  1.00  0.00     0.111 A 
ATOM      6  C   UNL     1       9.953  -4.276   6.577  1.00  0.00     0.134 A 
ATOM      7  C   UNL     1      10.119  -3.313   7.583  1.00  0.00     0.093 A 
ATOM      8  C   UNL     1       9.954  -1.953   7.301  1.00  0.00     0.123 A 
ATOM      9  C   UNL     1       9.619  -1.547   6.009  1.00  0.00     0.094 A 
ATOM     10  C   UNL     1       9.447  -2.491   4.993  1.00  0.00     0.146 A 
ATOM     11  O   UNL     1       9.123  -2.078   3.773  1.00  0.00    -0.452 OA
ENDROOT
BRANCH   1  12
ATOM     12  C   UNL     1       8.566  -2.315   1.438  1.00  0.00     0.029 A 
ATOM     13  C   UNL     1       9.503  -1.610   0.663  1.00  0.00     0.062 A 
ATOM     14  C   UNL     1       9.141  -1.083  -0.584  1.00  0.00     0.162 A 
ATOM     15  C   UNL     1       7.273  -2.515   0.932  1.00  0.00     0.062 A 
ATOM     16  C   UNL     1       7.842  -1.267  -1.073  1.00  0.00     0.200 A 
ATOM     17  C   UNL     1       6.905  -1.989  -0.315  1.00  0.00     0.162 A 
BRANCH  14  18
ATOM     18  O   UNL     1      10.071  -0.380  -1.347  1.00  0.00    -0.504 OA
ATOM     19  H   UNL     1      10.886  -0.834  -1.742  1.00  0.00     0.293 HD
ENDBRANCH  14  18
BRANCH  16  20
ATOM     20  O   UNL     1       7.498  -0.732  -2.316  1.00  0.00    -0.502 OA
ATOM     21  H   UNL     1       6.606  -0.282  -2.481  1.00  0.00     0.293 HD
ENDBRANCH  16  20
BRANCH  17  22
ATOM     22  O   UNL     1       5.613  -2.181  -0.801  1.00  0.00    -0.504 OA
ATOM     23  H   UNL     1       4.982  -1.403  -0.954  1.00  0.00     0.293 HD
ENDBRANCH  17  22
ENDBRANCH   1  12
BRANCH   2  24
ATOM     24  O   UNL     1       8.973  -5.160   1.839  1.00  0.00    -0.502 OA
ATOM     25  H   UNL     1       9.697  -5.821   1.582  1.00  0.00     0.293 HD
ENDBRANCH   2  24
BRANCH   6  26
ATOM     26  O   UNL     1      10.125  -5.626   6.889  1.00  0.00    -0.507 OA
ATOM     27  H   UNL     1      10.532  -6.279   6.229  1.00  0.00     0.293 HD
ENDBRANCH   6  26
BRANCH   8  28
ATOM     28  O   UNL     1      10.121  -0.995   8.299  1.00  0.00    -0.508 OA
ATOM     29  H   UNL     1      10.630  -1.201   9.151  1.00  0.00     0.293 HD
ENDBRANCH   8  28
TORSDOF 7
ENDMDL
MODEL 4
REMARK VINA RESULT:    -7.352      1.826      2.708
REMARK INTER + INTRA:          -9.358
REMARK INTER:                  -9.052
REMARK INTRA:                  -0.306
REMARK UNBOUND:                -0.288
REMARK SMILES O=c1c(O)c(-c2cc(O)c(O)c(O)c2)oc2cc(O)cc(O)c12
REMARK SMILES IDX 5 1 3 2 2 3 1 4 23 5 21 6 20 7 18 8 17 9 16 10 15 11 6 12
REMARK SMILES IDX 7 13 8 14 14 15 10 16 12 17 9 18 11 20 13 22 4 24 22 26
REMARK SMILES IDX 19 28
REMARK H PARENT 9 19 11 21 13 23 4 25 22 27 19 29
REMARK Flexibility Score: inf
ROOT
ATOM      1  C   UNL     1       7.264  -1.622  -2.095  1.00  0.00     0.180 A 
ATOM      2  C   UNL     1       7.830  -0.339  -1.960  1.00  0.00     0.208 A 
ATOM      3  C   UNL     1       8.418   0.019  -0.736  1.00  0.00     0.238 A 
ATOM      4  O   UNL     1       8.937   1.160  -0.607  1.00  0.00    -0.285 OA
ATOM      5  C   UNL     1       8.410  -0.899   0.334  1.00  0.00     0.111 A 
ATOM      6  C   UNL     1       8.976  -0.616   1.601  1.00  0.00     0.134 A 
ATOM      7  C   UNL     1       8.921  -1.579   2.619  1.00  0.00     0.093 A 
ATOM      8  C   UNL     1       8.311  -2.818   2.395  1.00  0.00     0.123 A 
ATOM      9  C   UNL     1       7.752  -3.102   1.148  1.00  0.00     0.094 A 
ATOM     10  C   UNL     1       7.798  -2.157   0.120  1.00  0.00     0.146 A 
ATOM     11  O   UNL     1       7.263  -2.455  -1.059  1.00  0.00    -0.452 OA
ENDROOT
BRANCH   1  12
ATOM     12  C   UNL     1       6.644  -2.078  -3.359  1.00  0.00     0.029 A 
ATOM     13  C   UNL     1       7.426  -2.433  -4.472  1.00  0.00     0.062 A 
ATOM     14  C   UNL     1       6.822  -2.886  -5.651  1.00  0.00     0.162 A 
ATOM     15  C   UNL     1       5.250  -2.217  -3.433  1.00  0.00     0.062 A 
ATOM     16  C   UNL     1       5.427  -3.000  -5.726  1.00  0.00     0.200 A 
ATOM     17  C   UNL     1       4.638  -2.669  -4.611  1.00  0.00     0.162 A 
BRANCH  14  18
ATOM     18  O   UNL     1       7.600  -3.231  -6.754  1.00  0.00    -0.504 OA
ATOM     19  H   UNL     1       7.475  -2.780  -7.653  1.00  0.00     0.293 HD
ENDBRANCH  14  18
BRANCH  16  20
ATOM     20  O   UNL     1       4.841  -3.450  -6.910  1.00  0.00    -0.502 OA
ATOM     21  H   UNL     1       4.561  -4.413  -7.041  1.00  0.00     0.293 HD
ENDBRANCH  16  20
BRANCH  17  22
ATOM     22  O   UNL     1       3.251  -2.789  -4.678  1.00  0.00    -0.504 OA
ATOM     23  H   UNL     1       2.639  -2.134  -4.205  1.00  0.00     0.293 HD
ENDBRANCH  17  22
ENDBRANCH   1  12
BRANCH   2  24
ATOM     24  O   UNL     1       7.781   0.570  -3.020  1.00  0.00    -0.502 OA
ATOM     25  H   UNL     1       7.047   1.263  -3.107  1.00  0.00     0.293 HD
ENDBRANCH   2  24
BRANCH   6  26
ATOM     26  O   UNL     1       9.591   0.611   1.855  1.00  0.00    -0.507 OA
ATOM     27  H   UNL     1       9.383   1.150   2.688  1.00  0.00     0.293 HD
ENDBRANCH   6  26
BRANCH   8  28
ATOM     28  O   UNL     1       8.254  -3.776   3.405  1.00  0.00    -0.508 OA
ATOM     29  H   UNL     1       7.370  -4.104   3.775  1.00  0.00     0.293 HD
ENDBRANCH   8  28
TORSDOF 7
ENDMDL
MODEL 5
REMARK VINA RESULT:    -7.129      3.871      7.078
REMARK INTER + INTRA:          -9.083
REMARK INTER:                  -8.786
REMARK INTRA:                  -0.297
REMARK UNBOUND:                -0.288
REMARK SMILES O=c1c(O)c(-c2cc(O)c(O)c(O)c2)oc2cc(O)cc(O)c12
REMARK SMILES IDX 5 1 3 2 2 3 1 4 23 5 21 6 20 7 18 8 17 9 16 10 15 11 6 12
REMARK SMILES IDX 7 13 8 14 14 15 10 16 12 17 9 18 11 20 13 22 4 24 22 26
REMARK SMILES IDX 19 28
REMARK H PARENT 9 19 11 21 13 23 4 25 22 27 19 29
REMARK Flexibility Score: inf
ROOT
ATOM      1  C   UNL     1       8.200  -1.856  -3.367  1.00  0.00     0.180 A 
ATOM      2  C   UNL     1       9.176  -2.827  -3.071  1.00  0.00     0.208 A 
ATOM      3  C   UNL     1       9.162  -4.041  -3.775  1.00  0.00     0.238 A 
ATOM      4  O   UNL     1      10.037  -4.914  -3.527  1.00  0.00    -0.285 OA
ATOM      5  C   UNL     1       8.165  -4.272  -4.745  1.00  0.00     0.111 A 
ATOM      6  C   UNL     1       8.077  -5.469  -5.496  1.00  0.00     0.134 A 
ATOM      7  C   UNL     1       7.050  -5.626  -6.438  1.00  0.00     0.093 A 
ATOM      8  C   UNL     1       6.109  -4.611  -6.641  1.00  0.00     0.123 A 
ATOM      9  C   UNL     1       6.191  -3.429  -5.904  1.00  0.00     0.094 A 
ATOM     10  C   UNL     1       7.208  -3.252  -4.962  1.00  0.00     0.146 A 
ATOM     11  O   UNL     1       7.267  -2.115  -4.278  1.00  0.00    -0.452 OA
ENDROOT
BRANCH   1  12
ATOM     12  C   UNL     1       8.161  -0.545  -2.680  1.00  0.00     0.029 A 
ATOM     13  C   UNL     1       8.565   0.634  -3.331  1.00  0.00     0.062 A 
ATOM     14  C   UNL     1       8.497   1.868  -2.672  1.00  0.00     0.162 A 
ATOM     15  C   UNL     1       7.658  -0.466  -1.374  1.00  0.00     0.062 A 
ATOM     16  C   UNL     1       8.014   1.937  -1.359  1.00  0.00     0.200 A 
ATOM     17  C   UNL     1       7.588   0.767  -0.708  1.00  0.00     0.162 A 
BRANCH  14  18
ATOM     18  O   UNL     1       8.904   3.034  -3.318  1.00  0.00    -0.504 OA
ATOM     19  H   UNL     1       8.976   3.916  -2.825  1.00  0.00     0.293 HD
ENDBRANCH  14  18
BRANCH  16  20
ATOM     20  O   UNL     1       7.958   3.175  -0.717  1.00  0.00    -0.502 OA
ATOM     21  H   UNL     1       7.081   3.635  -0.509  1.00  0.00     0.293 HD
ENDBRANCH  16  20
BRANCH  17  22
ATOM     22  O   UNL     1       7.099   0.832   0.595  1.00  0.00    -0.504 OA
ATOM     23  H   UNL     1       6.164   1.166   0.795  1.00  0.00     0.293 HD
ENDBRANCH  17  22
ENDBRANCH   1  12
BRANCH   2  24
ATOM     24  O   UNL     1      10.124  -2.594  -2.070  1.00  0.00    -0.502 OA
ATOM     25  H   UNL     1       9.959  -1.950  -1.306  1.00  0.00     0.293 HD
ENDBRANCH   2  24
BRANCH   6  26
ATOM     26  O   UNL     1       9.001  -6.500  -5.315  1.00  0.00    -0.507 OA
ATOM     27  H   UNL     1       8.742  -7.474  -5.426  1.00  0.00     0.293 HD
ENDBRANCH   6  26
BRANCH   8  28
ATOM     28  O   UNL     1       5.086  -4.767  -7.575  1.00  0.00    -0.508 OA
ATOM     29  H   UNL     1       4.490  -3.992  -7.841  1.00  0.00     0.293 HD
ENDBRANCH   8  28
TORSDOF 7
ENDMDL
MODEL 6
REMARK VINA RESULT:    -7.126      1.693      6.894
REMARK INTER + INTRA:          -9.080
REMARK INTER:                  -9.581
REMARK INTRA:                   0.501
REMARK UNBOUND:                -0.288
REMARK SMILES O=c1c(O)c(-c2cc(O)c(O)c(O)c2)oc2cc(O)cc(O)c12
REMARK SMILES IDX 5 1 3 2 2 3 1 4 23 5 21 6 20 7 18 8 17 9 16 10 15 11 6 12
REMARK SMILES IDX 7 13 8 14 14 15 10 16 12 17 9 18 11 20 13 22 4 24 22 26
REMARK SMILES IDX 19 28
REMARK H PARENT 9 19 11 21 13 23 4 25 22 27 19 29
REMARK Flexibility Score: inf
ROOT
ATOM      1  C   UNL     1       9.022  -1.908   1.722  1.00  0.00     0.180 A 
ATOM      2  C   UNL     1       8.729  -0.560   2.004  1.00  0.00     0.208 A 
ATOM      3  C   UNL     1       8.478   0.318   0.938  1.00  0.00     0.238 A 
ATOM      4  O   UNL     1       8.203   1.525   1.179  1.00  0.00    -0.285 OA
ATOM      5  C   UNL     1       8.545  -0.159  -0.387  1.00  0.00     0.111 A 
ATOM      6  C   UNL     1       8.310   0.661  -1.518  1.00  0.00     0.134 A 
ATOM      7  C   UNL     1       8.403   0.113  -2.806  1.00  0.00     0.093 A 
ATOM      8  C   UNL     1       8.729  -1.236  -2.984  1.00  0.00     0.123 A 
ATOM      9  C   UNL     1       8.961  -2.048  -1.873  1.00  0.00     0.094 A 
ATOM     10  C   UNL     1       8.870  -1.522  -0.581  1.00  0.00     0.146 A 
ATOM     11  O   UNL     1       9.091  -2.318   0.459  1.00  0.00    -0.452 OA
ENDROOT
BRANCH   1  12
ATOM     12  C   UNL     1       9.280  -2.898   2.792  1.00  0.00     0.029 A 
ATOM     13  C   UNL     1       9.474  -4.259   2.498  1.00  0.00     0.062 A 
ATOM     14  C   UNL     1       9.741  -5.176   3.523  1.00  0.00     0.162 A 
ATOM     15  C   UNL     1       9.391  -2.464   4.121  1.00  0.00     0.062 A 
ATOM     16  C   UNL     1       9.828  -4.739   4.851  1.00  0.00     0.200 A 
ATOM     17  C   UNL     1       9.657  -3.377   5.152  1.00  0.00     0.162 A 
BRANCH  14  18
ATOM     18  O   UNL     1       9.927  -6.526   3.229  1.00  0.00    -0.504 OA
ATOM     19  H   UNL     1       9.189  -7.086   2.820  1.00  0.00     0.293 HD
ENDBRANCH  14  18
BRANCH  16  20
ATOM     20  O   UNL     1      10.091  -5.668   5.859  1.00  0.00    -0.502 OA
ATOM     21  H   UNL     1      10.750  -6.426   5.736  1.00  0.00     0.293 HD
ENDBRANCH  16  20
BRANCH  17  22
ATOM     22  O   UNL     1       9.751  -2.936   6.470  1.00  0.00    -0.504 OA
ATOM     23  H   UNL     1       9.299  -3.434   7.229  1.00  0.00     0.293 HD
ENDBRANCH  17  22
ENDBRANCH   1  12
BRANCH   2  24
ATOM     24  O   UNL     1       8.717  -0.101   3.324  1.00  0.00    -0.502 OA
ATOM     25  H   UNL     1       9.368  -0.440   4.023  1.00  0.00     0.293 HD
ENDBRANCH   2  24
BRANCH   6  26
ATOM     26  O   UNL     1       7.984   2.010  -1.372  1.00  0.00    -0.507 OA
ATOM     27  H   UNL     1       8.681   2.703  -1.125  1.00  0.00     0.293 HD
ENDBRANCH   6  26
BRANCH   8  28
ATOM     28  O   UNL     1       8.824  -1.781  -4.263  1.00  0.00    -0.508 OA
ATOM     29  H   UNL     1       9.119  -1.223  -5.056  1.00  0.00     0.293 HD
ENDBRANCH   8  28
TORSDOF 7
ENDMDL
MODEL 7
REMARK VINA RESULT:    -7.083      1.491      2.412
REMARK INTER + INTRA:          -9.027
REMARK INTER:                  -8.809
REMARK INTRA:                  -0.218
REMARK UNBOUND:                -0.288
REMARK SMILES O=c1c(O)c(-c2cc(O)c(O)c(O)c2)oc2cc(O)cc(O)c12
REMARK SMILES IDX 5 1 3 2 2 3 1 4 23 5 21 6 20 7 18 8 17 9 16 10 15 11 6 12
REMARK SMILES IDX 7 13 8 14 14 15 10 16 12 17 9 18 11 20 13 22 4 24 22 26
REMARK SMILES IDX 19 28
REMARK H PARENT 9 19 11 21 13 23 4 25 22 27 19 29
REMARK Flexibility Score: inf
ROOT
ATOM      1  C   UNL     1       8.577  -1.445  -1.434  1.00  0.00     0.180 A 
ATOM      2  C   UNL     1       8.238  -0.245  -0.781  1.00  0.00     0.208 A 
ATOM      3  C   UNL     1       8.367  -0.172   0.615  1.00  0.00     0.238 A 
ATOM      4  O   UNL     1       8.077   0.900   1.211  1.00  0.00    -0.285 OA
ATOM      5  C   UNL     1       8.810  -1.303   1.333  1.00  0.00     0.111 A 
ATOM      6  C   UNL     1       8.963  -1.315   2.741  1.00  0.00     0.134 A 
ATOM      7  C   UNL     1       9.400  -2.482   3.383  1.00  0.00     0.093 A 
ATOM      8  C   UNL     1       9.686  -3.636   2.646  1.00  0.00     0.123 A 
ATOM      9  C   UNL     1       9.538  -3.629   1.258  1.00  0.00     0.094 A 
ATOM     10  C   UNL     1       9.104  -2.476   0.599  1.00  0.00     0.146 A 
ATOM     11  O   UNL     1       8.976  -2.494  -0.723  1.00  0.00    -0.452 OA
ENDROOT
BRANCH   1  12
ATOM     12  C   UNL     1       8.485  -1.592  -2.905  1.00  0.00     0.029 A 
ATOM     13  C   UNL     1       7.522  -2.427  -3.497  1.00  0.00     0.062 A 
ATOM     14  C   UNL     1       7.435  -2.535  -4.892  1.00  0.00     0.162 A 
ATOM     15  C   UNL     1       9.336  -0.840  -3.728  1.00  0.00     0.062 A 
ATOM     16  C   UNL     1       8.303  -1.798  -5.708  1.00  0.00     0.200 A 
ATOM     17  C   UNL     1       9.255  -0.944  -5.124  1.00  0.00     0.162 A 
BRANCH  14  18
ATOM     18  O   UNL     1       6.483  -3.368  -5.476  1.00  0.00    -0.504 OA
ATOM     19  H   UNL     1       6.739  -4.257  -5.889  1.00  0.00     0.293 HD
ENDBRANCH  14  18
BRANCH  16  20
ATOM     20  O   UNL     1       8.205  -1.921  -7.094  1.00  0.00    -0.502 OA
ATOM     21  H   UNL     1       8.100  -1.117  -7.701  1.00  0.00     0.293 HD
ENDBRANCH  16  20
BRANCH  17  22
ATOM     22  O   UNL     1      10.115  -0.203  -5.932  1.00  0.00    -0.504 OA
ATOM     23  H   UNL     1      10.255   0.790  -5.787  1.00  0.00     0.293 HD
ENDBRANCH  17  22
ENDBRANCH   1  12
BRANCH   2  24
ATOM     24  O   UNL     1       7.755   0.845  -1.509  1.00  0.00    -0.502 OA
ATOM     25  H   UNL     1       8.306   1.311  -2.221  1.00  0.00     0.293 HD
ENDBRANCH   2  24
BRANCH   6  26
ATOM     26  O   UNL     1       8.685  -0.180   3.504  1.00  0.00    -0.507 OA
ATOM     27  H   UNL     1       9.133   0.711   3.318  1.00  0.00     0.293 HD
ENDBRANCH   6  26
BRANCH   8  28
ATOM     28  O   UNL     1      10.120  -4.797   3.283  1.00  0.00    -0.508 OA
ATOM     29  H   UNL     1      11.025  -4.846   3.736  1.00  0.00     0.293 HD
ENDBRANCH   8  28
TORSDOF 7
ENDMDL
MODEL 8
REMARK VINA RESULT:    -7.060      1.384      7.201
REMARK INTER + INTRA:          -8.999
REMARK INTER:                  -8.833
REMARK INTRA:                  -0.166
REMARK UNBOUND:                -0.288
REMARK SMILES O=c1c(O)c(-c2cc(O)c(O)c(O)c2)oc2cc(O)cc(O)c12
REMARK SMILES IDX 5 1 3 2 2 3 1 4 23 5 21 6 20 7 18 8 17 9 16 10 15 11 6 12
REMARK SMILES IDX 7 13 8 14 14 15 10 16 12 17 9 18 11 20 13 22 4 24 22 26
REMARK SMILES IDX 19 28
REMARK H PARENT 9 19 11 21 13 23 4 25 22 27 19 29
REMARK Flexibility Score: inf
ROOT
ATOM      1  C   UNL     1       7.939  -2.043  -1.151  1.00  0.00     0.180 A 
ATOM      2  C   UNL     1       6.569  -1.885  -1.437  1.00  0.00     0.208 A 
ATOM      3  C   UNL     1       6.150  -1.899  -2.777  1.00  0.00     0.238 A 
ATOM      4  O   UNL     1       4.925  -1.769  -3.046  1.00  0.00    -0.285 OA
ATOM      5  C   UNL     1       7.104  -2.048  -3.804  1.00  0.00     0.111 A 
ATOM      6  C   UNL     1       6.766  -2.067  -5.179  1.00  0.00     0.134 A 
ATOM      7  C   UNL     1       7.775  -2.211  -6.142  1.00  0.00     0.093 A 
ATOM      8  C   UNL     1       9.115  -2.334  -5.757  1.00  0.00     0.123 A 
ATOM      9  C   UNL     1       9.454  -2.316  -4.403  1.00  0.00     0.094 A 
ATOM     10  C   UNL     1       8.462  -2.176  -3.428  1.00  0.00     0.146 A 
ATOM     11  O   UNL     1       8.811  -2.166  -2.146  1.00  0.00    -0.452 OA
ENDROOT
BRANCH   1  12
ATOM     12  C   UNL     1       8.455  -2.058   0.237  1.00  0.00     0.029 A 
ATOM     13  C   UNL     1       8.315  -0.943   1.081  1.00  0.00     0.062 A 
ATOM     14  C   UNL     1       8.789  -0.985   2.399  1.00  0.00     0.162 A 
ATOM     15  C   UNL     1       9.046  -3.226   0.740  1.00  0.00     0.062 A 
ATOM     16  C   UNL     1       9.398  -2.148   2.889  1.00  0.00     0.200 A 
ATOM     17  C   UNL     1       9.523  -3.275   2.058  1.00  0.00     0.162 A 
BRANCH  14  18
ATOM     18  O   UNL     1       8.653   0.123   3.232  1.00  0.00    -0.504 OA
ATOM     19  H   UNL     1       8.160   0.956   2.931  1.00  0.00     0.293 HD
ENDBRANCH  14  18
BRANCH  16  20
ATOM     20  O   UNL     1       9.868  -2.171   4.203  1.00  0.00    -0.502 OA
ATOM     21  H   UNL     1      10.835  -2.366   4.426  1.00  0.00     0.293 HD
ENDBRANCH  16  20
BRANCH  17  22
ATOM     22  O   UNL     1      10.121  -4.436   2.544  1.00  0.00    -0.504 OA
ATOM     23  H   UNL     1       9.601  -5.110   3.094  1.00  0.00     0.293 HD
ENDBRANCH  17  22
ENDBRANCH   1  12
BRANCH   2  24
ATOM     24  O   UNL     1       5.649  -1.689  -0.404  1.00  0.00    -0.502 OA
ATOM     25  H   UNL     1       5.720  -2.170   0.485  1.00  0.00     0.293 HD
ENDBRANCH   2  24
BRANCH   6  26
ATOM     26  O   UNL     1       5.439  -1.946  -5.594  1.00  0.00    -0.507 OA
ATOM     27  H   UNL     1       4.746  -2.655  -5.380  1.00  0.00     0.293 HD
ENDBRANCH   6  26
BRANCH   8  28
ATOM     28  O   UNL     1      10.119  -2.476  -6.713  1.00  0.00    -0.508 OA
ATOM     29  H   UNL     1      11.094  -2.328  -6.482  1.00  0.00     0.293 HD
ENDBRANCH   8  28
TORSDOF 7
ENDMDL
MODEL 9
REMARK VINA RESULT:    -6.853      3.139      7.428
REMARK INTER + INTRA:          -8.743
REMARK INTER:                  -8.399
REMARK INTRA:                  -0.344
REMARK UNBOUND:                -0.288
REMARK SMILES O=c1c(O)c(-c2cc(O)c(O)c(O)c2)oc2cc(O)cc(O)c12
REMARK SMILES IDX 5 1 3 2 2 3 1 4 23 5 21 6 20 7 18 8 17 9 16 10 15 11 6 12
REMARK SMILES IDX 7 13 8 14 14 15 10 16 12 17 9 18 11 20 13 22 4 24 22 26
REMARK SMILES IDX 19 28
REMARK H PARENT 9 19 11 21 13 23 4 25 22 27 19 29
REMARK Flexibility Score: inf
ROOT
ATOM      1  C   UNL     1       7.004  -1.983  -3.421  1.00  0.00     0.180 A 
ATOM      2  C   UNL     1       5.705  -2.170  -3.933  1.00  0.00     0.208 A 
ATOM      3  C   UNL     1       5.527  -3.014  -5.040  1.00  0.00     0.238 A 
ATOM      4  O   UNL     1       4.368  -3.198  -5.501  1.00  0.00    -0.285 OA
ATOM      5  C   UNL     1       6.647  -3.638  -5.627  1.00  0.00     0.111 A 
ATOM      6  C   UNL     1       6.555  -4.500  -6.747  1.00  0.00     0.134 A 
ATOM      7  C   UNL     1       7.718  -5.076  -7.279  1.00  0.00     0.093 A 
ATOM      8  C   UNL     1       8.969  -4.807  -6.714  1.00  0.00     0.123 A 
ATOM      9  C   UNL     1       9.065  -3.958  -5.610  1.00  0.00     0.094 A 
ATOM     10  C   UNL     1       7.918  -3.376  -5.064  1.00  0.00     0.146 A 
ATOM     11  O   UNL     1       8.037  -2.576  -4.010  1.00  0.00    -0.452 OA
ENDROOT
BRANCH   1  12
ATOM     12  C   UNL     1       7.269  -1.122  -2.245  1.00  0.00     0.029 A 
ATOM     13  C   UNL     1       7.653   0.222  -2.395  1.00  0.00     0.062 A 
ATOM     14  C   UNL     1       7.876   1.027  -1.270  1.00  0.00     0.162 A 
ATOM     15  C   UNL     1       7.078  -1.639  -0.956  1.00  0.00     0.062 A 
ATOM     16  C   UNL     1       7.705   0.498   0.016  1.00  0.00     0.200 A 
ATOM     17  C   UNL     1       7.301  -0.839   0.175  1.00  0.00     0.162 A 
BRANCH  14  18
ATOM     18  O   UNL     1       8.262   2.357  -1.422  1.00  0.00    -0.504 OA
ATOM     19  H   UNL     1       8.371   2.777  -2.337  1.00  0.00     0.293 HD
ENDBRANCH  14  18
BRANCH  16  20
ATOM     20  O   UNL     1       7.936   1.313   1.125  1.00  0.00    -0.502 OA
ATOM     21  H   UNL     1       8.815   1.794   1.268  1.00  0.00     0.293 HD
ENDBRANCH  16  20
BRANCH  17  22
ATOM     22  O   UNL     1       7.122  -1.366   1.452  1.00  0.00    -0.504 OA
ATOM     23  H   UNL     1       7.417  -0.862   2.280  1.00  0.00     0.293 HD
ENDBRANCH  17  22
ENDBRANCH   1  12
BRANCH   2  24
ATOM     24  O   UNL     1       4.618  -1.501  -3.364  1.00  0.00    -0.502 OA
ATOM     25  H   UNL     1       4.567  -0.490  -3.316  1.00  0.00     0.293 HD
ENDBRANCH   2  24
BRANCH   6  26
ATOM     26  O   UNL     1       5.321  -4.788  -7.332  1.00  0.00    -0.507 OA
ATOM     27  H   UNL     1       4.481  -4.903  -6.777  1.00  0.00     0.293 HD
ENDBRANCH   6  26
BRANCH   8  28
ATOM     28  O   UNL     1      10.125  -5.377  -7.242  1.00  0.00    -0.508 OA
ATOM     29  H   UNL     1      10.654  -4.920  -7.976  1.00  0.00     0.293 HD
ENDBRANCH   8  28
TORSDOF 7
ENDMDL
