MODEL 1
REMARK VINA RESULT:    -4.588      0.000      0.000
REMARK INTER + INTRA:          -7.134
REMARK INTER:                  -6.734
REMARK INTRA:                  -0.400
REMARK UNBOUND:                -0.400
REMARK SMILES O=C([O-])CCCCCCCC(=O)[O-]
REMARK SMILES IDX 7 1 6 2 5 3 4 4 2 5 1 6 3 7 8 8 9 9 10 10 11 11 12 12 13 13
REMARK H PARENT
REMARK Flexibility Score: inf
ROOT
ATOM      1  C   UNL     1      28.885  -6.180 -13.548  1.00  0.00     0.000 C 
ENDROOT
BRANCH   1   2
ATOM      2  C   UNL     1      29.415  -7.496 -12.967  1.00  0.00     0.000 C 
BRANCH   2   3
ATOM      3  C   UNL     1      29.683  -8.520 -14.076  1.00  0.00     0.006 C 
BRANCH   3   4
ATOM      4  C   UNL     1      29.785  -7.838 -15.443  1.00  0.00     0.053 C 
BRANCH   4   5
ATOM      5  C   UNL     1      29.617  -8.839 -16.542  1.00  0.00     0.041 C 
ATOM      6  O   UNL     1      30.572  -9.593 -16.863  1.00  0.00    -0.550 OA
ATOM      7  O   UNL     1      28.420  -8.906 -17.243  1.00  0.00    -0.550 OA
ENDBRANCH   4   5
ENDBRANCH   3   4
ENDBRANCH   2   3
ENDBRANCH   1   2
BRANCH   1   8
ATOM      8  C   UNL     1      29.790  -5.002 -13.160  1.00  0.00     0.000 C 
BRANCH   8   9
ATOM      9  C   UNL     1      31.232  -5.428 -12.835  1.00  0.00     0.006 C 
BRANCH   9  10
ATOM     10  C   UNL     1      31.592  -5.327 -11.342  1.00  0.00     0.053 C 
BRANCH  10  11
ATOM     11  C   UNL     1      32.593  -6.356 -10.915  1.00  0.00     0.041 C 
ATOM     12  O   UNL     1      33.027  -7.202 -11.741  1.00  0.00    -0.550 OA
ATOM     13  O   UNL     1      33.072  -6.362  -9.611  1.00  0.00    -0.550 OA
ENDBRANCH  10  11
ENDBRANCH   9  10
ENDBRANCH   8   9
ENDBRANCH   1   8
TORSDOF 8
ENDMDL
MODEL 2
REMARK VINA RESULT:    -4.485      0.158      5.883
REMARK INTER + INTRA:          -6.983
REMARK INTER:                  -6.509
REMARK INTRA:                  -0.474
REMARK UNBOUND:                -0.400
REMARK SMILES O=C([O-])CCCCCCCC(=O)[O-]
REMARK SMILES IDX 7 1 6 2 5 3 4 4 2 5 1 6 3 7 8 8 9 9 10 10 11 11 12 12 13 13
REMARK H PARENT
REMARK Flexibility Score: inf
ROOT
ATOM      1  C   UNL     1      28.911  -6.240 -13.470  1.00  0.00     0.000 C 
ENDROOT
BRANCH   1   2
ATOM      2  C   UNL     1      29.767  -5.077 -12.956  1.00  0.00     0.000 C 
BRANCH   2   3
ATOM      3  C   UNL     1      31.219  -5.517 -12.731  1.00  0.00     0.006 C 
BRANCH   3   4
ATOM      4  C   UNL     1      31.652  -5.266 -11.284  1.00  0.00     0.053 C 
BRANCH   4   5
ATOM      5  C   UNL     1      32.592  -6.336 -10.826  1.00  0.00     0.041 C 
ATOM      6  O   UNL     1      32.963  -7.237 -11.623  1.00  0.00    -0.550 OA
ATOM      7  O   UNL     1      33.020  -6.366  -9.505  1.00  0.00    -0.550 OA
ENDBRANCH   4   5
ENDBRANCH   3   4
ENDBRANCH   2   3
ENDBRANCH   1   2
BRANCH   1   8
ATOM      8  C   UNL     1      29.496  -7.590 -13.033  1.00  0.00     0.000 C 
BRANCH   8   9
ATOM      9  C   UNL     1      29.660  -8.583 -14.198  1.00  0.00     0.006 C 
BRANCH   9  10
ATOM     10  C   UNL     1      29.659  -7.922 -15.587  1.00  0.00     0.053 C 
BRANCH  10  11
ATOM     11  C   UNL     1      29.533  -8.914 -16.702  1.00  0.00     0.041 C 
ATOM     12  O   UNL     1      30.489  -9.686 -16.977  1.00  0.00    -0.550 OA
ATOM     13  O   UNL     1      28.346  -9.009 -17.419  1.00  0.00    -0.550 OA
ENDBRANCH  10  11
ENDBRANCH   9  10
ENDBRANCH   8   9
ENDBRANCH   1   8
TORSDOF 8
ENDMDL
MODEL 3
REMARK VINA RESULT:    -4.358      4.083      5.608
REMARK INTER + INTRA:          -6.796
REMARK INTER:                  -6.417
REMARK INTRA:                  -0.379
REMARK UNBOUND:                -0.400
REMARK SMILES O=C([O-])CCCCCCCC(=O)[O-]
REMARK SMILES IDX 7 1 6 2 5 3 4 4 2 5 1 6 3 7 8 8 9 9 10 10 11 11 12 12 13 13
REMARK H PARENT
REMARK Flexibility Score: inf
ROOT
ATOM      1  C   UNL     1      31.161  -5.231 -15.722  1.00  0.00     0.000 C 
ENDROOT
BRANCH   1   2
ATOM      2  C   UNL     1      30.160  -6.336 -15.365  1.00  0.00     0.000 C 
BRANCH   2   3
ATOM      3  C   UNL     1      29.657  -6.181 -13.925  1.00  0.00     0.006 C 
BRANCH   3   4
ATOM      4  C   UNL     1      30.428  -7.098 -12.972  1.00  0.00     0.053 C 
BRANCH   4   5
ATOM      5  C   UNL     1      31.454  -6.319 -12.211  1.00  0.00     0.041 C 
ATOM      6  O   UNL     1      31.227  -5.126 -11.879  1.00  0.00    -0.550 OA
ATOM      7  O   UNL     1      32.683  -6.895 -11.911  1.00  0.00    -0.550 OA
ENDBRANCH   4   5
ENDBRANCH   3   4
ENDBRANCH   2   3
ENDBRANCH   1   2
BRANCH   1   8
ATOM      8  C   UNL     1      32.514  -5.826 -16.136  1.00  0.00     0.000 C 
BRANCH   8   9
ATOM      9  C   UNL     1      33.239  -4.990 -17.206  1.00  0.00     0.006 C 
BRANCH   9  10
ATOM     10  C   UNL     1      34.414  -5.722 -17.879  1.00  0.00     0.053 C 
BRANCH  10  11
ATOM     11  C   UNL     1      35.737  -5.385 -17.261  1.00  0.00     0.041 C 
ATOM     12  O   UNL     1      36.458  -6.292 -16.769  1.00  0.00    -0.550 OA
ATOM     13  O   UNL     1      36.188  -4.071 -17.257  1.00  0.00    -0.550 OA
ENDBRANCH  10  11
ENDBRANCH   9  10
ENDBRANCH   8   9
ENDBRANCH   1   8
TORSDOF 8
ENDMDL
MODEL 4
REMARK VINA RESULT:    -4.257      4.694      5.815
REMARK INTER + INTRA:          -6.648
REMARK INTER:                  -6.321
REMARK INTRA:                  -0.326
REMARK UNBOUND:                -0.400
REMARK SMILES O=C([O-])CCCCCCCC(=O)[O-]
REMARK SMILES IDX 7 1 6 2 5 3 4 4 2 5 1 6 3 7 8 8 9 9 10 10 11 11 12 12 13 13
REMARK H PARENT
REMARK Flexibility Score: inf
ROOT
ATOM      1  C   UNL     1      32.520  -5.788 -16.122  1.00  0.00     0.000 C 
ENDROOT
BRANCH   1   2
ATOM      2  C   UNL     1      33.073  -4.976 -17.298  1.00  0.00     0.000 C 
BRANCH   2   3
ATOM      3  C   UNL     1      34.441  -5.508 -17.741  1.00  0.00     0.006 C 
BRANCH   3   4
ATOM      4  C   UNL     1      35.420  -5.556 -16.564  1.00  0.00     0.053 C 
BRANCH   4   5
ATOM      5  C   UNL     1      36.736  -4.963 -16.953  1.00  0.00     0.041 C 
ATOM      6  O   UNL     1      37.810  -5.502 -16.578  1.00  0.00    -0.550 OA
ATOM      7  O   UNL     1      36.778  -3.786 -17.691  1.00  0.00    -0.550 OA
ENDBRANCH   4   5
ENDBRANCH   3   4
ENDBRANCH   2   3
ENDBRANCH   1   2
BRANCH   1   8
ATOM      8  C   UNL     1      31.110  -5.315 -15.739  1.00  0.00     0.000 C 
BRANCH   8   9
ATOM      9  C   UNL     1      30.151  -6.475 -15.414  1.00  0.00     0.006 C 
BRANCH   9  10
ATOM     10  C   UNL     1      29.422  -6.323 -14.068  1.00  0.00     0.053 C 
BRANCH  10  11
ATOM     11  C   UNL     1      30.327  -5.864 -12.966  1.00  0.00     0.041 C 
ATOM     12  O   UNL     1      30.171  -4.728 -12.445  1.00  0.00    -0.550 OA
ATOM     13  O   UNL     1      31.327  -6.704 -12.492  1.00  0.00    -0.550 OA
ENDBRANCH  10  11
ENDBRANCH   9  10
ENDBRANCH   8   9
ENDBRANCH   1   8
TORSDOF 8
ENDMDL
MODEL 5
REMARK VINA RESULT:    -4.196      4.737      5.665
REMARK INTER + INTRA:          -6.559
REMARK INTER:                  -6.403
REMARK INTRA:                  -0.156
REMARK UNBOUND:                -0.400
REMARK SMILES O=C([O-])CCCCCCCC(=O)[O-]
REMARK SMILES IDX 7 1 6 2 5 3 4 4 2 5 1 6 3 7 8 8 9 9 10 10 11 11 12 12 13 13
REMARK H PARENT
REMARK Flexibility Score: inf
ROOT
ATOM      1  C   UNL     1      31.853  -5.127 -16.578  1.00  0.00     0.000 C 
ENDROOT
BRANCH   1   2
ATOM      2  C   UNL     1      31.106  -5.574 -15.317  1.00  0.00     0.000 C 
BRANCH   2   3
ATOM      3  C   UNL     1      30.098  -6.684 -15.636  1.00  0.00     0.006 C 
BRANCH   3   4
ATOM      4  C   UNL     1      29.980  -7.671 -14.471  1.00  0.00     0.053 C 
BRANCH   4   5
ATOM      5  C   UNL     1      29.912  -6.939 -13.169  1.00  0.00     0.041 C 
ATOM      6  O   UNL     1      28.878  -6.291 -12.860  1.00  0.00    -0.550 OA
ATOM      7  O   UNL     1      31.009  -6.933 -12.317  1.00  0.00    -0.550 OA
ENDBRANCH   4   5
ENDBRANCH   3   4
ENDBRANCH   2   3
ENDBRANCH   1   2
BRANCH   1   8
ATOM      8  C   UNL     1      33.339  -5.506 -16.503  1.00  0.00     0.000 C 
BRANCH   8   9
ATOM      9  C   UNL     1      34.113  -5.176 -17.793  1.00  0.00     0.006 C 
BRANCH   9  10
ATOM     10  C   UNL     1      35.539  -5.753 -17.829  1.00  0.00     0.053 C 
BRANCH  10  11
ATOM     11  C   UNL     1      36.561  -4.808 -17.274  1.00  0.00     0.041 C 
ATOM     12  O   UNL     1      36.597  -3.611 -17.663  1.00  0.00    -0.550 OA
ATOM     13  O   UNL     1      37.455  -5.242 -16.303  1.00  0.00    -0.550 OA
ENDBRANCH  10  11
ENDBRANCH   9  10
ENDBRANCH   8   9
ENDBRANCH   1   8
TORSDOF 8
ENDMDL
MODEL 6
REMARK VINA RESULT:    -3.982      1.015      1.353
REMARK INTER + INTRA:          -6.245
REMARK INTER:                  -5.928
REMARK INTRA:                  -0.317
REMARK UNBOUND:                -0.400
REMARK SMILES O=C([O-])CCCCCCCC(=O)[O-]
REMARK SMILES IDX 7 1 6 2 5 3 4 4 2 5 1 6 3 7 8 8 9 9 10 10 11 11 12 12 13 13
REMARK H PARENT
REMARK Flexibility Score: inf
ROOT
ATOM      1  C   UNL     1      30.069  -5.338 -14.369  1.00  0.00     0.000 C 
ENDROOT
BRANCH   1   2
ATOM      2  C   UNL     1      29.686  -6.623 -15.113  1.00  0.00     0.000 C 
BRANCH   2   3
ATOM      3  C   UNL     1      30.075  -7.865 -14.304  1.00  0.00     0.006 C 
BRANCH   3   4
ATOM      4  C   UNL     1      29.440  -9.128 -14.895  1.00  0.00     0.053 C 
BRANCH   4   5
ATOM      5  C   UNL     1      29.591  -9.142 -16.383  1.00  0.00     0.041 C 
ATOM      6  O   UNL     1      30.723  -9.324 -16.904  1.00  0.00    -0.550 OA
ATOM      7  O   UNL     1      28.489  -8.905 -17.196  1.00  0.00    -0.550 OA
ENDBRANCH   4   5
ENDBRANCH   3   4
ENDBRANCH   2   3
ENDBRANCH   1   2
BRANCH   1   8
ATOM      8  C   UNL     1      29.918  -5.513 -12.852  1.00  0.00     0.000 C 
BRANCH   8   9
ATOM      9  C   UNL     1      31.198  -5.160 -12.073  1.00  0.00     0.006 C 
BRANCH   9  10
ATOM     10  C   UNL     1      32.066  -6.379 -11.714  1.00  0.00     0.053 C 
BRANCH  10  11
ATOM     11  C   UNL     1      32.661  -6.283 -10.342  1.00  0.00     0.041 C 
ATOM     12  O   UNL     1      32.275  -5.391  -9.542  1.00  0.00    -0.550 OA
ATOM     13  O   UNL     1      33.622  -7.201  -9.935  1.00  0.00    -0.550 OA
ENDBRANCH  10  11
ENDBRANCH   9  10
ENDBRANCH   8   9
ENDBRANCH   1   8
TORSDOF 8
ENDMDL
MODEL 7
REMARK VINA RESULT:    -3.668      1.302      6.571
REMARK INTER + INTRA:          -5.784
REMARK INTER:                  -5.464
REMARK INTRA:                  -0.320
REMARK UNBOUND:                -0.400
REMARK SMILES O=C([O-])CCCCCCCC(=O)[O-]
REMARK SMILES IDX 7 1 6 2 5 3 4 4 2 5 1 6 3 7 8 8 9 9 10 10 11 11 12 12 13 13
REMARK H PARENT
REMARK Flexibility Score: inf
ROOT
ATOM      1  C   UNL     1      29.709  -6.590 -15.384  1.00  0.00     0.000 C 
ENDROOT
BRANCH   1   2
ATOM      2  C   UNL     1      30.083  -5.626 -14.252  1.00  0.00     0.000 C 
BRANCH   2   3
ATOM      3  C   UNL     1      30.483  -6.391 -12.986  1.00  0.00     0.006 C 
BRANCH   3   4
ATOM      4  C   UNL     1      31.186  -5.469 -11.984  1.00  0.00     0.053 C 
BRANCH   4   5
ATOM      5  C   UNL     1      32.305  -6.191 -11.304  1.00  0.00     0.041 C 
ATOM      6  O   UNL     1      32.929  -7.104 -11.906  1.00  0.00    -0.550 OA
ATOM      7  O   UNL     1      32.629  -5.888  -9.987  1.00  0.00    -0.550 OA
ENDBRANCH   4   5
ENDBRANCH   3   4
ENDBRANCH   2   3
ENDBRANCH   1   2
BRANCH   1   8
ATOM      8  C   UNL     1      30.030  -8.041 -15.002  1.00  0.00     0.000 C 
BRANCH   8   9
ATOM      9  C   UNL     1      29.720  -9.045 -16.126  1.00  0.00     0.006 C 
BRANCH   9  10
ATOM     10  C   UNL     1      28.448  -8.714 -16.926  1.00  0.00     0.053 C 
BRANCH  10  11
ATOM     11  C   UNL     1      28.495  -9.232 -18.331  1.00  0.00     0.041 C 
ATOM     12  O   UNL     1      27.431  -9.387 -18.987  1.00  0.00    -0.550 OA
ATOM     13  O   UNL     1      29.717  -9.514 -18.929  1.00  0.00    -0.550 OA
ENDBRANCH  10  11
ENDBRANCH   9  10
ENDBRANCH   8   9
ENDBRANCH   1   8
TORSDOF 8
ENDMDL
MODEL 8
REMARK VINA RESULT:    -3.413      0.956      1.516
REMARK INTER + INTRA:          -5.410
REMARK INTER:                  -4.973
REMARK INTRA:                  -0.437
REMARK UNBOUND:                -0.400
REMARK SMILES O=C([O-])CCCCCCCC(=O)[O-]
REMARK SMILES IDX 7 1 6 2 5 3 4 4 2 5 1 6 3 7 8 8 9 9 10 10 11 11 12 12 13 13
REMARK H PARENT
REMARK Flexibility Score: inf
ROOT
ATOM      1  C   UNL     1      29.194  -7.315 -13.233  1.00  0.00     0.000 C 
ENDROOT
BRANCH   1   2
ATOM      2  C   UNL     1      29.944  -8.303 -14.134  1.00  0.00     0.000 C 
BRANCH   2   3
ATOM      3  C   UNL     1      29.659  -8.026 -15.614  1.00  0.00     0.006 C 
BRANCH   3   4
ATOM      4  C   UNL     1      29.934  -9.266 -16.469  1.00  0.00     0.053 C 
BRANCH   4   5
ATOM      5  C   UNL     1      29.129  -9.224 -17.729  1.00  0.00     0.041 C 
ATOM      6  O   UNL     1      27.888  -9.018 -17.681  1.00  0.00    -0.550 OA
ATOM      7  O   UNL     1      29.741  -9.458 -18.954  1.00  0.00    -0.550 OA
ENDBRANCH   4   5
ENDBRANCH   3   4
ENDBRANCH   2   3
ENDBRANCH   1   2
BRANCH   1   8
ATOM      8  C   UNL     1      29.285  -5.886 -13.785  1.00  0.00     0.000 C 
BRANCH   8   9
ATOM      9  C   UNL     1      30.504  -5.110 -13.255  1.00  0.00     0.006 C 
BRANCH   9  10
ATOM     10  C   UNL     1      30.761  -5.303 -11.750  1.00  0.00     0.053 C 
BRANCH  10  11
ATOM     11  C   UNL     1      32.041  -6.029 -11.468  1.00  0.00     0.041 C 
ATOM     12  O   UNL     1      32.585  -6.730 -12.362  1.00  0.00    -0.550 OA
ATOM     13  O   UNL     1      32.651  -5.907 -10.226  1.00  0.00    -0.550 OA
ENDBRANCH  10  11
ENDBRANCH   9  10
ENDBRANCH   8   9
ENDBRANCH   1   8
TORSDOF 8
ENDMDL
MODEL 9
REMARK VINA RESULT:    -3.158      2.239      2.778
REMARK INTER + INTRA:          -5.036
REMARK INTER:                  -4.999
REMARK INTRA:                  -0.037
REMARK UNBOUND:                -0.400
REMARK SMILES O=C([O-])CCCCCCCC(=O)[O-]
REMARK SMILES IDX 7 1 6 2 5 3 4 4 2 5 1 6 3 7 8 8 9 9 10 10 11 11 12 12 13 13
REMARK H PARENT
REMARK Flexibility Score: inf
ROOT
ATOM      1  C   UNL     1      29.349  -7.505 -12.839  1.00  0.00     0.000 C 
ENDROOT
BRANCH   1   2
ATOM      2  C   UNL     1      29.736  -8.085 -14.204  1.00  0.00     0.000 C 
BRANCH   2   3
ATOM      3  C   UNL     1      29.652  -7.018 -15.302  1.00  0.00     0.006 C 
BRANCH   3   4
ATOM      4  C   UNL     1      30.966  -6.929 -16.084  1.00  0.00     0.053 C 
BRANCH   4   5
ATOM      5  C   UNL     1      31.510  -5.537 -16.036  1.00  0.00     0.041 C 
ATOM      6  O   UNL     1      30.862  -4.622 -15.464  1.00  0.00    -0.550 OA
ATOM      7  O   UNL     1      32.712  -5.238 -16.666  1.00  0.00    -0.550 OA
ENDBRANCH   4   5
ENDBRANCH   3   4
ENDBRANCH   2   3
ENDBRANCH   1   2
BRANCH   1   8
ATOM      8  C   UNL     1      29.026  -6.008 -12.948  1.00  0.00     0.000 C 
BRANCH   8   9
ATOM      9  C   UNL     1      30.240  -5.105 -12.660  1.00  0.00     0.006 C 
BRANCH   9  10
ATOM     10  C   UNL     1      30.920  -5.388 -11.309  1.00  0.00     0.053 C 
BRANCH  10  11
ATOM     11  C   UNL     1      32.217  -6.124 -11.456  1.00  0.00     0.041 C 
ATOM     12  O   UNL     1      32.860  -6.490 -10.437  1.00  0.00    -0.550 OA
ATOM     13  O   UNL     1      32.702  -6.434 -12.721  1.00  0.00    -0.550 OA
ENDBRANCH  10  11
ENDBRANCH   9  10
ENDBRANCH   8   9
ENDBRANCH   1   8
TORSDOF 8
ENDMDL
