MODEL 1
REMARK VINA RESULT:    -2.637      0.000      0.000
REMARK INTER + INTRA:          -3.224
REMARK INTER:                  -3.099
REMARK INTRA:                  -0.124
REMARK UNBOUND:                -0.124
REMARK SMILES O=C([O-])CCC(=O)[O-]
REMARK SMILES IDX 4 1 2 2 1 3 3 4 5 5 6 6 7 7 8 8
REMARK H PARENT
REMARK Flexibility Score: inf
ROOT
ATOM      1  C   UNL     1       1.307 -50.933  11.009  1.00  0.00     0.059 C 
ENDROOT
BRANCH   1   2
ATOM      2  C   UNL     1       2.506 -50.272  10.399  1.00  0.00     0.042 C 
ATOM      3  O   UNL     1       3.281 -49.582  11.111  1.00  0.00    -0.550 OA
ATOM      4  O   UNL     1       2.788 -50.455   9.052  1.00  0.00    -0.550 OA
ENDBRANCH   1   2
BRANCH   1   5
ATOM      5  C   UNL     1       0.082 -50.013  10.982  1.00  0.00     0.059 C 
BRANCH   5   6
ATOM      6  C   UNL     1      -0.668 -50.131   9.689  1.00  0.00     0.042 C 
ATOM      7  O   UNL     1      -1.057 -49.097   9.085  1.00  0.00    -0.550 OA
ATOM      8  O   UNL     1      -0.900 -51.383   9.132  1.00  0.00    -0.550 OA
ENDBRANCH   5   6
ENDBRANCH   1   5
TORSDOF 3
ENDMDL
MODEL 2
REMARK VINA RESULT:    -2.592      0.185      3.688
REMARK INTER + INTRA:          -3.170
REMARK INTER:                  -3.060
REMARK INTRA:                  -0.111
REMARK UNBOUND:                -0.124
REMARK SMILES O=C([O-])CCC(=O)[O-]
REMARK SMILES IDX 4 1 2 2 1 3 3 4 5 5 6 6 7 7 8 8
REMARK H PARENT
REMARK Flexibility Score: inf
ROOT
ATOM      1  C   UNL     1       0.205 -50.190  11.025  1.00  0.00     0.059 C 
ENDROOT
BRANCH   1   2
ATOM      2  C   UNL     1      -0.528 -50.252   9.720  1.00  0.00     0.042 C 
ATOM      3  O   UNL     1      -0.648 -51.346   9.111  1.00  0.00    -0.550 OA
ATOM      4  O   UNL     1      -1.114 -49.106   9.198  1.00  0.00    -0.550 OA
ENDBRANCH   1   2
BRANCH   1   5
ATOM      5  C   UNL     1       1.456 -51.075  11.012  1.00  0.00     0.059 C 
BRANCH   5   6
ATOM      6  C   UNL     1       2.619 -50.378  10.373  1.00  0.00     0.042 C 
ATOM      7  O   UNL     1       2.857 -50.535   9.147  1.00  0.00    -0.550 OA
ATOM      8  O   UNL     1       3.414 -49.521  11.125  1.00  0.00    -0.550 OA
ENDBRANCH   5   6
ENDBRANCH   1   5
TORSDOF 3
ENDMDL
MODEL 3
REMARK VINA RESULT:    -2.577      0.105      1.620
REMARK INTER + INTRA:          -3.154
REMARK INTER:                  -3.060
REMARK INTRA:                  -0.093
REMARK UNBOUND:                -0.124
REMARK SMILES O=C([O-])CCC(=O)[O-]
REMARK SMILES IDX 4 1 2 2 1 3 3 4 5 5 6 6 7 7 8 8
REMARK H PARENT
REMARK Flexibility Score: inf
ROOT
ATOM      1  C   UNL     1       1.283 -50.951  11.016  1.00  0.00     0.059 C 
ENDROOT
BRANCH   1   2
ATOM      2  C   UNL     1       2.466 -50.298  10.369  1.00  0.00     0.042 C 
ATOM      3  O   UNL     1       2.665 -50.428   9.133  1.00  0.00    -0.550 OA
ATOM      4  O   UNL     1       3.326 -49.511  11.125  1.00  0.00    -0.550 OA
ENDBRANCH   1   2
BRANCH   1   5
ATOM      5  C   UNL     1       0.040 -50.059  10.949  1.00  0.00     0.059 C 
BRANCH   5   6
ATOM      6  C   UNL     1      -0.694 -50.232   9.653  1.00  0.00     0.042 C 
ATOM      7  O   UNL     1      -0.961 -51.385   9.224  1.00  0.00    -0.550 OA
ATOM      8  O   UNL     1      -1.119 -49.117   8.941  1.00  0.00    -0.550 OA
ENDBRANCH   5   6
ENDBRANCH   1   5
TORSDOF 3
ENDMDL
MODEL 4
REMARK VINA RESULT:    -2.351      4.995      7.200
REMARK INTER + INTRA:          -2.887
REMARK INTER:                  -2.857
REMARK INTRA:                  -0.030
REMARK UNBOUND:                -0.124
REMARK SMILES O=C([O-])CCC(=O)[O-]
REMARK SMILES IDX 4 1 2 2 1 3 3 4 5 5 6 6 7 7 8 8
REMARK H PARENT
REMARK Flexibility Score: inf
ROOT
ATOM      1  C   UNL     1       5.695 -53.350  10.181  1.00  0.00     0.059 C 
ENDROOT
BRANCH   1   2
ATOM      2  C   UNL     1       4.286 -53.270  10.684  1.00  0.00     0.042 C 
ATOM      3  O   UNL     1       3.707 -54.299  11.119  1.00  0.00    -0.550 OA
ATOM      4  O   UNL     1       3.628 -52.047  10.711  1.00  0.00    -0.550 OA
ENDBRANCH   1   2
BRANCH   1   5
ATOM      5  C   UNL     1       6.673 -52.642  11.125  1.00  0.00     0.059 C 
BRANCH   5   6
ATOM      6  C   UNL     1       8.084 -52.739  10.631  1.00  0.00     0.042 C 
ATOM      7  O   UNL     1       8.483 -53.781  10.049  1.00  0.00    -0.550 OA
ATOM      8  O   UNL     1       8.947 -51.660  10.780  1.00  0.00    -0.550 OA
ENDBRANCH   5   6
ENDBRANCH   1   5
TORSDOF 3
ENDMDL
MODEL 5
REMARK VINA RESULT:    -2.289      4.960      6.165
REMARK INTER + INTRA:          -2.815
REMARK INTER:                  -2.781
REMARK INTRA:                  -0.033
REMARK UNBOUND:                -0.124
REMARK SMILES O=C([O-])CCC(=O)[O-]
REMARK SMILES IDX 4 1 2 2 1 3 3 4 5 5 6 6 7 7 8 8
REMARK H PARENT
REMARK Flexibility Score: inf
ROOT
ATOM      1  C   UNL     1       6.423 -53.230  10.013  1.00  0.00     0.059 C 
ENDROOT
BRANCH   1   2
ATOM      2  C   UNL     1       7.880 -53.188  10.358  1.00  0.00     0.042 C 
ATOM      3  O   UNL     1       8.578 -54.234  10.292  1.00  0.00    -0.550 OA
ATOM      4  O   UNL     1       8.476 -51.985  10.712  1.00  0.00    -0.550 OA
ENDBRANCH   1   2
BRANCH   1   5
ATOM      5  C   UNL     1       5.563 -52.609  11.120  1.00  0.00     0.059 C 
BRANCH   5   6
ATOM      6  C   UNL     1       4.144 -53.086  11.050  1.00  0.00     0.042 C 
ATOM      7  O   UNL     1       3.892 -54.317  10.977  1.00  0.00    -0.550 OA
ATOM      8  O   UNL     1       3.100 -52.171  11.108  1.00  0.00    -0.550 OA
ENDBRANCH   5   6
ENDBRANCH   1   5
TORSDOF 3
ENDMDL
MODEL 6
REMARK VINA RESULT:    -2.248      2.802      4.631
REMARK INTER + INTRA:          -2.766
REMARK INTER:                  -2.739
REMARK INTRA:                  -0.027
REMARK UNBOUND:                -0.124
REMARK SMILES O=C([O-])CCC(=O)[O-]
REMARK SMILES IDX 4 1 2 2 1 3 3 4 5 5 6 6 7 7 8 8
REMARK H PARENT
REMARK Flexibility Score: inf
ROOT
ATOM      1  C   UNL     1       3.292 -51.240   9.834  1.00  0.00     0.059 C 
ENDROOT
BRANCH   1   2
ATOM      2  C   UNL     1       2.122 -50.407  10.264  1.00  0.00     0.042 C 
ATOM      3  O   UNL     1       2.273 -49.492  11.114  1.00  0.00    -0.550 OA
ATOM      4  O   UNL     1       0.874 -50.617   9.692  1.00  0.00    -0.550 OA
ENDBRANCH   1   2
BRANCH   1   5
ATOM      5  C   UNL     1       3.917 -51.988  11.016  1.00  0.00     0.059 C 
BRANCH   5   6
ATOM      6  C   UNL     1       4.548 -53.276  10.583  1.00  0.00     0.042 C 
ATOM      7  O   UNL     1       4.086 -54.375  10.985  1.00  0.00    -0.550 OA
ATOM      8  O   UNL     1       5.622 -53.261   9.702  1.00  0.00    -0.550 OA
ENDBRANCH   5   6
ENDBRANCH   1   5
TORSDOF 3
ENDMDL
MODEL 7
REMARK VINA RESULT:    -2.195      3.083      3.980
REMARK INTER + INTRA:          -2.704
REMARK INTER:                  -2.672
REMARK INTRA:                  -0.032
REMARK UNBOUND:                -0.124
REMARK SMILES O=C([O-])CCC(=O)[O-]
REMARK SMILES IDX 4 1 2 2 1 3 3 4 5 5 6 6 7 7 8 8
REMARK H PARENT
REMARK Flexibility Score: inf
ROOT
ATOM      1  C   UNL     1       4.131 -52.403  10.139  1.00  0.00     0.059 C 
ENDROOT
BRANCH   1   2
ATOM      2  C   UNL     1       4.710 -53.597  10.835  1.00  0.00     0.042 C 
ATOM      3  O   UNL     1       3.979 -54.579  11.125  1.00  0.00    -0.550 OA
ATOM      4  O   UNL     1       6.068 -53.641  11.125  1.00  0.00    -0.550 OA
ENDBRANCH   1   2
BRANCH   1   5
ATOM      5  C   UNL     1       3.390 -51.485  11.117  1.00  0.00     0.059 C 
BRANCH   5   6
ATOM      6  C   UNL     1       2.490 -50.526  10.399  1.00  0.00     0.042 C 
ATOM      7  O   UNL     1       1.617 -49.879  11.034  1.00  0.00    -0.550 OA
ATOM      8  O   UNL     1       2.645 -50.317   9.034  1.00  0.00    -0.550 OA
ENDBRANCH   5   6
ENDBRANCH   1   5
TORSDOF 3
ENDMDL
MODEL 8
REMARK VINA RESULT:    -1.730      2.163      2.443
REMARK INTER + INTRA:          -2.158
REMARK INTER:                  -2.047
REMARK INTRA:                  -0.111
REMARK UNBOUND:                -0.124
REMARK SMILES O=C([O-])CCC(=O)[O-]
REMARK SMILES IDX 4 1 2 2 1 3 3 4 5 5 6 6 7 7 8 8
REMARK H PARENT
REMARK Flexibility Score: inf
ROOT
ATOM      1  C   UNL     1       3.239 -50.715  10.742  1.00  0.00     0.059 C 
ENDROOT
BRANCH   1   2
ATOM      2  C   UNL     1       3.857 -52.064  10.947  1.00  0.00     0.042 C 
ATOM      3  O   UNL     1       5.109 -52.188  10.997  1.00  0.00    -0.550 OA
ATOM      4  O   UNL     1       3.048 -53.179  11.125  1.00  0.00    -0.550 OA
ENDBRANCH   1   2
BRANCH   1   5
ATOM      5  C   UNL     1       2.182 -50.742   9.633  1.00  0.00     0.059 C 
BRANCH   5   6
ATOM      6  C   UNL     1       0.803 -50.525  10.180  1.00  0.00     0.042 C 
ATOM      7  O   UNL     1       0.111 -49.551   9.785  1.00  0.00    -0.550 OA
ATOM      8  O   UNL     1       0.270 -51.423  11.095  1.00  0.00    -0.550 OA
ENDBRANCH   5   6
ENDBRANCH   1   5
TORSDOF 3
ENDMDL
MODEL 9
REMARK VINA RESULT:    -0.287      1.006      3.635
REMARK INTER + INTRA:          -0.461
REMARK INTER:                  -0.326
REMARK INTRA:                  -0.135
REMARK UNBOUND:                -0.124
REMARK SMILES O=C([O-])CCC(=O)[O-]
REMARK SMILES IDX 4 1 2 2 1 3 3 4 5 5 6 6 7 7 8 8
REMARK H PARENT
REMARK Flexibility Score: inf
ROOT
ATOM      1  C   UNL     1      -0.198 -50.831  10.129  1.00  0.00     0.059 C 
ENDROOT
BRANCH   1   2
ATOM      2  C   UNL     1      -0.826 -49.477   9.988  1.00  0.00     0.042 C 
ATOM      3  O   UNL     1      -1.125 -49.032   8.849  1.00  0.00    -0.550 OA
ATOM      4  O   UNL     1      -1.118 -48.726  11.118  1.00  0.00    -0.550 OA
ENDBRANCH   1   2
BRANCH   1   5
ATOM      5  C   UNL     1       1.015 -50.794  11.063  1.00  0.00     0.059 C 
BRANCH   5   6
ATOM      6  C   UNL     1       2.227 -50.244  10.373  1.00  0.00     0.042 C 
ATOM      7  O   UNL     1       3.089 -49.599  11.024  1.00  0.00    -0.550 OA
ATOM      8  O   UNL     1       2.422 -50.481   9.018  1.00  0.00    -0.550 OA
ENDBRANCH   5   6
ENDBRANCH   1   5
TORSDOF 3
ENDMDL
