MODEL 1
REMARK VINA RESULT:    -4.457      0.000      0.000
REMARK INTER + INTRA:          -8.261
REMARK INTER:                  -6.932
REMARK INTRA:                  -1.329
REMARK UNBOUND:                -1.329
REMARK SMILES COc1cc(CNC(=O)CCCCC=CC(C)C)ccc1O
REMARK SMILES IDX 11 1 12 2 13 3 14 4 15 5 16 6 17 7 18 8 10 9 8 10 9 11 7 12
REMARK SMILES IDX 6 14 5 15 4 16 19 17 3 18 20 19 21 20 2 21 1 22 22 23
REMARK H PARENT 7 13 22 24
REMARK Flexibility Score: inf
ROOT
ATOM      1  C   UNL     1     109.329 133.952 201.896  1.00  0.00     0.010 C 
ENDROOT
BRANCH   1   2
ATOM      2  C   UNL     1     109.739 133.531 200.477  1.00  0.00     0.005 C 
BRANCH   2   3
ATOM      3  C   UNL     1     108.547 133.504 199.506  1.00  0.00     0.027 C 
BRANCH   3   4
ATOM      4  C   UNL     1     107.461 134.445 199.960  1.00  0.00    -0.031 C 
ATOM      5  C   UNL     1     107.218 135.655 199.423  1.00  0.00    -0.028 C 
BRANCH   5   6
ATOM      6  C   UNL     1     107.964 136.256 198.249  1.00  0.00     0.005 C 
ATOM      7  C   UNL     1     107.057 137.246 197.514  1.00  0.00     0.012 C 
ATOM      8  C   UNL     1     109.233 136.953 198.748  1.00  0.00     0.012 C 
ENDBRANCH   5   6
ENDBRANCH   3   4
ENDBRANCH   2   3
ENDBRANCH   1   2
BRANCH   1   9
ATOM      9  C   UNL     1     109.775 132.939 202.958  1.00  0.00     0.100 C 
BRANCH   9  10
ATOM     10  C   UNL     1     108.583 132.294 203.597  1.00  0.00     0.220 C 
ATOM     11  O   UNL     1     108.546 132.160 204.850  1.00  0.00    -0.275 OA
ATOM     12  N   UNL     1     107.475 131.874 202.789  1.00  0.00    -0.352 N 
ATOM     13  H   UNL     1     107.501 132.051 201.759  1.00  0.00     0.163 HD
BRANCH  12  14
ATOM     14  C   UNL     1     106.301 131.210 203.352  1.00  0.00     0.151 C 
BRANCH  14  15
ATOM     15  C   UNL     1     105.259 131.003 202.284  1.00  0.00    -0.025 A 
ATOM     16  C   UNL     1     104.025 130.420 202.613  1.00  0.00     0.056 A 
ATOM     17  C   UNL     1     105.498 131.415 200.966  1.00  0.00     0.009 A 
ATOM     18  C   UNL     1     103.034 130.240 201.629  1.00  0.00     0.160 A 
ATOM     19  C   UNL     1     104.519 131.239 199.986  1.00  0.00     0.050 A 
ATOM     20  C   UNL     1     103.290 130.653 200.313  1.00  0.00     0.157 A 
BRANCH  18  21
ATOM     21  O   UNL     1     101.788 129.662 201.918  1.00  0.00    -0.493 OA
ATOM     22  C   UNL     1     100.938 130.071 202.985  1.00  0.00     0.278 C 
ENDBRANCH  18  21
BRANCH  20  23
ATOM     23  O   UNL     1     102.313 130.478 199.333  1.00  0.00    -0.504 OA
ATOM     24  H   UNL     1     102.459 129.863 198.542  1.00  0.00     0.293 HD
ENDBRANCH  20  23
ENDBRANCH  14  15
ENDBRANCH  12  14
ENDBRANCH   9  10
ENDBRANCH   1   9
TORSDOF 10
ENDMDL
MODEL 2
REMARK VINA RESULT:    -4.331      4.953      8.562
REMARK INTER + INTRA:          -8.065
REMARK INTER:                  -6.535
REMARK INTRA:                  -1.530
REMARK UNBOUND:                -1.329
REMARK SMILES COc1cc(CNC(=O)CCCCC=CC(C)C)ccc1O
REMARK SMILES IDX 11 1 12 2 13 3 14 4 15 5 16 6 17 7 18 8 10 9 8 10 9 11 7 12
REMARK SMILES IDX 6 14 5 15 4 16 19 17 3 18 20 19 21 20 2 21 1 22 22 23
REMARK H PARENT 7 13 22 24
REMARK Flexibility Score: inf
ROOT
ATOM      1  C   UNL     1     107.699 135.250 199.925  1.00  0.00     0.010 C 
ENDROOT
BRANCH   1   2
ATOM      2  C   UNL     1     107.091 136.341 199.030  1.00  0.00     0.005 C 
BRANCH   2   3
ATOM      3  C   UNL     1     107.903 136.563 197.744  1.00  0.00     0.027 C 
BRANCH   3   4
ATOM      4  C   UNL     1     108.212 138.025 197.548  1.00  0.00    -0.031 C 
ATOM      5  C   UNL     1     109.304 138.651 198.028  1.00  0.00    -0.028 C 
BRANCH   5   6
ATOM      6  C   UNL     1     110.421 137.986 198.805  1.00  0.00     0.005 C 
ATOM      7  C   UNL     1     111.341 137.232 197.841  1.00  0.00     0.012 C 
ATOM      8  C   UNL     1     111.206 139.043 199.587  1.00  0.00     0.012 C 
ENDBRANCH   5   6
ENDBRANCH   3   4
ENDBRANCH   2   3
ENDBRANCH   1   2
BRANCH   1   9
ATOM      9  C   UNL     1     109.034 134.724 199.382  1.00  0.00     0.100 C 
BRANCH   9  10
ATOM     10  C   UNL     1     109.933 134.319 200.510  1.00  0.00     0.220 C 
ATOM     11  O   UNL     1     109.465 133.644 201.465  1.00  0.00    -0.275 OA
ATOM     12  N   UNL     1     111.325 134.660 200.475  1.00  0.00    -0.352 N 
ATOM     13  H   UNL     1     111.704 135.167 199.643  1.00  0.00     0.163 HD
BRANCH  12  14
ATOM     14  C   UNL     1     112.244 134.320 201.560  1.00  0.00     0.151 C 
BRANCH  14  15
ATOM     15  C   UNL     1     112.824 135.571 202.163  1.00  0.00    -0.025 A 
ATOM     16  C   UNL     1     112.915 135.699 203.558  1.00  0.00     0.056 A 
ATOM     17  C   UNL     1     113.303 136.602 201.343  1.00  0.00     0.009 A 
ATOM     18  C   UNL     1     113.475 136.856 204.135  1.00  0.00     0.160 A 
ATOM     19  C   UNL     1     113.859 137.751 201.909  1.00  0.00     0.050 A 
ATOM     20  C   UNL     1     113.945 137.881 203.302  1.00  0.00     0.157 A 
BRANCH  18  21
ATOM     21  O   UNL     1     113.584 137.021 205.525  1.00  0.00    -0.493 OA
ATOM     22  C   UNL     1     112.526 136.787 206.449  1.00  0.00     0.278 C 
ENDBRANCH  18  21
BRANCH  20  23
ATOM     23  O   UNL     1     114.501 139.029 203.866  1.00  0.00    -0.504 OA
ATOM     24  H   UNL     1     114.787 139.057 204.837  1.00  0.00     0.293 HD
ENDBRANCH  20  23
ENDBRANCH  14  15
ENDBRANCH  12  14
ENDBRANCH   9  10
ENDBRANCH   1   9
TORSDOF 10
ENDMDL
MODEL 3
REMARK VINA RESULT:    -4.314      1.979      3.546
REMARK INTER + INTRA:          -8.039
REMARK INTER:                  -7.095
REMARK INTRA:                  -0.943
REMARK UNBOUND:                -1.329
REMARK SMILES COc1cc(CNC(=O)CCCCC=CC(C)C)ccc1O
REMARK SMILES IDX 11 1 12 2 13 3 14 4 15 5 16 6 17 7 18 8 10 9 8 10 9 11 7 12
REMARK SMILES IDX 6 14 5 15 4 16 19 17 3 18 20 19 21 20 2 21 1 22 22 23
REMARK H PARENT 7 13 22 24
REMARK Flexibility Score: inf
ROOT
ATOM      1  C   UNL     1     108.657 135.180 198.660  1.00  0.00     0.010 C 
ENDROOT
BRANCH   1   2
ATOM      2  C   UNL     1     107.614 136.094 198.000  1.00  0.00     0.005 C 
BRANCH   2   3
ATOM      3  C   UNL     1     107.962 137.584 198.147  1.00  0.00     0.027 C 
BRANCH   3   4
ATOM      4  C   UNL     1     109.014 137.992 197.148  1.00  0.00    -0.031 C 
ATOM      5  C   UNL     1     110.180 138.588 197.461  1.00  0.00    -0.028 C 
BRANCH   5   6
ATOM      6  C   UNL     1     110.648 138.909 198.866  1.00  0.00     0.005 C 
ATOM      7  C   UNL     1     111.237 137.652 199.512  1.00  0.00     0.012 C 
ATOM      8  C   UNL     1     111.689 140.031 198.819  1.00  0.00     0.012 C 
ENDBRANCH   5   6
ENDBRANCH   3   4
ENDBRANCH   2   3
ENDBRANCH   1   2
BRANCH   1   9
ATOM      9  C   UNL     1     108.337 134.895 200.133  1.00  0.00     0.100 C 
BRANCH   9  10
ATOM     10  C   UNL     1     108.190 133.421 200.360  1.00  0.00     0.220 C 
ATOM     11  O   UNL     1     108.317 132.627 199.389  1.00  0.00    -0.275 OA
ATOM     12  N   UNL     1     107.951 132.919 201.682  1.00  0.00    -0.352 N 
ATOM     13  H   UNL     1     107.912 133.591 202.481  1.00  0.00     0.163 HD
BRANCH  12  14
ATOM     14  C   UNL     1     107.768 131.496 201.960  1.00  0.00     0.151 C 
BRANCH  14  15
ATOM     15  C   UNL     1     106.303 131.174 202.083  1.00  0.00    -0.025 A 
ATOM     16  C   UNL     1     105.501 131.105 200.933  1.00  0.00     0.056 A 
ATOM     17  C   UNL     1     105.733 130.913 203.337  1.00  0.00     0.009 A 
ATOM     18  C   UNL     1     104.133 130.784 201.032  1.00  0.00     0.160 A 
ATOM     19  C   UNL     1     104.378 130.594 203.442  1.00  0.00     0.050 A 
ATOM     20  C   UNL     1     103.577 130.530 202.294  1.00  0.00     0.157 A 
BRANCH  18  21
ATOM     21  O   UNL     1     103.300 130.704 199.906  1.00  0.00    -0.493 OA
ATOM     22  C   UNL     1     103.307 129.629 198.972  1.00  0.00     0.278 C 
ENDBRANCH  18  21
BRANCH  20  23
ATOM     23  O   UNL     1     102.224 130.212 202.400  1.00  0.00    -0.504 OA
ATOM     24  H   UNL     1     101.644 130.598 203.135  1.00  0.00     0.293 HD
ENDBRANCH  20  23
ENDBRANCH  14  15
ENDBRANCH  12  14
ENDBRANCH   9  10
ENDBRANCH   1   9
TORSDOF 10
ENDMDL
MODEL 4
REMARK VINA RESULT:    -4.307      5.518      9.110
REMARK INTER + INTRA:          -8.028
REMARK INTER:                  -6.427
REMARK INTRA:                  -1.601
REMARK UNBOUND:                -1.329
REMARK SMILES COc1cc(CNC(=O)CCCCC=CC(C)C)ccc1O
REMARK SMILES IDX 11 1 12 2 13 3 14 4 15 5 16 6 17 7 18 8 10 9 8 10 9 11 7 12
REMARK SMILES IDX 6 14 5 15 4 16 19 17 3 18 20 19 21 20 2 21 1 22 22 23
REMARK H PARENT 7 13 22 24
REMARK Flexibility Score: inf
ROOT
ATOM      1  C   UNL     1     107.795 136.716 197.855  1.00  0.00     0.010 C 
ENDROOT
BRANCH   1   2
ATOM      2  C   UNL     1     106.991 136.317 199.102  1.00  0.00     0.005 C 
BRANCH   2   3
ATOM      3  C   UNL     1     107.477 134.994 199.715  1.00  0.00     0.027 C 
BRANCH   3   4
ATOM      4  C   UNL     1     108.976 134.873 199.617  1.00  0.00    -0.031 C 
ATOM      5  C   UNL     1     109.777 134.430 200.605  1.00  0.00    -0.028 C 
BRANCH   5   6
ATOM      6  C   UNL     1     109.306 133.942 201.960  1.00  0.00     0.005 C 
ATOM      7  C   UNL     1     108.949 132.456 201.875  1.00  0.00     0.012 C 
ATOM      8  C   UNL     1     110.402 134.177 203.002  1.00  0.00     0.012 C 
ENDBRANCH   5   6
ENDBRANCH   3   4
ENDBRANCH   2   3
ENDBRANCH   1   2
BRANCH   1   9
ATOM      9  C   UNL     1     108.066 138.224 197.791  1.00  0.00     0.100 C 
BRANCH   9  10
ATOM     10  C   UNL     1     109.533 138.498 197.919  1.00  0.00     0.220 C 
ATOM     11  O   UNL     1     110.294 138.275 196.939  1.00  0.00    -0.275 OA
ATOM     12  N   UNL     1     110.057 139.051 199.134  1.00  0.00    -0.352 N 
ATOM     13  H   UNL     1     109.398 139.286 199.911  1.00  0.00     0.163 HD
BRANCH  12  14
ATOM     14  C   UNL     1     111.482 139.309 199.328  1.00  0.00     0.151 C 
BRANCH  14  15
ATOM     15  C   UNL     1     112.127 138.152 200.044  1.00  0.00    -0.025 A 
ATOM     16  C   UNL     1     112.250 138.174 201.442  1.00  0.00     0.056 A 
ATOM     17  C   UNL     1     112.583 137.036 199.329  1.00  0.00     0.009 A 
ATOM     18  C   UNL     1     112.832 137.089 202.126  1.00  0.00     0.160 A 
ATOM     19  C   UNL     1     113.161 135.957 200.001  1.00  0.00     0.050 A 
ATOM     20  C   UNL     1     113.288 135.981 201.396  1.00  0.00     0.157 A 
BRANCH  18  21
ATOM     21  O   UNL     1     112.972 137.073 203.523  1.00  0.00    -0.493 OA
ATOM     22  C   UNL     1     114.002 137.750 204.237  1.00  0.00     0.278 C 
ENDBRANCH  18  21
BRANCH  20  23
ATOM     23  O   UNL     1     113.865 134.904 202.067  1.00  0.00    -0.504 OA
ATOM     24  H   UNL     1     113.831 134.827 203.076  1.00  0.00     0.293 HD
ENDBRANCH  20  23
ENDBRANCH  14  15
ENDBRANCH  12  14
ENDBRANCH   9  10
ENDBRANCH   1   9
TORSDOF 10
ENDMDL
MODEL 5
REMARK VINA RESULT:    -4.265      5.320      8.973
REMARK INTER + INTRA:          -7.963
REMARK INTER:                  -6.624
REMARK INTRA:                  -1.339
REMARK UNBOUND:                -1.329
REMARK SMILES COc1cc(CNC(=O)CCCCC=CC(C)C)ccc1O
REMARK SMILES IDX 11 1 12 2 13 3 14 4 15 5 16 6 17 7 18 8 10 9 8 10 9 11 7 12
REMARK SMILES IDX 6 14 5 15 4 16 19 17 3 18 20 19 21 20 2 21 1 22 22 23
REMARK H PARENT 7 13 22 24
REMARK Flexibility Score: inf
ROOT
ATOM      1  C   UNL     1     109.491 138.130 198.436  1.00  0.00     0.010 C 
ENDROOT
BRANCH   1   2
ATOM      2  C   UNL     1     108.211 137.986 197.600  1.00  0.00     0.005 C 
BRANCH   2   3
ATOM      3  C   UNL     1     107.593 136.583 197.710  1.00  0.00     0.027 C 
BRANCH   3   4
ATOM      4  C   UNL     1     107.098 136.320 199.109  1.00  0.00    -0.031 C 
ATOM      5  C   UNL     1     107.481 135.282 199.877  1.00  0.00    -0.028 C 
BRANCH   5   6
ATOM      6  C   UNL     1     108.500 134.232 199.483  1.00  0.00     0.005 C 
ATOM      7  C   UNL     1     109.896 134.680 199.923  1.00  0.00     0.012 C 
ATOM      8  C   UNL     1     108.134 132.892 200.126  1.00  0.00     0.012 C 
ENDBRANCH   5   6
ENDBRANCH   3   4
ENDBRANCH   2   3
ENDBRANCH   1   2
BRANCH   1   9
ATOM      9  C   UNL     1     110.643 138.757 197.639  1.00  0.00     0.100 C 
BRANCH   9  10
ATOM     10  C   UNL     1     111.951 138.501 198.323  1.00  0.00     0.220 C 
ATOM     11  O   UNL     1     112.759 139.453 198.494  1.00  0.00    -0.275 OA
ATOM     12  N   UNL     1     112.258 137.190 198.817  1.00  0.00    -0.352 N 
ATOM     13  H   UNL     1     111.547 136.430 198.719  1.00  0.00     0.163 HD
BRANCH  12  14
ATOM     14  C   UNL     1     113.530 136.873 199.463  1.00  0.00     0.151 C 
BRANCH  14  15
ATOM     15  C   UNL     1     113.413 137.045 200.954  1.00  0.00    -0.025 A 
ATOM     16  C   UNL     1     112.841 136.027 201.734  1.00  0.00     0.056 A 
ATOM     17  C   UNL     1     113.898 138.203 201.579  1.00  0.00     0.009 A 
ATOM     18  C   UNL     1     112.746 136.166 203.132  1.00  0.00     0.160 A 
ATOM     19  C   UNL     1     113.805 138.346 202.964  1.00  0.00     0.050 A 
ATOM     20  C   UNL     1     113.230 137.332 203.742  1.00  0.00     0.157 A 
BRANCH  18  21
ATOM     21  O   UNL     1     112.181 135.171 203.946  1.00  0.00    -0.493 OA
ATOM     22  C   UNL     1     110.782 134.986 204.139  1.00  0.00     0.278 C 
ENDBRANCH  18  21
BRANCH  20  23
ATOM     23  O   UNL     1     113.138 137.476 205.126  1.00  0.00    -0.504 OA
ATOM     24  H   UNL     1     113.571 138.255 205.608  1.00  0.00     0.293 HD
ENDBRANCH  20  23
ENDBRANCH  14  15
ENDBRANCH  12  14
ENDBRANCH   9  10
ENDBRANCH   1   9
TORSDOF 10
ENDMDL
MODEL 6
REMARK VINA RESULT:    -4.260      4.493      6.903
REMARK INTER + INTRA:          -7.955
REMARK INTER:                  -5.936
REMARK INTRA:                  -2.019
REMARK UNBOUND:                -1.329
REMARK SMILES COc1cc(CNC(=O)CCCCC=CC(C)C)ccc1O
REMARK SMILES IDX 11 1 12 2 13 3 14 4 15 5 16 6 17 7 18 8 10 9 8 10 9 11 7 12
REMARK SMILES IDX 6 14 5 15 4 16 19 17 3 18 20 19 21 20 2 21 1 22 22 23
REMARK H PARENT 7 13 22 24
REMARK Flexibility Score: inf
ROOT
ATOM      1  C   UNL     1     104.381 127.171 200.381  1.00  0.00     0.010 C 
ENDROOT
BRANCH   1   2
ATOM      2  C   UNL     1     103.615 127.501 199.091  1.00  0.00     0.005 C 
BRANCH   2   3
ATOM      3  C   UNL     1     104.021 128.860 198.497  1.00  0.00     0.027 C 
BRANCH   3   4
ATOM      4  C   UNL     1     103.152 129.965 199.040  1.00  0.00    -0.031 C 
ATOM      5  C   UNL     1     103.461 130.735 200.102  1.00  0.00    -0.028 C 
BRANCH   5   6
ATOM      6  C   UNL     1     104.746 130.647 200.900  1.00  0.00     0.005 C 
ATOM      7  C   UNL     1     105.709 131.747 200.447  1.00  0.00     0.012 C 
ATOM      8  C   UNL     1     104.436 130.780 202.393  1.00  0.00     0.012 C 
ENDBRANCH   5   6
ENDBRANCH   3   4
ENDBRANCH   2   3
ENDBRANCH   1   2
BRANCH   1   9
ATOM      9  C   UNL     1     103.663 126.119 201.235  1.00  0.00     0.100 C 
BRANCH   9  10
ATOM     10  C   UNL     1     102.197 126.421 201.312  1.00  0.00     0.220 C 
ATOM     11  O   UNL     1     101.369 125.610 200.817  1.00  0.00    -0.275 OA
ATOM     12  N   UNL     1     101.743 127.602 201.986  1.00  0.00    -0.352 N 
ATOM     13  H   UNL     1     102.444 128.228 202.443  1.00  0.00     0.163 HD
BRANCH  12  14
ATOM     14  C   UNL     1     100.329 127.966 202.066  1.00  0.00     0.151 C 
BRANCH  14  15
ATOM     15  C   UNL     1     100.028 129.096 201.118  1.00  0.00    -0.025 A 
ATOM     16  C   UNL     1      99.658 128.818 199.792  1.00  0.00     0.056 A 
ATOM     17  C   UNL     1     100.085 130.427 201.554  1.00  0.00     0.009 A 
ATOM     18  C   UNL     1      99.352 129.865 198.901  1.00  0.00     0.160 A 
ATOM     19  C   UNL     1      99.783 131.468 200.675  1.00  0.00     0.050 A 
ATOM     20  C   UNL     1      99.418 131.192 199.351  1.00  0.00     0.157 A 
BRANCH  18  21
ATOM     21  O   UNL     1      98.977 129.628 197.569  1.00  0.00    -0.493 OA
ATOM     22  C   UNL     1      98.937 128.342 196.960  1.00  0.00     0.278 C 
ENDBRANCH  18  21
BRANCH  20  23
ATOM     23  O   UNL     1      99.117 132.233 198.474  1.00  0.00    -0.504 OA
ATOM     24  H   UNL     1      99.742 133.020 198.349  1.00  0.00     0.293 HD
ENDBRANCH  20  23
ENDBRANCH  14  15
ENDBRANCH  12  14
ENDBRANCH   9  10
ENDBRANCH   1   9
TORSDOF 10
ENDMDL
MODEL 7
REMARK VINA RESULT:    -4.258      3.693      7.831
REMARK INTER + INTRA:          -7.951
REMARK INTER:                  -6.895
REMARK INTRA:                  -1.057
REMARK UNBOUND:                -1.329
REMARK SMILES COc1cc(CNC(=O)CCCCC=CC(C)C)ccc1O
REMARK SMILES IDX 11 1 12 2 13 3 14 4 15 5 16 6 17 7 18 8 10 9 8 10 9 11 7 12
REMARK SMILES IDX 6 14 5 15 4 16 19 17 3 18 20 19 21 20 2 21 1 22 22 23
REMARK H PARENT 7 13 22 24
REMARK Flexibility Score: inf
ROOT
ATOM      1  C   UNL     1     106.226 131.856 200.625  1.00  0.00     0.010 C 
ENDROOT
BRANCH   1   2
ATOM      2  C   UNL     1     105.677 131.135 201.865  1.00  0.00     0.005 C 
BRANCH   2   3
ATOM      3  C   UNL     1     104.480 130.229 201.535  1.00  0.00     0.027 C 
BRANCH   3   4
ATOM      4  C   UNL     1     103.695 130.775 200.371  1.00  0.00    -0.031 C 
ATOM      5  C   UNL     1     103.699 130.253 199.129  1.00  0.00    -0.028 C 
BRANCH   5   6
ATOM      6  C   UNL     1     104.455 129.011 198.705  1.00  0.00     0.005 C 
ATOM      7  C   UNL     1     103.487 127.830 198.599  1.00  0.00     0.012 C 
ATOM      8  C   UNL     1     105.151 129.263 197.365  1.00  0.00     0.012 C 
ENDBRANCH   5   6
ENDBRANCH   3   4
ENDBRANCH   2   3
ENDBRANCH   1   2
BRANCH   1   9
ATOM      9  C   UNL     1     107.463 131.158 200.044  1.00  0.00     0.100 C 
BRANCH   9  10
ATOM     10  C   UNL     1     108.491 132.170 199.638  1.00  0.00     0.220 C 
ATOM     11  O   UNL     1     109.230 131.940 198.644  1.00  0.00    -0.275 OA
ATOM     12  N   UNL     1     108.599 133.409 200.351  1.00  0.00    -0.352 N 
ATOM     13  H   UNL     1     107.934 133.605 201.134  1.00  0.00     0.163 HD
BRANCH  12  14
ATOM     14  C   UNL     1     109.602 134.420 200.022  1.00  0.00     0.151 C 
BRANCH  14  15
ATOM     15  C   UNL     1     108.956 135.583 199.317  1.00  0.00    -0.025 A 
ATOM     16  C   UNL     1     109.752 136.620 198.804  1.00  0.00     0.056 A 
ATOM     17  C   UNL     1     107.567 135.628 199.140  1.00  0.00     0.009 A 
ATOM     18  C   UNL     1     109.163 137.703 198.122  1.00  0.00     0.160 A 
ATOM     19  C   UNL     1     106.977 136.699 198.466  1.00  0.00     0.050 A 
ATOM     20  C   UNL     1     107.770 137.736 197.958  1.00  0.00     0.157 A 
BRANCH  18  21
ATOM     21  O   UNL     1     109.924 138.758 197.595  1.00  0.00    -0.493 OA
ATOM     22  C   UNL     1     111.040 139.352 198.250  1.00  0.00     0.278 C 
ENDBRANCH  18  21
BRANCH  20  23
ATOM     23  O   UNL     1     107.181 138.806 197.285  1.00  0.00    -0.504 OA
ATOM     24  H   UNL     1     106.384 138.674 196.675  1.00  0.00     0.293 HD
ENDBRANCH  20  23
ENDBRANCH  14  15
ENDBRANCH  12  14
ENDBRANCH   9  10
ENDBRANCH   1   9
TORSDOF 10
ENDMDL
MODEL 8
REMARK VINA RESULT:    -4.211      5.074      7.827
REMARK INTER + INTRA:          -7.879
REMARK INTER:                  -6.528
REMARK INTRA:                  -1.352
REMARK UNBOUND:                -1.329
REMARK SMILES COc1cc(CNC(=O)CCCCC=CC(C)C)ccc1O
REMARK SMILES IDX 11 1 12 2 13 3 14 4 15 5 16 6 17 7 18 8 10 9 8 10 9 11 7 12
REMARK SMILES IDX 6 14 5 15 4 16 19 17 3 18 20 19 21 20 2 21 1 22 22 23
REMARK H PARENT 7 13 22 24
REMARK Flexibility Score: inf
ROOT
ATOM      1  C   UNL     1     103.563 126.452 199.002  1.00  0.00     0.010 C 
ENDROOT
BRANCH   1   2
ATOM      2  C   UNL     1     103.398 127.818 198.320  1.00  0.00     0.005 C 
BRANCH   2   3
ATOM      3  C   UNL     1     102.735 128.857 199.240  1.00  0.00     0.027 C 
BRANCH   3   4
ATOM      4  C   UNL     1     103.441 130.185 199.148  1.00  0.00    -0.031 C 
ATOM      5  C   UNL     1     104.074 130.791 200.171  1.00  0.00    -0.028 C 
BRANCH   5   6
ATOM      6  C   UNL     1     104.219 130.224 201.569  1.00  0.00     0.005 C 
ATOM      7  C   UNL     1     105.306 130.991 202.325  1.00  0.00     0.012 C 
ATOM      8  C   UNL     1     102.879 130.317 202.304  1.00  0.00     0.012 C 
ENDBRANCH   5   6
ENDBRANCH   3   4
ENDBRANCH   2   3
ENDBRANCH   1   2
BRANCH   1   9
ATOM      9  C   UNL     1     102.686 125.369 198.361  1.00  0.00     0.100 C 
BRANCH   9  10
ATOM     10  C   UNL     1     101.261 125.826 198.289  1.00  0.00     0.220 C 
ATOM     11  O   UNL     1     100.654 125.796 197.185  1.00  0.00    -0.275 OA
ATOM     12  N   UNL     1     100.583 126.252 199.479  1.00  0.00    -0.352 N 
ATOM     13  H   UNL     1     101.086 126.209 200.394  1.00  0.00     0.163 HD
BRANCH  12  14
ATOM     14  C   UNL     1      99.205 126.738 199.465  1.00  0.00     0.151 C 
BRANCH  14  15
ATOM     15  C   UNL     1      99.183 128.236 199.313  1.00  0.00    -0.025 A 
ATOM     16  C   UNL     1      99.223 129.056 200.451  1.00  0.00     0.056 A 
ATOM     17  C   UNL     1      99.152 128.822 198.040  1.00  0.00     0.009 A 
ATOM     18  C   UNL     1      99.225 130.459 200.322  1.00  0.00     0.160 A 
ATOM     19  C   UNL     1      99.153 130.212 197.906  1.00  0.00     0.050 A 
ATOM     20  C   UNL     1      99.188 131.031 199.042  1.00  0.00     0.157 A 
BRANCH  18  21
ATOM     21  O   UNL     1      99.265 131.313 201.435  1.00  0.00    -0.493 OA
ATOM     22  C   UNL     1      99.083 130.890 202.782  1.00  0.00     0.278 C 
ENDBRANCH  18  21
BRANCH  20  23
ATOM     23  O   UNL     1      99.190 132.419 198.906  1.00  0.00    -0.504 OA
ATOM     24  H   UNL     1      99.103 133.030 199.709  1.00  0.00     0.293 HD
ENDBRANCH  20  23
ENDBRANCH  14  15
ENDBRANCH  12  14
ENDBRANCH   9  10
ENDBRANCH   1   9
TORSDOF 10
ENDMDL
