MODEL 1
REMARK VINA RESULT:    -3.037      0.000      0.000
REMARK INTER + INTRA:          -4.271
REMARK INTER:                  -4.280
REMARK INTRA:                   0.009
REMARK UNBOUND:                 0.009
REMARK SMILES CC1=CCC(=C(C)C)C(=O)CC(C)=CCC1
REMARK SMILES IDX 12 1 14 2 13 3 15 4 16 5 2 6 1 7 3 8 11 10 9 11 10 12 5 13
REMARK SMILES IDX 6 14 7 15 8 16 4 17
REMARK H PARENT
REMARK Flexibility Score: 60.00
ROOT
ATOM      1  C   UNL     1      -0.173   6.563  -6.472  1.00  0.00    -0.070 C 
ATOM      2  C   UNL     1      -0.608   5.867  -5.395  1.00  0.00    -0.027 C 
ATOM      3  C   UNL     1       0.772   5.880  -7.429  1.00  0.00     0.039 C 
ENDROOT
BRANCH   2   4
ATOM      4  C   UNL     1      -1.450   6.424  -4.272  1.00  0.00     0.032 C 
BRANCH   4   5
ATOM      5  C   UNL     1      -0.724   6.592  -2.929  1.00  0.00     0.034 C 
BRANCH   5   6
ATOM      6  C   UNL     1       0.763   6.302  -2.991  1.00  0.00    -0.077 C 
ATOM      7  C   UNL     1       1.235   4.946  -2.529  1.00  0.00     0.039 C 
ATOM      8  C   UNL     1       1.695   7.149  -3.499  1.00  0.00    -0.023 CG0
ATOM      9  G   UNL     1       1.531   8.603  -3.899  1.00  0.00     0.000 G0
ENDBRANCH   5   6
ENDBRANCH   4   5
ENDBRANCH   2   4
BRANCH   1  10
ATOM     10  C   UNL     1      -0.650   7.958  -6.811  1.00  0.00     0.111 C 
BRANCH  10  11
ATOM     11  C   UNL     1      -0.088   8.974  -5.849  1.00  0.00     0.163 C 
ATOM     12  O   UNL     1      -0.836   9.897  -5.431  1.00  0.00    -0.294 OA
BRANCH  11  13
ATOM     13  C   UNL     1       1.318   8.917  -5.369  1.00  0.00    -0.002 C 
ATOM     14  C   UNL     1       2.341   9.284  -6.190  1.00  0.00    -0.069 C 
ATOM     15  C   UNL     1       3.765   9.363  -5.692  1.00  0.00     0.039 C 
ATOM     16  C   UNL     1       2.083   9.602  -7.645  1.00  0.00     0.039 C 
BRANCH  13  17
ATOM     17  C   UNL     1       1.529   8.609  -3.898  1.00  0.00     0.066 CG0
ATOM     18  G   UNL     1       1.678   7.150  -3.511  1.00  0.00     0.000 G0
ENDBRANCH  13  17
ENDBRANCH  11  13
ENDBRANCH  10  11
ENDBRANCH   1  10
TORSDOF 0
ENDMDL
MODEL 2
REMARK VINA RESULT:    -2.920      2.960      4.785
REMARK INTER + INTRA:          -4.106
REMARK INTER:                  -3.999
REMARK INTRA:                  -0.106
REMARK UNBOUND:                 0.009
REMARK SMILES CC1=CCC(=C(C)C)C(=O)CC(C)=CCC1
REMARK SMILES IDX 12 1 14 2 13 3 15 4 16 5 2 6 1 7 3 8 11 10 9 11 10 12 5 13
REMARK SMILES IDX 6 14 7 15 8 16 4 17
REMARK H PARENT
REMARK Flexibility Score: 60.00
ROOT
ATOM      1  C   UNL     1      -0.579   4.805  -1.310  1.00  0.00    -0.070 C 
ATOM      2  C   UNL     1      -0.666   3.462  -1.450  1.00  0.00    -0.027 C 
ATOM      3  C   UNL     1      -0.211   5.360   0.043  1.00  0.00     0.039 C 
ENDROOT
BRANCH   2   4
ATOM      4  C   UNL     1      -1.141   2.737  -2.687  1.00  0.00     0.032 C 
BRANCH   4   5
ATOM      5  C   UNL     1      -0.035   2.085  -3.530  1.00  0.00     0.034 C 
BRANCH   5   6
ATOM      6  C   UNL     1      -0.231   2.233  -5.027  1.00  0.00    -0.077 C 
ATOM      7  C   UNL     1      -1.006   1.156  -5.744  1.00  0.00     0.039 C 
ATOM      8  C   UNL     1       0.178   3.302  -5.757  1.00  0.00    -0.023 CG0
ATOM      9  G   UNL     1       1.082   4.444  -5.335  1.00  0.00     0.000 G0
ENDBRANCH   5   6
ENDBRANCH   4   5
ENDBRANCH   2   4
BRANCH   1  10
ATOM     10  C   UNL     1      -0.749   5.775  -2.459  1.00  0.00     0.111 C 
BRANCH  10  11
ATOM     11  C   UNL     1       0.501   5.847  -3.299  1.00  0.00     0.163 C 
ATOM     12  O   UNL     1       1.610   6.027  -2.728  1.00  0.00    -0.294 OA
BRANCH  11  13
ATOM     13  C   UNL     1       0.471   5.702  -4.779  1.00  0.00    -0.002 C 
ATOM     14  C   UNL     1       0.039   6.729  -5.561  1.00  0.00    -0.069 C 
ATOM     15  C   UNL     1       0.118   6.662  -7.069  1.00  0.00     0.039 C 
ATOM     16  C   UNL     1      -0.564   7.968  -4.941  1.00  0.00     0.039 C 
BRANCH  13  17
ATOM     17  C   UNL     1       1.101   4.449  -5.359  1.00  0.00     0.066 CG0
ATOM     18  G   UNL     1       0.165   3.317  -5.738  1.00  0.00     0.000 G0
ENDBRANCH  13  17
ENDBRANCH  11  13
ENDBRANCH  10  11
ENDBRANCH   1  10
TORSDOF 0
ENDMDL
MODEL 3
REMARK VINA RESULT:    -2.867      2.334      5.096
REMARK INTER + INTRA:          -4.032
REMARK INTER:                  -4.130
REMARK INTRA:                   0.099
REMARK UNBOUND:                 0.009
REMARK SMILES CC1=CCC(=C(C)C)C(=O)CC(C)=CCC1
REMARK SMILES IDX 12 1 14 2 13 3 15 4 16 5 2 6 1 7 3 8 11 10 9 11 10 12 5 13
REMARK SMILES IDX 6 14 7 15 8 16 4 17
REMARK H PARENT
REMARK Flexibility Score: 60.00
ROOT
ATOM      1  C   UNL     1       2.931   7.710  -3.930  1.00  0.00    -0.070 C 
ATOM      2  C   UNL     1       2.417   8.886  -4.361  1.00  0.00    -0.027 C 
ATOM      3  C   UNL     1       4.222   7.738  -3.151  1.00  0.00     0.039 C 
ENDROOT
BRANCH   2   4
ATOM      4  C   UNL     1       1.210   9.041  -5.255  1.00  0.00     0.032 C 
BRANCH   4   5
ATOM      5  C   UNL     1      -0.145   9.048  -4.532  1.00  0.00     0.034 C 
BRANCH   5   6
ATOM      6  C   UNL     1      -1.116   7.994  -5.030  1.00  0.00    -0.077 C 
ATOM      7  C   UNL     1      -1.778   8.223  -6.365  1.00  0.00     0.039 C 
ATOM      8  C   UNL     1      -1.379   6.824  -4.393  1.00  0.00    -0.023 CG0
ATOM      9  G   UNL     1      -0.972   6.396  -2.996  1.00  0.00     0.000 G0
ENDBRANCH   5   6
ENDBRANCH   4   5
ENDBRANCH   2   4
BRANCH   1  10
ATOM     10  C   UNL     1       2.235   6.380  -4.114  1.00  0.00     0.111 C 
BRANCH  10  11
ATOM     11  C   UNL     1       1.537   5.951  -2.848  1.00  0.00     0.163 C 
ATOM     12  O   UNL     1       2.135   6.082  -1.747  1.00  0.00    -0.294 OA
BRANCH  11  13
ATOM     13  C   UNL     1       0.160   5.388  -2.854  1.00  0.00    -0.002 C 
ATOM     14  C   UNL     1      -0.043   4.067  -2.598  1.00  0.00    -0.069 C 
ATOM     15  C   UNL     1      -1.434   3.492  -2.468  1.00  0.00     0.039 C 
ATOM     16  C   UNL     1       1.127   3.121  -2.460  1.00  0.00     0.039 C 
BRANCH  13  17
ATOM     17  C   UNL     1      -0.985   6.377  -2.980  1.00  0.00     0.066 CG0
ATOM     18  G   UNL     1      -1.369   6.816  -4.380  1.00  0.00     0.000 G0
ENDBRANCH  13  17
ENDBRANCH  11  13
ENDBRANCH  10  11
ENDBRANCH   1  10
TORSDOF 0
ENDMDL
MODEL 4
REMARK VINA RESULT:    -2.802      2.372      4.741
REMARK INTER + INTRA:          -3.939
REMARK INTER:                  -3.785
REMARK INTRA:                  -0.154
REMARK UNBOUND:                 0.009
REMARK SMILES CC1=CCC(=C(C)C)C(=O)CC(C)=CCC1
REMARK SMILES IDX 12 1 14 2 13 3 15 4 16 5 2 6 1 7 3 8 11 10 9 11 10 12 5 13
REMARK SMILES IDX 6 14 7 15 8 16 4 17
REMARK H PARENT
REMARK Flexibility Score: 60.00
ROOT
ATOM      1  C   UNL     1      -0.639   7.890  -4.463  1.00  0.00    -0.070 C 
ATOM      2  C   UNL     1       0.482   8.617  -4.679  1.00  0.00    -0.027 C 
ATOM      3  C   UNL     1      -1.779   8.029  -5.441  1.00  0.00     0.039 C 
ENDROOT
BRANCH   2   4
ATOM      4  C   UNL     1       1.666   8.700  -3.745  1.00  0.00     0.032 C 
BRANCH   4   5
ATOM      5  C   UNL     1       2.834   7.761  -4.082  1.00  0.00     0.034 C 
BRANCH   5   6
ATOM      6  C   UNL     1       3.345   6.962  -2.898  1.00  0.00    -0.077 C 
ATOM      7  C   UNL     1       4.347   7.622  -1.983  1.00  0.00     0.039 C 
ATOM      8  C   UNL     1       2.913   5.721  -2.560  1.00  0.00    -0.023 CG0
ATOM      9  G   UNL     1       2.032   4.778  -3.357  1.00  0.00     0.000 G0
ENDBRANCH   5   6
ENDBRANCH   4   5
ENDBRANCH   2   4
BRANCH   1  10
ATOM     10  C   UNL     1      -0.777   6.882  -3.343  1.00  0.00     0.111 C 
BRANCH  10  11
ATOM     11  C   UNL     1      -0.358   5.506  -3.795  1.00  0.00     0.163 C 
ATOM     12  O   UNL     1      -0.811   5.057  -4.881  1.00  0.00    -0.294 OA
BRANCH  11  13
ATOM     13  C   UNL     1       0.580   4.664  -3.006  1.00  0.00    -0.002 C 
ATOM     14  C   UNL     1       0.102   3.745  -2.122  1.00  0.00    -0.069 C 
ATOM     15  C   UNL     1       1.022   2.786  -1.403  1.00  0.00     0.039 C 
ATOM     16  C   UNL     1      -1.375   3.672  -1.812  1.00  0.00     0.039 C 
BRANCH  13  17
ATOM     17  C   UNL     1       2.052   4.759  -3.362  1.00  0.00     0.066 CG0
ATOM     18  G   UNL     1       2.900   5.718  -2.549  1.00  0.00     0.000 G0
ENDBRANCH  13  17
ENDBRANCH  11  13
ENDBRANCH  10  11
ENDBRANCH   1  10
TORSDOF 0
ENDMDL
MODEL 5
REMARK VINA RESULT:    -2.790      1.812      2.449
REMARK INTER + INTRA:          -3.922
REMARK INTER:                  -3.937
REMARK INTRA:                   0.015
REMARK UNBOUND:                 0.009
REMARK SMILES CC1=CCC(=C(C)C)C(=O)CC(C)=CCC1
REMARK SMILES IDX 12 1 14 2 13 3 15 4 16 5 2 6 1 7 3 8 11 10 9 11 10 12 5 13
REMARK SMILES IDX 6 14 7 15 8 16 4 17
REMARK H PARENT
REMARK Flexibility Score: 60.00
ROOT
ATOM      1  C   UNL     1      -0.942   7.751  -4.698  1.00  0.00    -0.070 C 
ATOM      2  C   UNL     1      -1.383   6.737  -3.916  1.00  0.00    -0.027 C 
ATOM      3  C   UNL     1      -1.422   7.810  -6.126  1.00  0.00     0.039 C 
ENDROOT
BRANCH   2   4
ATOM      4  C   UNL     1      -0.914   6.447  -2.509  1.00  0.00     0.032 C 
BRANCH   4   5
ATOM      5  C   UNL     1      -0.030   5.201  -2.357  1.00  0.00     0.034 C 
BRANCH   5   6
ATOM      6  C   UNL     1       0.285   4.504  -3.667  1.00  0.00    -0.077 C 
ATOM      7  C   UNL     1      -0.515   3.275  -4.021  1.00  0.00     0.039 C 
ATOM      8  C   UNL     1       1.189   4.946  -4.578  1.00  0.00    -0.023 CG0
ATOM      9  G   UNL     1       2.215   6.054  -4.431  1.00  0.00     0.000 G0
ENDBRANCH   5   6
ENDBRANCH   4   5
ENDBRANCH   2   4
BRANCH   1  10
ATOM     10  C   UNL     1      -0.063   8.872  -4.192  1.00  0.00     0.111 C 
BRANCH  10  11
ATOM     11  C   UNL     1       1.386   8.456  -4.161  1.00  0.00     0.163 C 
ATOM     12  O   UNL     1       2.164   9.015  -3.342  1.00  0.00    -0.294 OA
BRANCH  11  13
ATOM     13  C   UNL     1       1.927   7.400  -5.058  1.00  0.00    -0.002 C 
ATOM     14  C   UNL     1       2.265   7.696  -6.343  1.00  0.00    -0.069 C 
ATOM     15  C   UNL     1       2.937   6.680  -7.237  1.00  0.00     0.039 C 
ATOM     16  C   UNL     1       1.952   9.054  -6.927  1.00  0.00     0.039 C 
BRANCH  13  17
ATOM     17  C   UNL     1       2.239   6.057  -4.424  1.00  0.00     0.066 CG0
ATOM     18  G   UNL     1       1.202   4.961  -4.578  1.00  0.00     0.000 G0
ENDBRANCH  13  17
ENDBRANCH  11  13
ENDBRANCH  10  11
ENDBRANCH   1  10
TORSDOF 0
ENDMDL
MODEL 6
REMARK VINA RESULT:    -2.719      2.544      4.495
REMARK INTER + INTRA:          -3.823
REMARK INTER:                  -3.695
REMARK INTRA:                  -0.128
REMARK UNBOUND:                 0.009
REMARK SMILES CC1=CCC(=C(C)C)C(=O)CC(C)=CCC1
REMARK SMILES IDX 12 1 14 2 13 3 15 4 16 5 2 6 1 7 3 8 11 10 9 11 10 12 5 13
REMARK SMILES IDX 6 14 7 15 8 16 4 17
REMARK H PARENT
REMARK Flexibility Score: 60.00
ROOT
ATOM      1  C   UNL     1      -1.084   4.776  -2.491  1.00  0.00    -0.070 C 
ATOM      2  C   UNL     1      -1.833   5.610  -3.250  1.00  0.00    -0.027 C 
ATOM      3  C   UNL     1      -1.739   3.538  -1.932  1.00  0.00     0.039 C 
ENDROOT
BRANCH   2   4
ATOM      4  C   UNL     1      -1.384   6.950  -3.785  1.00  0.00     0.032 C 
BRANCH   4   5
ATOM      5  C   UNL     1      -0.945   6.954  -5.256  1.00  0.00     0.034 C 
BRANCH   5   6
ATOM      6  C   UNL     1       0.311   7.761  -5.523  1.00  0.00    -0.077 C 
ATOM      7  C   UNL     1       0.157   9.241  -5.771  1.00  0.00     0.039 C 
ATOM      8  C   UNL     1       1.573   7.261  -5.485  1.00  0.00    -0.023 CG0
ATOM      9  G   UNL     1       2.012   5.812  -5.399  1.00  0.00     0.000 G0
ENDBRANCH   5   6
ENDBRANCH   4   5
ENDBRANCH   2   4
BRANCH   1  10
ATOM     10  C   UNL     1       0.396   4.975  -2.246  1.00  0.00     0.111 C 
BRANCH  10  11
ATOM     11  C   UNL     1       1.214   4.442  -3.394  1.00  0.00     0.163 C 
ATOM     12  O   UNL     1       0.965   3.289  -3.837  1.00  0.00    -0.294 OA
BRANCH  11  13
ATOM     13  C   UNL     1       2.300   5.235  -4.029  1.00  0.00    -0.002 C 
ATOM     14  C   UNL     1       3.531   5.303  -3.451  1.00  0.00    -0.069 C 
ATOM     15  C   UNL     1       4.689   5.990  -4.134  1.00  0.00     0.039 C 
ATOM     16  C   UNL     1       3.771   4.709  -2.082  1.00  0.00     0.039 C 
BRANCH  13  17
ATOM     17  C   UNL     1       2.020   5.800  -5.409  1.00  0.00     0.066 CG0
ATOM     18  G   UNL     1       1.570   7.247  -5.487  1.00  0.00     0.000 G0
ENDBRANCH  13  17
ENDBRANCH  11  13
ENDBRANCH  10  11
ENDBRANCH   1  10
TORSDOF 0
ENDMDL
MODEL 7
REMARK VINA RESULT:    -2.649      2.198      3.365
REMARK INTER + INTRA:          -3.724
REMARK INTER:                  -3.625
REMARK INTRA:                  -0.098
REMARK UNBOUND:                 0.009
REMARK SMILES CC1=CCC(=C(C)C)C(=O)CC(C)=CCC1
REMARK SMILES IDX 12 1 14 2 13 3 15 4 16 5 2 6 1 7 3 8 11 10 9 11 10 12 5 13
REMARK SMILES IDX 6 14 7 15 8 16 4 17
REMARK H PARENT
REMARK Flexibility Score: 60.00
ROOT
ATOM      1  C   UNL     1       2.095   4.989  -4.364  1.00  0.00    -0.070 C 
ATOM      2  C   UNL     1       1.623   3.967  -3.613  1.00  0.00    -0.027 C 
ATOM      3  C   UNL     1       3.140   5.894  -3.762  1.00  0.00     0.039 C 
ENDROOT
BRANCH   2   4
ATOM      4  C   UNL     1       0.493   3.042  -4.000  1.00  0.00     0.032 C 
BRANCH   4   5
ATOM      5  C   UNL     1      -0.880   3.405  -3.417  1.00  0.00     0.034 C 
BRANCH   5   6
ATOM      6  C   UNL     1      -0.838   4.513  -2.382  1.00  0.00    -0.077 C 
ATOM      7  C   UNL     1      -0.620   4.123  -0.941  1.00  0.00     0.039 C 
ATOM      8  C   UNL     1      -0.912   5.839  -2.666  1.00  0.00    -0.023 CG0
ATOM      9  G   UNL     1      -1.263   6.504  -3.983  1.00  0.00     0.000 G0
ENDBRANCH   5   6
ENDBRANCH   4   5
ENDBRANCH   2   4
BRANCH   1  10
ATOM     10  C   UNL     1       1.693   5.220  -5.804  1.00  0.00     0.111 C 
BRANCH  10  11
ATOM     11  C   UNL     1       0.344   5.888  -5.891  1.00  0.00     0.163 C 
ATOM     12  O   UNL     1      -0.435   5.569  -6.829  1.00  0.00    -0.294 OA
BRANCH  11  13
ATOM     13  C   UNL     1      -0.103   6.905  -4.902  1.00  0.00    -0.002 C 
ATOM     14  C   UNL     1       0.404   8.168  -4.937  1.00  0.00    -0.069 C 
ATOM     15  C   UNL     1      -0.123   9.257  -4.032  1.00  0.00     0.039 C 
ATOM     16  C   UNL     1       1.538   8.516  -5.874  1.00  0.00     0.039 C 
BRANCH  13  17
ATOM     17  C   UNL     1      -1.254   6.517  -3.992  1.00  0.00     0.066 CG0
ATOM     18  G   UNL     1      -0.901   5.854  -2.674  1.00  0.00     0.000 G0
ENDBRANCH  13  17
ENDBRANCH  11  13
ENDBRANCH  10  11
ENDBRANCH   1  10
TORSDOF 0
ENDMDL
MODEL 8
REMARK VINA RESULT:    -2.645      3.449      6.201
REMARK INTER + INTRA:          -3.718
REMARK INTER:                  -3.933
REMARK INTRA:                   0.215
REMARK UNBOUND:                 0.009
REMARK SMILES CC1=CCC(=C(C)C)C(=O)CC(C)=CCC1
REMARK SMILES IDX 12 1 14 2 13 3 15 4 16 5 2 6 1 7 3 8 11 10 9 11 10 12 5 13
REMARK SMILES IDX 6 14 7 15 8 16 4 17
REMARK H PARENT
REMARK Flexibility Score: 60.00
ROOT
ATOM      1  C   UNL     1       0.342   4.090  -1.344  1.00  0.00    -0.070 C 
ATOM      2  C   UNL     1       0.890   5.251  -1.776  1.00  0.00    -0.027 C 
ATOM      3  C   UNL     1      -0.455   4.110  -0.064  1.00  0.00     0.039 C 
ENDROOT
BRANCH   2   4
ATOM      4  C   UNL     1       1.817   5.396  -2.959  1.00  0.00     0.032 C 
BRANCH   4   5
ATOM      5  C   UNL     1       1.299   6.296  -4.090  1.00  0.00     0.034 C 
BRANCH   5   6
ATOM      6  C   UNL     1      -0.166   6.089  -4.422  1.00  0.00    -0.077 C 
ATOM      7  C   UNL     1      -1.134   7.184  -4.048  1.00  0.00     0.039 C 
ATOM      8  C   UNL     1      -0.662   5.020  -5.096  1.00  0.00    -0.023 CG0
ATOM      9  G   UNL     1       0.042   3.728  -5.466  1.00  0.00     0.000 G0
ENDBRANCH   5   6
ENDBRANCH   4   5
ENDBRANCH   2   4
BRANCH   1  10
ATOM     10  C   UNL     1       0.416   2.794  -2.121  1.00  0.00     0.111 C 
BRANCH  10  11
ATOM     11  C   UNL     1      -0.645   2.740  -3.190  1.00  0.00     0.163 C 
ATOM     12  O   UNL     1      -1.850   2.914  -2.864  1.00  0.00    -0.294 OA
BRANCH  11  13
ATOM     13  C   UNL     1      -0.317   2.499  -4.621  1.00  0.00    -0.002 C 
ATOM     14  C   UNL     1      -0.480   1.262  -5.165  1.00  0.00    -0.069 C 
ATOM     15  C   UNL     1      -0.281   1.015  -6.642  1.00  0.00     0.039 C 
ATOM     16  C   UNL     1      -0.844   0.081  -4.294  1.00  0.00     0.039 C 
BRANCH  13  17
ATOM     17  C   UNL     1       0.028   3.715  -5.460  1.00  0.00     0.066 CG0
ATOM     18  G   UNL     1      -0.659   5.020  -5.102  1.00  0.00     0.000 G0
ENDBRANCH  13  17
ENDBRANCH  11  13
ENDBRANCH  10  11
ENDBRANCH   1  10
TORSDOF 0
ENDMDL
MODEL 9
REMARK VINA RESULT:    -2.643      2.976      5.707
REMARK INTER + INTRA:          -3.715
REMARK INTER:                  -3.624
REMARK INTRA:                  -0.091
REMARK UNBOUND:                 0.009
REMARK SMILES CC1=CCC(=C(C)C)C(=O)CC(C)=CCC1
REMARK SMILES IDX 12 1 14 2 13 3 15 4 16 5 2 6 1 7 3 8 11 10 9 11 10 12 5 13
REMARK SMILES IDX 6 14 7 15 8 16 4 17
REMARK H PARENT
REMARK Flexibility Score: 60.00
ROOT
ATOM      1  C   UNL     1      -0.500   4.926  -1.768  1.00  0.00    -0.070 C 
ATOM      2  C   UNL     1      -0.685   6.020  -2.544  1.00  0.00    -0.027 C 
ATOM      3  C   UNL     1       0.351   5.064  -0.530  1.00  0.00     0.039 C 
ENDROOT
BRANCH   2   4
ATOM      4  C   UNL     1      -1.396   6.041  -3.876  1.00  0.00     0.032 C 
BRANCH   4   5
ATOM      5  C   UNL     1      -0.480   6.042  -5.108  1.00  0.00     0.034 C 
BRANCH   5   6
ATOM      6  C   UNL     1       0.997   6.145  -4.779  1.00  0.00    -0.077 C 
ATOM      7  C   UNL     1       1.612   7.521  -4.724  1.00  0.00     0.039 C 
ATOM      8  C   UNL     1       1.792   5.091  -4.461  1.00  0.00    -0.023 CG0
ATOM      9  G   UNL     1       1.486   3.610  -4.569  1.00  0.00     0.000 G0
ENDBRANCH   5   6
ENDBRANCH   4   5
ENDBRANCH   2   4
BRANCH   1  10
ATOM     10  C   UNL     1      -1.171   3.596  -2.030  1.00  0.00     0.111 C 
BRANCH  10  11
ATOM     11  C   UNL     1      -0.491   2.855  -3.153  1.00  0.00     0.163 C 
ATOM     12  O   UNL     1      -1.196   2.198  -3.965  1.00  0.00    -0.294 OA
BRANCH  11  13
ATOM     13  C   UNL     1       0.984   2.882  -3.342  1.00  0.00    -0.002 C 
ATOM     14  C   UNL     1       1.795   2.159  -2.522  1.00  0.00    -0.069 C 
ATOM     15  C   UNL     1       3.283   2.062  -2.768  1.00  0.00     0.039 C 
ATOM     16  C   UNL     1       1.231   1.446  -1.315  1.00  0.00     0.039 C 
BRANCH  13  17
ATOM     17  C   UNL     1       1.505   3.597  -4.575  1.00  0.00     0.066 CG0
ATOM     18  G   UNL     1       1.779   5.084  -4.449  1.00  0.00     0.000 G0
ENDBRANCH  13  17
ENDBRANCH  11  13
ENDBRANCH  10  11
ENDBRANCH   1  10
TORSDOF 0
ENDMDL
