MODEL 1
REMARK VINA RESULT:    -8.775      0.000      0.000
REMARK INTER + INTRA:         -11.079
REMARK INTER:                 -10.827
REMARK INTRA:                  -0.252
REMARK UNBOUND:                -0.252
REMARK SMILES Oc1cc(O)c2cc(O)c(-c3cc(O)c(O)c(O)c3)[o+]c2c1
REMARK SMILES IDX 10 1 20 2 21 3 22 4 2 5 3 6 4 7 6 8 7 9 8 10 11 11 12 12
REMARK SMILES IDX 13 13 19 14 15 15 17 16 14 17 16 19 18 21 9 23 1 25 5 27
REMARK H PARENT 14 18 16 20 18 22 9 24 1 26 5 28
REMARK Flexibility Score: inf
ROOT
ATOM      1  C   UNL     1      33.739 -11.913  -0.027  1.00  0.00     0.402 A 
ATOM      2  O   UNL     1      32.984 -12.942  -0.410  1.00  0.00    -0.202 OA
ATOM      3  C   UNL     1      31.730 -13.117   0.000  1.00  0.00     0.368 A 
ATOM      4  C   UNL     1      31.003 -14.222  -0.451  1.00  0.00     0.162 A 
ATOM      5  C   UNL     1      29.681 -14.415  -0.029  1.00  0.00     0.128 A 
ATOM      6  C   UNL     1      29.087 -13.500   0.847  1.00  0.00     0.093 A 
ATOM      7  C   UNL     1      29.806 -12.388   1.310  1.00  0.00     0.136 A 
ATOM      8  C   UNL     1      31.134 -12.193   0.886  1.00  0.00     0.125 A 
ATOM      9  C   UNL     1      31.901 -11.106   1.320  1.00  0.00     0.078 A 
ATOM     10  C   UNL     1      33.219 -10.963   0.875  1.00  0.00     0.223 A 
ENDROOT
BRANCH   1  11
ATOM     11  C   UNL     1      35.118 -11.821  -0.559  1.00  0.00     0.091 A 
ATOM     12  C   UNL     1      35.461 -10.758  -1.407  1.00  0.00     0.068 A 
ATOM     13  C   UNL     1      36.760 -10.627  -1.911  1.00  0.00     0.162 A 
ATOM     14  C   UNL     1      36.107 -12.744  -0.188  1.00  0.00     0.068 A 
ATOM     15  C   UNL     1      37.747 -11.575  -1.551  1.00  0.00     0.200 A 
ATOM     16  C   UNL     1      37.412 -12.626  -0.685  1.00  0.00     0.162 A 
BRANCH  13  17
ATOM     17  O   UNL     1      37.022  -9.550  -2.760  1.00  0.00    -0.504 OA
ATOM     18  H   UNL     1      36.309  -9.029  -3.249  1.00  0.00     0.293 HD
ENDBRANCH  13  17
BRANCH  15  19
ATOM     19  O   UNL     1      39.059 -11.508  -2.024  1.00  0.00    -0.502 OA
ATOM     20  H   UNL     1      39.436 -10.728  -2.542  1.00  0.00     0.293 HD
ENDBRANCH  15  19
BRANCH  16  21
ATOM     21  O   UNL     1      38.388 -13.550  -0.317  1.00  0.00    -0.504 OA
ATOM     22  H   UNL     1      38.603 -13.736   0.656  1.00  0.00     0.293 HD
ENDBRANCH  16  21
ENDBRANCH   1  11
BRANCH  10  23
ATOM     23  O   UNL     1      34.005  -9.910   1.342  1.00  0.00    -0.500 OA
ATOM     24  H   UNL     1      33.855  -8.957   1.032  1.00  0.00     0.294 HD
ENDBRANCH  10  23
BRANCH   5  25
ATOM     25  O   UNL     1      28.948 -15.513  -0.475  1.00  0.00    -0.507 OA
ATOM     26  H   UNL     1      29.231 -16.461  -0.261  1.00  0.00     0.293 HD
ENDBRANCH   5  25
BRANCH   7  27
ATOM     27  O   UNL     1      29.203 -11.484   2.184  1.00  0.00    -0.507 OA
ATOM     28  H   UNL     1      29.475 -11.427   3.159  1.00  0.00     0.293 HD
ENDBRANCH   7  27
TORSDOF 7
ENDMDL
MODEL 2
REMARK VINA RESULT:    -8.726      0.194      1.809
REMARK INTER + INTRA:         -11.018
REMARK INTER:                 -10.730
REMARK INTRA:                  -0.288
REMARK UNBOUND:                -0.252
REMARK SMILES Oc1cc(O)c2cc(O)c(-c3cc(O)c(O)c(O)c3)[o+]c2c1
REMARK SMILES IDX 10 1 20 2 21 3 22 4 2 5 3 6 4 7 6 8 7 9 8 10 11 11 12 12
REMARK SMILES IDX 13 13 19 14 15 15 17 16 14 17 16 19 18 21 9 23 1 25 5 27
REMARK H PARENT 14 18 16 20 18 22 9 24 1 26 5 28
REMARK Flexibility Score: inf
ROOT
ATOM      1  C   UNL     1      33.593 -11.942   0.080  1.00  0.00     0.402 A 
ATOM      2  O   UNL     1      32.852 -12.972  -0.326  1.00  0.00    -0.202 OA
ATOM      3  C   UNL     1      31.602 -13.175   0.082  1.00  0.00     0.368 A 
ATOM      4  C   UNL     1      30.891 -14.280  -0.394  1.00  0.00     0.162 A 
ATOM      5  C   UNL     1      29.573 -14.503   0.024  1.00  0.00     0.128 A 
ATOM      6  C   UNL     1      28.966 -13.617   0.922  1.00  0.00     0.093 A 
ATOM      7  C   UNL     1      29.669 -12.505   1.410  1.00  0.00     0.136 A 
ATOM      8  C   UNL     1      30.994 -12.281   0.989  1.00  0.00     0.125 A 
ATOM      9  C   UNL     1      31.745 -11.193   1.447  1.00  0.00     0.078 A 
ATOM     10  C   UNL     1      33.060 -11.020   1.004  1.00  0.00     0.223 A 
ENDROOT
BRANCH   1  11
ATOM     11  C   UNL     1      34.970 -11.817  -0.451  1.00  0.00     0.091 A 
ATOM     12  C   UNL     1      35.923 -12.795  -0.132  1.00  0.00     0.068 A 
ATOM     13  C   UNL     1      37.228 -12.720  -0.633  1.00  0.00     0.162 A 
ATOM     14  C   UNL     1      35.328 -10.771  -1.314  1.00  0.00     0.068 A 
ATOM     15  C   UNL     1      37.589 -11.649  -1.484  1.00  0.00     0.200 A 
ATOM     16  C   UNL     1      36.631 -10.683  -1.823  1.00  0.00     0.162 A 
BRANCH  13  17
ATOM     17  O   UNL     1      38.125 -13.724  -0.261  1.00  0.00    -0.504 OA
ATOM     18  H   UNL     1      38.834 -14.103  -0.871  1.00  0.00     0.293 HD
ENDBRANCH  13  17
BRANCH  15  19
ATOM     19  O   UNL     1      38.874 -11.511  -2.012  1.00  0.00    -0.502 OA
ATOM     20  H   UNL     1      39.156 -10.764  -2.629  1.00  0.00     0.293 HD
ENDBRANCH  15  19
BRANCH  16  21
ATOM     21  O   UNL     1      36.981  -9.637  -2.674  1.00  0.00    -0.504 OA
ATOM     22  H   UNL     1      36.494  -9.478  -3.549  1.00  0.00     0.293 HD
ENDBRANCH  16  21
ENDBRANCH   1  11
BRANCH  10  23
ATOM     23  O   UNL     1      33.831  -9.967   1.495  1.00  0.00    -0.500 OA
ATOM     24  H   UNL     1      34.838 -10.042   1.584  1.00  0.00     0.294 HD
ENDBRANCH  10  23
BRANCH   5  25
ATOM     25  O   UNL     1      28.855 -15.601  -0.447  1.00  0.00    -0.507 OA
ATOM     26  H   UNL     1      29.225 -16.204  -1.171  1.00  0.00     0.293 HD
ENDBRANCH   5  25
BRANCH   7  27
ATOM     27  O   UNL     1      29.054 -11.631   2.305  1.00  0.00    -0.507 OA
ATOM     28  H   UNL     1      29.149 -10.626   2.215  1.00  0.00     0.293 HD
ENDBRANCH   7  27
TORSDOF 7
ENDMDL
MODEL 3
REMARK VINA RESULT:    -8.196      2.427      4.680
REMARK INTER + INTRA:         -10.365
REMARK INTER:                 -10.093
REMARK INTRA:                  -0.271
REMARK UNBOUND:                -0.252
REMARK SMILES Oc1cc(O)c2cc(O)c(-c3cc(O)c(O)c(O)c3)[o+]c2c1
REMARK SMILES IDX 10 1 20 2 21 3 22 4 2 5 3 6 4 7 6 8 7 9 8 10 11 11 12 12
REMARK SMILES IDX 13 13 19 14 15 15 17 16 14 17 16 19 18 21 9 23 1 25 5 27
REMARK H PARENT 14 18 16 20 18 22 9 24 1 26 5 28
REMARK Flexibility Score: inf
ROOT
ATOM      1  C   UNL     1      30.674 -13.492   0.826  1.00  0.00     0.402 A 
ATOM      2  O   UNL     1      29.860 -13.316   1.867  1.00  0.00    -0.202 OA
ATOM      3  C   UNL     1      28.634 -13.830   1.927  1.00  0.00     0.368 A 
ATOM      4  C   UNL     1      27.844 -13.601   3.056  1.00  0.00     0.162 A 
ATOM      5  C   UNL     1      26.553 -14.141   3.134  1.00  0.00     0.128 A 
ATOM      6  C   UNL     1      26.053 -14.910   2.077  1.00  0.00     0.093 A 
ATOM      7  C   UNL     1      26.835 -15.146   0.937  1.00  0.00     0.136 A 
ATOM      8  C   UNL     1      28.132 -14.605   0.859  1.00  0.00     0.125 A 
ATOM      9  C   UNL     1      28.954 -14.801  -0.257  1.00  0.00     0.078 A 
ATOM     10  C   UNL     1      30.232 -14.235  -0.288  1.00  0.00     0.223 A 
ENDROOT
BRANCH   1  11
ATOM     11  C   UNL     1      32.020 -12.877   0.878  1.00  0.00     0.091 A 
ATOM     12  C   UNL     1      33.152 -13.700   0.955  1.00  0.00     0.068 A 
ATOM     13  C   UNL     1      34.440 -13.154   0.985  1.00  0.00     0.162 A 
ATOM     14  C   UNL     1      32.191 -11.487   0.795  1.00  0.00     0.068 A 
ATOM     15  C   UNL     1      34.605 -11.750   0.924  1.00  0.00     0.200 A 
ATOM     16  C   UNL     1      33.475 -10.926   0.823  1.00  0.00     0.162 A 
BRANCH  13  17
ATOM     17  O   UNL     1      35.519 -14.037   1.076  1.00  0.00    -0.504 OA
ATOM     18  H   UNL     1      35.433 -15.010   1.331  1.00  0.00     0.293 HD
ENDBRANCH  13  17
BRANCH  15  19
ATOM     19  O   UNL     1      35.861 -11.140   0.956  1.00  0.00    -0.502 OA
ATOM     20  H   UNL     1      36.735 -11.643   0.950  1.00  0.00     0.293 HD
ENDBRANCH  15  19
BRANCH  16  21
ATOM     21  O   UNL     1      33.637  -9.544   0.747  1.00  0.00    -0.504 OA
ATOM     22  H   UNL     1      33.190  -8.996   0.020  1.00  0.00     0.293 HD
ENDBRANCH  16  21
ENDBRANCH   1  11
BRANCH  10  23
ATOM     23  O   UNL     1      31.037 -14.384  -1.417  1.00  0.00    -0.500 OA
ATOM     24  H   UNL     1      31.903 -14.910  -1.386  1.00  0.00     0.294 HD
ENDBRANCH  10  23
BRANCH   5  25
ATOM     25  O   UNL     1      25.758 -13.919   4.257  1.00  0.00    -0.507 OA
ATOM     26  H   UNL     1      25.321 -14.684   4.755  1.00  0.00     0.293 HD
ENDBRANCH   5  25
BRANCH   7  27
ATOM     27  O   UNL     1      26.325 -15.913  -0.111  1.00  0.00    -0.507 OA
ATOM     28  H   UNL     1      26.908 -16.566  -0.623  1.00  0.00     0.293 HD
ENDBRANCH   7  27
TORSDOF 7
ENDMDL
MODEL 4
REMARK VINA RESULT:    -8.177      1.133      7.129
REMARK INTER + INTRA:         -10.340
REMARK INTER:                  -9.989
REMARK INTRA:                  -0.351
REMARK UNBOUND:                -0.252
REMARK SMILES Oc1cc(O)c2cc(O)c(-c3cc(O)c(O)c(O)c3)[o+]c2c1
REMARK SMILES IDX 10 1 20 2 21 3 22 4 2 5 3 6 4 7 6 8 7 9 8 10 11 11 12 12
REMARK SMILES IDX 13 13 19 14 15 15 17 16 14 17 16 19 18 21 9 23 1 25 5 27
REMARK H PARENT 14 18 16 20 18 22 9 24 1 26 5 28
REMARK Flexibility Score: inf
ROOT
ATOM      1  C   UNL     1      33.120 -12.040  -0.738  1.00  0.00     0.402 A 
ATOM      2  O   UNL     1      34.255 -12.671  -0.438  1.00  0.00    -0.202 OA
ATOM      3  C   UNL     1      35.450 -12.253  -0.847  1.00  0.00     0.368 A 
ATOM      4  C   UNL     1      36.594 -12.971  -0.486  1.00  0.00     0.162 A 
ATOM      5  C   UNL     1      37.858 -12.539  -0.908  1.00  0.00     0.128 A 
ATOM      6  C   UNL     1      37.976 -11.388  -1.694  1.00  0.00     0.093 A 
ATOM      7  C   UNL     1      36.837 -10.659  -2.066  1.00  0.00     0.136 A 
ATOM      8  C   UNL     1      35.566 -11.092  -1.641  1.00  0.00     0.125 A 
ATOM      9  C   UNL     1      34.394 -10.410  -1.987  1.00  0.00     0.078 A 
ATOM     10  C   UNL     1      33.156 -10.886  -1.547  1.00  0.00     0.223 A 
ENDROOT
BRANCH   1  11
ATOM     11  C   UNL     1      31.851 -12.596  -0.216  1.00  0.00     0.091 A 
ATOM     12  C   UNL     1      31.323 -13.763  -0.787  1.00  0.00     0.068 A 
ATOM     13  C   UNL     1      30.136 -14.329  -0.306  1.00  0.00     0.162 A 
ATOM     14  C   UNL     1      31.192 -12.014   0.877  1.00  0.00     0.068 A 
ATOM     15  C   UNL     1      29.465 -13.722   0.782  1.00  0.00     0.200 A 
ATOM     16  C   UNL     1      30.004 -12.569   1.369  1.00  0.00     0.162 A 
BRANCH  13  17
ATOM     17  O   UNL     1      29.665 -15.484  -0.935  1.00  0.00    -0.504 OA
ATOM     18  H   UNL     1      29.064 -15.481  -1.746  1.00  0.00     0.293 HD
ENDBRANCH  13  17
BRANCH  15  19
ATOM     19  O   UNL     1      28.274 -14.230   1.306  1.00  0.00    -0.502 OA
ATOM     20  H   UNL     1      28.159 -14.530   2.263  1.00  0.00     0.293 HD
ENDBRANCH  15  19
BRANCH  16  21
ATOM     21  O   UNL     1      29.352 -11.980   2.451  1.00  0.00    -0.504 OA
ATOM     22  H   UNL     1      28.714 -11.202   2.328  1.00  0.00     0.293 HD
ENDBRANCH  16  21
ENDBRANCH   1  11
BRANCH  10  23
ATOM     23  O   UNL     1      31.981 -10.240  -1.929  1.00  0.00    -0.500 OA
ATOM     24  H   UNL     1      31.652 -10.260  -2.888  1.00  0.00     0.294 HD
ENDBRANCH  10  23
BRANCH   5  25
ATOM     25  O   UNL     1      39.004 -13.248  -0.551  1.00  0.00    -0.507 OA
ATOM     26  H   UNL     1      39.876 -12.776  -0.346  1.00  0.00     0.293 HD
ENDBRANCH   5  25
BRANCH   7  27
ATOM     27  O   UNL     1      36.968  -9.514  -2.850  1.00  0.00    -0.507 OA
ATOM     28  H   UNL     1      37.378  -8.663  -2.483  1.00  0.00     0.293 HD
ENDBRANCH   7  27
TORSDOF 7
ENDMDL
MODEL 5
REMARK VINA RESULT:    -8.176      1.148      7.074
REMARK INTER + INTRA:         -10.340
REMARK INTER:                 -10.021
REMARK INTRA:                  -0.319
REMARK UNBOUND:                -0.252
REMARK SMILES Oc1cc(O)c2cc(O)c(-c3cc(O)c(O)c(O)c3)[o+]c2c1
REMARK SMILES IDX 10 1 20 2 21 3 22 4 2 5 3 6 4 7 6 8 7 9 8 10 11 11 12 12
REMARK SMILES IDX 13 13 19 14 15 15 17 16 14 17 16 19 18 21 9 23 1 25 5 27
REMARK H PARENT 14 18 16 20 18 22 9 24 1 26 5 28
REMARK Flexibility Score: inf
ROOT
ATOM      1  C   UNL     1      33.141 -12.144  -0.713  1.00  0.00     0.402 A 
ATOM      2  O   UNL     1      34.289 -12.763  -0.439  1.00  0.00    -0.202 OA
ATOM      3  C   UNL     1      35.473 -12.312  -0.844  1.00  0.00     0.368 A 
ATOM      4  C   UNL     1      36.632 -13.019  -0.512  1.00  0.00     0.162 A 
ATOM      5  C   UNL     1      37.886 -12.552  -0.928  1.00  0.00     0.128 A 
ATOM      6  C   UNL     1      37.978 -11.375  -1.679  1.00  0.00     0.093 A 
ATOM      7  C   UNL     1      36.824 -10.657  -2.022  1.00  0.00     0.136 A 
ATOM      8  C   UNL     1      35.564 -11.125  -1.603  1.00  0.00     0.125 A 
ATOM      9  C   UNL     1      34.378 -10.454  -1.921  1.00  0.00     0.078 A 
ATOM     10  C   UNL     1      33.151 -10.965  -1.487  1.00  0.00     0.223 A 
ENDROOT
BRANCH   1  11
ATOM     11  C   UNL     1      31.885 -12.738  -0.201  1.00  0.00     0.091 A 
ATOM     12  C   UNL     1      31.224 -12.130   0.876  1.00  0.00     0.068 A 
ATOM     13  C   UNL     1      30.024 -12.652   1.373  1.00  0.00     0.162 A 
ATOM     14  C   UNL     1      31.311 -13.866  -0.806  1.00  0.00     0.068 A 
ATOM     15  C   UNL     1      29.462 -13.804   0.773  1.00  0.00     0.200 A 
ATOM     16  C   UNL     1      30.110 -14.399  -0.319  1.00  0.00     0.162 A 
BRANCH  13  17
ATOM     17  O   UNL     1      29.431 -12.000   2.457  1.00  0.00    -0.504 OA
ATOM     18  H   UNL     1      28.458 -12.094   2.708  1.00  0.00     0.293 HD
ENDBRANCH  13  17
BRANCH  15  19
ATOM     19  O   UNL     1      28.272 -14.380   1.223  1.00  0.00    -0.502 OA
ATOM     20  H   UNL     1      27.690 -14.986   0.665  1.00  0.00     0.293 HD
ENDBRANCH  15  19
BRANCH  16  21
ATOM     21  O   UNL     1      29.549 -15.524  -0.921  1.00  0.00    -0.504 OA
ATOM     22  H   UNL     1      29.825 -15.823  -1.850  1.00  0.00     0.293 HD
ENDBRANCH  16  21
ENDBRANCH   1  11
BRANCH  10  23
ATOM     23  O   UNL     1      31.962 -10.329  -1.843  1.00  0.00    -0.500 OA
ATOM     24  H   UNL     1      31.654 -10.281  -2.808  1.00  0.00     0.294 HD
ENDBRANCH  10  23
BRANCH   5  25
ATOM     25  O   UNL     1      39.047 -13.250  -0.600  1.00  0.00    -0.507 OA
ATOM     26  H   UNL     1      39.925 -13.068  -1.070  1.00  0.00     0.293 HD
ENDBRANCH   5  25
BRANCH   7  27
ATOM     27  O   UNL     1      36.929  -9.486  -2.773  1.00  0.00    -0.507 OA
ATOM     28  H   UNL     1      37.502  -8.708  -2.466  1.00  0.00     0.293 HD
ENDBRANCH   7  27
TORSDOF 7
ENDMDL
MODEL 6
REMARK VINA RESULT:    -8.048      1.136      7.162
REMARK INTER + INTRA:         -10.182
REMARK INTER:                  -9.806
REMARK INTRA:                  -0.375
REMARK UNBOUND:                -0.252
REMARK SMILES Oc1cc(O)c2cc(O)c(-c3cc(O)c(O)c(O)c3)[o+]c2c1
REMARK SMILES IDX 10 1 20 2 21 3 22 4 2 5 3 6 4 7 6 8 7 9 8 10 11 11 12 12
REMARK SMILES IDX 13 13 19 14 15 15 17 16 14 17 16 19 18 21 9 23 1 25 5 27
REMARK H PARENT 14 18 16 20 18 22 9 24 1 26 5 28
REMARK Flexibility Score: inf
ROOT
ATOM      1  C   UNL     1      33.516 -12.860  -0.042  1.00  0.00     0.402 A 
ATOM      2  O   UNL     1      33.854 -11.965  -0.969  1.00  0.00    -0.202 OA
ATOM      3  C   UNL     1      35.115 -11.716  -1.313  1.00  0.00     0.368 A 
ATOM      4  C   UNL     1      35.386 -10.763  -2.299  1.00  0.00     0.162 A 
ATOM      5  C   UNL     1      36.709 -10.493  -2.674  1.00  0.00     0.128 A 
ATOM      6  C   UNL     1      37.762 -11.179  -2.058  1.00  0.00     0.093 A 
ATOM      7  C   UNL     1      37.505 -12.136  -1.065  1.00  0.00     0.136 A 
ATOM      8  C   UNL     1      36.175 -12.407  -0.690  1.00  0.00     0.125 A 
ATOM      9  C   UNL     1      35.859 -13.346   0.299  1.00  0.00     0.078 A 
ATOM     10  C   UNL     1      34.523 -13.573   0.641  1.00  0.00     0.223 A 
ENDROOT
BRANCH   1  11
ATOM     11  C   UNL     1      32.077 -13.057   0.249  1.00  0.00     0.091 A 
ATOM     12  C   UNL     1      31.403 -12.129   1.057  1.00  0.00     0.068 A 
ATOM     13  C   UNL     1      30.040 -12.272   1.336  1.00  0.00     0.162 A 
ATOM     14  C   UNL     1      31.357 -14.122  -0.312  1.00  0.00     0.068 A 
ATOM     15  C   UNL     1      29.325 -13.362   0.785  1.00  0.00     0.200 A 
ATOM     16  C   UNL     1      29.991 -14.278  -0.042  1.00  0.00     0.162 A 
BRANCH  13  17
ATOM     17  O   UNL     1      29.440 -11.316   2.159  1.00  0.00    -0.504 OA
ATOM     18  H   UNL     1      29.113 -10.417   1.835  1.00  0.00     0.293 HD
ENDBRANCH  13  17
BRANCH  15  19
ATOM     19  O   UNL     1      27.965 -13.568   1.028  1.00  0.00    -0.502 OA
ATOM     20  H   UNL     1      27.548 -13.568   1.947  1.00  0.00     0.293 HD
ENDBRANCH  15  19
BRANCH  16  21
ATOM     21  O   UNL     1      29.285 -15.342  -0.598  1.00  0.00    -0.504 OA
ATOM     22  H   UNL     1      28.477 -15.744  -0.134  1.00  0.00     0.293 HD
ENDBRANCH  16  21
ENDBRANCH   1  11
BRANCH  10  23
ATOM     23  O   UNL     1      34.204 -14.470   1.660  1.00  0.00    -0.500 OA
ATOM     24  H   UNL     1      34.866 -14.699   2.393  1.00  0.00     0.294 HD
ENDBRANCH  10  23
BRANCH   5  25
ATOM     25  O   UNL     1      36.988  -9.546  -3.657  1.00  0.00    -0.507 OA
ATOM     26  H   UNL     1      36.251  -9.107  -4.194  1.00  0.00     0.293 HD
ENDBRANCH   5  25
BRANCH   7  27
ATOM     27  O   UNL     1      38.563 -12.811  -0.458  1.00  0.00    -0.507 OA
ATOM     28  H   UNL     1      39.364 -12.316  -0.083  1.00  0.00     0.293 HD
ENDBRANCH   7  27
TORSDOF 7
ENDMDL
MODEL 7
REMARK VINA RESULT:    -7.819      2.500      7.744
REMARK INTER + INTRA:          -9.899
REMARK INTER:                  -9.563
REMARK INTRA:                  -0.335
REMARK UNBOUND:                -0.252
REMARK SMILES Oc1cc(O)c2cc(O)c(-c3cc(O)c(O)c(O)c3)[o+]c2c1
REMARK SMILES IDX 10 1 20 2 21 3 22 4 2 5 3 6 4 7 6 8 7 9 8 10 11 11 12 12
REMARK SMILES IDX 13 13 19 14 15 15 17 16 14 17 16 19 18 21 9 23 1 25 5 27
REMARK H PARENT 14 18 16 20 18 22 9 24 1 26 5 28
REMARK Flexibility Score: inf
ROOT
ATOM      1  C   UNL     1      30.761 -13.194   0.230  1.00  0.00     0.402 A 
ATOM      2  O   UNL     1      30.681 -12.164  -0.611  1.00  0.00    -0.202 OA
ATOM      3  C   UNL     1      31.742 -11.629  -1.209  1.00  0.00     0.368 A 
ATOM      4  C   UNL     1      31.574 -10.550  -2.082  1.00  0.00     0.162 A 
ATOM      5  C   UNL     1      32.683  -9.981  -2.720  1.00  0.00     0.128 A 
ATOM      6  C   UNL     1      33.964 -10.491  -2.483  1.00  0.00     0.093 A 
ATOM      7  C   UNL     1      34.148 -11.572  -1.608  1.00  0.00     0.136 A 
ATOM      8  C   UNL     1      33.033 -12.146  -0.966  1.00  0.00     0.125 A 
ATOM      9  C   UNL     1      33.158 -13.220  -0.078  1.00  0.00     0.078 A 
ATOM     10  C   UNL     1      32.020 -13.748   0.539  1.00  0.00     0.223 A 
ENDROOT
BRANCH   1  11
ATOM     11  C   UNL     1      29.507 -13.709   0.827  1.00  0.00     0.091 A 
ATOM     12  C   UNL     1      29.169 -13.349   2.139  1.00  0.00     0.068 A 
ATOM     13  C   UNL     1      27.983 -13.799   2.729  1.00  0.00     0.162 A 
ATOM     14  C   UNL     1      28.619 -14.504   0.088  1.00  0.00     0.068 A 
ATOM     15  C   UNL     1      27.102 -14.621   1.985  1.00  0.00     0.200 A 
ATOM     16  C   UNL     1      27.427 -14.963   0.665  1.00  0.00     0.162 A 
BRANCH  13  17
ATOM     17  O   UNL     1      27.721 -13.410   4.044  1.00  0.00    -0.504 OA
ATOM     18  H   UNL     1      27.571 -14.055   4.806  1.00  0.00     0.293 HD
ENDBRANCH  13  17
BRANCH  15  19
ATOM     19  O   UNL     1      25.906 -15.110   2.514  1.00  0.00    -0.502 OA
ATOM     20  H   UNL     1      25.557 -16.044   2.357  1.00  0.00     0.293 HD
ENDBRANCH  15  19
BRANCH  16  21
ATOM     21  O   UNL     1      26.553 -15.759  -0.074  1.00  0.00    -0.504 OA
ATOM     22  H   UNL     1      26.053 -15.395  -0.877  1.00  0.00     0.293 HD
ENDBRANCH  16  21
ENDBRANCH   1  11
BRANCH  10  23
ATOM     23  O   UNL     1      32.142 -14.785   1.463  1.00  0.00    -0.500 OA
ATOM     24  H   UNL     1      31.559 -14.830   2.291  1.00  0.00     0.294 HD
ENDBRANCH  10  23
BRANCH   5  25
ATOM     25  O   UNL     1      32.524  -8.906  -3.593  1.00  0.00    -0.507 OA
ATOM     26  H   UNL     1      31.995  -8.084  -3.331  1.00  0.00     0.293 HD
ENDBRANCH   5  25
BRANCH   7  27
ATOM     27  O   UNL     1      35.430 -12.072  -1.378  1.00  0.00    -0.507 OA
ATOM     28  H   UNL     1      35.950 -11.834  -0.541  1.00  0.00     0.293 HD
ENDBRANCH   7  27
TORSDOF 7
ENDMDL
MODEL 8
REMARK VINA RESULT:    -7.499      1.731      7.418
REMARK INTER + INTRA:          -9.504
REMARK INTER:                  -9.122
REMARK INTRA:                  -0.381
REMARK UNBOUND:                -0.252
REMARK SMILES Oc1cc(O)c2cc(O)c(-c3cc(O)c(O)c(O)c3)[o+]c2c1
REMARK SMILES IDX 10 1 20 2 21 3 22 4 2 5 3 6 4 7 6 8 7 9 8 10 11 11 12 12
REMARK SMILES IDX 13 13 19 14 15 15 17 16 14 17 16 19 18 21 9 23 1 25 5 27
REMARK H PARENT 14 18 16 20 18 22 9 24 1 26 5 28
REMARK Flexibility Score: inf
ROOT
ATOM      1  C   UNL     1      31.387 -12.811   0.284  1.00  0.00     0.402 A 
ATOM      2  O   UNL     1      32.516 -13.486   0.499  1.00  0.00    -0.202 OA
ATOM      3  C   UNL     1      33.715 -13.028   0.148  1.00  0.00     0.368 A 
ATOM      4  C   UNL     1      34.852 -13.796   0.412  1.00  0.00     0.162 A 
ATOM      5  C   UNL     1      36.121 -13.324   0.051  1.00  0.00     0.128 A 
ATOM      6  C   UNL     1      36.250 -12.080  -0.576  1.00  0.00     0.093 A 
ATOM      7  C   UNL     1      35.117 -11.299  -0.849  1.00  0.00     0.136 A 
ATOM      8  C   UNL     1      33.842 -11.773  -0.486  1.00  0.00     0.125 A 
ATOM      9  C   UNL     1      32.677 -11.041  -0.740  1.00  0.00     0.078 A 
ATOM     10  C   UNL     1      31.434 -11.561  -0.366  1.00  0.00     0.223 A 
ENDROOT
BRANCH   1  11
ATOM     11  C   UNL     1      30.112 -13.420   0.727  1.00  0.00     0.091 A 
ATOM     12  C   UNL     1      29.605 -13.110   1.997  1.00  0.00     0.068 A 
ATOM     13  C   UNL     1      28.393 -13.651   2.441  1.00  0.00     0.162 A 
ATOM     14  C   UNL     1      29.370 -14.258  -0.118  1.00  0.00     0.068 A 
ATOM     15  C   UNL     1      27.660 -14.514   1.592  1.00  0.00     0.200 A 
ATOM     16  C   UNL     1      28.155 -14.807   0.313  1.00  0.00     0.162 A 
BRANCH  13  17
ATOM     17  O   UNL     1      27.958 -13.306   3.723  1.00  0.00    -0.504 OA
ATOM     18  H   UNL     1      27.700 -12.370   4.000  1.00  0.00     0.293 HD
ENDBRANCH  13  17
BRANCH  15  19
ATOM     19  O   UNL     1      26.449 -15.093   1.975  1.00  0.00    -0.502 OA
ATOM     20  H   UNL     1      26.284 -16.088   2.017  1.00  0.00     0.293 HD
ENDBRANCH  15  19
BRANCH  16  21
ATOM     21  O   UNL     1      27.427 -15.644  -0.530  1.00  0.00    -0.504 OA
ATOM     22  H   UNL     1      27.225 -15.387  -1.490  1.00  0.00     0.293 HD
ENDBRANCH  16  21
ENDBRANCH   1  11
BRANCH  10  23
ATOM     23  O   UNL     1      30.265 -10.860  -0.661  1.00  0.00    -0.500 OA
ATOM     24  H   UNL     1      29.577 -11.224  -1.309  1.00  0.00     0.294 HD
ENDBRANCH  10  23
BRANCH   5  25
ATOM     25  O   UNL     1      37.260 -14.083   0.312  1.00  0.00    -0.507 OA
ATOM     26  H   UNL     1      37.926 -14.307  -0.417  1.00  0.00     0.293 HD
ENDBRANCH   5  25
BRANCH   7  27
ATOM     27  O   UNL     1      35.259 -10.061  -1.476  1.00  0.00    -0.507 OA
ATOM     28  H   UNL     1      36.064  -9.848  -2.054  1.00  0.00     0.293 HD
ENDBRANCH   7  27
TORSDOF 7
ENDMDL
MODEL 9
REMARK VINA RESULT:    -7.442      2.223      3.351
REMARK INTER + INTRA:          -9.435
REMARK INTER:                  -9.271
REMARK INTRA:                  -0.163
REMARK UNBOUND:                -0.252
REMARK SMILES Oc1cc(O)c2cc(O)c(-c3cc(O)c(O)c(O)c3)[o+]c2c1
REMARK SMILES IDX 10 1 20 2 21 3 22 4 2 5 3 6 4 7 6 8 7 9 8 10 11 11 12 12
REMARK SMILES IDX 13 13 19 14 15 15 17 16 14 17 16 19 18 21 9 23 1 25 5 27
REMARK H PARENT 14 18 16 20 18 22 9 24 1 26 5 28
REMARK Flexibility Score: inf
ROOT
ATOM      1  C   UNL     1      31.355 -11.900   0.641  1.00  0.00     0.402 A 
ATOM      2  O   UNL     1      30.612 -12.999   0.763  1.00  0.00    -0.202 OA
ATOM      3  C   UNL     1      29.548 -13.074   1.559  1.00  0.00     0.368 A 
ATOM      4  C   UNL     1      28.819 -14.264   1.628  1.00  0.00     0.162 A 
ATOM      5  C   UNL     1      27.695 -14.355   2.459  1.00  0.00     0.128 A 
ATOM      6  C   UNL     1      27.301 -13.251   3.223  1.00  0.00     0.093 A 
ATOM      7  C   UNL     1      28.025 -12.051   3.165  1.00  0.00     0.136 A 
ATOM      8  C   UNL     1      29.154 -11.959   2.330  1.00  0.00     0.125 A 
ATOM      9  C   UNL     1      29.918 -10.790   2.237  1.00  0.00     0.078 A 
ATOM     10  C   UNL     1      31.035 -10.754   1.398  1.00  0.00     0.223 A 
ENDROOT
BRANCH   1  11
ATOM     11  C   UNL     1      32.511 -11.935  -0.284  1.00  0.00     0.091 A 
ATOM     12  C   UNL     1      33.463 -12.957  -0.159  1.00  0.00     0.068 A 
ATOM     13  C   UNL     1      34.557 -13.034  -1.029  1.00  0.00     0.162 A 
ATOM     14  C   UNL     1      32.646 -11.000  -1.320  1.00  0.00     0.068 A 
ATOM     15  C   UNL     1      34.699 -12.073  -2.058  1.00  0.00     0.200 A 
ATOM     16  C   UNL     1      33.736 -11.064  -2.198  1.00  0.00     0.162 A 
BRANCH  13  17
ATOM     17  O   UNL     1      35.470 -14.072  -0.834  1.00  0.00    -0.504 OA
ATOM     18  H   UNL     1      35.237 -15.052  -0.911  1.00  0.00     0.293 HD
ENDBRANCH  13  17
BRANCH  15  19
ATOM     19  O   UNL     1      35.769 -12.087  -2.955  1.00  0.00    -0.502 OA
ATOM     20  H   UNL     1      36.719 -11.853  -2.707  1.00  0.00     0.293 HD
ENDBRANCH  15  19
BRANCH  16  21
ATOM     21  O   UNL     1      33.866 -10.127  -3.222  1.00  0.00    -0.504 OA
ATOM     22  H   UNL     1      34.490 -10.280  -4.006  1.00  0.00     0.293 HD
ENDBRANCH  16  21
ENDBRANCH   1  11
BRANCH  10  23
ATOM     23  O   UNL     1      31.830  -9.609   1.340  1.00  0.00    -0.500 OA
ATOM     24  H   UNL     1      31.760  -8.954   0.570  1.00  0.00     0.294 HD
ENDBRANCH  10  23
BRANCH   5  25
ATOM     25  O   UNL     1      26.961 -15.537   2.532  1.00  0.00    -0.507 OA
ATOM     26  H   UNL     1      26.143 -15.690   1.956  1.00  0.00     0.293 HD
ENDBRANCH   5  25
BRANCH   7  27
ATOM     27  O   UNL     1      27.623 -10.958   3.933  1.00  0.00    -0.507 OA
ATOM     28  H   UNL     1      28.232 -10.161   4.081  1.00  0.00     0.293 HD
ENDBRANCH   7  27
TORSDOF 7
ENDMDL
