MODEL 1
REMARK VINA RESULT:    -2.534      0.000      0.000
REMARK INTER + INTRA:          -9.105
REMARK INTER:                  -5.497
REMARK INTRA:                  -3.609
REMARK UNBOUND:                -3.609
REMARK SMILES CCCCCCCCCCCCCCCCCCCCCC(=O)[O-]
REMARK SMILES IDX 12 1 11 2 10 3 9 4 8 5 7 6 6 7 5 8 4 9 3 10 2 11 1 12 13 13
REMARK SMILES IDX 14 14 15 15 16 16 17 17 18 18 19 19 20 20 21 21 22 22 23 23
REMARK SMILES IDX 24 24
REMARK H PARENT
REMARK Flexibility Score: inf
ROOT
ATOM      1  C   UNL     1     -18.778  15.749 -18.341  1.00  0.00     0.000 C 
ENDROOT
BRANCH   1   2
ATOM      2  C   UNL     1     -18.150  14.418 -18.781  1.00  0.00     0.000 C 
BRANCH   2   3
ATOM      3  C   UNL     1     -18.754  13.939 -20.110  1.00  0.00     0.000 C 
BRANCH   3   4
ATOM      4  C   UNL     1     -19.804  14.912 -20.679  1.00  0.00    -0.000 C 
BRANCH   4   5
ATOM      5  C   UNL     1     -21.076  14.250 -21.243  1.00  0.00    -0.000 C 
BRANCH   5   6
ATOM      6  C   UNL     1     -21.833  15.152 -22.233  1.00  0.00    -0.000 C 
BRANCH   6   7
ATOM      7  C   UNL     1     -22.109  14.463 -23.582  1.00  0.00    -0.000 C 
BRANCH   7   8
ATOM      8  C   UNL     1     -21.207  13.256 -23.898  1.00  0.00    -0.000 C 
BRANCH   8   9
ATOM      9  C   UNL     1     -19.991  13.623 -24.763  1.00  0.00    -0.000 C 
BRANCH   9  10
ATOM     10  C   UNL     1     -18.764  12.790 -24.364  1.00  0.00    -0.000 C 
BRANCH  10  11
ATOM     11  C   UNL     1     -17.701  13.621 -23.628  1.00  0.00    -0.003 C 
ATOM     12  C   UNL     1     -17.904  15.126 -23.797  1.00  0.00     0.004 C 
ENDBRANCH  10  11
ENDBRANCH   9  10
ENDBRANCH   8   9
ENDBRANCH   7   8
ENDBRANCH   6   7
ENDBRANCH   5   6
ENDBRANCH   4   5
ENDBRANCH   3   4
ENDBRANCH   2   3
ENDBRANCH   1   2
BRANCH   1  13
ATOM     13  C   UNL     1     -19.206  15.746 -16.865  1.00  0.00     0.000 C 
BRANCH  13  14
ATOM     14  C   UNL     1     -20.633  16.287 -16.663  1.00  0.00     0.000 C 
BRANCH  14  15
ATOM     15  C   UNL     1     -21.663  15.580 -17.558  1.00  0.00     0.000 C 
BRANCH  15  16
ATOM     16  C   UNL     1     -22.670  14.737 -16.754  1.00  0.00     0.000 C 
BRANCH  16  17
ATOM     17  C   UNL     1     -22.684  13.264 -17.192  1.00  0.00     0.000 C 
BRANCH  17  18
ATOM     18  C   UNL     1     -21.344  12.819 -17.802  1.00  0.00     0.000 C 
BRANCH  18  19
ATOM     19  C   UNL     1     -20.622  11.760 -16.950  1.00  0.00     0.000 C 
BRANCH  19  20
ATOM     20  C   UNL     1     -20.057  12.271 -15.611  1.00  0.00     0.006 C 
BRANCH  20  21
ATOM     21  C   UNL     1     -20.607  11.535 -14.376  1.00  0.00     0.053 C 
BRANCH  21  22
ATOM     22  C   UNL     1     -21.788  12.232 -13.769  1.00  0.00     0.041 C 
ATOM     23  O   UNL     1     -22.957  11.848 -14.035  1.00  0.00    -0.550 OA
ATOM     24  O   UNL     1     -21.597  13.282 -12.879  1.00  0.00    -0.550 OA
ENDBRANCH  21  22
ENDBRANCH  20  21
ENDBRANCH  19  20
ENDBRANCH  18  19
ENDBRANCH  17  18
ENDBRANCH  16  17
ENDBRANCH  15  16
ENDBRANCH  14  15
ENDBRANCH  13  14
ENDBRANCH   1  13
TORSDOF 20
ENDMDL
MODEL 2
REMARK VINA RESULT:    -2.365      3.595      7.753
REMARK INTER + INTRA:          -8.739
REMARK INTER:                  -5.159
REMARK INTRA:                  -3.580
REMARK UNBOUND:                -3.609
REMARK SMILES CCCCCCCCCCCCCCCCCCCCCC(=O)[O-]
REMARK SMILES IDX 12 1 11 2 10 3 9 4 8 5 7 6 6 7 5 8 4 9 3 10 2 11 1 12 13 13
REMARK SMILES IDX 14 14 15 15 16 16 17 17 18 18 19 19 20 20 21 21 22 22 23 23
REMARK SMILES IDX 24 24
REMARK H PARENT
REMARK Flexibility Score: inf
ROOT
ATOM      1  C   UNL     1     -20.583  14.653 -20.034  1.00  0.00     0.000 C 
ENDROOT
BRANCH   1   2
ATOM      2  C   UNL     1     -19.371  13.887 -19.482  1.00  0.00     0.000 C 
BRANCH   2   3
ATOM      3  C   UNL     1     -19.083  14.293 -18.029  1.00  0.00     0.000 C 
BRANCH   3   4
ATOM      4  C   UNL     1     -19.122  13.104 -17.051  1.00  0.00    -0.000 C 
BRANCH   4   5
ATOM      5  C   UNL     1     -20.241  12.078 -17.309  1.00  0.00    -0.000 C 
BRANCH   5   6
ATOM      6  C   UNL     1     -21.510  12.353 -16.485  1.00  0.00    -0.000 C 
BRANCH   6   7
ATOM      7  C   UNL     1     -22.583  13.127 -17.273  1.00  0.00    -0.000 C 
BRANCH   7   8
ATOM      8  C   UNL     1     -23.172  14.352 -16.551  1.00  0.00    -0.000 C 
BRANCH   8   9
ATOM      9  C   UNL     1     -22.595  15.684 -17.054  1.00  0.00    -0.000 C 
BRANCH   9  10
ATOM     10  C   UNL     1     -21.455  16.165 -16.144  1.00  0.00    -0.000 C 
BRANCH  10  11
ATOM     11  C   UNL     1     -21.574  15.621 -14.711  1.00  0.00    -0.003 C 
ATOM     12  C   UNL     1     -20.231  15.179 -14.132  1.00  0.00     0.004 C 
ENDBRANCH  10  11
ENDBRANCH   9  10
ENDBRANCH   8   9
ENDBRANCH   7   8
ENDBRANCH   6   7
ENDBRANCH   5   6
ENDBRANCH   4   5
ENDBRANCH   3   4
ENDBRANCH   2   3
ENDBRANCH   1   2
BRANCH   1  13
ATOM     13  C   UNL     1     -21.112  14.060 -21.350  1.00  0.00     0.000 C 
BRANCH  13  14
ATOM     14  C   UNL     1     -21.722  15.128 -22.276  1.00  0.00     0.000 C 
BRANCH  14  15
ATOM     15  C   UNL     1     -22.179  14.547 -23.623  1.00  0.00     0.000 C 
BRANCH  15  16
ATOM     16  C   UNL     1     -21.422  13.261 -24.004  1.00  0.00     0.000 C 
BRANCH  16  17
ATOM     17  C   UNL     1     -20.172  13.546 -24.851  1.00  0.00     0.000 C 
BRANCH  17  18
ATOM     18  C   UNL     1     -18.939  12.768 -24.359  1.00  0.00     0.000 C 
BRANCH  18  19
ATOM     19  C   UNL     1     -18.025  13.608 -23.451  1.00  0.00     0.000 C 
BRANCH  19  20
ATOM     20  C   UNL     1     -18.206  15.134 -23.572  1.00  0.00     0.006 C 
BRANCH  20  21
ATOM     21  C   UNL     1     -17.858  15.911 -22.288  1.00  0.00     0.053 C 
BRANCH  21  22
ATOM     22  C   UNL     1     -16.530  16.601 -22.377  1.00  0.00     0.041 C 
ATOM     23  O   UNL     1     -16.032  17.152 -21.360  1.00  0.00    -0.550 OA
ATOM     24  O   UNL     1     -15.822  16.602 -23.573  1.00  0.00    -0.550 OA
ENDBRANCH  21  22
ENDBRANCH  20  21
ENDBRANCH  19  20
ENDBRANCH  18  19
ENDBRANCH  17  18
ENDBRANCH  16  17
ENDBRANCH  15  16
ENDBRANCH  14  15
ENDBRANCH  13  14
ENDBRANCH   1  13
TORSDOF 20
ENDMDL
MODEL 3
REMARK VINA RESULT:    -2.339      1.521      2.808
REMARK INTER + INTRA:          -8.683
REMARK INTER:                  -5.425
REMARK INTRA:                  -3.258
REMARK UNBOUND:                -3.609
REMARK SMILES CCCCCCCCCCCCCCCCCCCCCC(=O)[O-]
REMARK SMILES IDX 12 1 11 2 10 3 9 4 8 5 7 6 6 7 5 8 4 9 3 10 2 11 1 12 13 13
REMARK SMILES IDX 14 14 15 15 16 16 17 17 18 18 19 19 20 20 21 21 22 22 23 23
REMARK SMILES IDX 24 24
REMARK H PARENT
REMARK Flexibility Score: inf
ROOT
ATOM      1  C   UNL     1     -19.080  14.016 -17.584  1.00  0.00     0.000 C 
ENDROOT
BRANCH   1   2
ATOM      2  C   UNL     1     -19.671  14.867 -18.719  1.00  0.00     0.000 C 
BRANCH   2   3
ATOM      3  C   UNL     1     -20.974  14.248 -19.245  1.00  0.00     0.000 C 
BRANCH   3   4
ATOM      4  C   UNL     1     -20.978  14.060 -20.774  1.00  0.00    -0.000 C 
BRANCH   4   5
ATOM      5  C   UNL     1     -21.527  15.251 -21.581  1.00  0.00    -0.000 C 
BRANCH   5   6
ATOM      6  C   UNL     1     -22.110  14.835 -22.943  1.00  0.00    -0.000 C 
BRANCH   6   7
ATOM      7  C   UNL     1     -21.745  13.392 -23.336  1.00  0.00    -0.000 C 
BRANCH   7   8
ATOM      8  C   UNL     1     -20.988  13.246 -24.668  1.00  0.00    -0.000 C 
BRANCH   8   9
ATOM      9  C   UNL     1     -19.502  12.903 -24.482  1.00  0.00    -0.000 C 
BRANCH   9  10
ATOM     10  C   UNL     1     -18.686  14.163 -24.157  1.00  0.00    -0.000 C 
BRANCH  10  11
ATOM     11  C   UNL     1     -17.919  14.044 -22.831  1.00  0.00    -0.003 C 
ATOM     12  C   UNL     1     -17.819  15.373 -22.083  1.00  0.00     0.004 C 
ENDBRANCH  10  11
ENDBRANCH   9  10
ENDBRANCH   8   9
ENDBRANCH   7   8
ENDBRANCH   6   7
ENDBRANCH   5   6
ENDBRANCH   4   5
ENDBRANCH   3   4
ENDBRANCH   2   3
ENDBRANCH   1   2
BRANCH   1  13
ATOM     13  C   UNL     1     -19.685  12.605 -17.523  1.00  0.00     0.000 C 
BRANCH  13  14
ATOM     14  C   UNL     1     -19.437  11.915 -16.169  1.00  0.00     0.000 C 
BRANCH  14  15
ATOM     15  C   UNL     1     -20.706  11.841 -15.306  1.00  0.00     0.000 C 
BRANCH  15  16
ATOM     16  C   UNL     1     -21.997  11.977 -16.135  1.00  0.00     0.000 C 
BRANCH  16  17
ATOM     17  C   UNL     1     -23.139  12.630 -15.340  1.00  0.00     0.000 C 
BRANCH  17  18
ATOM     18  C   UNL     1     -24.020  13.536 -16.216  1.00  0.00     0.000 C 
BRANCH  18  19
ATOM     19  C   UNL     1     -23.342  14.872 -16.566  1.00  0.00     0.000 C 
BRANCH  19  20
ATOM     20  C   UNL     1     -22.799  15.665 -15.361  1.00  0.00     0.006 C 
BRANCH  20  21
ATOM     21  C   UNL     1     -21.271  15.859 -15.375  1.00  0.00     0.053 C 
BRANCH  21  22
ATOM     22  C   UNL     1     -20.604  15.255 -14.176  1.00  0.00     0.041 C 
ATOM     23  O   UNL     1     -21.282  14.948 -13.160  1.00  0.00    -0.550 OA
ATOM     24  O   UNL     1     -19.239  14.994 -14.193  1.00  0.00    -0.550 OA
ENDBRANCH  21  22
ENDBRANCH  20  21
ENDBRANCH  19  20
ENDBRANCH  18  19
ENDBRANCH  17  18
ENDBRANCH  16  17
ENDBRANCH  15  16
ENDBRANCH  14  15
ENDBRANCH  13  14
ENDBRANCH   1  13
TORSDOF 20
ENDMDL
MODEL 4
REMARK VINA RESULT:    -2.334     13.238     15.635
REMARK INTER + INTRA:          -8.672
REMARK INTER:                  -5.113
REMARK INTRA:                  -3.559
REMARK UNBOUND:                -3.609
REMARK SMILES CCCCCCCCCCCCCCCCCCCCCC(=O)[O-]
REMARK SMILES IDX 12 1 11 2 10 3 9 4 8 5 7 6 6 7 5 8 4 9 3 10 2 11 1 12 13 13
REMARK SMILES IDX 14 14 15 15 16 16 17 17 18 18 19 19 20 20 21 21 22 22 23 23
REMARK SMILES IDX 24 24
REMARK H PARENT
REMARK Flexibility Score: inf
ROOT
ATOM      1  C   UNL     1     -24.446  29.849 -19.309  1.00  0.00     0.000 C 
ENDROOT
BRANCH   1   2
ATOM      2  C   UNL     1     -24.687  29.466 -20.778  1.00  0.00     0.000 C 
BRANCH   2   3
ATOM      3  C   UNL     1     -23.393  29.589 -21.595  1.00  0.00     0.000 C 
BRANCH   3   4
ATOM      4  C   UNL     1     -22.202  28.854 -20.952  1.00  0.00    -0.000 C 
BRANCH   4   5
ATOM      5  C   UNL     1     -21.830  27.509 -21.604  1.00  0.00    -0.000 C 
BRANCH   5   6
ATOM      6  C   UNL     1     -20.925  26.641 -20.714  1.00  0.00    -0.000 C 
BRANCH   6   7
ATOM      7  C   UNL     1     -21.676  26.011 -19.527  1.00  0.00    -0.000 C 
BRANCH   7   8
ATOM      8  C   UNL     1     -21.133  24.650 -19.055  1.00  0.00    -0.000 C 
BRANCH   8   9
ATOM      9  C   UNL     1     -19.644  24.692 -18.680  1.00  0.00    -0.000 C 
BRANCH   9  10
ATOM     10  C   UNL     1     -19.411  25.598 -17.461  1.00  0.00    -0.000 C 
BRANCH  10  11
ATOM     11  C   UNL     1     -17.959  26.091 -17.362  1.00  0.00    -0.003 C 
ATOM     12  C   UNL     1     -17.665  26.804 -16.042  1.00  0.00     0.004 C 
ENDBRANCH  10  11
ENDBRANCH   9  10
ENDBRANCH   8   9
ENDBRANCH   7   8
ENDBRANCH   6   7
ENDBRANCH   5   6
ENDBRANCH   4   5
ENDBRANCH   3   4
ENDBRANCH   2   3
ENDBRANCH   1   2
BRANCH   1  13
ATOM     13  C   UNL     1     -24.941  28.776 -18.326  1.00  0.00     0.000 C 
BRANCH  13  14
ATOM     14  C   UNL     1     -23.802  28.185 -17.475  1.00  0.00     0.000 C 
BRANCH  14  15
ATOM     15  C   UNL     1     -22.747  29.235 -17.093  1.00  0.00     0.000 C 
BRANCH  15  16
ATOM     16  C   UNL     1     -21.306  28.726 -17.281  1.00  0.00     0.000 C 
BRANCH  16  17
ATOM     17  C   UNL     1     -20.263  29.682 -16.682  1.00  0.00     0.000 C 
BRANCH  17  18
ATOM     18  C   UNL     1     -19.112  29.981 -17.657  1.00  0.00     0.000 C 
BRANCH  18  19
ATOM     19  C   UNL     1     -19.177  29.131 -18.938  1.00  0.00     0.000 C 
BRANCH  19  20
ATOM     20  C   UNL     1     -17.957  29.257 -19.871  1.00  0.00     0.006 C 
BRANCH  20  21
ATOM     21  C   UNL     1     -18.316  29.590 -21.331  1.00  0.00     0.053 C 
BRANCH  21  22
ATOM     22  C   UNL     1     -17.137  29.482 -22.251  1.00  0.00     0.041 C 
ATOM     23  O   UNL     1     -16.973  28.450 -22.954  1.00  0.00    -0.550 OA
ATOM     24  O   UNL     1     -16.240  30.538 -22.364  1.00  0.00    -0.550 OA
ENDBRANCH  21  22
ENDBRANCH  20  21
ENDBRANCH  19  20
ENDBRANCH  18  19
ENDBRANCH  17  18
ENDBRANCH  16  17
ENDBRANCH  15  16
ENDBRANCH  14  15
ENDBRANCH  13  14
ENDBRANCH   1  13
TORSDOF 20
ENDMDL
MODEL 5
REMARK VINA RESULT:    -2.300      3.646      7.627
REMARK INTER + INTRA:          -8.599
REMARK INTER:                  -5.675
REMARK INTRA:                  -2.924
REMARK UNBOUND:                -3.609
REMARK SMILES CCCCCCCCCCCCCCCCCCCCCC(=O)[O-]
REMARK SMILES IDX 12 1 11 2 10 3 9 4 8 5 7 6 6 7 5 8 4 9 3 10 2 11 1 12 13 13
REMARK SMILES IDX 14 14 15 15 16 16 17 17 18 18 19 19 20 20 21 21 22 22 23 23
REMARK SMILES IDX 24 24
REMARK H PARENT
REMARK Flexibility Score: inf
ROOT
ATOM      1  C   UNL     1     -20.206  14.828 -20.205  1.00  0.00     0.000 C 
ENDROOT
BRANCH   1   2
ATOM      2  C   UNL     1     -19.002  13.993 -19.741  1.00  0.00     0.000 C 
BRANCH   2   3
ATOM      3  C   UNL     1     -18.702  14.242 -18.256  1.00  0.00     0.000 C 
BRANCH   3   4
ATOM      4  C   UNL     1     -18.229  12.978 -17.515  1.00  0.00    -0.000 C 
BRANCH   4   5
ATOM      5  C   UNL     1     -19.194  12.444 -16.440  1.00  0.00    -0.000 C 
BRANCH   5   6
ATOM      6  C   UNL     1     -20.463  11.810 -17.035  1.00  0.00    -0.000 C 
BRANCH   6   7
ATOM      7  C   UNL     1     -21.653  11.820 -16.059  1.00  0.00    -0.000 C 
BRANCH   7   8
ATOM      8  C   UNL     1     -22.452  13.135 -16.010  1.00  0.00    -0.000 C 
BRANCH   8   9
ATOM      9  C   UNL     1     -22.398  13.922 -17.329  1.00  0.00    -0.000 C 
BRANCH   9  10
ATOM     10  C   UNL     1     -22.030  15.391 -17.076  1.00  0.00    -0.000 C 
BRANCH  10  11
ATOM     11  C   UNL     1     -22.984  16.368 -17.781  1.00  0.00    -0.003 C 
ATOM     12  C   UNL     1     -22.250  17.389 -18.649  1.00  0.00     0.004 C 
ENDBRANCH  10  11
ENDBRANCH   9  10
ENDBRANCH   8   9
ENDBRANCH   7   8
ENDBRANCH   6   7
ENDBRANCH   5   6
ENDBRANCH   4   5
ENDBRANCH   3   4
ENDBRANCH   2   3
ENDBRANCH   1   2
BRANCH   1  13
ATOM     13  C   UNL     1     -20.987  14.161 -21.348  1.00  0.00     0.000 C 
BRANCH  13  14
ATOM     14  C   UNL     1     -21.665  15.185 -22.276  1.00  0.00     0.000 C 
BRANCH  14  15
ATOM     15  C   UNL     1     -22.414  14.518 -23.440  1.00  0.00     0.000 C 
BRANCH  15  16
ATOM     16  C   UNL     1     -21.522  14.305 -24.677  1.00  0.00     0.000 C 
BRANCH  16  17
ATOM     17  C   UNL     1     -20.899  12.901 -24.715  1.00  0.00     0.000 C 
BRANCH  17  18
ATOM     18  C   UNL     1     -19.370  12.933 -24.547  1.00  0.00     0.000 C 
BRANCH  18  19
ATOM     19  C   UNL     1     -18.781  14.346 -24.700  1.00  0.00     0.000 C 
BRANCH  19  20
ATOM     20  C   UNL     1     -17.717  14.729 -23.653  1.00  0.00     0.006 C 
BRANCH  20  21
ATOM     21  C   UNL     1     -17.263  13.556 -22.763  1.00  0.00     0.053 C 
BRANCH  21  22
ATOM     22  C   UNL     1     -15.887  13.071 -23.109  1.00  0.00     0.041 C 
ATOM     23  O   UNL     1     -15.196  13.681 -23.967  1.00  0.00    -0.550 OA
ATOM     24  O   UNL     1     -15.351  11.968 -22.456  1.00  0.00    -0.550 OA
ENDBRANCH  21  22
ENDBRANCH  20  21
ENDBRANCH  19  20
ENDBRANCH  18  19
ENDBRANCH  17  18
ENDBRANCH  16  17
ENDBRANCH  15  16
ENDBRANCH  14  15
ENDBRANCH  13  14
ENDBRANCH   1  13
TORSDOF 20
ENDMDL
MODEL 6
REMARK VINA RESULT:    -2.295     13.864     15.599
REMARK INTER + INTRA:          -8.587
REMARK INTER:                  -5.227
REMARK INTRA:                  -3.360
REMARK UNBOUND:                -3.609
REMARK SMILES CCCCCCCCCCCCCCCCCCCCCC(=O)[O-]
REMARK SMILES IDX 12 1 11 2 10 3 9 4 8 5 7 6 6 7 5 8 4 9 3 10 2 11 1 12 13 13
REMARK SMILES IDX 14 14 15 15 16 16 17 17 18 18 19 19 20 20 21 21 22 22 23 23
REMARK SMILES IDX 24 24
REMARK H PARENT
REMARK Flexibility Score: inf
ROOT
ATOM      1  C   UNL     1     -19.866  27.686 -18.522  1.00  0.00     0.000 C 
ENDROOT
BRANCH   1   2
ATOM      2  C   UNL     1     -20.301  29.107 -18.133  1.00  0.00     0.000 C 
BRANCH   2   3
ATOM      3  C   UNL     1     -19.080  30.017 -17.931  1.00  0.00     0.000 C 
BRANCH   3   4
ATOM      4  C   UNL     1     -17.821  29.507 -18.658  1.00  0.00    -0.000 C 
BRANCH   4   5
ATOM      5  C   UNL     1     -17.033  30.577 -19.437  1.00  0.00    -0.000 C 
BRANCH   5   6
ATOM      6  C   UNL     1     -17.006  30.317 -20.953  1.00  0.00    -0.000 C 
BRANCH   6   7
ATOM      7  C   UNL     1     -18.124  29.367 -21.419  1.00  0.00    -0.000 C 
BRANCH   7   8
ATOM      8  C   UNL     1     -17.644  28.073 -22.101  1.00  0.00    -0.000 C 
BRANCH   8   9
ATOM      9  C   UNL     1     -16.708  27.237 -21.215  1.00  0.00    -0.000 C 
BRANCH   9  10
ATOM     10  C   UNL     1     -15.321  27.099 -21.860  1.00  0.00    -0.000 C 
BRANCH  10  11
ATOM     11  C   UNL     1     -14.180  27.390 -20.873  1.00  0.00    -0.003 C 
ATOM     12  C   UNL     1     -14.680  27.686 -19.460  1.00  0.00     0.004 C 
ENDBRANCH  10  11
ENDBRANCH   9  10
ENDBRANCH   8   9
ENDBRANCH   7   8
ENDBRANCH   6   7
ENDBRANCH   5   6
ENDBRANCH   4   5
ENDBRANCH   3   4
ENDBRANCH   2   3
ENDBRANCH   1   2
BRANCH   1  13
ATOM     13  C   UNL     1     -20.704  27.102 -19.670  1.00  0.00     0.000 C 
BRANCH  13  14
ATOM     14  C   UNL     1     -21.377  28.192 -20.524  1.00  0.00     0.000 C 
BRANCH  14  15
ATOM     15  C   UNL     1     -22.032  27.624 -21.793  1.00  0.00     0.000 C 
BRANCH  15  16
ATOM     16  C   UNL     1     -23.474  28.124 -21.993  1.00  0.00     0.000 C 
BRANCH  16  17
ATOM     17  C   UNL     1     -23.591  29.650 -21.854  1.00  0.00     0.000 C 
BRANCH  17  18
ATOM     18  C   UNL     1     -24.830  30.073 -21.046  1.00  0.00     0.000 C 
BRANCH  18  19
ATOM     19  C   UNL     1     -24.996  29.271 -19.743  1.00  0.00     0.000 C 
BRANCH  19  20
ATOM     20  C   UNL     1     -24.062  29.693 -18.592  1.00  0.00     0.006 C 
BRANCH  20  21
ATOM     21  C   UNL     1     -23.935  28.645 -17.471  1.00  0.00     0.053 C 
BRANCH  21  22
ATOM     22  C   UNL     1     -23.473  29.241 -16.175  1.00  0.00     0.041 C 
ATOM     23  O   UNL     1     -23.194  28.498 -15.198  1.00  0.00    -0.550 OA
ATOM     24  O   UNL     1     -23.313  30.617 -16.057  1.00  0.00    -0.550 OA
ENDBRANCH  21  22
ENDBRANCH  20  21
ENDBRANCH  19  20
ENDBRANCH  18  19
ENDBRANCH  17  18
ENDBRANCH  16  17
ENDBRANCH  15  16
ENDBRANCH  14  15
ENDBRANCH  13  14
ENDBRANCH   1  13
TORSDOF 20
ENDMDL
MODEL 7
REMARK VINA RESULT:    -2.287     12.638     15.127
REMARK INTER + INTRA:          -8.569
REMARK INTER:                  -5.154
REMARK INTRA:                  -3.414
REMARK UNBOUND:                -3.609
REMARK SMILES CCCCCCCCCCCCCCCCCCCCCC(=O)[O-]
REMARK SMILES IDX 12 1 11 2 10 3 9 4 8 5 7 6 6 7 5 8 4 9 3 10 2 11 1 12 13 13
REMARK SMILES IDX 14 14 15 15 16 16 17 17 18 18 19 19 20 20 21 21 22 22 23 23
REMARK SMILES IDX 24 24
REMARK H PARENT
REMARK Flexibility Score: inf
ROOT
ATOM      1  C   UNL     1     -19.831  28.024 -19.989  1.00  0.00     0.000 C 
ENDROOT
BRANCH   1   2
ATOM      2  C   UNL     1     -20.857  28.533 -21.014  1.00  0.00     0.000 C 
BRANCH   2   3
ATOM      3  C   UNL     1     -21.972  27.499 -21.232  1.00  0.00     0.000 C 
BRANCH   3   4
ATOM      4  C   UNL     1     -23.181  28.068 -21.996  1.00  0.00    -0.000 C 
BRANCH   4   5
ATOM      5  C   UNL     1     -23.415  29.581 -21.825  1.00  0.00    -0.000 C 
BRANCH   5   6
ATOM      6  C   UNL     1     -24.774  29.909 -21.184  1.00  0.00    -0.000 C 
BRANCH   6   7
ATOM      7  C   UNL     1     -24.950  29.275 -19.792  1.00  0.00    -0.000 C 
BRANCH   7   8
ATOM      8  C   UNL     1     -24.310  30.055 -18.630  1.00  0.00    -0.000 C 
BRANCH   8   9
ATOM      9  C   UNL     1     -23.924  29.159 -17.443  1.00  0.00    -0.000 C 
BRANCH   9  10
ATOM     10  C   UNL     1     -23.767  27.698 -17.888  1.00  0.00    -0.000 C 
BRANCH  10  11
ATOM     11  C   UNL     1     -22.399  27.108 -17.506  1.00  0.00    -0.003 C 
ATOM     12  C   UNL     1     -21.525  28.094 -16.733  1.00  0.00     0.004 C 
ENDBRANCH  10  11
ENDBRANCH   9  10
ENDBRANCH   8   9
ENDBRANCH   7   8
ENDBRANCH   6   7
ENDBRANCH   5   6
ENDBRANCH   4   5
ENDBRANCH   3   4
ENDBRANCH   2   3
ENDBRANCH   1   2
BRANCH   1  13
ATOM     13  C   UNL     1     -18.455  28.689 -20.146  1.00  0.00     0.000 C 
BRANCH  13  14
ATOM     14  C   UNL     1     -18.376  29.597 -21.386  1.00  0.00     0.000 C 
BRANCH  14  15
ATOM     15  C   UNL     1     -16.944  29.726 -21.931  1.00  0.00     0.000 C 
BRANCH  15  16
ATOM     16  C   UNL     1     -16.594  28.625 -22.949  1.00  0.00     0.000 C 
BRANCH  16  17
ATOM     17  C   UNL     1     -15.826  27.458 -22.310  1.00  0.00     0.000 C 
BRANCH  17  18
ATOM     18  C   UNL     1     -16.510  26.101 -22.554  1.00  0.00     0.000 C 
BRANCH  18  19
ATOM     19  C   UNL     1     -17.861  26.235 -23.278  1.00  0.00     0.000 C 
BRANCH  19  20
ATOM     20  C   UNL     1     -19.045  25.532 -22.586  1.00  0.00     0.006 C 
BRANCH  20  21
ATOM     21  C   UNL     1     -18.656  24.747 -21.320  1.00  0.00     0.053 C 
BRANCH  21  22
ATOM     22  C   UNL     1     -19.748  23.832 -20.852  1.00  0.00     0.041 C 
ATOM     23  O   UNL     1     -20.799  24.305 -20.345  1.00  0.00    -0.550 OA
ATOM     24  O   UNL     1     -19.624  22.457 -21.012  1.00  0.00    -0.550 OA
ENDBRANCH  21  22
ENDBRANCH  20  21
ENDBRANCH  19  20
ENDBRANCH  18  19
ENDBRANCH  17  18
ENDBRANCH  16  17
ENDBRANCH  15  16
ENDBRANCH  14  15
ENDBRANCH  13  14
ENDBRANCH   1  13
TORSDOF 20
ENDMDL
MODEL 8
REMARK VINA RESULT:    -2.262      3.067      4.952
REMARK INTER + INTRA:          -8.516
REMARK INTER:                  -5.165
REMARK INTRA:                  -3.351
REMARK UNBOUND:                -3.609
REMARK SMILES CCCCCCCCCCCCCCCCCCCCCC(=O)[O-]
REMARK SMILES IDX 12 1 11 2 10 3 9 4 8 5 7 6 6 7 5 8 4 9 3 10 2 11 1 12 13 13
REMARK SMILES IDX 14 14 15 15 16 16 17 17 18 18 19 19 20 20 21 21 22 22 23 23
REMARK SMILES IDX 24 24
REMARK H PARENT
REMARK Flexibility Score: inf
ROOT
ATOM      1  C   UNL     1     -21.708  12.608 -16.710  1.00  0.00     0.000 C 
ENDROOT
BRANCH   1   2
ATOM      2  C   UNL     1     -21.839  13.594 -17.882  1.00  0.00     0.000 C 
BRANCH   2   3
ATOM      3  C   UNL     1     -22.247  14.987 -17.381  1.00  0.00     0.000 C 
BRANCH   3   4
ATOM      4  C   UNL     1     -21.499  16.128 -18.097  1.00  0.00    -0.000 C 
BRANCH   4   5
ATOM      5  C   UNL     1     -22.113  16.578 -19.436  1.00  0.00    -0.000 C 
BRANCH   5   6
ATOM      6  C   UNL     1     -21.163  16.376 -20.629  1.00  0.00    -0.000 C 
BRANCH   6   7
ATOM      7  C   UNL     1     -21.785  15.531 -21.755  1.00  0.00    -0.000 C 
BRANCH   7   8
ATOM      8  C   UNL     1     -21.150  14.143 -21.961  1.00  0.00    -0.000 C 
BRANCH   8   9
ATOM      9  C   UNL     1     -21.758  13.372 -23.143  1.00  0.00    -0.000 C 
BRANCH   9  10
ATOM     10  C   UNL     1     -20.702  13.112 -24.228  1.00  0.00    -0.000 C 
BRANCH  10  11
ATOM     11  C   UNL     1     -19.315  13.652 -23.843  1.00  0.00    -0.003 C 
ATOM     12  C   UNL     1     -18.178  12.737 -24.295  1.00  0.00     0.004 C 
ENDBRANCH  10  11
ENDBRANCH   9  10
ENDBRANCH   8   9
ENDBRANCH   7   8
ENDBRANCH   6   7
ENDBRANCH   5   6
ENDBRANCH   4   5
ENDBRANCH   3   4
ENDBRANCH   2   3
ENDBRANCH   1   2
BRANCH   1  13
ATOM     13  C   UNL     1     -20.602  11.565 -16.932  1.00  0.00     0.000 C 
BRANCH  13  14
ATOM     14  C   UNL     1     -19.491  11.648 -15.870  1.00  0.00     0.000 C 
BRANCH  14  15
ATOM     15  C   UNL     1     -19.644  12.872 -14.953  1.00  0.00     0.000 C 
BRANCH  15  16
ATOM     16  C   UNL     1     -18.482  13.872 -15.099  1.00  0.00     0.000 C 
BRANCH  16  17
ATOM     17  C   UNL     1     -17.854  13.843 -16.500  1.00  0.00     0.000 C 
BRANCH  17  18
ATOM     18  C   UNL     1     -17.789  15.239 -17.144  1.00  0.00     0.000 C 
BRANCH  18  19
ATOM     19  C   UNL     1     -18.264  15.246 -18.607  1.00  0.00     0.000 C 
BRANCH  19  20
ATOM     20  C   UNL     1     -18.351  13.859 -19.273  1.00  0.00     0.006 C 
BRANCH  20  21
ATOM     21  C   UNL     1     -17.632  13.770 -20.632  1.00  0.00     0.053 C 
BRANCH  21  22
ATOM     22  C   UNL     1     -16.369  12.964 -20.563  1.00  0.00     0.041 C 
ATOM     23  O   UNL     1     -15.755  12.654 -21.618  1.00  0.00    -0.550 OA
ATOM     24  O   UNL     1     -15.847  12.589 -19.330  1.00  0.00    -0.550 OA
ENDBRANCH  21  22
ENDBRANCH  20  21
ENDBRANCH  19  20
ENDBRANCH  18  19
ENDBRANCH  17  18
ENDBRANCH  16  17
ENDBRANCH  15  16
ENDBRANCH  14  15
ENDBRANCH  13  14
ENDBRANCH   1  13
TORSDOF 20
ENDMDL
MODEL 9
REMARK VINA RESULT:    -2.212     13.312     15.164
REMARK INTER + INTRA:          -8.407
REMARK INTER:                  -5.209
REMARK INTRA:                  -3.198
REMARK UNBOUND:                -3.609
REMARK SMILES CCCCCCCCCCCCCCCCCCCCCC(=O)[O-]
REMARK SMILES IDX 12 1 11 2 10 3 9 4 8 5 7 6 6 7 5 8 4 9 3 10 2 11 1 12 13 13
REMARK SMILES IDX 14 14 15 15 16 16 17 17 18 18 19 19 20 20 21 21 22 22 23 23
REMARK SMILES IDX 24 24
REMARK H PARENT
REMARK Flexibility Score: inf
ROOT
ATOM      1  C   UNL     1     -20.634  27.450 -21.024  1.00  0.00     0.000 C 
ENDROOT
BRANCH   1   2
ATOM      2  C   UNL     1     -19.897  28.737 -20.623  1.00  0.00     0.000 C 
BRANCH   2   3
ATOM      3  C   UNL     1     -18.774  28.434 -19.619  1.00  0.00     0.000 C 
BRANCH   3   4
ATOM      4  C   UNL     1     -17.823  29.625 -19.399  1.00  0.00    -0.000 C 
BRANCH   4   5
ATOM      5  C   UNL     1     -17.719  30.609 -20.579  1.00  0.00    -0.000 C 
BRANCH   5   6
ATOM      6  C   UNL     1     -16.266  30.965 -20.937  1.00  0.00    -0.000 C 
BRANCH   6   7
ATOM      7  C   UNL     1     -15.670  30.041 -22.016  1.00  0.00    -0.000 C 
BRANCH   7   8
ATOM      8  C   UNL     1     -16.646  29.620 -23.130  1.00  0.00    -0.000 C 
BRANCH   8   9
ATOM      9  C   UNL     1     -16.433  28.173 -23.601  1.00  0.00    -0.000 C 
BRANCH   9  10
ATOM     10  C   UNL     1     -17.254  27.193 -22.749  1.00  0.00    -0.000 C 
BRANCH  10  11
ATOM     11  C   UNL     1     -16.406  26.487 -21.680  1.00  0.00    -0.003 C 
ATOM     12  C   UNL     1     -15.076  25.969 -22.226  1.00  0.00     0.004 C 
ENDBRANCH  10  11
ENDBRANCH   9  10
ENDBRANCH   8   9
ENDBRANCH   7   8
ENDBRANCH   6   7
ENDBRANCH   5   6
ENDBRANCH   4   5
ENDBRANCH   3   4
ENDBRANCH   2   3
ENDBRANCH   1   2
BRANCH   1  13
ATOM     13  C   UNL     1     -22.093  27.705 -21.434  1.00  0.00     0.000 C 
BRANCH  13  14
ATOM     14  C   UNL     1     -22.477  29.194 -21.355  1.00  0.00     0.000 C 
BRANCH  14  15
ATOM     15  C   UNL     1     -23.946  29.443 -21.734  1.00  0.00     0.000 C 
BRANCH  15  16
ATOM     16  C   UNL     1     -24.910  29.225 -20.553  1.00  0.00     0.000 C 
BRANCH  16  17
ATOM     17  C   UNL     1     -24.379  29.827 -19.244  1.00  0.00     0.000 C 
BRANCH  17  18
ATOM     18  C   UNL     1     -24.848  29.044 -18.005  1.00  0.00     0.000 C 
BRANCH  18  19
ATOM     19  C   UNL     1     -23.764  28.106 -17.446  1.00  0.00     0.000 C 
BRANCH  19  20
ATOM     20  C   UNL     1     -22.315  28.504 -17.787  1.00  0.00     0.006 C 
BRANCH  20  21
ATOM     21  C   UNL     1     -21.318  28.286 -16.634  1.00  0.00     0.053 C 
BRANCH  21  22
ATOM     22  C   UNL     1     -20.518  27.028 -16.795  1.00  0.00     0.041 C 
ATOM     23  O   UNL     1     -20.819  26.195 -17.689  1.00  0.00    -0.550 OA
ATOM     24  O   UNL     1     -19.415  26.793 -15.982  1.00  0.00    -0.550 OA
ENDBRANCH  21  22
ENDBRANCH  20  21
ENDBRANCH  19  20
ENDBRANCH  18  19
ENDBRANCH  17  18
ENDBRANCH  16  17
ENDBRANCH  15  16
ENDBRANCH  14  15
ENDBRANCH  13  14
ENDBRANCH   1  13
TORSDOF 20
ENDMDL
