MODEL 1
REMARK VINA RESULT:    -2.653      0.000      0.000
REMARK INTER + INTRA:          -6.236
REMARK INTER:                  -4.980
REMARK INTRA:                  -1.256
REMARK UNBOUND:                -1.256
REMARK SMILES CCCCCCCCC=CCCCCCCCC(=O)[O-]
REMARK SMILES IDX 10 1 9 2 11 3 12 4 13 5 14 6 15 7 16 8 17 9 18 10 19 11
REMARK SMILES IDX 20 12 8 13 7 14 6 15 5 16 4 17 3 18 2 19 1 20
REMARK H PARENT
REMARK Flexibility Score: inf
ROOT
ATOM      1  C   UNL     1     -20.780   0.689   6.893  1.00  0.00    -0.031 C 
ATOM      2  C   UNL     1     -20.389   1.555   7.838  1.00  0.00    -0.031 C 
ENDROOT
BRANCH   1   3
ATOM      3  C   UNL     1     -19.926  -0.501   6.542  1.00  0.00     0.027 C 
BRANCH   3   4
ATOM      4  C   UNL     1     -20.313  -1.752   7.342  1.00  0.00     0.004 C 
BRANCH   4   5
ATOM      5  C   UNL     1     -19.982  -1.607   8.838  1.00  0.00     0.000 C 
BRANCH   5   6
ATOM      6  C   UNL     1     -19.383  -2.888   9.446  1.00  0.00     0.000 C 
BRANCH   6   7
ATOM      7  C   UNL     1     -18.948  -3.953   8.424  1.00  0.00     0.000 C 
BRANCH   7   8
ATOM      8  C   UNL     1     -19.283  -5.386   8.872  1.00  0.00     0.006 C 
BRANCH   8   9
ATOM      9  C   UNL     1     -20.538  -5.934   8.178  1.00  0.00     0.053 C 
BRANCH   9  10
ATOM     10  C   UNL     1     -21.603  -6.305   9.163  1.00  0.00     0.041 C 
ATOM     11  O   UNL     1     -21.612  -5.789  10.312  1.00  0.00    -0.550 OA
ATOM     12  O   UNL     1     -22.600  -7.204   8.804  1.00  0.00    -0.550 OA
ENDBRANCH   9  10
ENDBRANCH   8   9
ENDBRANCH   7   8
ENDBRANCH   6   7
ENDBRANCH   5   6
ENDBRANCH   4   5
ENDBRANCH   3   4
ENDBRANCH   1   3
BRANCH   2  13
ATOM     13  C   UNL     1     -21.229   2.748   8.213  1.00  0.00     0.027 C 
BRANCH  13  14
ATOM     14  C   UNL     1     -21.917   2.572   9.579  1.00  0.00     0.004 C 
BRANCH  14  15
ATOM     15  C   UNL     1     -21.293   1.458  10.443  1.00  0.00     0.000 C 
BRANCH  15  16
ATOM     16  C   UNL     1     -21.094   1.866  11.921  1.00  0.00     0.000 C 
BRANCH  16  17
ATOM     17  C   UNL     1     -21.804   0.932  12.919  1.00  0.00    -0.000 C 
BRANCH  17  18
ATOM     18  C   UNL     1     -20.865   0.223  13.911  1.00  0.00    -0.000 C 
BRANCH  18  19
ATOM     19  C   UNL     1     -21.053  -1.301  13.919  1.00  0.00    -0.003 C 
ATOM     20  C   UNL     1     -20.584  -1.918  12.605  1.00  0.00     0.004 C 
ENDBRANCH  18  19
ENDBRANCH  17  18
ENDBRANCH  16  17
ENDBRANCH  15  16
ENDBRANCH  14  15
ENDBRANCH  13  14
ENDBRANCH   2  13
TORSDOF 15
ENDMDL
MODEL 2
REMARK VINA RESULT:    -2.604      1.801      5.727
REMARK INTER + INTRA:          -6.144
REMARK INTER:                  -5.210
REMARK INTRA:                  -0.934
REMARK UNBOUND:                -1.256
REMARK SMILES CCCCCCCCC=CCCCCCCCC(=O)[O-]
REMARK SMILES IDX 10 1 9 2 11 3 12 4 13 5 14 6 15 7 16 8 17 9 18 10 19 11
REMARK SMILES IDX 20 12 8 13 7 14 6 15 5 16 4 17 3 18 2 19 1 20
REMARK H PARENT
REMARK Flexibility Score: inf
ROOT
ATOM      1  C   UNL     1     -21.099   1.351   7.767  1.00  0.00    -0.031 C 
ATOM      2  C   UNL     1     -19.909   0.964   7.286  1.00  0.00    -0.031 C 
ENDROOT
BRANCH   1   3
ATOM      3  C   UNL     1     -21.251   2.678   8.462  1.00  0.00     0.027 C 
BRANCH   3   4
ATOM      4  C   UNL     1     -21.906   2.541   9.843  1.00  0.00     0.004 C 
BRANCH   4   5
ATOM      5  C   UNL     1     -21.220   1.464  10.703  1.00  0.00     0.000 C 
BRANCH   5   6
ATOM      6  C   UNL     1     -21.876   1.294  12.085  1.00  0.00     0.000 C 
BRANCH   6   7
ATOM      7  C   UNL     1     -20.978   1.659  13.282  1.00  0.00     0.000 C 
BRANCH   7   8
ATOM      8  C   UNL     1     -20.677   0.456  14.193  1.00  0.00     0.006 C 
BRANCH   8   9
ATOM      9  C   UNL     1     -21.663  -0.700  13.973  1.00  0.00     0.053 C 
BRANCH   9  10
ATOM     10  C   UNL     1     -21.020  -1.856  13.271  1.00  0.00     0.041 C 
ATOM     11  O   UNL     1     -21.375  -3.035  13.534  1.00  0.00    -0.550 OA
ATOM     12  O   UNL     1     -20.043  -1.630  12.309  1.00  0.00    -0.550 OA
ENDBRANCH   9  10
ENDBRANCH   8   9
ENDBRANCH   7   8
ENDBRANCH   6   7
ENDBRANCH   5   6
ENDBRANCH   4   5
ENDBRANCH   3   4
ENDBRANCH   1   3
BRANCH   2  13
ATOM     13  C   UNL     1     -19.732  -0.354   6.580  1.00  0.00     0.027 C 
BRANCH  13  14
ATOM     14  C   UNL     1     -20.359  -1.524   7.359  1.00  0.00     0.004 C 
BRANCH  14  15
ATOM     15  C   UNL     1     -20.048  -1.493   8.869  1.00  0.00     0.000 C 
BRANCH  15  16
ATOM     16  C   UNL     1     -19.447  -2.815   9.399  1.00  0.00     0.000 C 
BRANCH  16  17
ATOM     17  C   UNL     1     -19.251  -3.885   8.307  1.00  0.00    -0.000 C 
BRANCH  17  18
ATOM     18  C   UNL     1     -19.230  -5.333   8.827  1.00  0.00    -0.000 C 
BRANCH  18  19
ATOM     19  C   UNL     1     -20.471  -6.133   8.405  1.00  0.00    -0.003 C 
ATOM     20  C   UNL     1     -21.526  -6.128   9.508  1.00  0.00     0.004 C 
ENDBRANCH  18  19
ENDBRANCH  17  18
ENDBRANCH  16  17
ENDBRANCH  15  16
ENDBRANCH  14  15
ENDBRANCH  13  14
ENDBRANCH   2  13
TORSDOF 15
ENDMDL
MODEL 3
REMARK VINA RESULT:    -2.601      2.983      5.774
REMARK INTER + INTRA:          -6.137
REMARK INTER:                  -5.033
REMARK INTRA:                  -1.105
REMARK UNBOUND:                -1.256
REMARK SMILES CCCCCCCCC=CCCCCCCCC(=O)[O-]
REMARK SMILES IDX 10 1 9 2 11 3 12 4 13 5 14 6 15 7 16 8 17 9 18 10 19 11
REMARK SMILES IDX 20 12 8 13 7 14 6 15 5 16 4 17 3 18 2 19 1 20
REMARK H PARENT
REMARK Flexibility Score: inf
ROOT
ATOM      1  C   UNL     1     -20.436  -1.535   7.840  1.00  0.00    -0.031 C 
ATOM      2  C   UNL     1     -19.954  -0.599   7.009  1.00  0.00    -0.031 C 
ENDROOT
BRANCH   1   3
ATOM      3  C   UNL     1     -19.607  -2.738   8.202  1.00  0.00     0.027 C 
BRANCH   3   4
ATOM      4  C   UNL     1     -19.344  -2.832   9.711  1.00  0.00     0.004 C 
BRANCH   4   5
ATOM      5  C   UNL     1     -19.971  -1.656  10.481  1.00  0.00     0.000 C 
BRANCH   5   6
ATOM      6  C   UNL     1     -19.784  -1.770  12.005  1.00  0.00     0.000 C 
BRANCH   6   7
ATOM      7  C   UNL     1     -21.011  -2.291  12.774  1.00  0.00     0.000 C 
BRANCH   7   8
ATOM      8  C   UNL     1     -21.461  -1.340  13.898  1.00  0.00     0.006 C 
BRANCH   8   9
ATOM      9  C   UNL     1     -20.521  -0.137  14.052  1.00  0.00     0.053 C 
BRANCH   9  10
ATOM     10  C   UNL     1     -21.058   1.082  13.368  1.00  0.00     0.041 C 
ATOM     11  O   UNL     1     -21.774   0.969  12.339  1.00  0.00    -0.550 OA
ATOM     12  O   UNL     1     -20.785   2.345  13.881  1.00  0.00    -0.550 OA
ENDBRANCH   9  10
ENDBRANCH   8   9
ENDBRANCH   7   8
ENDBRANCH   6   7
ENDBRANCH   5   6
ENDBRANCH   4   5
ENDBRANCH   3   4
ENDBRANCH   1   3
BRANCH   2  13
ATOM     13  C   UNL     1     -20.760   0.618   6.637  1.00  0.00     0.027 C 
BRANCH  13  14
ATOM     14  C   UNL     1     -20.476   1.813   7.565  1.00  0.00     0.004 C 
BRANCH  14  15
ATOM     15  C   UNL     1     -20.997   1.612   9.002  1.00  0.00     0.000 C 
BRANCH  15  16
ATOM     16  C   UNL     1     -21.839   2.800   9.521  1.00  0.00     0.000 C 
BRANCH  16  17
ATOM     17  C   UNL     1     -21.975   3.950   8.505  1.00  0.00    -0.000 C 
BRANCH  17  18
ATOM     18  C   UNL     1     -21.884   5.359   9.117  1.00  0.00    -0.000 C 
BRANCH  18  19
ATOM     19  C   UNL     1     -20.463   5.939   9.062  1.00  0.00    -0.003 C 
ATOM     20  C   UNL     1     -19.826   5.961  10.448  1.00  0.00     0.004 C 
ENDBRANCH  18  19
ENDBRANCH  17  18
ENDBRANCH  16  17
ENDBRANCH  15  16
ENDBRANCH  14  15
ENDBRANCH  13  14
ENDBRANCH   2  13
TORSDOF 15
ENDMDL
MODEL 4
REMARK VINA RESULT:    -2.442      2.266      6.788
REMARK INTER + INTRA:          -5.839
REMARK INTER:                  -4.687
REMARK INTRA:                  -1.153
REMARK UNBOUND:                -1.256
REMARK SMILES CCCCCCCCC=CCCCCCCCC(=O)[O-]
REMARK SMILES IDX 10 1 9 2 11 3 12 4 13 5 14 6 15 7 16 8 17 9 18 10 19 11
REMARK SMILES IDX 20 12 8 13 7 14 6 15 5 16 4 17 3 18 2 19 1 20
REMARK H PARENT
REMARK Flexibility Score: inf
ROOT
ATOM      1  C   UNL     1     -20.361  -1.477   7.496  1.00  0.00    -0.031 C 
ATOM      2  C   UNL     1     -20.015  -1.664   8.777  1.00  0.00    -0.031 C 
ENDROOT
BRANCH   1   3
ATOM      3  C   UNL     1     -20.422  -0.090   6.912  1.00  0.00     0.027 C 
BRANCH   3   4
ATOM      4  C   UNL     1     -19.988   0.985   7.918  1.00  0.00     0.004 C 
BRANCH   4   5
ATOM      5  C   UNL     1     -21.013   2.128   8.020  1.00  0.00     0.000 C 
BRANCH   5   6
ATOM      6  C   UNL     1     -21.644   2.243   9.420  1.00  0.00     0.000 C 
BRANCH   6   7
ATOM      7  C   UNL     1     -21.111   1.241  10.459  1.00  0.00     0.000 C 
BRANCH   7   8
ATOM      8  C   UNL     1     -21.857   1.316  11.802  1.00  0.00     0.006 C 
BRANCH   8   9
ATOM      9  C   UNL     1     -20.939   1.013  12.994  1.00  0.00     0.053 C 
BRANCH   9  10
ATOM     10  C   UNL     1     -21.142  -0.376  13.516  1.00  0.00     0.041 C 
ATOM     11  O   UNL     1     -21.858  -0.574  14.532  1.00  0.00    -0.550 OA
ATOM     12  O   UNL     1     -20.558  -1.456  12.865  1.00  0.00    -0.550 OA
ENDBRANCH   9  10
ENDBRANCH   8   9
ENDBRANCH   7   8
ENDBRANCH   6   7
ENDBRANCH   5   6
ENDBRANCH   4   5
ENDBRANCH   3   4
ENDBRANCH   1   3
BRANCH   2  13
ATOM     13  C   UNL     1     -19.938  -3.041   9.382  1.00  0.00     0.027 C 
BRANCH  13  14
ATOM     14  C   UNL     1     -18.833  -3.900   8.742  1.00  0.00     0.004 C 
BRANCH  14  15
ATOM     15  C   UNL     1     -19.204  -5.392   8.630  1.00  0.00     0.000 C 
BRANCH  15  16
ATOM     16  C   UNL     1     -20.559  -5.740   9.289  1.00  0.00     0.000 C 
BRANCH  16  17
ATOM     17  C   UNL     1     -21.522  -6.496   8.355  1.00  0.00    -0.000 C 
BRANCH  17  18
ATOM     18  C   UNL     1     -22.763  -7.082   9.052  1.00  0.00    -0.000 C 
BRANCH  18  19
ATOM     19  C   UNL     1     -23.292  -8.345   8.358  1.00  0.00    -0.003 C 
ATOM     20  C   UNL     1     -24.768  -8.196   7.999  1.00  0.00     0.004 C 
ENDBRANCH  18  19
ENDBRANCH  17  18
ENDBRANCH  16  17
ENDBRANCH  15  16
ENDBRANCH  14  15
ENDBRANCH  13  14
ENDBRANCH   2  13
TORSDOF 15
ENDMDL
MODEL 5
REMARK VINA RESULT:    -2.320      3.777      5.792
REMARK INTER + INTRA:          -5.611
REMARK INTER:                  -4.497
REMARK INTRA:                  -1.115
REMARK UNBOUND:                -1.256
REMARK SMILES CCCCCCCCC=CCCCCCCCC(=O)[O-]
REMARK SMILES IDX 10 1 9 2 11 3 12 4 13 5 14 6 15 7 16 8 17 9 18 10 19 11
REMARK SMILES IDX 20 12 8 13 7 14 6 15 5 16 4 17 3 18 2 19 1 20
REMARK H PARENT
REMARK Flexibility Score: inf
ROOT
ATOM      1  C   UNL     1     -20.721   1.698   7.775  1.00  0.00    -0.031 C 
ATOM      2  C   UNL     1     -21.152   1.737   9.044  1.00  0.00    -0.031 C 
ENDROOT
BRANCH   1   3
ATOM      3  C   UNL     1     -20.058   0.461   7.228  1.00  0.00     0.027 C 
BRANCH   3   4
ATOM      4  C   UNL     1     -20.748  -0.827   7.699  1.00  0.00     0.004 C 
BRANCH   4   5
ATOM      5  C   UNL     1     -19.742  -1.969   7.929  1.00  0.00     0.000 C 
BRANCH   5   6
ATOM      6  C   UNL     1     -19.651  -2.399   9.404  1.00  0.00     0.000 C 
BRANCH   6   7
ATOM      7  C   UNL     1     -20.303  -1.430  10.406  1.00  0.00     0.000 C 
BRANCH   7   8
ATOM      8  C   UNL     1     -19.796  -1.626  11.846  1.00  0.00     0.006 C 
BRANCH   8   9
ATOM      9  C   UNL     1     -20.947  -1.737  12.856  1.00  0.00     0.053 C 
BRANCH   9  10
ATOM     10  C   UNL     1     -21.079  -0.501  13.690  1.00  0.00     0.041 C 
ATOM     11  O   UNL     1     -20.930  -0.559  14.939  1.00  0.00    -0.550 OA
ATOM     12  O   UNL     1     -21.344   0.722  13.085  1.00  0.00    -0.550 OA
ENDBRANCH   9  10
ENDBRANCH   8   9
ENDBRANCH   7   8
ENDBRANCH   6   7
ENDBRANCH   5   6
ENDBRANCH   4   5
ENDBRANCH   3   4
ENDBRANCH   1   3
BRANCH   2  13
ATOM     13  C   UNL     1     -21.825   2.958   9.612  1.00  0.00     0.027 C 
BRANCH  13  14
ATOM     14  C   UNL     1     -21.950   4.092   8.578  1.00  0.00     0.004 C 
BRANCH  14  15
ATOM     15  C   UNL     1     -21.739   5.496   9.178  1.00  0.00     0.000 C 
BRANCH  15  16
ATOM     16  C   UNL     1     -20.273   5.982   9.101  1.00  0.00     0.000 C 
BRANCH  16  17
ATOM     17  C   UNL     1     -19.655   6.295  10.476  1.00  0.00    -0.000 C 
BRANCH  17  18
ATOM     18  C   UNL     1     -18.191   6.770  10.427  1.00  0.00    -0.000 C 
BRANCH  18  19
ATOM     19  C   UNL     1     -18.050   8.199   9.883  1.00  0.00    -0.003 C 
ATOM     20  C   UNL     1     -16.633   8.727  10.092  1.00  0.00     0.004 C 
ENDBRANCH  18  19
ENDBRANCH  17  18
ENDBRANCH  16  17
ENDBRANCH  15  16
ENDBRANCH  14  15
ENDBRANCH  13  14
ENDBRANCH   2  13
TORSDOF 15
ENDMDL
MODEL 6
REMARK VINA RESULT:    -2.179      4.226      7.192
REMARK INTER + INTRA:          -5.345
REMARK INTER:                  -4.564
REMARK INTRA:                  -0.782
REMARK UNBOUND:                -1.256
REMARK SMILES CCCCCCCCC=CCCCCCCCC(=O)[O-]
REMARK SMILES IDX 10 1 9 2 11 3 12 4 13 5 14 6 15 7 16 8 17 9 18 10 19 11
REMARK SMILES IDX 20 12 8 13 7 14 6 15 5 16 4 17 3 18 2 19 1 20
REMARK H PARENT
REMARK Flexibility Score: inf
ROOT
ATOM      1  C   UNL     1     -20.248  -0.652   6.846  1.00  0.00    -0.031 C 
ATOM      2  C   UNL     1     -20.317  -1.186   8.074  1.00  0.00    -0.031 C 
ENDROOT
BRANCH   1   3
ATOM      3  C   UNL     1     -20.817   0.715   6.571  1.00  0.00     0.027 C 
BRANCH   3   4
ATOM      4  C   UNL     1     -20.403   1.743   7.632  1.00  0.00     0.004 C 
BRANCH   4   5
ATOM      5  C   UNL     1     -21.102   1.494   8.981  1.00  0.00     0.000 C 
BRANCH   5   6
ATOM      6  C   UNL     1     -21.659   2.782   9.614  1.00  0.00     0.000 C 
BRANCH   6   7
ATOM      7  C   UNL     1     -22.018   3.896   8.614  1.00  0.00     0.000 C 
BRANCH   7   8
ATOM      8  C   UNL     1     -21.854   5.307   9.205  1.00  0.00     0.006 C 
BRANCH   8   9
ATOM      9  C   UNL     1     -20.473   5.906   8.903  1.00  0.00     0.053 C 
BRANCH   9  10
ATOM     10  C   UNL     1     -19.692   6.168  10.154  1.00  0.00     0.041 C 
ATOM     11  O   UNL     1     -19.941   5.519  11.204  1.00  0.00    -0.550 OA
ATOM     12  O   UNL     1     -18.674   7.113  10.154  1.00  0.00    -0.550 OA
ENDBRANCH   9  10
ENDBRANCH   8   9
ENDBRANCH   7   8
ENDBRANCH   6   7
ENDBRANCH   5   6
ENDBRANCH   4   5
ENDBRANCH   3   4
ENDBRANCH   1   3
BRANCH   2  13
ATOM     13  C   UNL     1     -19.748  -2.547   8.376  1.00  0.00     0.027 C 
BRANCH  13  14
ATOM     14  C   UNL     1     -19.372  -2.707   9.860  1.00  0.00     0.004 C 
BRANCH  14  15
ATOM     15  C   UNL     1     -20.024  -1.653  10.776  1.00  0.00     0.000 C 
BRANCH  15  16
ATOM     16  C   UNL     1     -20.025  -2.053  12.270  1.00  0.00     0.000 C 
BRANCH  16  17
ATOM     17  C   UNL     1     -21.181  -1.430  13.074  1.00  0.00    -0.000 C 
BRANCH  17  18
ATOM     18  C   UNL     1     -20.739  -0.596  14.290  1.00  0.00    -0.000 C 
BRANCH  18  19
ATOM     19  C   UNL     1     -21.158   0.878  14.182  1.00  0.00    -0.003 C 
ATOM     20  C   UNL     1     -21.214   1.325  12.724  1.00  0.00     0.004 C 
ENDBRANCH  18  19
ENDBRANCH  17  18
ENDBRANCH  16  17
ENDBRANCH  15  16
ENDBRANCH  14  15
ENDBRANCH  13  14
ENDBRANCH   2  13
TORSDOF 15
ENDMDL
MODEL 7
REMARK VINA RESULT:    -2.138      5.536      7.329
REMARK INTER + INTRA:          -5.270
REMARK INTER:                  -4.480
REMARK INTRA:                  -0.790
REMARK UNBOUND:                -1.256
REMARK SMILES CCCCCCCCC=CCCCCCCCC(=O)[O-]
REMARK SMILES IDX 10 1 9 2 11 3 12 4 13 5 14 6 15 7 16 8 17 9 18 10 19 11
REMARK SMILES IDX 20 12 8 13 7 14 6 15 5 16 4 17 3 18 2 19 1 20
REMARK H PARENT
REMARK Flexibility Score: inf
ROOT
ATOM      1  C   UNL     1     -21.509   5.043   8.800  1.00  0.00    -0.031 C 
ATOM      2  C   UNL     1     -20.562   5.519   9.621  1.00  0.00    -0.031 C 
ENDROOT
BRANCH   1   3
ATOM      3  C   UNL     1     -22.309   3.825   9.177  1.00  0.00     0.027 C 
BRANCH   3   4
ATOM      4  C   UNL     1     -21.490   2.532   9.069  1.00  0.00     0.004 C 
BRANCH   4   5
ATOM      5  C   UNL     1     -21.090   2.220   7.616  1.00  0.00     0.000 C 
BRANCH   5   6
ATOM      6  C   UNL     1     -19.964   1.175   7.515  1.00  0.00     0.000 C 
BRANCH   6   7
ATOM      7  C   UNL     1     -20.281  -0.040   6.625  1.00  0.00     0.000 C 
BRANCH   7   8
ATOM      8  C   UNL     1     -20.178  -1.378   7.378  1.00  0.00     0.006 C 
BRANCH   8   9
ATOM      9  C   UNL     1     -20.398  -1.212   8.888  1.00  0.00     0.053 C 
BRANCH   9  10
ATOM     10  C   UNL     1     -19.642  -2.237   9.677  1.00  0.00     0.041 C 
ATOM     11  O   UNL     1     -19.339  -2.014  10.878  1.00  0.00    -0.550 OA
ATOM     12  O   UNL     1     -19.293  -3.447   9.091  1.00  0.00    -0.550 OA
ENDBRANCH   9  10
ENDBRANCH   8   9
ENDBRANCH   7   8
ENDBRANCH   6   7
ENDBRANCH   5   6
ENDBRANCH   4   5
ENDBRANCH   3   4
ENDBRANCH   1   3
BRANCH   2  13
ATOM     13  C   UNL     1     -19.753   6.740   9.272  1.00  0.00     0.027 C 
BRANCH  13  14
ATOM     14  C   UNL     1     -18.608   6.989  10.269  1.00  0.00     0.004 C 
BRANCH  14  15
ATOM     15  C   UNL     1     -17.854   8.310  10.022  1.00  0.00     0.000 C 
BRANCH  15  16
ATOM     16  C   UNL     1     -16.324   8.188  10.206  1.00  0.00     0.000 C 
BRANCH  16  17
ATOM     17  C   UNL     1     -15.531   9.334   9.550  1.00  0.00    -0.000 C 
BRANCH  17  18
ATOM     18  C   UNL     1     -14.931  10.347  10.540  1.00  0.00    -0.000 C 
BRANCH  18  19
ATOM     19  C   UNL     1     -15.079   9.905  12.004  1.00  0.00    -0.003 C 
ATOM     20  C   UNL     1     -14.355  10.865  12.942  1.00  0.00     0.004 C 
ENDBRANCH  18  19
ENDBRANCH  17  18
ENDBRANCH  16  17
ENDBRANCH  15  16
ENDBRANCH  14  15
ENDBRANCH  13  14
ENDBRANCH   2  13
TORSDOF 15
ENDMDL
MODEL 8
REMARK VINA RESULT:    -2.058      2.464      6.513
REMARK INTER + INTRA:          -5.119
REMARK INTER:                  -3.626
REMARK INTRA:                  -1.493
REMARK UNBOUND:                -1.256
REMARK SMILES CCCCCCCCC=CCCCCCCCC(=O)[O-]
REMARK SMILES IDX 10 1 9 2 11 3 12 4 13 5 14 6 15 7 16 8 17 9 18 10 19 11
REMARK SMILES IDX 20 12 8 13 7 14 6 15 5 16 4 17 3 18 2 19 1 20
REMARK H PARENT
REMARK Flexibility Score: inf
ROOT
ATOM      1  C   UNL     1     -21.471  -0.173  13.614  1.00  0.00    -0.031 C 
ATOM      2  C   UNL     1     -20.495  -1.069  13.412  1.00  0.00    -0.031 C 
ENDROOT
BRANCH   1   3
ATOM      3  C   UNL     1     -21.142   1.262  13.929  1.00  0.00     0.027 C 
BRANCH   3   4
ATOM      4  C   UNL     1     -20.950   2.107  12.663  1.00  0.00     0.004 C 
BRANCH   4   5
ATOM      5  C   UNL     1     -21.843   1.626  11.506  1.00  0.00     0.000 C 
BRANCH   5   6
ATOM      6  C   UNL     1     -21.108   1.600  10.153  1.00  0.00     0.000 C 
BRANCH   6   7
ATOM      7  C   UNL     1     -21.586   2.648   9.132  1.00  0.00     0.000 C 
BRANCH   7   8
ATOM      8  C   UNL     1     -21.043   2.395   7.715  1.00  0.00     0.006 C 
BRANCH   8   9
ATOM      9  C   UNL     1     -19.989   1.279   7.688  1.00  0.00     0.053 C 
BRANCH   9  10
ATOM     10  C   UNL     1     -20.281   0.262   6.628  1.00  0.00     0.041 C 
ATOM     11  O   UNL     1     -19.339  -0.352   6.062  1.00  0.00    -0.550 OA
ATOM     12  O   UNL     1     -21.596  -0.023   6.281  1.00  0.00    -0.550 OA
ENDBRANCH   9  10
ENDBRANCH   8   9
ENDBRANCH   7   8
ENDBRANCH   6   7
ENDBRANCH   5   6
ENDBRANCH   4   5
ENDBRANCH   3   4
ENDBRANCH   1   3
BRANCH   2  13
ATOM     13  C   UNL     1     -20.798  -2.508  13.087  1.00  0.00     0.027 C 
BRANCH  13  14
ATOM     14  C   UNL     1     -20.804  -2.777  11.572  1.00  0.00     0.004 C 
BRANCH  14  15
ATOM     15  C   UNL     1     -19.676  -2.051  10.814  1.00  0.00     0.000 C 
BRANCH  15  16
ATOM     16  C   UNL     1     -20.034  -1.723   9.346  1.00  0.00     0.000 C 
BRANCH  16  17
ATOM     17  C   UNL     1     -19.703  -2.860   8.362  1.00  0.00    -0.000 C 
BRANCH  17  18
ATOM     18  C   UNL     1     -18.951  -4.049   8.987  1.00  0.00    -0.000 C 
BRANCH  18  19
ATOM     19  C   UNL     1     -19.390  -5.401   8.404  1.00  0.00    -0.003 C 
ATOM     20  C   UNL     1     -20.663  -5.901   9.080  1.00  0.00     0.004 C 
ENDBRANCH  18  19
ENDBRANCH  17  18
ENDBRANCH  16  17
ENDBRANCH  15  16
ENDBRANCH  14  15
ENDBRANCH  13  14
ENDBRANCH   2  13
TORSDOF 15
ENDMDL
MODEL 9
REMARK VINA RESULT:    -1.995      1.184      2.934
REMARK INTER + INTRA:          -5.002
REMARK INTER:                  -3.260
REMARK INTRA:                  -1.742
REMARK UNBOUND:                -1.256
REMARK SMILES CCCCCCCCC=CCCCCCCCC(=O)[O-]
REMARK SMILES IDX 10 1 9 2 11 3 12 4 13 5 14 6 15 7 16 8 17 9 18 10 19 11
REMARK SMILES IDX 20 12 8 13 7 14 6 15 5 16 4 17 3 18 2 19 1 20
REMARK H PARENT
REMARK Flexibility Score: inf
ROOT
ATOM      1  C   UNL     1     -21.530   2.426   9.329  1.00  0.00    -0.031 C 
ATOM      2  C   UNL     1     -21.219   1.433  10.175  1.00  0.00    -0.031 C 
ENDROOT
BRANCH   1   3
ATOM      3  C   UNL     1     -20.939   2.466   7.945  1.00  0.00     0.027 C 
BRANCH   3   4
ATOM      4  C   UNL     1     -20.066   1.240   7.647  1.00  0.00     0.004 C 
BRANCH   4   5
ATOM      5  C   UNL     1     -20.641   0.385   6.504  1.00  0.00     0.000 C 
BRANCH   5   6
ATOM      6  C   UNL     1     -21.016  -1.040   6.952  1.00  0.00     0.000 C 
BRANCH   6   7
ATOM      7  C   UNL     1     -20.042  -1.685   7.954  1.00  0.00     0.000 C 
BRANCH   7   8
ATOM      8  C   UNL     1     -19.683  -3.137   7.591  1.00  0.00     0.006 C 
BRANCH   8   9
ATOM      9  C   UNL     1     -19.157  -3.924   8.799  1.00  0.00     0.053 C 
BRANCH   9  10
ATOM     10  C   UNL     1     -19.513  -5.376   8.716  1.00  0.00     0.041 C 
ATOM     11  O   UNL     1     -18.704  -6.200   8.214  1.00  0.00    -0.550 OA
ATOM     12  O   UNL     1     -20.731  -5.824   9.215  1.00  0.00    -0.550 OA
ENDBRANCH   9  10
ENDBRANCH   8   9
ENDBRANCH   7   8
ENDBRANCH   6   7
ENDBRANCH   5   6
ENDBRANCH   4   5
ENDBRANCH   3   4
ENDBRANCH   1   3
BRANCH   2  13
ATOM     13  C   UNL     1     -21.802   1.365  11.562  1.00  0.00     0.027 C 
BRANCH  13  14
ATOM     14  C   UNL     1     -20.779   1.748  12.646  1.00  0.00     0.004 C 
BRANCH  14  15
ATOM     15  C   UNL     1     -21.216   1.350  14.070  1.00  0.00     0.000 C 
BRANCH  15  16
ATOM     16  C   UNL     1     -20.693  -0.037  14.508  1.00  0.00     0.000 C 
BRANCH  16  17
ATOM     17  C   UNL     1     -21.570  -1.208  14.025  1.00  0.00    -0.000 C 
BRANCH  17  18
ATOM     18  C   UNL     1     -20.798  -2.343  13.330  1.00  0.00    -0.000 C 
BRANCH  18  19
ATOM     19  C   UNL     1     -20.808  -2.216  11.799  1.00  0.00    -0.003 C 
ATOM     20  C   UNL     1     -19.486  -1.654  11.287  1.00  0.00     0.004 C 
ENDBRANCH  18  19
ENDBRANCH  17  18
ENDBRANCH  16  17
ENDBRANCH  15  16
ENDBRANCH  14  15
ENDBRANCH  13  14
ENDBRANCH   2  13
TORSDOF 15
ENDMDL
