MODEL 1
REMARK VINA RESULT:    -3.385      0.000      0.000
REMARK INTER + INTRA:         -13.946
REMARK INTER:                  -8.926
REMARK INTRA:                  -5.020
REMARK UNBOUND:                -5.020
REMARK SMILES CCCCCCCCCCCCCCCCCCCCCCCCCCCCCC(=O)[O-]
REMARK SMILES IDX 16 1 17 2 18 3 19 4 20 5 21 6 22 7 23 8 24 9 25 10 26 11
REMARK SMILES IDX 27 12 28 13 29 14 30 15 31 16 32 17 15 18 14 19 13 20 12 21
REMARK SMILES IDX 11 22 10 23 9 24 8 25 7 26 6 27 5 28 4 29 3 30 2 31 1 32
REMARK H PARENT
REMARK Flexibility Score: inf
ROOT
ATOM      1  C   UNL     1      66.724  28.437  58.429  1.00  0.00     0.000 C 
ENDROOT
BRANCH   1   2
ATOM      2  C   UNL     1      66.756  27.741  59.801  1.00  0.00     0.000 C 
BRANCH   2   3
ATOM      3  C   UNL     1      66.933  28.683  61.008  1.00  0.00     0.000 C 
BRANCH   3   4
ATOM      4  C   UNL     1      68.257  28.519  61.781  1.00  0.00     0.000 C 
BRANCH   4   5
ATOM      5  C   UNL     1      69.466  29.242  61.163  1.00  0.00     0.000 C 
BRANCH   5   6
ATOM      6  C   UNL     1      70.451  28.336  60.398  1.00  0.00     0.000 C 
BRANCH   6   7
ATOM      7  C   UNL     1      71.935  28.704  60.608  1.00  0.00     0.000 C 
BRANCH   7   8
ATOM      8  C   UNL     1      72.124  29.871  61.590  1.00  0.00     0.000 C 
BRANCH   8   9
ATOM      9  C   UNL     1      72.686  31.110  60.874  1.00  0.00     0.000 C 
BRANCH   9  10
ATOM     10  C   UNL     1      71.640  32.221  60.700  1.00  0.00     0.000 C 
BRANCH  10  11
ATOM     11  C   UNL     1      71.420  32.610  59.230  1.00  0.00     0.000 C 
BRANCH  11  12
ATOM     12  C   UNL     1      70.352  31.718  58.580  1.00  0.00     0.000 C 
BRANCH  12  13
ATOM     13  C   UNL     1      70.937  30.736  57.548  1.00  0.00     0.006 C 
BRANCH  13  14
ATOM     14  C   UNL     1      69.917  29.746  56.964  1.00  0.00     0.053 C 
BRANCH  14  15
ATOM     15  C   UNL     1      70.509  28.386  56.749  1.00  0.00     0.041 C 
ATOM     16  O   UNL     1      69.792  27.444  56.321  1.00  0.00    -0.550 OA
ATOM     17  O   UNL     1      71.857  28.163  57.005  1.00  0.00    -0.550 OA
ENDBRANCH  14  15
ENDBRANCH  13  14
ENDBRANCH  12  13
ENDBRANCH  11  12
ENDBRANCH  10  11
ENDBRANCH   9  10
ENDBRANCH   8   9
ENDBRANCH   7   8
ENDBRANCH   6   7
ENDBRANCH   5   6
ENDBRANCH   4   5
ENDBRANCH   3   4
ENDBRANCH   2   3
ENDBRANCH   1   2
BRANCH   1  18
ATOM     18  C   UNL     1      66.463  29.950  58.536  1.00  0.00     0.000 C 
BRANCH  18  19
ATOM     19  C   UNL     1      65.154  30.375  57.851  1.00  0.00     0.000 C 
BRANCH  19  20
ATOM     20  C   UNL     1      64.233  31.189  58.778  1.00  0.00     0.000 C 
BRANCH  20  21
ATOM     21  C   UNL     1      64.850  31.422  60.166  1.00  0.00     0.000 C 
BRANCH  21  22
ATOM     22  C   UNL     1      63.903  31.012  61.308  1.00  0.00     0.000 C 
BRANCH  22  23
ATOM     23  C   UNL     1      63.385  29.573  61.160  1.00  0.00     0.000 C 
BRANCH  23  24
ATOM     24  C   UNL     1      61.905  29.431  61.553  1.00  0.00    -0.000 C 
BRANCH  24  25
ATOM     25  C   UNL     1      61.081  30.685  61.216  1.00  0.00    -0.000 C 
BRANCH  25  26
ATOM     26  C   UNL     1      60.771  30.805  59.713  1.00  0.00    -0.000 C 
BRANCH  26  27
ATOM     27  C   UNL     1      60.278  32.206  59.318  1.00  0.00    -0.000 C 
BRANCH  27  28
ATOM     28  C   UNL     1      61.267  32.945  58.400  1.00  0.00    -0.000 C 
BRANCH  28  29
ATOM     29  C   UNL     1      61.776  34.258  59.018  1.00  0.00    -0.000 C 
BRANCH  29  30
ATOM     30  C   UNL     1      62.153  34.108  60.500  1.00  0.00    -0.000 C 
BRANCH  30  31
ATOM     31  C   UNL     1      62.962  35.318  60.983  1.00  0.00    -0.003 C 
ATOM     32  C   UNL     1      64.367  34.908  61.414  1.00  0.00     0.004 C 
ENDBRANCH  30  31
ENDBRANCH  29  30
ENDBRANCH  28  29
ENDBRANCH  27  28
ENDBRANCH  26  27
ENDBRANCH  25  26
ENDBRANCH  24  25
ENDBRANCH  23  24
ENDBRANCH  22  23
ENDBRANCH  21  22
ENDBRANCH  20  21
ENDBRANCH  19  20
ENDBRANCH  18  19
ENDBRANCH   1  18
TORSDOF 28
ENDMDL
MODEL 2
REMARK VINA RESULT:    -3.351     10.014     12.787
REMARK INTER + INTRA:         -13.856
REMARK INTER:                  -7.968
REMARK INTRA:                  -5.889
REMARK UNBOUND:                -5.020
REMARK SMILES CCCCCCCCCCCCCCCCCCCCCCCCCCCCCC(=O)[O-]
REMARK SMILES IDX 16 1 17 2 18 3 19 4 20 5 21 6 22 7 23 8 24 9 25 10 26 11
REMARK SMILES IDX 27 12 28 13 29 14 30 15 31 16 32 17 15 18 14 19 13 20 12 21
REMARK SMILES IDX 11 22 10 23 9 24 8 25 7 26 6 27 5 28 4 29 3 30 2 31 1 32
REMARK H PARENT
REMARK Flexibility Score: inf
ROOT
ATOM      1  C   UNL     1      57.802  30.699  52.887  1.00  0.00     0.000 C 
ENDROOT
BRANCH   1   2
ATOM      2  C   UNL     1      57.726  29.768  51.665  1.00  0.00     0.000 C 
BRANCH   2   3
ATOM      3  C   UNL     1      59.055  29.572  50.909  1.00  0.00     0.000 C 
BRANCH   3   4
ATOM      4  C   UNL     1      58.916  29.218  49.415  1.00  0.00     0.000 C 
BRANCH   4   5
ATOM      5  C   UNL     1      59.587  27.899  48.992  1.00  0.00     0.000 C 
BRANCH   5   6
ATOM      6  C   UNL     1      59.868  26.910  50.141  1.00  0.00     0.000 C 
BRANCH   6   7
ATOM      7  C   UNL     1      59.299  25.495  49.904  1.00  0.00     0.000 C 
BRANCH   7   8
ATOM      8  C   UNL     1      60.332  24.388  50.169  1.00  0.00     0.000 C 
BRANCH   8   9
ATOM      9  C   UNL     1      61.522  24.925  50.979  1.00  0.00     0.000 C 
BRANCH   9  10
ATOM     10  C   UNL     1      62.879  24.525  50.379  1.00  0.00     0.000 C 
BRANCH  10  11
ATOM     11  C   UNL     1      63.921  25.652  50.455  1.00  0.00     0.000 C 
BRANCH  11  12
ATOM     12  C   UNL     1      63.405  26.924  49.766  1.00  0.00     0.000 C 
BRANCH  12  13
ATOM     13  C   UNL     1      63.376  28.144  50.706  1.00  0.00     0.006 C 
BRANCH  13  14
ATOM     14  C   UNL     1      62.817  29.425  50.067  1.00  0.00     0.053 C 
BRANCH  14  15
ATOM     15  C   UNL     1      63.899  30.288  49.491  1.00  0.00     0.041 C 
ATOM     16  O   UNL     1      64.337  30.065  48.332  1.00  0.00    -0.550 OA
ATOM     17  O   UNL     1      64.412  31.348  50.229  1.00  0.00    -0.550 OA
ENDBRANCH  14  15
ENDBRANCH  13  14
ENDBRANCH  12  13
ENDBRANCH  11  12
ENDBRANCH  10  11
ENDBRANCH   9  10
ENDBRANCH   8   9
ENDBRANCH   7   8
ENDBRANCH   6   7
ENDBRANCH   5   6
ENDBRANCH   4   5
ENDBRANCH   3   4
ENDBRANCH   2   3
ENDBRANCH   1   2
BRANCH   1  18
ATOM     18  C   UNL     1      56.620  30.507  53.855  1.00  0.00     0.000 C 
BRANCH  18  19
ATOM     19  C   UNL     1      55.739  31.762  53.971  1.00  0.00     0.000 C 
BRANCH  19  20
ATOM     20  C   UNL     1      54.523  31.724  53.028  1.00  0.00     0.000 C 
BRANCH  20  21
ATOM     21  C   UNL     1      54.101  30.292  52.665  1.00  0.00     0.000 C 
BRANCH  21  22
ATOM     22  C   UNL     1      53.543  30.186  51.235  1.00  0.00     0.000 C 
BRANCH  22  23
ATOM     23  C   UNL     1      54.403  29.292  50.329  1.00  0.00     0.000 C 
BRANCH  23  24
ATOM     24  C   UNL     1      53.624  28.092  49.765  1.00  0.00    -0.000 C 
BRANCH  24  25
ATOM     25  C   UNL     1      54.461  26.804  49.736  1.00  0.00    -0.000 C 
BRANCH  25  26
ATOM     26  C   UNL     1      55.906  27.024  50.222  1.00  0.00    -0.000 C 
BRANCH  26  27
ATOM     27  C   UNL     1      56.243  26.200  51.475  1.00  0.00    -0.000 C 
BRANCH  27  28
ATOM     28  C   UNL     1      55.755  26.868  52.772  1.00  0.00    -0.000 C 
BRANCH  28  29
ATOM     29  C   UNL     1      56.813  26.835  53.887  1.00  0.00    -0.000 C 
BRANCH  29  30
ATOM     30  C   UNL     1      58.241  26.665  53.344  1.00  0.00    -0.000 C 
BRANCH  30  31
ATOM     31  C   UNL     1      59.263  27.310  54.287  1.00  0.00    -0.003 C 
ATOM     32  C   UNL     1      60.600  27.534  53.585  1.00  0.00     0.004 C 
ENDBRANCH  30  31
ENDBRANCH  29  30
ENDBRANCH  28  29
ENDBRANCH  27  28
ENDBRANCH  26  27
ENDBRANCH  25  26
ENDBRANCH  24  25
ENDBRANCH  23  24
ENDBRANCH  22  23
ENDBRANCH  21  22
ENDBRANCH  20  21
ENDBRANCH  19  20
ENDBRANCH  18  19
ENDBRANCH   1  18
TORSDOF 28
ENDMDL
MODEL 3
REMARK VINA RESULT:    -3.327      1.939      5.463
REMARK INTER + INTRA:         -13.794
REMARK INTER:                  -8.456
REMARK INTRA:                  -5.338
REMARK UNBOUND:                -5.020
REMARK SMILES CCCCCCCCCCCCCCCCCCCCCCCCCCCCCC(=O)[O-]
REMARK SMILES IDX 16 1 17 2 18 3 19 4 20 5 21 6 22 7 23 8 24 9 25 10 26 11
REMARK SMILES IDX 27 12 28 13 29 14 30 15 31 16 32 17 15 18 14 19 13 20 12 21
REMARK SMILES IDX 11 22 10 23 9 24 8 25 7 26 6 27 5 28 4 29 3 30 2 31 1 32
REMARK H PARENT
REMARK Flexibility Score: inf
ROOT
ATOM      1  C   UNL     1      60.827  29.732  57.882  1.00  0.00     0.000 C 
ENDROOT
BRANCH   1   2
ATOM      2  C   UNL     1      60.093  30.172  59.161  1.00  0.00     0.000 C 
BRANCH   2   3
ATOM      3  C   UNL     1      60.798  31.277  59.973  1.00  0.00     0.000 C 
BRANCH   3   4
ATOM      4  C   UNL     1      60.742  31.105  61.503  1.00  0.00     0.000 C 
BRANCH   4   5
ATOM      5  C   UNL     1      61.698  30.042  62.075  1.00  0.00     0.000 C 
BRANCH   5   6
ATOM      6  C   UNL     1      62.989  29.819  61.263  1.00  0.00     0.000 C 
BRANCH   6   7
ATOM      7  C   UNL     1      63.380  28.334  61.102  1.00  0.00     0.000 C 
BRANCH   7   8
ATOM      8  C   UNL     1      64.294  28.089  59.891  1.00  0.00     0.000 C 
BRANCH   8   9
ATOM      9  C   UNL     1      65.729  27.767  60.337  1.00  0.00     0.000 C 
BRANCH   9  10
ATOM     10  C   UNL     1      66.592  29.026  60.517  1.00  0.00     0.000 C 
BRANCH  10  11
ATOM     11  C   UNL     1      67.248  29.492  59.209  1.00  0.00     0.000 C 
BRANCH  11  12
ATOM     12  C   UNL     1      68.084  28.366  58.582  1.00  0.00     0.000 C 
BRANCH  12  13
ATOM     13  C   UNL     1      69.596  28.539  58.819  1.00  0.00     0.006 C 
BRANCH  13  14
ATOM     14  C   UNL     1      70.035  28.356  60.281  1.00  0.00     0.053 C 
BRANCH  14  15
ATOM     15  C   UNL     1      71.032  29.390  60.705  1.00  0.00     0.041 C 
ATOM     16  O   UNL     1      70.821  30.091  61.730  1.00  0.00    -0.550 OA
ATOM     17  O   UNL     1      72.203  29.569  59.978  1.00  0.00    -0.550 OA
ENDBRANCH  14  15
ENDBRANCH  13  14
ENDBRANCH  12  13
ENDBRANCH  11  12
ENDBRANCH  10  11
ENDBRANCH   9  10
ENDBRANCH   8   9
ENDBRANCH   7   8
ENDBRANCH   6   7
ENDBRANCH   5   6
ENDBRANCH   4   5
ENDBRANCH   3   4
ENDBRANCH   2   3
ENDBRANCH   1   2
BRANCH   1  18
ATOM     18  C   UNL     1      61.848  30.776  57.394  1.00  0.00     0.000 C 
BRANCH  18  19
ATOM     19  C   UNL     1      63.242  30.174  57.154  1.00  0.00     0.000 C 
BRANCH  19  20
ATOM     20  C   UNL     1      64.381  31.127  57.560  1.00  0.00     0.000 C 
BRANCH  20  21
ATOM     21  C   UNL     1      63.888  32.306  58.413  1.00  0.00     0.000 C 
BRANCH  21  22
ATOM     22  C   UNL     1      64.776  32.554  59.645  1.00  0.00     0.000 C 
BRANCH  22  23
ATOM     23  C   UNL     1      63.992  33.132  60.833  1.00  0.00     0.000 C 
BRANCH  23  24
ATOM     24  C   UNL     1      64.370  34.591  61.141  1.00  0.00    -0.000 C 
BRANCH  24  25
ATOM     25  C   UNL     1      63.168  35.545  61.049  1.00  0.00    -0.000 C 
BRANCH  25  26
ATOM     26  C   UNL     1      61.875  34.830  60.615  1.00  0.00    -0.000 C 
BRANCH  26  27
ATOM     27  C   UNL     1      60.729  35.808  60.310  1.00  0.00    -0.000 C 
BRANCH  27  28
ATOM     28  C   UNL     1      60.099  35.571  58.927  1.00  0.00    -0.000 C 
BRANCH  28  29
ATOM     29  C   UNL     1      60.811  34.460  58.138  1.00  0.00    -0.000 C 
BRANCH  29  30
ATOM     30  C   UNL     1      59.880  33.752  57.140  1.00  0.00    -0.000 C 
BRANCH  30  31
ATOM     31  C   UNL     1      58.419  33.851  57.591  1.00  0.00    -0.003 C 
ATOM     32  C   UNL     1      57.738  32.485  57.567  1.00  0.00     0.004 C 
ENDBRANCH  30  31
ENDBRANCH  29  30
ENDBRANCH  28  29
ENDBRANCH  27  28
ENDBRANCH  26  27
ENDBRANCH  25  26
ENDBRANCH  24  25
ENDBRANCH  23  24
ENDBRANCH  22  23
ENDBRANCH  21  22
ENDBRANCH  20  21
ENDBRANCH  19  20
ENDBRANCH  18  19
ENDBRANCH   1  18
TORSDOF 28
ENDMDL
MODEL 4
REMARK VINA RESULT:    -3.195      5.386      8.450
REMARK INTER + INTRA:         -13.444
REMARK INTER:                  -7.344
REMARK INTRA:                  -6.100
REMARK UNBOUND:                -5.020
REMARK SMILES CCCCCCCCCCCCCCCCCCCCCCCCCCCCCC(=O)[O-]
REMARK SMILES IDX 16 1 17 2 18 3 19 4 20 5 21 6 22 7 23 8 24 9 25 10 26 11
REMARK SMILES IDX 27 12 28 13 29 14 30 15 31 16 32 17 15 18 14 19 13 20 12 21
REMARK SMILES IDX 11 22 10 23 9 24 8 25 7 26 6 27 5 28 4 29 3 30 2 31 1 32
REMARK H PARENT
REMARK Flexibility Score: inf
ROOT
ATOM      1  C   UNL     1      63.747  30.871  57.265  1.00  0.00     0.000 C 
ENDROOT
BRANCH   1   2
ATOM      2  C   UNL     1      64.082  32.372  57.213  1.00  0.00     0.000 C 
BRANCH   2   3
ATOM      3  C   UNL     1      65.020  32.872  58.330  1.00  0.00     0.000 C 
BRANCH   3   4
ATOM      4  C   UNL     1      65.047  34.400  58.530  1.00  0.00     0.000 C 
BRANCH   4   5
ATOM      5  C   UNL     1      64.812  34.872  59.976  1.00  0.00     0.000 C 
BRANCH   5   6
ATOM      6  C   UNL     1      63.926  33.945  60.832  1.00  0.00     0.000 C 
BRANCH   6   7
ATOM      7  C   UNL     1      62.412  34.189  60.657  1.00  0.00     0.000 C 
BRANCH   7   8
ATOM      8  C   UNL     1      62.015  35.655  60.896  1.00  0.00     0.000 C 
BRANCH   8   9
ATOM      9  C   UNL     1      60.641  35.963  60.282  1.00  0.00     0.000 C 
BRANCH   9  10
ATOM     10  C   UNL     1      60.476  35.379  58.871  1.00  0.00     0.000 C 
BRANCH  10  11
ATOM     11  C   UNL     1      61.152  36.234  57.788  1.00  0.00     0.000 C 
BRANCH  11  12
ATOM     12  C   UNL     1      61.950  35.355  56.813  1.00  0.00     0.000 C 
BRANCH  12  13
ATOM     13  C   UNL     1      61.325  35.303  55.406  1.00  0.00     0.006 C 
BRANCH  13  14
ATOM     14  C   UNL     1      60.991  33.886  54.912  1.00  0.00     0.053 C 
BRANCH  14  15
ATOM     15  C   UNL     1      59.524  33.590  54.995  1.00  0.00     0.041 C 
ATOM     16  O   UNL     1      58.883  33.273  53.959  1.00  0.00    -0.550 OA
ATOM     17  O   UNL     1      58.869  33.649  56.219  1.00  0.00    -0.550 OA
ENDBRANCH  14  15
ENDBRANCH  13  14
ENDBRANCH  12  13
ENDBRANCH  11  12
ENDBRANCH  10  11
ENDBRANCH   9  10
ENDBRANCH   8   9
ENDBRANCH   7   8
ENDBRANCH   6   7
ENDBRANCH   5   6
ENDBRANCH   4   5
ENDBRANCH   3   4
ENDBRANCH   2   3
ENDBRANCH   1   2
BRANCH   1  18
ATOM     18  C   UNL     1      62.262  30.603  57.571  1.00  0.00     0.000 C 
BRANCH  18  19
ATOM     19  C   UNL     1      61.489  31.885  57.923  1.00  0.00     0.000 C 
BRANCH  19  20
ATOM     20  C   UNL     1      60.314  31.627  58.884  1.00  0.00     0.000 C 
BRANCH  20  21
ATOM     21  C   UNL     1      60.011  30.131  59.058  1.00  0.00     0.000 C 
BRANCH  21  22
ATOM     22  C   UNL     1      60.086  29.681  60.528  1.00  0.00     0.000 C 
BRANCH  22  23
ATOM     23  C   UNL     1      60.915  30.637  61.398  1.00  0.00     0.000 C 
BRANCH  23  24
ATOM     24  C   UNL     1      62.189  29.979  61.954  1.00  0.00    -0.000 C 
BRANCH  24  25
ATOM     25  C   UNL     1      63.449  30.372  61.166  1.00  0.00    -0.000 C 
BRANCH  25  26
ATOM     26  C   UNL     1      64.392  29.179  60.921  1.00  0.00    -0.000 C 
BRANCH  26  27
ATOM     27  C   UNL     1      63.848  28.198  59.870  1.00  0.00    -0.000 C 
BRANCH  27  28
ATOM     28  C   UNL     1      63.398  26.861  60.484  1.00  0.00    -0.000 C 
BRANCH  28  29
ATOM     29  C   UNL     1      61.975  26.466  60.058  1.00  0.00    -0.000 C 
BRANCH  29  30
ATOM     30  C   UNL     1      61.017  26.321  61.252  1.00  0.00    -0.000 C 
BRANCH  30  31
ATOM     31  C   UNL     1      61.796  26.103  62.554  1.00  0.00    -0.003 C 
ATOM     32  C   UNL     1      60.998  25.258  63.543  1.00  0.00     0.004 C 
ENDBRANCH  30  31
ENDBRANCH  29  30
ENDBRANCH  28  29
ENDBRANCH  27  28
ENDBRANCH  26  27
ENDBRANCH  25  26
ENDBRANCH  24  25
ENDBRANCH  23  24
ENDBRANCH  22  23
ENDBRANCH  21  22
ENDBRANCH  20  21
ENDBRANCH  19  20
ENDBRANCH  18  19
ENDBRANCH   1  18
TORSDOF 28
ENDMDL
MODEL 5
REMARK VINA RESULT:    -3.193      8.329     12.508
REMARK INTER + INTRA:         -13.441
REMARK INTER:                  -9.272
REMARK INTRA:                  -4.169
REMARK UNBOUND:                -5.020
REMARK SMILES CCCCCCCCCCCCCCCCCCCCCCCCCCCCCC(=O)[O-]
REMARK SMILES IDX 16 1 17 2 18 3 19 4 20 5 21 6 22 7 23 8 24 9 25 10 26 11
REMARK SMILES IDX 27 12 28 13 29 14 30 15 31 16 32 17 15 18 14 19 13 20 12 21
REMARK SMILES IDX 11 22 10 23 9 24 8 25 7 26 6 27 5 28 4 29 3 30 2 31 1 32
REMARK H PARENT
REMARK Flexibility Score: inf
ROOT
ATOM      1  C   UNL     1      58.926  29.107  52.160  1.00  0.00     0.000 C 
ENDROOT
BRANCH   1   2
ATOM      2  C   UNL     1      58.730  30.057  53.355  1.00  0.00     0.000 C 
BRANCH   2   3
ATOM      3  C   UNL     1      59.090  31.531  53.084  1.00  0.00     0.000 C 
BRANCH   3   4
ATOM      4  C   UNL     1      57.915  32.524  53.182  1.00  0.00     0.000 C 
BRANCH   4   5
ATOM      5  C   UNL     1      56.558  31.893  53.546  1.00  0.00     0.000 C 
BRANCH   5   6
ATOM      6  C   UNL     1      55.808  32.580  54.704  1.00  0.00     0.000 C 
BRANCH   6   7
ATOM      7  C   UNL     1      56.309  32.172  56.105  1.00  0.00     0.000 C 
BRANCH   7   8
ATOM      8  C   UNL     1      57.031  33.318  56.834  1.00  0.00     0.000 C 
BRANCH   8   9
ATOM      9  C   UNL     1      58.556  33.184  56.699  1.00  0.00     0.000 C 
BRANCH   9  10
ATOM     10  C   UNL     1      59.114  31.960  57.441  1.00  0.00     0.000 C 
BRANCH  10  11
ATOM     11  C   UNL     1      60.227  32.321  58.436  1.00  0.00     0.000 C 
BRANCH  11  12
ATOM     12  C   UNL     1      60.464  31.178  59.434  1.00  0.00     0.000 C 
BRANCH  12  13
ATOM     13  C   UNL     1      61.049  31.663  60.773  1.00  0.00     0.006 C 
BRANCH  13  14
ATOM     14  C   UNL     1      61.104  30.587  61.869  1.00  0.00     0.053 C 
BRANCH  14  15
ATOM     15  C   UNL     1      62.328  29.729  61.757  1.00  0.00     0.041 C 
ATOM     16  O   UNL     1      62.225  28.474  61.780  1.00  0.00    -0.550 OA
ATOM     17  O   UNL     1      63.579  30.315  61.612  1.00  0.00    -0.550 OA
ENDBRANCH  14  15
ENDBRANCH  13  14
ENDBRANCH  12  13
ENDBRANCH  11  12
ENDBRANCH  10  11
ENDBRANCH   9  10
ENDBRANCH   8   9
ENDBRANCH   7   8
ENDBRANCH   6   7
ENDBRANCH   5   6
ENDBRANCH   4   5
ENDBRANCH   3   4
ENDBRANCH   2   3
ENDBRANCH   1   2
BRANCH   1  18
ATOM     18  C   UNL     1      58.092  29.516  50.933  1.00  0.00     0.000 C 
BRANCH  18  19
ATOM     19  C   UNL     1      58.765  29.132  49.605  1.00  0.00     0.000 C 
BRANCH  19  20
ATOM     20  C   UNL     1      60.211  28.637  49.791  1.00  0.00     0.000 C 
BRANCH  20  21
ATOM     21  C   UNL     1      60.362  27.135  49.503  1.00  0.00     0.000 C 
BRANCH  21  22
ATOM     22  C   UNL     1      59.005  26.430  49.325  1.00  0.00     0.000 C 
BRANCH  22  23
ATOM     23  C   UNL     1      58.630  25.556  50.531  1.00  0.00     0.000 C 
BRANCH  23  24
ATOM     24  C   UNL     1      57.196  25.809  51.025  1.00  0.00    -0.000 C 
BRANCH  24  25
ATOM     25  C   UNL     1      56.283  26.375  49.925  1.00  0.00    -0.000 C 
BRANCH  25  26
ATOM     26  C   UNL     1      54.850  25.816  49.996  1.00  0.00    -0.000 C 
BRANCH  26  27
ATOM     27  C   UNL     1      53.816  26.748  49.345  1.00  0.00    -0.000 C 
BRANCH  27  28
ATOM     28  C   UNL     1      53.272  27.805  50.322  1.00  0.00    -0.000 C 
BRANCH  28  29
ATOM     29  C   UNL     1      54.007  29.150  50.206  1.00  0.00    -0.000 C 
BRANCH  29  30
ATOM     30  C   UNL     1      54.348  29.760  51.574  1.00  0.00    -0.000 C 
BRANCH  30  31
ATOM     31  C   UNL     1      54.982  28.712  52.497  1.00  0.00    -0.003 C 
ATOM     32  C   UNL     1      54.360  28.752  53.890  1.00  0.00     0.004 C 
ENDBRANCH  30  31
ENDBRANCH  29  30
ENDBRANCH  28  29
ENDBRANCH  27  28
ENDBRANCH  26  27
ENDBRANCH  25  26
ENDBRANCH  24  25
ENDBRANCH  23  24
ENDBRANCH  22  23
ENDBRANCH  21  22
ENDBRANCH  20  21
ENDBRANCH  19  20
ENDBRANCH  18  19
ENDBRANCH   1  18
TORSDOF 28
ENDMDL
MODEL 6
REMARK VINA RESULT:    -3.182     10.114     12.235
REMARK INTER + INTRA:         -13.410
REMARK INTER:                  -8.277
REMARK INTRA:                  -5.133
REMARK UNBOUND:                -5.020
REMARK SMILES CCCCCCCCCCCCCCCCCCCCCCCCCCCCCC(=O)[O-]
REMARK SMILES IDX 16 1 17 2 18 3 19 4 20 5 21 6 22 7 23 8 24 9 25 10 26 11
REMARK SMILES IDX 27 12 28 13 29 14 30 15 31 16 32 17 15 18 14 19 13 20 12 21
REMARK SMILES IDX 11 22 10 23 9 24 8 25 7 26 6 27 5 28 4 29 3 30 2 31 1 32
REMARK H PARENT
REMARK Flexibility Score: inf
ROOT
ATOM      1  C   UNL     1      62.319  27.351  52.578  1.00  0.00     0.000 C 
ENDROOT
BRANCH   1   2
ATOM      2  C   UNL     1      63.293  27.510  51.396  1.00  0.00     0.000 C 
BRANCH   2   3
ATOM      3  C   UNL     1      63.263  26.363  50.366  1.00  0.00     0.000 C 
BRANCH   3   4
ATOM      4  C   UNL     1      64.638  25.945  49.809  1.00  0.00     0.000 C 
BRANCH   4   5
ATOM      5  C   UNL     1      65.718  27.041  49.847  1.00  0.00     0.000 C 
BRANCH   5   6
ATOM      6  C   UNL     1      66.472  27.263  48.522  1.00  0.00     0.000 C 
BRANCH   6   7
ATOM      7  C   UNL     1      65.549  27.411  47.293  1.00  0.00     0.000 C 
BRANCH   7   8
ATOM      8  C   UNL     1      64.919  28.809  47.188  1.00  0.00     0.000 C 
BRANCH   8   9
ATOM      9  C   UNL     1      65.950  29.905  47.497  1.00  0.00     0.000 C 
BRANCH   9  10
ATOM     10  C   UNL     1      65.487  30.861  48.607  1.00  0.00     0.000 C 
BRANCH  10  11
ATOM     11  C   UNL     1      64.207  30.385  49.310  1.00  0.00     0.000 C 
BRANCH  11  12
ATOM     12  C   UNL     1      63.985  31.149  50.625  1.00  0.00     0.000 C 
BRANCH  12  13
ATOM     13  C   UNL     1      62.593  31.801  50.711  1.00  0.00     0.006 C 
BRANCH  13  14
ATOM     14  C   UNL     1      62.071  32.362  49.378  1.00  0.00     0.053 C 
BRANCH  14  15
ATOM     15  C   UNL     1      62.504  33.779  49.153  1.00  0.00     0.041 C 
ATOM     16  O   UNL     1      61.748  34.731  49.478  1.00  0.00    -0.550 OA
ATOM     17  O   UNL     1      63.750  34.047  48.600  1.00  0.00    -0.550 OA
ENDBRANCH  14  15
ENDBRANCH  13  14
ENDBRANCH  12  13
ENDBRANCH  11  12
ENDBRANCH  10  11
ENDBRANCH   9  10
ENDBRANCH   8   9
ENDBRANCH   7   8
ENDBRANCH   6   7
ENDBRANCH   5   6
ENDBRANCH   4   5
ENDBRANCH   3   4
ENDBRANCH   2   3
ENDBRANCH   1   2
BRANCH   1  18
ATOM     18  C   UNL     1      61.634  25.973  52.603  1.00  0.00     0.000 C 
BRANCH  18  19
ATOM     19  C   UNL     1      60.103  26.070  52.506  1.00  0.00     0.000 C 
BRANCH  19  20
ATOM     20  C   UNL     1      59.516  25.159  51.413  1.00  0.00     0.000 C 
BRANCH  20  21
ATOM     21  C   UNL     1      58.868  25.952  50.268  1.00  0.00     0.000 C 
BRANCH  21  22
ATOM     22  C   UNL     1      59.908  26.647  49.370  1.00  0.00     0.000 C 
BRANCH  22  23
ATOM     23  C   UNL     1      59.576  28.125  49.115  1.00  0.00     0.000 C 
BRANCH  23  24
ATOM     24  C   UNL     1      60.212  29.064  50.154  1.00  0.00    -0.000 C 
BRANCH  24  25
ATOM     25  C   UNL     1      59.170  29.923  50.890  1.00  0.00    -0.000 C 
BRANCH  25  26
ATOM     26  C   UNL     1      58.494  29.172  52.051  1.00  0.00    -0.000 C 
BRANCH  26  27
ATOM     27  C   UNL     1      56.960  29.260  52.003  1.00  0.00    -0.000 C 
BRANCH  27  28
ATOM     28  C   UNL     1      56.384  28.823  50.645  1.00  0.00    -0.000 C 
BRANCH  28  29
ATOM     29  C   UNL     1      54.846  28.830  50.628  1.00  0.00    -0.000 C 
BRANCH  29  30
ATOM     30  C   UNL     1      54.258  27.685  49.789  1.00  0.00    -0.000 C 
BRANCH  30  31
ATOM     31  C   UNL     1      55.043  26.387  50.009  1.00  0.00    -0.003 C 
ATOM     32  C   UNL     1      54.387  25.518  51.079  1.00  0.00     0.004 C 
ENDBRANCH  30  31
ENDBRANCH  29  30
ENDBRANCH  28  29
ENDBRANCH  27  28
ENDBRANCH  26  27
ENDBRANCH  25  26
ENDBRANCH  24  25
ENDBRANCH  23  24
ENDBRANCH  22  23
ENDBRANCH  21  22
ENDBRANCH  20  21
ENDBRANCH  19  20
ENDBRANCH  18  19
ENDBRANCH   1  18
TORSDOF 28
ENDMDL
MODEL 7
REMARK VINA RESULT:    -3.159     10.507     13.269
REMARK INTER + INTRA:         -13.351
REMARK INTER:                  -6.969
REMARK INTRA:                  -6.381
REMARK UNBOUND:                -5.020
REMARK SMILES CCCCCCCCCCCCCCCCCCCCCCCCCCCCCC(=O)[O-]
REMARK SMILES IDX 16 1 17 2 18 3 19 4 20 5 21 6 22 7 23 8 24 9 25 10 26 11
REMARK SMILES IDX 27 12 28 13 29 14 30 15 31 16 32 17 15 18 14 19 13 20 12 21
REMARK SMILES IDX 11 22 10 23 9 24 8 25 7 26 6 27 5 28 4 29 3 30 2 31 1 32
REMARK H PARENT
REMARK Flexibility Score: inf
ROOT
ATOM      1  C   UNL     1      60.400  29.056  51.650  1.00  0.00     0.000 C 
ENDROOT
BRANCH   1   2
ATOM      2  C   UNL     1      60.437  29.227  50.121  1.00  0.00     0.000 C 
BRANCH   2   3
ATOM      3  C   UNL     1      59.582  28.218  49.330  1.00  0.00     0.000 C 
BRANCH   3   4
ATOM      4  C   UNL     1      58.210  27.888  49.952  1.00  0.00     0.000 C 
BRANCH   4   5
ATOM      5  C   UNL     1      57.889  26.387  50.064  1.00  0.00     0.000 C 
BRANCH   5   6
ATOM      6  C   UNL     1      57.762  25.851  51.504  1.00  0.00     0.000 C 
BRANCH   6   7
ATOM      7  C   UNL     1      57.403  26.931  52.546  1.00  0.00     0.000 C 
BRANCH   7   8
ATOM      8  C   UNL     1      58.407  26.993  53.708  1.00  0.00     0.000 C 
BRANCH   8   9
ATOM      9  C   UNL     1      59.130  25.649  53.887  1.00  0.00     0.000 C 
BRANCH   9  10
ATOM     10  C   UNL     1      60.659  25.782  53.824  1.00  0.00     0.000 C 
BRANCH  10  11
ATOM     11  C   UNL     1      61.288  24.929  52.712  1.00  0.00     0.000 C 
BRANCH  11  12
ATOM     12  C   UNL     1      61.544  25.770  51.452  1.00  0.00     0.000 C 
BRANCH  12  13
ATOM     13  C   UNL     1      61.266  24.997  50.150  1.00  0.00     0.006 C 
BRANCH  13  14
ATOM     14  C   UNL     1      60.510  23.673  50.346  1.00  0.00     0.053 C 
BRANCH  14  15
ATOM     15  C   UNL     1      61.274  22.501  49.808  1.00  0.00     0.041 C 
ATOM     16  O   UNL     1      62.296  22.081  50.412  1.00  0.00    -0.550 OA
ATOM     17  O   UNL     1      60.847  21.862  48.651  1.00  0.00    -0.550 OA
ENDBRANCH  14  15
ENDBRANCH  13  14
ENDBRANCH  12  13
ENDBRANCH  11  12
ENDBRANCH  10  11
ENDBRANCH   9  10
ENDBRANCH   8   9
ENDBRANCH   7   8
ENDBRANCH   6   7
ENDBRANCH   5   6
ENDBRANCH   4   5
ENDBRANCH   3   4
ENDBRANCH   2   3
ENDBRANCH   1   2
BRANCH   1  18
ATOM     18  C   UNL     1      59.947  30.333  52.380  1.00  0.00     0.000 C 
BRANCH  18  19
ATOM     19  C   UNL     1      58.428  30.552  52.304  1.00  0.00     0.000 C 
BRANCH  19  20
ATOM     20  C   UNL     1      57.882  31.362  53.493  1.00  0.00     0.000 C 
BRANCH  20  21
ATOM     21  C   UNL     1      56.346  31.415  53.516  1.00  0.00     0.000 C 
BRANCH  21  22
ATOM     22  C   UNL     1      55.705  30.033  53.300  1.00  0.00     0.000 C 
BRANCH  22  23
ATOM     23  C   UNL     1      54.566  30.062  52.270  1.00  0.00     0.000 C 
BRANCH  23  24
ATOM     24  C   UNL     1      54.839  29.157  51.057  1.00  0.00    -0.000 C 
BRANCH  24  25
ATOM     25  C   UNL     1      53.626  29.043  50.120  1.00  0.00    -0.000 C 
BRANCH  25  26
ATOM     26  C   UNL     1      53.445  27.623  49.553  1.00  0.00    -0.000 C 
BRANCH  26  27
ATOM     27  C   UNL     1      54.276  26.572  50.307  1.00  0.00    -0.000 C 
BRANCH  27  28
ATOM     28  C   UNL     1      53.456  25.820  51.370  1.00  0.00    -0.000 C 
BRANCH  28  29
ATOM     29  C   UNL     1      54.320  24.872  52.217  1.00  0.00    -0.000 C 
BRANCH  29  30
ATOM     30  C   UNL     1      54.229  25.172  53.722  1.00  0.00    -0.000 C 
BRANCH  30  31
ATOM     31  C   UNL     1      54.073  26.677  53.970  1.00  0.00    -0.003 C 
ATOM     32  C   UNL     1      54.763  27.100  55.264  1.00  0.00     0.004 C 
ENDBRANCH  30  31
ENDBRANCH  29  30
ENDBRANCH  28  29
ENDBRANCH  27  28
ENDBRANCH  26  27
ENDBRANCH  25  26
ENDBRANCH  24  25
ENDBRANCH  23  24
ENDBRANCH  22  23
ENDBRANCH  21  22
ENDBRANCH  20  21
ENDBRANCH  19  20
ENDBRANCH  18  19
ENDBRANCH   1  18
TORSDOF 28
ENDMDL
MODEL 8
REMARK VINA RESULT:    -3.142      5.421      8.524
REMARK INTER + INTRA:         -13.305
REMARK INTER:                  -8.385
REMARK INTRA:                  -4.920
REMARK UNBOUND:                -5.020
REMARK SMILES CCCCCCCCCCCCCCCCCCCCCCCCCCCCCC(=O)[O-]
REMARK SMILES IDX 16 1 17 2 18 3 19 4 20 5 21 6 22 7 23 8 24 9 25 10 26 11
REMARK SMILES IDX 27 12 28 13 29 14 30 15 31 16 32 17 15 18 14 19 13 20 12 21
REMARK SMILES IDX 11 22 10 23 9 24 8 25 7 26 6 27 5 28 4 29 3 30 2 31 1 32
REMARK H PARENT
REMARK Flexibility Score: inf
ROOT
ATOM      1  C   UNL     1      61.335  31.617  57.949  1.00  0.00     0.000 C 
ENDROOT
BRANCH   1   2
ATOM      2  C   UNL     1      60.586  30.966  59.126  1.00  0.00     0.000 C 
BRANCH   2   3
ATOM      3  C   UNL     1      60.711  31.709  60.471  1.00  0.00     0.000 C 
BRANCH   3   4
ATOM      4  C   UNL     1      60.840  30.803  61.712  1.00  0.00     0.000 C 
BRANCH   4   5
ATOM      5  C   UNL     1      62.193  30.084  61.856  1.00  0.00     0.000 C 
BRANCH   5   6
ATOM      6  C   UNL     1      62.183  28.589  61.482  1.00  0.00     0.000 C 
BRANCH   6   7
ATOM      7  C   UNL     1      63.343  28.167  60.554  1.00  0.00     0.000 C 
BRANCH   7   8
ATOM      8  C   UNL     1      62.867  27.794  59.141  1.00  0.00     0.000 C 
BRANCH   8   9
ATOM      9  C   UNL     1      62.485  26.307  59.061  1.00  0.00     0.000 C 
BRANCH   9  10
ATOM     10  C   UNL     1      60.994  26.092  58.761  1.00  0.00     0.000 C 
BRANCH  10  11
ATOM     11  C   UNL     1      60.238  27.407  58.517  1.00  0.00     0.000 C 
BRANCH  11  12
ATOM     12  C   UNL     1      58.810  27.332  59.080  1.00  0.00     0.000 C 
BRANCH  12  13
ATOM     13  C   UNL     1      58.634  28.146  60.375  1.00  0.00     0.006 C 
BRANCH  13  14
ATOM     14  C   UNL     1      57.875  27.409  61.491  1.00  0.00     0.053 C 
BRANCH  14  15
ATOM     15  C   UNL     1      58.465  26.062  61.780  1.00  0.00     0.041 C 
ATOM     16  O   UNL     1      59.653  25.966  62.189  1.00  0.00    -0.550 OA
ATOM     17  O   UNL     1      57.699  24.915  61.616  1.00  0.00    -0.550 OA
ENDBRANCH  14  15
ENDBRANCH  13  14
ENDBRANCH  12  13
ENDBRANCH  11  12
ENDBRANCH  10  11
ENDBRANCH   9  10
ENDBRANCH   8   9
ENDBRANCH   7   8
ENDBRANCH   6   7
ENDBRANCH   5   6
ENDBRANCH   4   5
ENDBRANCH   3   4
ENDBRANCH   2   3
ENDBRANCH   1   2
BRANCH   1  18
ATOM     18  C   UNL     1      62.635  32.316  58.386  1.00  0.00     0.000 C 
BRANCH  18  19
ATOM     19  C   UNL     1      63.801  31.332  58.576  1.00  0.00     0.000 C 
BRANCH  19  20
ATOM     20  C   UNL     1      64.770  31.765  59.691  1.00  0.00     0.000 C 
BRANCH  20  21
ATOM     21  C   UNL     1      64.153  32.805  60.638  1.00  0.00     0.000 C 
BRANCH  21  22
ATOM     22  C   UNL     1      64.660  34.232  60.359  1.00  0.00     0.000 C 
BRANCH  22  23
ATOM     23  C   UNL     1      64.559  35.147  61.588  1.00  0.00     0.000 C 
BRANCH  23  24
ATOM     24  C   UNL     1      63.569  36.307  61.386  1.00  0.00    -0.000 C 
BRANCH  24  25
ATOM     25  C   UNL     1      62.160  35.822  61.008  1.00  0.00    -0.000 C 
BRANCH  25  26
ATOM     26  C   UNL     1      61.446  36.777  60.034  1.00  0.00    -0.000 C 
BRANCH  26  27
ATOM     27  C   UNL     1      60.049  36.278  59.631  1.00  0.00    -0.000 C 
BRANCH  27  28
ATOM     28  C   UNL     1      60.099  34.981  58.804  1.00  0.00    -0.000 C 
BRANCH  28  29
ATOM     29  C   UNL     1      59.135  35.008  57.607  1.00  0.00    -0.000 C 
BRANCH  29  30
ATOM     30  C   UNL     1      57.660  35.080  58.034  1.00  0.00    -0.000 C 
BRANCH  30  31
ATOM     31  C   UNL     1      56.888  33.851  57.541  1.00  0.00    -0.003 C 
ATOM     32  C   UNL     1      57.757  32.596  57.583  1.00  0.00     0.004 C 
ENDBRANCH  30  31
ENDBRANCH  29  30
ENDBRANCH  28  29
ENDBRANCH  27  28
ENDBRANCH  26  27
ENDBRANCH  25  26
ENDBRANCH  24  25
ENDBRANCH  23  24
ENDBRANCH  22  23
ENDBRANCH  21  22
ENDBRANCH  20  21
ENDBRANCH  19  20
ENDBRANCH  18  19
ENDBRANCH   1  18
TORSDOF 28
ENDMDL
MODEL 9
REMARK VINA RESULT:    -3.094      5.691      8.686
REMARK INTER + INTRA:         -13.178
REMARK INTER:                  -6.654
REMARK INTRA:                  -6.524
REMARK UNBOUND:                -5.020
REMARK SMILES CCCCCCCCCCCCCCCCCCCCCCCCCCCCCC(=O)[O-]
REMARK SMILES IDX 16 1 17 2 18 3 19 4 20 5 21 6 22 7 23 8 24 9 25 10 26 11
REMARK SMILES IDX 27 12 28 13 29 14 30 15 31 16 32 17 15 18 14 19 13 20 12 21
REMARK SMILES IDX 11 22 10 23 9 24 8 25 7 26 6 27 5 28 4 29 3 30 2 31 1 32
REMARK H PARENT
REMARK Flexibility Score: inf
ROOT
ATOM      1  C   UNL     1      63.798  35.471  57.454  1.00  0.00     0.000 C 
ENDROOT
BRANCH   1   2
ATOM      2  C   UNL     1      64.480  34.108  57.669  1.00  0.00     0.000 C 
BRANCH   2   3
ATOM      3  C   UNL     1      63.552  32.884  57.532  1.00  0.00     0.000 C 
BRANCH   3   4
ATOM      4  C   UNL     1      63.885  31.701  58.462  1.00  0.00     0.000 C 
BRANCH   4   5
ATOM      5  C   UNL     1      64.685  32.068  59.725  1.00  0.00     0.000 C 
BRANCH   5   6
ATOM      6  C   UNL     1      64.260  31.327  61.008  1.00  0.00     0.000 C 
BRANCH   6   7
ATOM      7  C   UNL     1      63.797  29.874  60.769  1.00  0.00     0.000 C 
BRANCH   7   8
ATOM      8  C   UNL     1      62.497  29.534  61.515  1.00  0.00     0.000 C 
BRANCH   8   9
ATOM      9  C   UNL     1      61.551  30.745  61.556  1.00  0.00     0.000 C 
BRANCH   9  10
ATOM     10  C   UNL     1      60.349  30.592  60.613  1.00  0.00     0.000 C 
BRANCH  10  11
ATOM     11  C   UNL     1      60.718  29.928  59.277  1.00  0.00     0.000 C 
BRANCH  11  12
ATOM     12  C   UNL     1      60.304  30.813  58.092  1.00  0.00     0.000 C 
BRANCH  12  13
ATOM     13  C   UNL     1      58.953  31.517  58.312  1.00  0.00     0.006 C 
BRANCH  13  14
ATOM     14  C   UNL     1      57.971  31.391  57.136  1.00  0.00     0.053 C 
BRANCH  14  15
ATOM     15  C   UNL     1      56.783  30.545  57.480  1.00  0.00     0.041 C 
ATOM     16  O   UNL     1      56.891  29.615  58.323  1.00  0.00    -0.550 OA
ATOM     17  O   UNL     1      55.554  30.794  56.883  1.00  0.00    -0.550 OA
ENDBRANCH  14  15
ENDBRANCH  13  14
ENDBRANCH  12  13
ENDBRANCH  11  12
ENDBRANCH  10  11
ENDBRANCH   9  10
ENDBRANCH   8   9
ENDBRANCH   7   8
ENDBRANCH   6   7
ENDBRANCH   5   6
ENDBRANCH   4   5
ENDBRANCH   3   4
ENDBRANCH   2   3
ENDBRANCH   1   2
BRANCH   1  18
ATOM     18  C   UNL     1      63.951  36.410  58.664  1.00  0.00     0.000 C 
BRANCH  18  19
ATOM     19  C   UNL     1      64.787  35.788  59.794  1.00  0.00     0.000 C 
BRANCH  19  20
ATOM     20  C   UNL     1      64.038  35.751  61.139  1.00  0.00     0.000 C 
BRANCH  20  21
ATOM     21  C   UNL     1      62.514  35.678  60.963  1.00  0.00     0.000 C 
BRANCH  21  22
ATOM     22  C   UNL     1      62.027  34.259  60.620  1.00  0.00     0.000 C 
BRANCH  22  23
ATOM     23  C   UNL     1      60.914  34.255  59.562  1.00  0.00     0.000 C 
BRANCH  23  24
ATOM     24  C   UNL     1      60.412  35.669  59.222  1.00  0.00    -0.000 C 
BRANCH  24  25
ATOM     25  C   UNL     1      59.132  35.653  58.371  1.00  0.00    -0.000 C 
BRANCH  25  26
ATOM     26  C   UNL     1      59.334  34.969  57.007  1.00  0.00    -0.000 C 
BRANCH  26  27
ATOM     27  C   UNL     1      60.401  35.665  56.146  1.00  0.00    -0.000 C 
BRANCH  27  28
ATOM     28  C   UNL     1      60.995  34.736  55.073  1.00  0.00    -0.000 C 
BRANCH  28  29
ATOM     29  C   UNL     1      60.657  33.257  55.321  1.00  0.00    -0.000 C 
BRANCH  29  30
ATOM     30  C   UNL     1      59.938  32.606  54.129  1.00  0.00    -0.000 C 
BRANCH  30  31
ATOM     31  C   UNL     1      59.310  33.670  53.221  1.00  0.00    -0.003 C 
ATOM     32  C   UNL     1      57.793  33.713  53.386  1.00  0.00     0.004 C 
ENDBRANCH  30  31
ENDBRANCH  29  30
ENDBRANCH  28  29
ENDBRANCH  27  28
ENDBRANCH  26  27
ENDBRANCH  25  26
ENDBRANCH  24  25
ENDBRANCH  23  24
ENDBRANCH  22  23
ENDBRANCH  21  22
ENDBRANCH  20  21
ENDBRANCH  19  20
ENDBRANCH  18  19
ENDBRANCH   1  18
TORSDOF 28
ENDMDL
