MODEL 1
REMARK VINA RESULT:    -5.018      0.000      0.000
REMARK INTER + INTRA:          -6.718
REMARK INTER:                  -6.339
REMARK INTRA:                  -0.379
REMARK UNBOUND:                -0.379
REMARK SMILES O=C(C=Cc1ccc(O)cc1)c1ccc(O)cc1O
REMARK SMILES IDX 4 1 3 2 5 3 6 4 7 5 8 6 11 7 10 8 9 9 2 11 1 12 12 13 18 14
REMARK SMILES IDX 13 15 17 16 14 17 15 18 19 19 16 21
REMARK H PARENT 9 10 19 20 16 22
REMARK Flexibility Score: inf
ROOT
ATOM      1  C   UNL     1       3.827  47.779 280.922  1.00  0.00     0.012 C 
ATOM      2  C   UNL     1       4.063  49.096 281.019  1.00  0.00     0.053 C 
ENDROOT
BRANCH   1   3
ATOM      3  C   UNL     1       3.640  46.885 282.092  1.00  0.00    -0.025 A 
ATOM      4  C   UNL     1       3.855  47.410 283.378  1.00  0.00     0.012 A 
ATOM      5  C   UNL     1       3.700  46.605 284.510  1.00  0.00     0.047 A 
ATOM      6  C   UNL     1       3.337  45.259 284.373  1.00  0.00     0.115 A 
ATOM      7  C   UNL     1       3.289  45.526 281.963  1.00  0.00     0.012 A 
ATOM      8  C   UNL     1       3.136  44.724 283.097  1.00  0.00     0.047 A 
BRANCH   6   9
ATOM      9  O   UNL     1       3.179  44.448 285.493  1.00  0.00    -0.508 OA
ATOM     10  H   UNL     1       3.974  44.147 286.046  1.00  0.00     0.293 HD
ENDBRANCH   6   9
ENDBRANCH   1   3
BRANCH   2  11
ATOM     11  C   UNL     1       4.248  49.969 279.840  1.00  0.00     0.189 C 
ATOM     12  O   UNL     1       4.490  49.429 278.727  1.00  0.00    -0.289 OA
BRANCH  11  13
ATOM     13  C   UNL     1       4.115  51.441 279.907  1.00  0.00     0.064 A 
ATOM     14  C   UNL     1       5.101  52.247 280.522  1.00  0.00     0.130 A 
ATOM     15  C   UNL     1       3.006  52.056 279.300  1.00  0.00     0.020 A 
ATOM     16  C   UNL     1       4.964  53.641 280.510  1.00  0.00     0.093 A 
ATOM     17  C   UNL     1       2.876  53.447 279.303  1.00  0.00     0.047 A 
ATOM     18  C   UNL     1       3.857  54.243 279.906  1.00  0.00     0.119 A 
BRANCH  14  19
ATOM     19  O   UNL     1       6.210  51.698 281.169  1.00  0.00    -0.507 OA
ATOM     20  H   UNL     1       6.941  51.197 280.681  1.00  0.00     0.293 HD
ENDBRANCH  14  19
BRANCH  18  21
ATOM     21  O   UNL     1       3.739  55.631 279.911  1.00  0.00    -0.508 OA
ATOM     22  H   UNL     1       2.903  56.091 280.252  1.00  0.00     0.293 HD
ENDBRANCH  18  21
ENDBRANCH  11  13
ENDBRANCH   2  11
TORSDOF 6
ENDMDL
MODEL 2
REMARK VINA RESULT:    -4.854      1.662      7.731
REMARK INTER + INTRA:          -6.510
REMARK INTER:                  -6.061
REMARK INTRA:                  -0.448
REMARK UNBOUND:                -0.379
REMARK SMILES O=C(C=Cc1ccc(O)cc1)c1ccc(O)cc1O
REMARK SMILES IDX 4 1 3 2 5 3 6 4 7 5 8 6 11 7 10 8 9 9 2 11 1 12 12 13 18 14
REMARK SMILES IDX 13 15 17 16 14 17 15 18 19 19 16 21
REMARK H PARENT 9 10 19 20 16 22
REMARK Flexibility Score: inf
ROOT
ATOM      1  C   UNL     1       4.358  50.522 280.023  1.00  0.00     0.012 C 
ATOM      2  C   UNL     1       3.921  49.973 281.166  1.00  0.00     0.053 C 
ENDROOT
BRANCH   1   3
ATOM      3  C   UNL     1       4.367  51.982 279.758  1.00  0.00    -0.025 A 
ATOM      4  C   UNL     1       4.020  52.433 278.473  1.00  0.00     0.012 A 
ATOM      5  C   UNL     1       4.023  53.798 278.173  1.00  0.00     0.047 A 
ATOM      6  C   UNL     1       4.381  54.733 279.152  1.00  0.00     0.115 A 
ATOM      7  C   UNL     1       4.740  52.930 280.733  1.00  0.00     0.012 A 
ATOM      8  C   UNL     1       4.742  54.294 280.429  1.00  0.00     0.047 A 
BRANCH   6   9
ATOM      9  O   UNL     1       4.386  56.096 278.865  1.00  0.00    -0.508 OA
ATOM     10  H   UNL     1       5.204  56.670 279.037  1.00  0.00     0.293 HD
ENDBRANCH   6   9
ENDBRANCH   1   3
BRANCH   2  11
ATOM     11  C   UNL     1       3.919  48.514 281.409  1.00  0.00     0.189 C 
ATOM     12  O   UNL     1       4.037  47.743 280.420  1.00  0.00    -0.289 OA
BRANCH  11  13
ATOM     13  C   UNL     1       3.831  47.930 282.765  1.00  0.00     0.064 A 
ATOM     14  C   UNL     1       4.018  46.546 282.990  1.00  0.00     0.130 A 
ATOM     15  C   UNL     1       3.605  48.779 283.863  1.00  0.00     0.020 A 
ATOM     16  C   UNL     1       3.985  46.045 284.297  1.00  0.00     0.093 A 
ATOM     17  C   UNL     1       3.564  48.265 285.161  1.00  0.00     0.047 A 
ATOM     18  C   UNL     1       3.758  46.897 285.381  1.00  0.00     0.119 A 
BRANCH  14  19
ATOM     19  O   UNL     1       4.215  45.644 281.942  1.00  0.00    -0.507 OA
ATOM     20  H   UNL     1       4.923  44.921 281.963  1.00  0.00     0.293 HD
ENDBRANCH  14  19
BRANCH  18  21
ATOM     21  O   UNL     1       3.724  46.375 286.673  1.00  0.00    -0.508 OA
ATOM     22  H   UNL     1       3.177  45.551 286.897  1.00  0.00     0.293 HD
ENDBRANCH  18  21
ENDBRANCH  11  13
ENDBRANCH   2  11
TORSDOF 6
ENDMDL
MODEL 3
REMARK VINA RESULT:    -4.829      1.490      2.060
REMARK INTER + INTRA:          -6.478
REMARK INTER:                  -5.877
REMARK INTRA:                  -0.602
REMARK UNBOUND:                -0.379
REMARK SMILES O=C(C=Cc1ccc(O)cc1)c1ccc(O)cc1O
REMARK SMILES IDX 4 1 3 2 5 3 6 4 7 5 8 6 11 7 10 8 9 9 2 11 1 12 12 13 18 14
REMARK SMILES IDX 13 15 17 16 14 17 15 18 19 19 16 21
REMARK H PARENT 9 10 19 20 16 22
REMARK Flexibility Score: inf
ROOT
ATOM      1  C   UNL     1       3.404  47.089 282.736  1.00  0.00     0.012 C 
ATOM      2  C   UNL     1       3.864  48.336 282.555  1.00  0.00     0.053 C 
ENDROOT
BRANCH   1   3
ATOM      3  C   UNL     1       3.304  46.431 284.063  1.00  0.00    -0.025 A 
ATOM      4  C   UNL     1       3.613  47.182 285.209  1.00  0.00     0.012 A 
ATOM      5  C   UNL     1       3.542  46.603 286.480  1.00  0.00     0.047 A 
ATOM      6  C   UNL     1       3.170  45.261 286.622  1.00  0.00     0.115 A 
ATOM      7  C   UNL     1       2.944  45.076 284.214  1.00  0.00     0.012 A 
ATOM      8  C   UNL     1       2.875  44.501 285.486  1.00  0.00     0.047 A 
BRANCH   6   9
ATOM      9  O   UNL     1       3.094  44.673 287.882  1.00  0.00    -0.508 OA
ATOM     10  H   UNL     1       3.809  44.831 288.583  1.00  0.00     0.293 HD
ENDBRANCH   6   9
ENDBRANCH   1   3
BRANCH   2  11
ATOM     11  C   UNL     1       3.958  48.974 281.224  1.00  0.00     0.189 C 
ATOM     12  O   UNL     1       4.025  48.231 280.208  1.00  0.00    -0.289 OA
BRANCH  11  13
ATOM     13  C   UNL     1       3.930  50.441 281.036  1.00  0.00     0.064 A 
ATOM     14  C   UNL     1       4.487  51.052 279.889  1.00  0.00     0.130 A 
ATOM     15  C   UNL     1       3.290  51.241 281.998  1.00  0.00     0.020 A 
ATOM     16  C   UNL     1       4.385  52.439 279.724  1.00  0.00     0.093 A 
ATOM     17  C   UNL     1       3.204  52.625 281.827  1.00  0.00     0.047 A 
ATOM     18  C   UNL     1       3.749  53.226 280.687  1.00  0.00     0.119 A 
BRANCH  14  19
ATOM     19  O   UNL     1       5.163  50.319 278.912  1.00  0.00    -0.507 OA
ATOM     20  H   UNL     1       4.818  49.442 278.544  1.00  0.00     0.293 HD
ENDBRANCH  14  19
BRANCH  18  21
ATOM     21  O   UNL     1       3.665  54.605 280.504  1.00  0.00    -0.508 OA
ATOM     22  H   UNL     1       4.228  55.083 279.811  1.00  0.00     0.293 HD
ENDBRANCH  18  21
ENDBRANCH  11  13
ENDBRANCH   2  11
TORSDOF 6
ENDMDL
MODEL 4
REMARK VINA RESULT:    -4.682      2.089      3.259
REMARK INTER + INTRA:          -6.292
REMARK INTER:                  -5.822
REMARK INTRA:                  -0.470
REMARK UNBOUND:                -0.379
REMARK SMILES O=C(C=Cc1ccc(O)cc1)c1ccc(O)cc1O
REMARK SMILES IDX 4 1 3 2 5 3 6 4 7 5 8 6 11 7 10 8 9 9 2 11 1 12 12 13 18 14
REMARK SMILES IDX 13 15 17 16 14 17 15 18 19 19 16 21
REMARK H PARENT 9 10 19 20 16 22
REMARK Flexibility Score: inf
ROOT
ATOM      1  C   UNL     1       3.239  47.828 284.944  1.00  0.00     0.012 C 
ATOM      2  C   UNL     1       3.245  48.365 283.714  1.00  0.00     0.053 C 
ENDROOT
BRANCH   1   3
ATOM      3  C   UNL     1       3.132  46.372 285.209  1.00  0.00    -0.025 A 
ATOM      4  C   UNL     1       3.240  45.922 286.536  1.00  0.00     0.012 A 
ATOM      5  C   UNL     1       3.154  44.559 286.834  1.00  0.00     0.047 A 
ATOM      6  C   UNL     1       2.968  43.625 285.808  1.00  0.00     0.115 A 
ATOM      7  C   UNL     1       2.959  45.423 284.181  1.00  0.00     0.012 A 
ATOM      8  C   UNL     1       2.875  44.061 284.484  1.00  0.00     0.047 A 
BRANCH   6   9
ATOM      9  O   UNL     1       2.880  42.265 286.094  1.00  0.00    -0.508 OA
ATOM     10  H   UNL     1       2.087  41.879 286.594  1.00  0.00     0.293 HD
ENDBRANCH   6   9
ENDBRANCH   1   3
BRANCH   2  11
ATOM     11  C   UNL     1       3.351  49.820 283.472  1.00  0.00     0.189 C 
ATOM     12  O   UNL     1       3.206  50.602 284.450  1.00  0.00    -0.289 OA
BRANCH  11  13
ATOM     13  C   UNL     1       3.665  50.388 282.142  1.00  0.00     0.064 A 
ATOM     14  C   UNL     1       3.623  51.782 281.903  1.00  0.00     0.130 A 
ATOM     15  C   UNL     1       4.062  49.526 281.106  1.00  0.00     0.020 A 
ATOM     16  C   UNL     1       3.986  52.280 280.645  1.00  0.00     0.093 A 
ATOM     17  C   UNL     1       4.411  50.034 279.853  1.00  0.00     0.047 A 
ATOM     18  C   UNL     1       4.377  51.414 279.621  1.00  0.00     0.119 A 
BRANCH  14  19
ATOM     19  O   UNL     1       3.208  52.690 282.879  1.00  0.00    -0.507 OA
ATOM     20  H   UNL     1       2.847  53.609 282.659  1.00  0.00     0.293 HD
ENDBRANCH  14  19
BRANCH  18  21
ATOM     21  O   UNL     1       4.728  51.933 278.376  1.00  0.00    -0.508 OA
ATOM     22  H   UNL     1       4.033  52.324 277.750  1.00  0.00     0.293 HD
ENDBRANCH  18  21
ENDBRANCH  11  13
ENDBRANCH   2  11
TORSDOF 6
ENDMDL
MODEL 5
REMARK VINA RESULT:    -4.656      2.546      4.302
REMARK INTER + INTRA:          -6.259
REMARK INTER:                  -5.522
REMARK INTRA:                  -0.737
REMARK UNBOUND:                -0.379
REMARK SMILES O=C(C=Cc1ccc(O)cc1)c1ccc(O)cc1O
REMARK SMILES IDX 4 1 3 2 5 3 6 4 7 5 8 6 11 7 10 8 9 9 2 11 1 12 12 13 18 14
REMARK SMILES IDX 13 15 17 16 14 17 15 18 19 19 16 21
REMARK H PARENT 9 10 19 20 16 22
REMARK Flexibility Score: inf
ROOT
ATOM      1  C   UNL     1       4.353  52.040 280.327  1.00  0.00     0.012 C 
ATOM      2  C   UNL     1       3.519  52.980 280.798  1.00  0.00     0.053 C 
ENDROOT
BRANCH   1   3
ATOM      3  C   UNL     1       4.228  50.594 280.639  1.00  0.00    -0.025 A 
ATOM      4  C   UNL     1       4.172  49.680 279.573  1.00  0.00     0.012 A 
ATOM      5  C   UNL     1       4.045  48.310 279.816  1.00  0.00     0.047 A 
ATOM      6  C   UNL     1       3.963  47.833 281.129  1.00  0.00     0.115 A 
ATOM      7  C   UNL     1       4.129  50.106 281.958  1.00  0.00     0.012 A 
ATOM      8  C   UNL     1       4.002  48.734 282.197  1.00  0.00     0.047 A 
BRANCH   6   9
ATOM      9  O   UNL     1       3.838  46.469 281.384  1.00  0.00    -0.508 OA
ATOM     10  H   UNL     1       3.234  46.121 282.120  1.00  0.00     0.293 HD
ENDBRANCH   6   9
ENDBRANCH   1   3
BRANCH   2  11
ATOM     11  C   UNL     1       3.663  54.416 280.477  1.00  0.00     0.189 C 
ATOM     12  O   UNL     1       3.580  55.251 281.417  1.00  0.00    -0.289 OA
BRANCH  11  13
ATOM     13  C   UNL     1       3.943  54.905 279.109  1.00  0.00     0.064 A 
ATOM     14  C   UNL     1       5.175  55.518 278.779  1.00  0.00     0.130 A 
ATOM     15  C   UNL     1       2.982  54.710 278.102  1.00  0.00     0.020 A 
ATOM     16  C   UNL     1       5.421  55.911 277.457  1.00  0.00     0.093 A 
ATOM     17  C   UNL     1       3.236  55.116 276.790  1.00  0.00     0.047 A 
ATOM     18  C   UNL     1       4.458  55.715 276.464  1.00  0.00     0.119 A 
BRANCH  14  19
ATOM     19  O   UNL     1       6.159  55.769 279.737  1.00  0.00    -0.507 OA
ATOM     20  H   UNL     1       6.013  55.624 280.728  1.00  0.00     0.293 HD
ENDBRANCH  14  19
BRANCH  18  21
ATOM     21  O   UNL     1       4.724  56.119 275.157  1.00  0.00    -0.508 OA
ATOM     22  H   UNL     1       4.087  56.721 274.649  1.00  0.00     0.293 HD
ENDBRANCH  18  21
ENDBRANCH  11  13
ENDBRANCH   2  11
TORSDOF 6
ENDMDL
MODEL 6
REMARK VINA RESULT:    -4.654      2.201      3.066
REMARK INTER + INTRA:          -6.257
REMARK INTER:                  -5.747
REMARK INTRA:                  -0.511
REMARK UNBOUND:                -0.379
REMARK SMILES O=C(C=Cc1ccc(O)cc1)c1ccc(O)cc1O
REMARK SMILES IDX 4 1 3 2 5 3 6 4 7 5 8 6 11 7 10 8 9 9 2 11 1 12 12 13 18 14
REMARK SMILES IDX 13 15 17 16 14 17 15 18 19 19 16 21
REMARK H PARENT 9 10 19 20 16 22
REMARK Flexibility Score: inf
ROOT
ATOM      1  C   UNL     1       3.740  50.749 282.228  1.00  0.00     0.012 C 
ATOM      2  C   UNL     1       3.140  51.548 281.332  1.00  0.00     0.053 C 
ENDROOT
BRANCH   1   3
ATOM      3  C   UNL     1       3.694  49.267 282.175  1.00  0.00    -0.025 A 
ATOM      4  C   UNL     1       3.652  48.554 283.385  1.00  0.00     0.012 A 
ATOM      5  C   UNL     1       3.616  47.156 283.386  1.00  0.00     0.047 A 
ATOM      6  C   UNL     1       3.631  46.451 282.177  1.00  0.00     0.115 A 
ATOM      7  C   UNL     1       3.723  48.548 280.962  1.00  0.00     0.012 A 
ATOM      8  C   UNL     1       3.688  47.151 280.968  1.00  0.00     0.047 A 
BRANCH   6   9
ATOM      9  O   UNL     1       3.595  45.059 282.166  1.00  0.00    -0.508 OA
ATOM     10  H   UNL     1       3.986  44.525 281.397  1.00  0.00     0.293 HD
ENDBRANCH   6   9
ENDBRANCH   1   3
BRANCH   2  11
ATOM     11  C   UNL     1       3.198  53.024 281.405  1.00  0.00     0.189 C 
ATOM     12  O   UNL     1       2.875  53.583 282.487  1.00  0.00    -0.289 OA
BRANCH  11  13
ATOM     13  C   UNL     1       3.660  53.862 280.277  1.00  0.00     0.064 A 
ATOM     14  C   UNL     1       4.078  55.200 280.469  1.00  0.00     0.130 A 
ATOM     15  C   UNL     1       3.732  53.299 278.991  1.00  0.00     0.020 A 
ATOM     16  C   UNL     1       4.565  55.937 279.383  1.00  0.00     0.093 A 
ATOM     17  C   UNL     1       4.209  54.049 277.913  1.00  0.00     0.047 A 
ATOM     18  C   UNL     1       4.630  55.369 278.108  1.00  0.00     0.119 A 
BRANCH  14  19
ATOM     19  O   UNL     1       4.003  55.828 281.714  1.00  0.00    -0.507 OA
ATOM     20  H   UNL     1       3.200  55.749 282.324  1.00  0.00     0.293 HD
ENDBRANCH  14  19
BRANCH  18  21
ATOM     21  O   UNL     1       5.113  56.125 277.041  1.00  0.00    -0.508 OA
ATOM     22  H   UNL     1       4.528  56.799 276.562  1.00  0.00     0.293 HD
ENDBRANCH  18  21
ENDBRANCH  11  13
ENDBRANCH   2  11
TORSDOF 6
ENDMDL
MODEL 7
REMARK VINA RESULT:    -4.552      1.833      7.903
REMARK INTER + INTRA:          -6.129
REMARK INTER:                  -5.667
REMARK INTRA:                  -0.462
REMARK UNBOUND:                -0.379
REMARK SMILES O=C(C=Cc1ccc(O)cc1)c1ccc(O)cc1O
REMARK SMILES IDX 4 1 3 2 5 3 6 4 7 5 8 6 11 7 10 8 9 9 2 11 1 12 12 13 18 14
REMARK SMILES IDX 13 15 17 16 14 17 15 18 19 19 16 21
REMARK H PARENT 9 10 19 20 16 22
REMARK Flexibility Score: inf
ROOT
ATOM      1  C   UNL     1       3.567  48.073 281.041  1.00  0.00     0.012 C 
ATOM      2  C   UNL     1       3.987  47.699 282.259  1.00  0.00     0.053 C 
ENDROOT
BRANCH   1   3
ATOM      3  C   UNL     1       3.853  49.399 280.439  1.00  0.00    -0.025 A 
ATOM      4  C   UNL     1       4.025  49.481 279.047  1.00  0.00     0.012 A 
ATOM      5  C   UNL     1       4.306  50.706 278.435  1.00  0.00     0.047 A 
ATOM      6  C   UNL     1       4.428  51.867 279.208  1.00  0.00     0.115 A 
ATOM      7  C   UNL     1       3.992  50.571 281.211  1.00  0.00     0.012 A 
ATOM      8  C   UNL     1       4.274  51.794 280.595  1.00  0.00     0.047 A 
BRANCH   6   9
ATOM      9  O   UNL     1       4.706  53.093 278.609  1.00  0.00    -0.508 OA
ATOM     10  H   UNL     1       4.157  53.439 277.831  1.00  0.00     0.293 HD
ENDBRANCH   6   9
ENDBRANCH   1   3
BRANCH   2  11
ATOM     11  C   UNL     1       3.689  46.373 282.841  1.00  0.00     0.189 C 
ATOM     12  O   UNL     1       3.692  45.370 282.078  1.00  0.00    -0.289 OA
BRANCH  11  13
ATOM     13  C   UNL     1       3.433  46.173 284.284  1.00  0.00     0.064 A 
ATOM     14  C   UNL     1       3.099  44.902 284.809  1.00  0.00     0.130 A 
ATOM     15  C   UNL     1       3.572  47.263 285.161  1.00  0.00     0.020 A 
ATOM     16  C   UNL     1       2.925  44.747 286.190  1.00  0.00     0.093 A 
ATOM     17  C   UNL     1       3.385  47.097 286.535  1.00  0.00     0.047 A 
ATOM     18  C   UNL     1       3.064  45.837 287.053  1.00  0.00     0.119 A 
BRANCH  14  19
ATOM     19  O   UNL     1       2.916  43.787 283.990  1.00  0.00    -0.507 OA
ATOM     20  H   UNL     1       3.528  43.564 283.216  1.00  0.00     0.293 HD
ENDBRANCH  14  19
BRANCH  18  21
ATOM     21  O   UNL     1       2.879  45.658 288.423  1.00  0.00    -0.508 OA
ATOM     22  H   UNL     1       1.954  45.553 288.823  1.00  0.00     0.293 HD
ENDBRANCH  18  21
ENDBRANCH  11  13
ENDBRANCH   2  11
TORSDOF 6
ENDMDL
MODEL 8
REMARK VINA RESULT:    -4.526      2.211      8.034
REMARK INTER + INTRA:          -6.095
REMARK INTER:                  -5.499
REMARK INTRA:                  -0.596
REMARK UNBOUND:                -0.379
REMARK SMILES O=C(C=Cc1ccc(O)cc1)c1ccc(O)cc1O
REMARK SMILES IDX 4 1 3 2 5 3 6 4 7 5 8 6 11 7 10 8 9 9 2 11 1 12 12 13 18 14
REMARK SMILES IDX 13 15 17 16 14 17 15 18 19 19 16 21
REMARK H PARENT 9 10 19 20 16 22
REMARK Flexibility Score: inf
ROOT
ATOM      1  C   UNL     1       3.505  52.783 281.360  1.00  0.00     0.012 C 
ATOM      2  C   UNL     1       3.900  51.506 281.471  1.00  0.00     0.053 C 
ENDROOT
BRANCH   1   3
ATOM      3  C   UNL     1       3.916  53.682 280.253  1.00  0.00    -0.025 A 
ATOM      4  C   UNL     1       3.562  53.332 278.939  1.00  0.00     0.012 A 
ATOM      5  C   UNL     1       3.934  54.142 277.862  1.00  0.00     0.047 A 
ATOM      6  C   UNL     1       4.675  55.310 278.083  1.00  0.00     0.115 A 
ATOM      7  C   UNL     1       4.674  54.852 280.464  1.00  0.00     0.012 A 
ATOM      8  C   UNL     1       5.045  55.658 279.385  1.00  0.00     0.047 A 
BRANCH   6   9
ATOM      9  O   UNL     1       5.051  56.125 277.018  1.00  0.00    -0.508 OA
ATOM     10  H   UNL     1       4.769  57.098 276.971  1.00  0.00     0.293 HD
ENDBRANCH   6   9
ENDBRANCH   1   3
BRANCH   2  11
ATOM     11  C   UNL     1       3.480  50.627 282.584  1.00  0.00     0.189 C 
ATOM     12  O   UNL     1       2.990  51.161 283.615  1.00  0.00    -0.289 OA
BRANCH  11  13
ATOM     13  C   UNL     1       3.571  49.153 282.516  1.00  0.00     0.064 A 
ATOM     14  C   UNL     1       3.766  48.367 283.677  1.00  0.00     0.130 A 
ATOM     15  C   UNL     1       3.410  48.514 281.275  1.00  0.00     0.020 A 
ATOM     16  C   UNL     1       3.786  46.971 283.573  1.00  0.00     0.093 A 
ATOM     17  C   UNL     1       3.442  47.120 281.183  1.00  0.00     0.047 A 
ATOM     18  C   UNL     1       3.627  46.346 282.334  1.00  0.00     0.119 A 
BRANCH  14  19
ATOM     19  O   UNL     1       3.964  48.939 284.935  1.00  0.00    -0.507 OA
ATOM     20  H   UNL     1       3.751  48.458 285.799  1.00  0.00     0.293 HD
ENDBRANCH  14  19
BRANCH  18  21
ATOM     21  O   UNL     1       3.656  44.954 282.256  1.00  0.00    -0.508 OA
ATOM     22  H   UNL     1       4.495  44.457 281.982  1.00  0.00     0.293 HD
ENDBRANCH  18  21
ENDBRANCH  11  13
ENDBRANCH   2  11
TORSDOF 6
ENDMDL
MODEL 9
REMARK VINA RESULT:    -4.477      3.348      5.495
REMARK INTER + INTRA:          -6.034
REMARK INTER:                  -5.422
REMARK INTRA:                  -0.612
REMARK UNBOUND:                -0.379
REMARK SMILES O=C(C=Cc1ccc(O)cc1)c1ccc(O)cc1O
REMARK SMILES IDX 4 1 3 2 5 3 6 4 7 5 8 6 11 7 10 8 9 9 2 11 1 12 12 13 18 14
REMARK SMILES IDX 13 15 17 16 14 17 15 18 19 19 16 21
REMARK H PARENT 9 10 19 20 16 22
REMARK Flexibility Score: inf
ROOT
ATOM      1  C   UNL     1       4.424  52.719 278.797  1.00  0.00     0.012 C 
ATOM      2  C   UNL     1       3.404  53.588 278.745  1.00  0.00     0.053 C 
ENDROOT
BRANCH   1   3
ATOM      3  C   UNL     1       4.292  51.316 279.264  1.00  0.00    -0.025 A 
ATOM      4  C   UNL     1       4.115  51.081 280.639  1.00  0.00     0.012 A 
ATOM      5  C   UNL     1       3.994  49.777 281.128  1.00  0.00     0.047 A 
ATOM      6  C   UNL     1       4.058  48.688 280.250  1.00  0.00     0.115 A 
ATOM      7  C   UNL     1       4.369  50.213 278.390  1.00  0.00     0.012 A 
ATOM      8  C   UNL     1       4.249  48.910 278.884  1.00  0.00     0.047 A 
BRANCH   6   9
ATOM      9  O   UNL     1       3.937  47.385 280.726  1.00  0.00    -0.508 OA
ATOM     10  H   UNL     1       4.125  46.585 280.131  1.00  0.00     0.293 HD
ENDBRANCH   6   9
ENDBRANCH   1   3
BRANCH   2  11
ATOM     11  C   UNL     1       3.558  54.983 278.277  1.00  0.00     0.189 C 
ATOM     12  O   UNL     1       3.227  55.915 279.057  1.00  0.00    -0.289 OA
BRANCH  11  13
ATOM     13  C   UNL     1       4.126  55.324 276.955  1.00  0.00     0.064 A 
ATOM     14  C   UNL     1       5.498  55.632 276.794  1.00  0.00     0.130 A 
ATOM     15  C   UNL     1       3.293  55.292 275.823  1.00  0.00     0.020 A 
ATOM     16  C   UNL     1       6.005  55.890 275.514  1.00  0.00     0.093 A 
ATOM     17  C   UNL     1       3.809  55.562 274.554  1.00  0.00     0.047 A 
ATOM     18  C   UNL     1       5.167  55.859 274.396  1.00  0.00     0.119 A 
BRANCH  14  19
ATOM     19  O   UNL     1       6.373  55.710 277.879  1.00  0.00    -0.507 OA
ATOM     20  H   UNL     1       6.064  55.658 278.841  1.00  0.00     0.293 HD
ENDBRANCH  14  19
BRANCH  18  21
ATOM     21  O   UNL     1       5.694  56.125 273.134  1.00  0.00    -0.508 OA
ATOM     22  H   UNL     1       5.618  57.043 272.711  1.00  0.00     0.293 HD
ENDBRANCH  18  21
ENDBRANCH  11  13
ENDBRANCH   2  11
TORSDOF 6
ENDMDL
