MODEL 1
REMARK VINA RESULT:    -3.716      0.000      0.000
REMARK INTER + INTRA:          -9.692
REMARK INTER:                  -6.105
REMARK INTRA:                  -3.587
REMARK UNBOUND:                -3.587
REMARK SMILES COc1ccc([C@H]2CC(=O)c3c(O)cc(O[C@@H]4O[C@H](CO[C@H]5O[C@H](C)[C@H](O)[C@@H](O)[C@@H]5O)[C@H](O)[C@@H](O)[C@H]4O)cc3O2)cc1O
REMARK SMILES IDX 19 1 32 2 34 3 36 4 17 5 18 6 20 7 21 8 22 9 25 10 24 11
REMARK SMILES IDX 26 12 23 13 28 14 30 15 27 16 29 18 31 20 33 22 35 24 16 26
REMARK SMILES IDX 15 27 14 28 38 29 12 30 39 31 11 32 40 33 9 34 7 35 10 36
REMARK SMILES IDX 8 37 13 38 6 40 41 41 5 42 42 43 4 44 3 45 43 46 2 48 1 49
REMARK SMILES IDX 37 50
REMARK H PARENT 27 17 29 19 31 21 33 23 35 25 13 39 43 47 37 51
REMARK Flexibility Score: inf
ROOT
ATOM      1  C   UNL     1      20.616  31.846  40.713  1.00  0.00     0.180 C 
ATOM      2  C   UNL     1      21.533  33.018  41.179  1.00  0.00     0.177 C 
ATOM      3  C   UNL     1      20.940  34.382  40.768  1.00  0.00     0.180 C 
ATOM      4  C   UNL     1      20.814  34.357  39.192  1.00  0.00     0.214 C 
ATOM      5  C   UNL     1      19.901  33.209  38.864  1.00  0.00     0.339 C 
ATOM      6  O   UNL     1      20.431  31.934  39.264  1.00  0.00    -0.332 OA
ENDROOT
BRANCH   1   7
ATOM      7  C   UNL     1      19.287  31.549  41.480  1.00  0.00     0.198 C 
BRANCH   7   8
ATOM      8  O   UNL     1      19.168  32.254  42.748  1.00  0.00    -0.347 OA
BRANCH   8   9
ATOM      9  C   UNL     1      18.194  33.320  42.889  1.00  0.00     0.281 C 
ATOM     10  C   UNL     1      16.191  31.608  45.693  1.00  0.00     0.041 C 
ATOM     11  C   UNL     1      17.405  32.266  44.917  1.00  0.00     0.150 C 
ATOM     12  C   UNL     1      17.816  33.510  45.792  1.00  0.00     0.174 C 
ATOM     13  O   UNL     1      17.068  32.764  43.613  1.00  0.00    -0.344 OA
ATOM     14  C   UNL     1      19.097  34.240  45.108  1.00  0.00     0.179 C 
ATOM     15  C   UNL     1      18.834  34.586  43.604  1.00  0.00     0.202 C 
BRANCH  12  16
ATOM     16  O   UNL     1      16.725  34.382  45.813  1.00  0.00    -0.388 OA
ATOM     17  H   UNL     1      15.876  33.869  45.663  1.00  0.00     0.211 HD
ENDBRANCH  12  16
BRANCH  14  18
ATOM     18  O   UNL     1      20.178  33.348  45.057  1.00  0.00    -0.387 OA
ATOM     19  H   UNL     1      20.891  33.551  45.780  1.00  0.00     0.211 HD
ENDBRANCH  14  18
BRANCH  15  20
ATOM     20  O   UNL     1      18.170  35.807  43.301  1.00  0.00    -0.385 OA
ATOM     21  H   UNL     1      17.570  36.036  44.073  1.00  0.00     0.211 HD
ENDBRANCH  15  20
ENDBRANCH   8   9
ENDBRANCH   7   8
ENDBRANCH   1   7
BRANCH   2  22
ATOM     22  O   UNL     1      21.838  33.028  42.615  1.00  0.00    -0.387 OA
ATOM     23  H   UNL     1      22.779  32.895  42.838  1.00  0.00     0.211 HD
ENDBRANCH   2  22
BRANCH   3  24
ATOM     24  O   UNL     1      21.755  35.428  41.195  1.00  0.00    -0.387 OA
ATOM     25  H   UNL     1      21.408  35.708  42.101  1.00  0.00     0.211 HD
ENDBRANCH   3  24
BRANCH   5  26
ATOM     26  O   UNL     1      18.636  33.403  39.414  1.00  0.00    -0.462 OA
BRANCH  26  27
ATOM     27  C   UNL     1      17.695  34.327  39.003  1.00  0.00     0.130 A 
ATOM     28  C   UNL     1      17.145  34.122  37.724  1.00  0.00     0.093 A 
ATOM     29  C   UNL     1      17.379  35.434  39.685  1.00  0.00     0.094 A 
ATOM     30  C   UNL     1      16.680  35.204  37.009  1.00  0.00     0.133 A 
ATOM     31  C   UNL     1      16.995  36.500  38.873  1.00  0.00     0.138 A 
ATOM     32  C   UNL     1      16.901  36.482  37.503  1.00  0.00     0.102 A 
ATOM     33  O   UNL     1      16.093  37.288  39.476  1.00  0.00    -0.484 OA
ATOM     34  C   UNL     1      15.945  37.539  36.990  1.00  0.00     0.174 C 
ATOM     35  C   UNL     1      14.748  37.116  39.117  1.00  0.00     0.211 C 
ATOM     36  O   UNL     1      16.176  38.093  35.864  1.00  0.00    -0.294 OA
ATOM     37  C   UNL     1      14.692  37.922  37.788  1.00  0.00     0.131 C 
BRANCH  30  38
ATOM     38  O   UNL     1      16.065  34.989  35.741  1.00  0.00    -0.507 OA
ATOM     39  H   UNL     1      15.394  35.631  35.267  1.00  0.00     0.293 HD
ENDBRANCH  30  38
BRANCH  35  40
ATOM     40  C   UNL     1      13.825  37.147  40.435  1.00  0.00    -0.003 A 
ATOM     41  C   UNL     1      14.347  36.215  41.387  1.00  0.00     0.057 A 
ATOM     42  C   UNL     1      12.509  36.718  39.919  1.00  0.00     0.011 A 
ATOM     43  C   UNL     1      14.131  34.787  41.049  1.00  0.00     0.158 A 
ATOM     44  C   UNL     1      12.324  35.374  39.592  1.00  0.00     0.051 A 
ATOM     45  C   UNL     1      13.108  34.412  40.177  1.00  0.00     0.160 A 
BRANCH  43  46
ATOM     46  O   UNL     1      14.893  33.791  41.783  1.00  0.00    -0.504 OA
ATOM     47  H   UNL     1      15.268  34.170  42.662  1.00  0.00     0.293 HD
ENDBRANCH  43  46
BRANCH  45  48
ATOM     48  O   UNL     1      12.927  33.032  39.825  1.00  0.00    -0.493 OA
ATOM     49  C   UNL     1      13.605  32.586  38.673  1.00  0.00     0.278 C 
ENDBRANCH  45  48
ENDBRANCH  35  40
ENDBRANCH  26  27
ENDBRANCH   5  26
BRANCH   4  50
ATOM     50  O   UNL     1      22.072  34.223  38.526  1.00  0.00    -0.384 OA
ATOM     51  H   UNL     1      21.817  33.854  37.582  1.00  0.00     0.211 HD
ENDBRANCH   4  50
TORSDOF 15
ENDMDL
MODEL 2
REMARK VINA RESULT:    -3.528      1.679      3.126
REMARK INTER + INTRA:          -9.384
REMARK INTER:                  -5.710
REMARK INTRA:                  -3.674
REMARK UNBOUND:                -3.587
REMARK SMILES COc1ccc([C@H]2CC(=O)c3c(O)cc(O[C@@H]4O[C@H](CO[C@H]5O[C@H](C)[C@H](O)[C@@H](O)[C@@H]5O)[C@H](O)[C@@H](O)[C@H]4O)cc3O2)cc1O
REMARK SMILES IDX 19 1 32 2 34 3 36 4 17 5 18 6 20 7 21 8 22 9 25 10 24 11
REMARK SMILES IDX 26 12 23 13 28 14 30 15 27 16 29 18 31 20 33 22 35 24 16 26
REMARK SMILES IDX 15 27 14 28 38 29 12 30 39 31 11 32 40 33 9 34 7 35 10 36
REMARK SMILES IDX 8 37 13 38 6 40 41 41 5 42 42 43 4 44 3 45 43 46 2 48 1 49
REMARK SMILES IDX 37 50
REMARK H PARENT 27 17 29 19 31 21 33 23 35 25 13 39 43 47 37 51
REMARK Flexibility Score: inf
ROOT
ATOM      1  C   UNL     1      20.250  31.867  40.015  1.00  0.00     0.180 C 
ATOM      2  C   UNL     1      21.144  32.951  40.693  1.00  0.00     0.177 C 
ATOM      3  C   UNL     1      20.715  34.370  40.264  1.00  0.00     0.180 C 
ATOM      4  C   UNL     1      20.860  34.423  38.690  1.00  0.00     0.214 C 
ATOM      5  C   UNL     1      19.948  33.357  38.151  1.00  0.00     0.339 C 
ATOM      6  O   UNL     1      20.322  32.032  38.564  1.00  0.00    -0.332 OA
ENDROOT
BRANCH   1   7
ATOM      7  C   UNL     1      18.793  31.632  40.531  1.00  0.00     0.198 C 
BRANCH   7   8
ATOM      8  O   UNL     1      18.390  32.540  41.595  1.00  0.00    -0.347 OA
BRANCH   8   9
ATOM      9  C   UNL     1      17.097  33.194  41.530  1.00  0.00     0.281 C 
ATOM     10  C   UNL     1      16.103  32.388  45.159  1.00  0.00     0.041 C 
ATOM     11  C   UNL     1      16.917  32.970  43.931  1.00  0.00     0.150 C 
ATOM     12  C   UNL     1      16.886  34.533  44.131  1.00  0.00     0.174 C 
ATOM     13  O   UNL     1      16.322  32.701  42.652  1.00  0.00    -0.344 OA
ATOM     14  C   UNL     1      17.740  35.238  42.942  1.00  0.00     0.179 C 
ATOM     15  C   UNL     1      17.258  34.774  41.527  1.00  0.00     0.202 C 
BRANCH  12  16
ATOM     16  O   UNL     1      15.550  34.934  44.062  1.00  0.00    -0.388 OA
ATOM     17  H   UNL     1      15.173  34.712  43.160  1.00  0.00     0.211 HD
ENDBRANCH  12  16
BRANCH  14  18
ATOM     18  O   UNL     1      19.073  34.802  42.995  1.00  0.00    -0.387 OA
ATOM     19  H   UNL     1      19.660  35.239  42.263  1.00  0.00     0.211 HD
ENDBRANCH  14  18
BRANCH  15  20
ATOM     20  O   UNL     1      16.159  35.457  40.934  1.00  0.00    -0.385 OA
ATOM     21  H   UNL     1      15.312  35.040  41.275  1.00  0.00     0.211 HD
ENDBRANCH  15  20
ENDBRANCH   8   9
ENDBRANCH   7   8
ENDBRANCH   1   7
BRANCH   2  22
ATOM     22  O   UNL     1      21.198  32.876  42.158  1.00  0.00    -0.387 OA
ATOM     23  H   UNL     1      20.519  33.401  42.624  1.00  0.00     0.211 HD
ENDBRANCH   2  22
BRANCH   3  24
ATOM     24  O   UNL     1      21.508  35.336  40.879  1.00  0.00    -0.387 OA
ATOM     25  H   UNL     1      20.907  35.832  41.521  1.00  0.00     0.211 HD
ENDBRANCH   3  24
BRANCH   5  26
ATOM     26  O   UNL     1      18.622  33.615  38.490  1.00  0.00    -0.462 OA
BRANCH  26  27
ATOM     27  C   UNL     1      17.609  33.978  37.624  1.00  0.00     0.130 A 
ATOM     28  C   UNL     1      16.419  33.233  37.717  1.00  0.00     0.093 A 
ATOM     29  C   UNL     1      17.738  34.891  36.654  1.00  0.00     0.094 A 
ATOM     30  C   UNL     1      15.615  33.105  36.605  1.00  0.00     0.133 A 
ATOM     31  C   UNL     1      16.943  34.637  35.538  1.00  0.00     0.138 A 
ATOM     32  C   UNL     1      16.070  33.589  35.387  1.00  0.00     0.102 A 
ATOM     33  O   UNL     1      16.554  35.769  34.934  1.00  0.00    -0.484 OA
ATOM     34  C   UNL     1      14.984  33.900  34.378  1.00  0.00     0.174 C 
ATOM     35  C   UNL     1      15.252  36.222  35.197  1.00  0.00     0.211 C 
ATOM     36  O   UNL     1      14.511  32.956  33.660  1.00  0.00    -0.294 OA
ATOM     37  C   UNL     1      14.426  35.322  34.236  1.00  0.00     0.131 C 
BRANCH  30  38
ATOM     38  O   UNL     1      14.379  32.403  36.716  1.00  0.00    -0.507 OA
ATOM     39  H   UNL     1      14.244  31.375  36.606  1.00  0.00     0.293 HD
ENDBRANCH  30  38
BRANCH  35  40
ATOM     40  C   UNL     1      15.269  37.814  35.436  1.00  0.00    -0.003 A 
ATOM     41  C   UNL     1      16.214  38.118  36.466  1.00  0.00     0.057 A 
ATOM     42  C   UNL     1      13.883  38.091  35.868  1.00  0.00     0.011 A 
ATOM     43  C   UNL     1      15.792  37.735  37.835  1.00  0.00     0.158 A 
ATOM     44  C   UNL     1      13.496  37.712  37.154  1.00  0.00     0.051 A 
ATOM     45  C   UNL     1      14.440  37.567  38.140  1.00  0.00     0.160 A 
BRANCH  43  46
ATOM     46  O   UNL     1      16.803  37.715  38.878  1.00  0.00    -0.504 OA
ATOM     47  H   UNL     1      17.225  36.783  38.982  1.00  0.00     0.293 HD
ENDBRANCH  43  46
BRANCH  45  48
ATOM     48  O   UNL     1      14.041  37.161  39.458  1.00  0.00    -0.493 OA
ATOM     49  C   UNL     1      12.758  36.590  39.574  1.00  0.00     0.278 C 
ENDBRANCH  45  48
ENDBRANCH  35  40
ENDBRANCH  26  27
ENDBRANCH   5  26
BRANCH   4  50
ATOM     50  O   UNL     1      22.203  34.229  38.238  1.00  0.00    -0.384 OA
ATOM     51  H   UNL     1      22.761  34.895  38.818  1.00  0.00     0.211 HD
ENDBRANCH   4  50
TORSDOF 15
ENDMDL
MODEL 3
REMARK VINA RESULT:    -3.520      2.707      6.356
REMARK INTER + INTRA:          -9.370
REMARK INTER:                  -5.760
REMARK INTRA:                  -3.610
REMARK UNBOUND:                -3.587
REMARK SMILES COc1ccc([C@H]2CC(=O)c3c(O)cc(O[C@@H]4O[C@H](CO[C@H]5O[C@H](C)[C@H](O)[C@@H](O)[C@@H]5O)[C@H](O)[C@@H](O)[C@H]4O)cc3O2)cc1O
REMARK SMILES IDX 19 1 32 2 34 3 36 4 17 5 18 6 20 7 21 8 22 9 25 10 24 11
REMARK SMILES IDX 26 12 23 13 28 14 30 15 27 16 29 18 31 20 33 22 35 24 16 26
REMARK SMILES IDX 15 27 14 28 38 29 12 30 39 31 11 32 40 33 9 34 7 35 10 36
REMARK SMILES IDX 8 37 13 38 6 40 41 41 5 42 42 43 4 44 3 45 43 46 2 48 1 49
REMARK SMILES IDX 37 50
REMARK H PARENT 27 17 29 19 31 21 33 23 35 25 13 39 43 47 37 51
REMARK Flexibility Score: inf
ROOT
ATOM      1  C   UNL     1      21.326  33.620  45.734  1.00  0.00     0.180 C 
ATOM      2  C   UNL     1      21.499  34.989  45.007  1.00  0.00     0.177 C 
ATOM      3  C   UNL     1      21.694  34.791  43.489  1.00  0.00     0.180 C 
ATOM      4  C   UNL     1      22.985  33.895  43.319  1.00  0.00     0.214 C 
ATOM      5  C   UNL     1      22.697  32.606  44.037  1.00  0.00     0.339 C 
ATOM      6  O   UNL     1      22.489  32.780  45.449  1.00  0.00    -0.332 OA
ENDROOT
BRANCH   1   7
ATOM      7  C   UNL     1      19.972  32.846  45.615  1.00  0.00     0.198 C 
BRANCH   7   8
ATOM      8  O   UNL     1      18.926  33.590  44.929  1.00  0.00    -0.347 OA
BRANCH   8   9
ATOM      9  C   UNL     1      18.130  32.934  43.909  1.00  0.00     0.281 C 
ATOM     10  C   UNL     1      14.734  34.057  45.326  1.00  0.00     0.041 C 
ATOM     11  C   UNL     1      16.193  34.136  44.716  1.00  0.00     0.150 C 
ATOM     12  C   UNL     1      16.016  34.887  43.342  1.00  0.00     0.174 C 
ATOM     13  O   UNL     1      16.776  32.857  44.421  1.00  0.00    -0.344 OA
ATOM     14  C   UNL     1      17.472  35.068  42.644  1.00  0.00     0.179 C 
ATOM     15  C   UNL     1      18.232  33.705  42.524  1.00  0.00     0.202 C 
BRANCH  12  16
ATOM     16  O   UNL     1      15.196  34.093  42.537  1.00  0.00    -0.388 OA
ATOM     17  H   UNL     1      14.432  34.639  42.185  1.00  0.00     0.211 HD
ENDBRANCH  12  16
BRANCH  14  18
ATOM     18  O   UNL     1      18.302  35.836  43.475  1.00  0.00    -0.387 OA
ATOM     19  H   UNL     1      17.776  36.308  44.231  1.00  0.00     0.211 HD
ENDBRANCH  14  18
BRANCH  15  20
ATOM     20  O   UNL     1      17.963  32.884  41.393  1.00  0.00    -0.385 OA
ATOM     21  H   UNL     1      17.260  32.215  41.654  1.00  0.00     0.211 HD
ENDBRANCH  15  20
ENDBRANCH   8   9
ENDBRANCH   7   8
ENDBRANCH   1   7
BRANCH   2  22
ATOM     22  O   UNL     1      20.416  35.952  45.242  1.00  0.00    -0.387 OA
ATOM     23  H   UNL     1      20.098  36.419  44.445  1.00  0.00     0.211 HD
ENDBRANCH   2  22
BRANCH   3  24
ATOM     24  O   UNL     1      21.838  36.016  42.842  1.00  0.00    -0.387 OA
ATOM     25  H   UNL     1      21.428  36.710  43.451  1.00  0.00     0.211 HD
ENDBRANCH   3  24
BRANCH   5  26
ATOM     26  O   UNL     1      21.612  31.946  43.464  1.00  0.00    -0.462 OA
BRANCH  26  27
ATOM     27  C   UNL     1      21.495  31.552  42.145  1.00  0.00     0.130 A 
ATOM     28  C   UNL     1      20.395  30.728  41.842  1.00  0.00     0.093 A 
ATOM     29  C   UNL     1      22.406  31.808  41.199  1.00  0.00     0.094 A 
ATOM     30  C   UNL     1      20.483  29.850  40.784  1.00  0.00     0.133 A 
ATOM     31  C   UNL     1      22.476  30.826  40.212  1.00  0.00     0.138 A 
ATOM     32  C   UNL     1      21.700  29.695  40.138  1.00  0.00     0.102 A 
ATOM     33  O   UNL     1      22.817  31.339  39.021  1.00  0.00    -0.484 OA
ATOM     34  C   UNL     1      21.609  29.166  38.722  1.00  0.00     0.174 C 
ATOM     35  C   UNL     1      21.785  31.557  38.097  1.00  0.00     0.211 C 
ATOM     36  O   UNL     1      21.514  27.908  38.531  1.00  0.00    -0.294 OA
ATOM     37  C   UNL     1      21.593  30.125  37.523  1.00  0.00     0.131 C 
BRANCH  30  38
ATOM     38  O   UNL     1      19.347  29.061  40.438  1.00  0.00    -0.507 OA
ATOM     39  H   UNL     1      18.890  29.020  39.502  1.00  0.00     0.293 HD
ENDBRANCH  30  38
BRANCH  35  40
ATOM     40  C   UNL     1      21.988  32.985  37.383  1.00  0.00    -0.003 A 
ATOM     41  C   UNL     1      22.028  34.003  38.387  1.00  0.00     0.057 A 
ATOM     42  C   UNL     1      20.781  33.100  36.539  1.00  0.00     0.011 A 
ATOM     43  C   UNL     1      20.724  34.304  39.026  1.00  0.00     0.158 A 
ATOM     44  C   UNL     1      19.558  33.370  37.155  1.00  0.00     0.051 A 
ATOM     45  C   UNL     1      19.527  33.997  38.375  1.00  0.00     0.160 A 
BRANCH  43  46
ATOM     46  O   UNL     1      20.730  35.081  40.254  1.00  0.00    -0.504 OA
ATOM     47  H   UNL     1      20.573  36.081  40.073  1.00  0.00     0.293 HD
ENDBRANCH  43  46
BRANCH  45  48
ATOM     48  O   UNL     1      18.269  34.258  39.014  1.00  0.00    -0.493 OA
ATOM     49  C   UNL     1      17.641  35.476  38.684  1.00  0.00     0.278 C 
ENDBRANCH  45  48
ENDBRANCH  35  40
ENDBRANCH  26  27
ENDBRANCH   5  26
BRANCH   4  50
ATOM     50  O   UNL     1      24.174  34.511  43.823  1.00  0.00    -0.384 OA
ATOM     51  H   UNL     1      23.901  34.836  44.777  1.00  0.00     0.211 HD
ENDBRANCH   4  50
TORSDOF 15
ENDMDL
MODEL 4
REMARK VINA RESULT:    -3.478      1.650      2.674
REMARK INTER + INTRA:          -9.302
REMARK INTER:                  -6.410
REMARK INTRA:                  -2.893
REMARK UNBOUND:                -3.587
REMARK SMILES COc1ccc([C@H]2CC(=O)c3c(O)cc(O[C@@H]4O[C@H](CO[C@H]5O[C@H](C)[C@H](O)[C@@H](O)[C@@H]5O)[C@H](O)[C@@H](O)[C@H]4O)cc3O2)cc1O
REMARK SMILES IDX 19 1 32 2 34 3 36 4 17 5 18 6 20 7 21 8 22 9 25 10 24 11
REMARK SMILES IDX 26 12 23 13 28 14 30 15 27 16 29 18 31 20 33 22 35 24 16 26
REMARK SMILES IDX 15 27 14 28 38 29 12 30 39 31 11 32 40 33 9 34 7 35 10 36
REMARK SMILES IDX 8 37 13 38 6 40 41 41 5 42 42 43 4 44 3 45 43 46 2 48 1 49
REMARK SMILES IDX 37 50
REMARK H PARENT 27 17 29 19 31 21 33 23 35 25 13 39 43 47 37 51
REMARK Flexibility Score: inf
ROOT
ATOM      1  C   UNL     1      17.864  31.115  41.764  1.00  0.00     0.180 C 
ATOM      2  C   UNL     1      19.295  30.588  41.435  1.00  0.00     0.177 C 
ATOM      3  C   UNL     1      19.930  31.390  40.280  1.00  0.00     0.180 C 
ATOM      4  C   UNL     1      18.967  31.219  39.037  1.00  0.00     0.214 C 
ATOM      5  C   UNL     1      17.636  31.773  39.461  1.00  0.00     0.339 C 
ATOM      6  O   UNL     1      17.045  31.050  40.553  1.00  0.00    -0.332 OA
ENDROOT
BRANCH   1   7
ATOM      7  C   UNL     1      17.694  32.460  42.543  1.00  0.00     0.198 C 
BRANCH   7   8
ATOM      8  O   UNL     1      18.945  33.018  43.035  1.00  0.00    -0.347 OA
BRANCH   8   9
ATOM      9  C   UNL     1      19.424  34.282  42.507  1.00  0.00     0.281 C 
ATOM     10  C   UNL     1      19.061  36.216  45.814  1.00  0.00     0.041 C 
ATOM     11  C   UNL     1      19.544  35.127  44.769  1.00  0.00     0.150 C 
ATOM     12  C   UNL     1      21.104  35.326  44.673  1.00  0.00     0.174 C 
ATOM     13  O   UNL     1      19.017  35.309  43.446  1.00  0.00    -0.344 OA
ATOM     14  C   UNL     1      21.719  34.219  43.655  1.00  0.00     0.179 C 
ATOM     15  C   UNL     1      20.994  34.239  42.268  1.00  0.00     0.202 C 
BRANCH  12  16
ATOM     16  O   UNL     1      21.330  36.611  44.174  1.00  0.00    -0.388 OA
ATOM     17  H   UNL     1      20.825  36.737  43.317  1.00  0.00     0.211 HD
ENDBRANCH  12  16
BRANCH  14  18
ATOM     18  O   UNL     1      21.457  32.929  44.144  1.00  0.00    -0.387 OA
ATOM     19  H   UNL     1      20.793  32.408  43.545  1.00  0.00     0.211 HD
ENDBRANCH  14  18
BRANCH  15  20
ATOM     20  O   UNL     1      21.446  35.167  41.288  1.00  0.00    -0.385 OA
ATOM     21  H   UNL     1      20.982  34.957  40.422  1.00  0.00     0.211 HD
ENDBRANCH  15  20
ENDBRANCH   8   9
ENDBRANCH   7   8
ENDBRANCH   1   7
BRANCH   2  22
ATOM     22  O   UNL     1      20.217  30.559  42.578  1.00  0.00    -0.387 OA
ATOM     23  H   UNL     1      21.127  30.855  42.382  1.00  0.00     0.211 HD
ENDBRANCH   2  22
BRANCH   3  24
ATOM     24  O   UNL     1      21.211  30.923  39.997  1.00  0.00    -0.387 OA
ATOM     25  H   UNL     1      21.094  30.100  39.424  1.00  0.00     0.211 HD
ENDBRANCH   3  24
BRANCH   5  26
ATOM     26  O   UNL     1      17.734  33.127  39.771  1.00  0.00    -0.462 OA
BRANCH  26  27
ATOM     27  C   UNL     1      17.116  34.169  39.107  1.00  0.00     0.130 A 
ATOM     28  C   UNL     1      16.650  33.885  37.810  1.00  0.00     0.093 A 
ATOM     29  C   UNL     1      17.044  35.422  39.572  1.00  0.00     0.094 A 
ATOM     30  C   UNL     1      16.560  34.906  36.889  1.00  0.00     0.133 A 
ATOM     31  C   UNL     1      17.035  36.390  38.569  1.00  0.00     0.138 A 
ATOM     32  C   UNL     1      17.066  36.155  37.217  1.00  0.00     0.102 A 
ATOM     33  O   UNL     1      16.324  37.470  38.925  1.00  0.00    -0.484 OA
ATOM     34  C   UNL     1      16.478  37.309  36.431  1.00  0.00     0.174 C 
ATOM     35  C   UNL     1      15.021  37.577  38.416  1.00  0.00     0.211 C 
ATOM     36  O   UNL     1      16.951  37.583  35.278  1.00  0.00    -0.294 OA
ATOM     37  C   UNL     1      15.304  38.125  36.989  1.00  0.00     0.131 C 
BRANCH  30  38
ATOM     38  O   UNL     1      16.029  34.632  35.595  1.00  0.00    -0.507 OA
ATOM     39  H   UNL     1      16.283  35.121  34.710  1.00  0.00     0.293 HD
ENDBRANCH  30  38
BRANCH  35  40
ATOM     40  C   UNL     1      14.022  38.066  39.580  1.00  0.00    -0.003 A 
ATOM     41  C   UNL     1      14.019  37.091  40.627  1.00  0.00     0.057 A 
ATOM     42  C   UNL     1      12.720  38.124  38.885  1.00  0.00     0.011 A 
ATOM     43  C   UNL     1      13.314  35.827  40.303  1.00  0.00     0.158 A 
ATOM     44  C   UNL     1      12.074  36.926  38.575  1.00  0.00     0.051 A 
ATOM     45  C   UNL     1      12.344  35.793  39.299  1.00  0.00     0.160 A 
BRANCH  43  46
ATOM     46  O   UNL     1      13.533  34.684  41.173  1.00  0.00    -0.504 OA
ATOM     47  H   UNL     1      13.302  33.798  40.704  1.00  0.00     0.293 HD
ENDBRANCH  43  46
BRANCH  45  48
ATOM     48  O   UNL     1      11.691  34.558  38.967  1.00  0.00    -0.493 OA
ATOM     49  C   UNL     1      10.317  34.479  39.264  1.00  0.00     0.278 C 
ENDBRANCH  45  48
ENDBRANCH  35  40
ENDBRANCH  26  27
ENDBRANCH   5  26
BRANCH   4  50
ATOM     50  O   UNL     1      18.845  29.863  38.597  1.00  0.00    -0.384 OA
ATOM     51  H   UNL     1      19.819  29.599  38.328  1.00  0.00     0.211 HD
ENDBRANCH   4  50
TORSDOF 15
ENDMDL
MODEL 5
REMARK VINA RESULT:    -3.403      1.987      6.798
REMARK INTER + INTRA:          -9.178
REMARK INTER:                  -5.686
REMARK INTRA:                  -3.492
REMARK UNBOUND:                -3.587
REMARK SMILES COc1ccc([C@H]2CC(=O)c3c(O)cc(O[C@@H]4O[C@H](CO[C@H]5O[C@H](C)[C@H](O)[C@@H](O)[C@@H]5O)[C@H](O)[C@@H](O)[C@H]4O)cc3O2)cc1O
REMARK SMILES IDX 19 1 32 2 34 3 36 4 17 5 18 6 20 7 21 8 22 9 25 10 24 11
REMARK SMILES IDX 26 12 23 13 28 14 30 15 27 16 29 18 31 20 33 22 35 24 16 26
REMARK SMILES IDX 15 27 14 28 38 29 12 30 39 31 11 32 40 33 9 34 7 35 10 36
REMARK SMILES IDX 8 37 13 38 6 40 41 41 5 42 42 43 4 44 3 45 43 46 2 48 1 49
REMARK SMILES IDX 37 50
REMARK H PARENT 27 17 29 19 31 21 33 23 35 25 13 39 43 47 37 51
REMARK Flexibility Score: inf
ROOT
ATOM      1  C   UNL     1      14.713  35.158  39.630  1.00  0.00     0.180 C 
ATOM      2  C   UNL     1      14.560  35.830  38.230  1.00  0.00     0.177 C 
ATOM      3  C   UNL     1      15.902  35.839  37.470  1.00  0.00     0.180 C 
ATOM      4  C   UNL     1      16.920  36.644  38.373  1.00  0.00     0.214 C 
ATOM      5  C   UNL     1      17.001  35.901  39.677  1.00  0.00     0.339 C 
ATOM      6  O   UNL     1      15.749  35.864  40.384  1.00  0.00    -0.332 OA
ENDROOT
BRANCH   1   7
ATOM      7  C   UNL     1      14.835  33.603  39.734  1.00  0.00     0.198 C 
BRANCH   7   8
ATOM      8  O   UNL     1      15.213  33.129  41.057  1.00  0.00    -0.347 OA
BRANCH   8   9
ATOM      9  C   UNL     1      14.182  32.756  42.008  1.00  0.00     0.281 C 
ATOM     10  C   UNL     1      16.498  30.644  44.239  1.00  0.00     0.041 C 
ATOM     11  C   UNL     1      15.907  31.894  43.467  1.00  0.00     0.150 C 
ATOM     12  C   UNL     1      15.553  32.935  44.595  1.00  0.00     0.174 C 
ATOM     13  O   UNL     1      14.691  31.621  42.753  1.00  0.00    -0.344 OA
ATOM     14  C   UNL     1      14.976  34.289  43.907  1.00  0.00     0.179 C 
ATOM     15  C   UNL     1      13.789  33.986  42.933  1.00  0.00     0.202 C 
BRANCH  12  16
ATOM     16  O   UNL     1      14.571  32.354  45.402  1.00  0.00    -0.388 OA
ATOM     17  H   UNL     1      14.544  31.364  45.247  1.00  0.00     0.211 HD
ENDBRANCH  12  16
BRANCH  14  18
ATOM     18  O   UNL     1      15.955  34.847  43.069  1.00  0.00    -0.387 OA
ATOM     19  H   UNL     1      15.589  35.063  42.125  1.00  0.00     0.211 HD
ENDBRANCH  14  18
BRANCH  15  20
ATOM     20  O   UNL     1      12.479  33.890  43.481  1.00  0.00    -0.385 OA
ATOM     21  H   UNL     1      12.227  34.791  43.846  1.00  0.00     0.211 HD
ENDBRANCH  15  20
ENDBRANCH   8   9
ENDBRANCH   7   8
ENDBRANCH   1   7
BRANCH   2  22
ATOM     22  O   UNL     1      13.517  35.245  37.378  1.00  0.00    -0.387 OA
ATOM     23  H   UNL     1      13.682  34.324  37.096  1.00  0.00     0.211 HD
ENDBRANCH   2  22
BRANCH   3  24
ATOM     24  O   UNL     1      15.760  36.430  36.217  1.00  0.00    -0.387 OA
ATOM     25  H   UNL     1      14.975  35.974  35.775  1.00  0.00     0.211 HD
ENDBRANCH   3  24
BRANCH   5  26
ATOM     26  O   UNL     1      17.490  34.611  39.488  1.00  0.00    -0.462 OA
BRANCH  26  27
ATOM     27  C   UNL     1      18.617  34.067  40.072  1.00  0.00     0.130 A 
ATOM     28  C   UNL     1      19.845  34.650  39.708  1.00  0.00     0.093 A 
ATOM     29  C   UNL     1      18.611  32.977  40.848  1.00  0.00     0.094 A 
ATOM     30  C   UNL     1      20.991  33.886  39.748  1.00  0.00     0.133 A 
ATOM     31  C   UNL     1      19.783  32.225  40.765  1.00  0.00     0.138 A 
ATOM     32  C   UNL     1      20.886  32.527  40.004  1.00  0.00     0.102 A 
ATOM     33  O   UNL     1      20.063  31.608  41.921  1.00  0.00    -0.484 OA
ATOM     34  C   UNL     1      22.141  31.880  40.551  1.00  0.00     0.174 C 
ATOM     35  C   UNL     1      21.034  32.197  42.744  1.00  0.00     0.211 C 
ATOM     36  O   UNL     1      23.054  31.507  39.741  1.00  0.00    -0.294 OA
ATOM     37  C   UNL     1      22.341  31.702  42.063  1.00  0.00     0.131 C 
BRANCH  30  38
ATOM     38  O   UNL     1      22.244  34.493  39.440  1.00  0.00    -0.507 OA
ATOM     39  H   UNL     1      22.658  34.599  38.489  1.00  0.00     0.293 HD
ENDBRANCH  30  38
BRANCH  35  40
ATOM     40  C   UNL     1      20.539  32.166  44.275  1.00  0.00    -0.003 A 
ATOM     41  C   UNL     1      19.371  32.982  44.402  1.00  0.00     0.057 A 
ATOM     42  C   UNL     1      21.690  32.746  44.999  1.00  0.00     0.011 A 
ATOM     43  C   UNL     1      19.616  34.443  44.321  1.00  0.00     0.158 A 
ATOM     44  C   UNL     1      21.916  34.119  44.904  1.00  0.00     0.051 A 
ATOM     45  C   UNL     1      20.880  34.966  44.599  1.00  0.00     0.160 A 
BRANCH  43  46
ATOM     46  O   UNL     1      18.471  35.315  44.121  1.00  0.00    -0.504 OA
ATOM     47  H   UNL     1      17.732  35.138  44.815  1.00  0.00     0.293 HD
ENDBRANCH  43  46
BRANCH  45  48
ATOM     48  O   UNL     1      21.119  36.377  44.484  1.00  0.00    -0.493 OA
ATOM     49  C   UNL     1      21.133  37.108  45.687  1.00  0.00     0.278 C 
ENDBRANCH  45  48
ENDBRANCH  35  40
ENDBRANCH  26  27
ENDBRANCH   5  26
BRANCH   4  50
ATOM     50  O   UNL     1      16.538  38.008  38.580  1.00  0.00    -0.384 OA
ATOM     51  H   UNL     1      16.557  38.421  37.620  1.00  0.00     0.211 HD
ENDBRANCH   4  50
TORSDOF 15
ENDMDL
MODEL 6
REMARK VINA RESULT:    -3.364      2.866      6.808
REMARK INTER + INTRA:          -9.114
REMARK INTER:                  -7.318
REMARK INTRA:                  -1.795
REMARK UNBOUND:                -3.587
REMARK SMILES COc1ccc([C@H]2CC(=O)c3c(O)cc(O[C@@H]4O[C@H](CO[C@H]5O[C@H](C)[C@H](O)[C@@H](O)[C@@H]5O)[C@H](O)[C@@H](O)[C@H]4O)cc3O2)cc1O
REMARK SMILES IDX 19 1 32 2 34 3 36 4 17 5 18 6 20 7 21 8 22 9 25 10 24 11
REMARK SMILES IDX 26 12 23 13 28 14 30 15 27 16 29 18 31 20 33 22 35 24 16 26
REMARK SMILES IDX 15 27 14 28 38 29 12 30 39 31 11 32 40 33 9 34 7 35 10 36
REMARK SMILES IDX 8 37 13 38 6 40 41 41 5 42 42 43 4 44 3 45 43 46 2 48 1 49
REMARK SMILES IDX 37 50
REMARK H PARENT 27 17 29 19 31 21 33 23 35 25 13 39 43 47 37 51
REMARK Flexibility Score: inf
ROOT
ATOM      1  C   UNL     1      25.115  32.079  41.657  1.00  0.00     0.180 C 
ATOM      2  C   UNL     1      26.070  31.122  42.435  1.00  0.00     0.177 C 
ATOM      3  C   UNL     1      25.579  30.903  43.881  1.00  0.00     0.180 C 
ATOM      4  C   UNL     1      25.538  32.331  44.559  1.00  0.00     0.214 C 
ATOM      5  C   UNL     1      24.581  33.154  43.743  1.00  0.00     0.339 C 
ATOM      6  O   UNL     1      25.015  33.344  42.385  1.00  0.00    -0.332 OA
ENDROOT
BRANCH   1   7
ATOM      7  C   UNL     1      23.731  31.554  41.156  1.00  0.00     0.198 C 
BRANCH   7   8
ATOM      8  O   UNL     1      23.302  32.137  39.893  1.00  0.00    -0.347 OA
BRANCH   8   9
ATOM      9  C   UNL     1      22.989  33.552  39.826  1.00  0.00     0.281 C 
ATOM     10  C   UNL     1      23.432  33.836  36.014  1.00  0.00     0.041 C 
ATOM     11  C   UNL     1      22.873  33.362  37.417  1.00  0.00     0.150 C 
ATOM     12  C   UNL     1      21.349  33.766  37.402  1.00  0.00     0.174 C 
ATOM     13  O   UNL     1      23.470  34.026  38.542  1.00  0.00    -0.344 OA
ATOM     14  C   UNL     1      20.657  33.279  38.789  1.00  0.00     0.179 C 
ATOM     15  C   UNL     1      21.435  33.802  40.042  1.00  0.00     0.202 C 
BRANCH  12  16
ATOM     16  O   UNL     1      21.290  35.157  37.301  1.00  0.00    -0.388 OA
ATOM     17  H   UNL     1      22.208  35.528  37.144  1.00  0.00     0.211 HD
ENDBRANCH  12  16
BRANCH  14  18
ATOM     18  O   UNL     1      20.752  31.883  38.901  1.00  0.00    -0.387 OA
ATOM     19  H   UNL     1      21.710  31.538  38.717  1.00  0.00     0.211 HD
ENDBRANCH  14  18
BRANCH  15  20
ATOM     20  O   UNL     1      21.130  35.105  40.526  1.00  0.00    -0.385 OA
ATOM     21  H   UNL     1      20.223  35.074  40.955  1.00  0.00     0.211 HD
ENDBRANCH  15  20
ENDBRANCH   8   9
ENDBRANCH   7   8
ENDBRANCH   1   7
BRANCH   2  22
ATOM     22  O   UNL     1      26.296  29.822  41.791  1.00  0.00    -0.387 OA
ATOM     23  H   UNL     1      27.116  29.759  41.264  1.00  0.00     0.211 HD
ENDBRANCH   2  22
BRANCH   3  24
ATOM     24  O   UNL     1      26.428  30.040  44.569  1.00  0.00    -0.387 OA
ATOM     25  H   UNL     1      27.363  30.400  44.444  1.00  0.00     0.211 HD
ENDBRANCH   3  24
BRANCH   5  26
ATOM     26  O   UNL     1      23.301  32.606  43.771  1.00  0.00    -0.462 OA
BRANCH  26  27
ATOM     27  C   UNL     1      22.109  33.297  43.667  1.00  0.00     0.130 A 
ATOM     28  C   UNL     1      22.199  34.699  43.745  1.00  0.00     0.093 A 
ATOM     29  C   UNL     1      20.905  32.717  43.616  1.00  0.00     0.094 A 
ATOM     30  C   UNL     1      21.122  35.417  44.216  1.00  0.00     0.133 A 
ATOM     31  C   UNL     1      19.890  33.485  44.185  1.00  0.00     0.138 A 
ATOM     32  C   UNL     1      20.034  34.734  44.738  1.00  0.00     0.102 A 
ATOM     33  O   UNL     1      18.711  33.283  43.580  1.00  0.00    -0.484 OA
ATOM     34  C   UNL     1      18.731  35.506  44.731  1.00  0.00     0.174 C 
ATOM     35  C   UNL     1      18.297  34.243  42.645  1.00  0.00     0.211 C 
ATOM     36  O   UNL     1      18.486  36.324  45.679  1.00  0.00    -0.294 OA
ATOM     37  C   UNL     1      17.725  35.343  43.583  1.00  0.00     0.131 C 
BRANCH  30  38
ATOM     38  O   UNL     1      21.189  36.841  44.236  1.00  0.00    -0.507 OA
ATOM     39  H   UNL     1      20.400  37.496  44.052  1.00  0.00     0.293 HD
ENDBRANCH  30  38
BRANCH  35  40
ATOM     40  C   UNL     1      17.687  33.510  41.348  1.00  0.00    -0.003 A 
ATOM     41  C   UNL     1      17.758  34.406  40.234  1.00  0.00     0.057 A 
ATOM     42  C   UNL     1      16.290  33.249  41.750  1.00  0.00     0.011 A 
ATOM     43  C   UNL     1      16.793  35.532  40.276  1.00  0.00     0.158 A 
ATOM     44  C   UNL     1      15.397  34.320  41.797  1.00  0.00     0.051 A 
ATOM     45  C   UNL     1      15.629  35.441  41.041  1.00  0.00     0.160 A 
BRANCH  43  46
ATOM     46  O   UNL     1      17.007  36.646  39.366  1.00  0.00    -0.504 OA
ATOM     47  H   UNL     1      17.112  36.328  38.394  1.00  0.00     0.293 HD
ENDBRANCH  43  46
BRANCH  45  48
ATOM     48  O   UNL     1      14.717  36.549  41.105  1.00  0.00    -0.493 OA
ATOM     49  C   UNL     1      13.625  36.409  41.983  1.00  0.00     0.278 C 
ENDBRANCH  45  48
ENDBRANCH  35  40
ENDBRANCH  26  27
ENDBRANCH   5  26
BRANCH   4  50
ATOM     50  O   UNL     1      26.822  32.959  44.636  1.00  0.00    -0.384 OA
ATOM     51  H   UNL     1      26.603  33.942  44.913  1.00  0.00     0.211 HD
ENDBRANCH   4  50
TORSDOF 15
ENDMDL
MODEL 7
REMARK VINA RESULT:    -3.363      2.694      6.978
REMARK INTER + INTRA:          -9.112
REMARK INTER:                  -5.500
REMARK INTRA:                  -3.612
REMARK UNBOUND:                -3.587
REMARK SMILES COc1ccc([C@H]2CC(=O)c3c(O)cc(O[C@@H]4O[C@H](CO[C@H]5O[C@H](C)[C@H](O)[C@@H](O)[C@@H]5O)[C@H](O)[C@@H](O)[C@H]4O)cc3O2)cc1O
REMARK SMILES IDX 19 1 32 2 34 3 36 4 17 5 18 6 20 7 21 8 22 9 25 10 24 11
REMARK SMILES IDX 26 12 23 13 28 14 30 15 27 16 29 18 31 20 33 22 35 24 16 26
REMARK SMILES IDX 15 27 14 28 38 29 12 30 39 31 11 32 40 33 9 34 7 35 10 36
REMARK SMILES IDX 8 37 13 38 6 40 41 41 5 42 42 43 4 44 3 45 43 46 2 48 1 49
REMARK SMILES IDX 37 50
REMARK H PARENT 27 17 29 19 31 21 33 23 35 25 13 39 43 47 37 51
REMARK Flexibility Score: inf
ROOT
ATOM      1  C   UNL     1      23.354  29.859  39.440  1.00  0.00     0.180 C 
ATOM      2  C   UNL     1      22.015  29.465  38.744  1.00  0.00     0.177 C 
ATOM      3  C   UNL     1      20.812  30.144  39.431  1.00  0.00     0.180 C 
ATOM      4  C   UNL     1      20.828  29.660  40.937  1.00  0.00     0.214 C 
ATOM      5  C   UNL     1      22.145  30.107  41.506  1.00  0.00     0.339 C 
ATOM      6  O   UNL     1      23.276  29.501  40.856  1.00  0.00    -0.332 OA
ENDROOT
BRANCH   1   7
ATOM      7  C   UNL     1      23.961  31.280  39.203  1.00  0.00     0.198 C 
BRANCH   7   8
ATOM      8  O   UNL     1      23.226  32.082  38.236  1.00  0.00    -0.347 OA
BRANCH   8   9
ATOM      9  C   UNL     1      22.877  33.453  38.557  1.00  0.00     0.281 C 
ATOM     10  C   UNL     1      24.286  34.955  35.307  1.00  0.00     0.041 C 
ATOM     11  C   UNL     1      23.402  34.070  36.279  1.00  0.00     0.150 C 
ATOM     12  C   UNL     1      21.919  34.523  35.999  1.00  0.00     0.174 C 
ATOM     13  O   UNL     1      23.654  34.300  37.674  1.00  0.00    -0.344 OA
ATOM     14  C   UNL     1      20.912  33.638  36.917  1.00  0.00     0.179 C 
ATOM     15  C   UNL     1      21.310  33.685  38.430  1.00  0.00     0.202 C 
BRANCH  12  16
ATOM     16  O   UNL     1      21.823  35.872  36.349  1.00  0.00    -0.388 OA
ATOM     17  H   UNL     1      22.740  36.254  36.487  1.00  0.00     0.211 HD
ENDBRANCH  12  16
BRANCH  14  18
ATOM     18  O   UNL     1      21.039  32.280  36.585  1.00  0.00    -0.387 OA
ATOM     19  H   UNL     1      21.641  31.766  37.252  1.00  0.00     0.211 HD
ENDBRANCH  14  18
BRANCH  15  20
ATOM     20  O   UNL     1      20.830  34.769  39.218  1.00  0.00    -0.385 OA
ATOM     21  H   UNL     1      21.565  35.449  39.294  1.00  0.00     0.211 HD
ENDBRANCH  15  20
ENDBRANCH   8   9
ENDBRANCH   7   8
ENDBRANCH   1   7
BRANCH   2  22
ATOM     22  O   UNL     1      21.970  29.732  37.300  1.00  0.00    -0.387 OA
ATOM     23  H   UNL     1      21.528  30.565  37.048  1.00  0.00     0.211 HD
ENDBRANCH   2  22
BRANCH   3  24
ATOM     24  O   UNL     1      19.619  29.798  38.801  1.00  0.00    -0.387 OA
ATOM     25  H   UNL     1      19.857  29.115  38.096  1.00  0.00     0.211 HD
ENDBRANCH   3  24
BRANCH   5  26
ATOM     26  O   UNL     1      22.256  31.495  41.478  1.00  0.00    -0.462 OA
BRANCH  26  27
ATOM     27  C   UNL     1      21.415  32.399  42.098  1.00  0.00     0.130 A 
ATOM     28  C   UNL     1      21.850  33.736  42.118  1.00  0.00     0.093 A 
ATOM     29  C   UNL     1      20.303  32.059  42.761  1.00  0.00     0.094 A 
ATOM     30  C   UNL     1      21.434  34.565  43.137  1.00  0.00     0.133 A 
ATOM     31  C   UNL     1      20.004  32.911  43.823  1.00  0.00     0.138 A 
ATOM     32  C   UNL     1      20.718  34.024  44.194  1.00  0.00     0.102 A 
ATOM     33  O   UNL     1      18.682  33.012  44.025  1.00  0.00    -0.484 OA
ATOM     34  C   UNL     1      19.863  35.012  44.959  1.00  0.00     0.174 C 
ATOM     35  C   UNL     1      18.041  34.152  43.518  1.00  0.00     0.211 C 
ATOM     36  O   UNL     1      20.398  35.721  45.876  1.00  0.00    -0.294 OA
ATOM     37  C   UNL     1      18.377  35.195  44.621  1.00  0.00     0.131 C 
BRANCH  30  38
ATOM     38  O   UNL     1      21.824  35.936  43.123  1.00  0.00    -0.507 OA
ATOM     39  H   UNL     1      22.603  36.348  42.566  1.00  0.00     0.293 HD
ENDBRANCH  30  38
BRANCH  35  40
ATOM     40  C   UNL     1      16.653  33.730  42.822  1.00  0.00    -0.003 A 
ATOM     41  C   UNL     1      16.925  32.789  41.779  1.00  0.00     0.057 A 
ATOM     42  C   UNL     1      16.157  35.013  42.284  1.00  0.00     0.011 A 
ATOM     43  C   UNL     1      17.565  33.364  40.570  1.00  0.00     0.158 A 
ATOM     44  C   UNL     1      16.777  35.548  41.154  1.00  0.00     0.051 A 
ATOM     45  C   UNL     1      17.450  34.726  40.286  1.00  0.00     0.160 A 
BRANCH  43  46
ATOM     46  O   UNL     1      18.157  32.445  39.612  1.00  0.00    -0.504 OA
ATOM     47  H   UNL     1      19.139  32.680  39.416  1.00  0.00     0.293 HD
ENDBRANCH  43  46
BRANCH  45  48
ATOM     48  O   UNL     1      18.102  35.281  39.134  1.00  0.00    -0.493 OA
ATOM     49  C   UNL     1      17.269  35.638  38.055  1.00  0.00     0.278 C 
ENDBRANCH  45  48
ENDBRANCH  35  40
ENDBRANCH  26  27
ENDBRANCH   5  26
BRANCH   4  50
ATOM     50  O   UNL     1      20.658  28.246  41.079  1.00  0.00    -0.384 OA
ATOM     51  H   UNL     1      19.720  28.063  40.658  1.00  0.00     0.211 HD
ENDBRANCH   4  50
TORSDOF 15
ENDMDL
MODEL 8
REMARK VINA RESULT:    -3.344      2.178      8.159
REMARK INTER + INTRA:          -9.082
REMARK INTER:                  -5.722
REMARK INTRA:                  -3.359
REMARK UNBOUND:                -3.587
REMARK SMILES COc1ccc([C@H]2CC(=O)c3c(O)cc(O[C@@H]4O[C@H](CO[C@H]5O[C@H](C)[C@H](O)[C@@H](O)[C@@H]5O)[C@H](O)[C@@H](O)[C@H]4O)cc3O2)cc1O
REMARK SMILES IDX 19 1 32 2 34 3 36 4 17 5 18 6 20 7 21 8 22 9 25 10 24 11
REMARK SMILES IDX 26 12 23 13 28 14 30 15 27 16 29 18 31 20 33 22 35 24 16 26
REMARK SMILES IDX 15 27 14 28 38 29 12 30 39 31 11 32 40 33 9 34 7 35 10 36
REMARK SMILES IDX 8 37 13 38 6 40 41 41 5 42 42 43 4 44 3 45 43 46 2 48 1 49
REMARK SMILES IDX 37 50
REMARK H PARENT 27 17 29 19 31 21 33 23 35 25 13 39 43 47 37 51
REMARK Flexibility Score: inf
ROOT
ATOM      1  C   UNL     1      15.644  34.266  38.009  1.00  0.00     0.180 C 
ATOM      2  C   UNL     1      15.720  35.804  37.758  1.00  0.00     0.177 C 
ATOM      3  C   UNL     1      16.619  36.492  38.805  1.00  0.00     0.180 C 
ATOM      4  C   UNL     1      15.978  36.182  40.217  1.00  0.00     0.214 C 
ATOM      5  C   UNL     1      15.975  34.686  40.355  1.00  0.00     0.339 C 
ATOM      6  O   UNL     1      15.159  34.030  39.369  1.00  0.00    -0.332 OA
ENDROOT
BRANCH   1   7
ATOM      7  C   UNL     1      16.859  33.358  37.629  1.00  0.00     0.198 C 
BRANCH   7   8
ATOM      8  O   UNL     1      17.858  34.025  36.807  1.00  0.00    -0.347 OA
BRANCH   8   9
ATOM      9  C   UNL     1      18.948  33.256  36.237  1.00  0.00     0.281 C 
ATOM     10  C   UNL     1      20.719  36.274  34.635  1.00  0.00     0.041 C 
ATOM     11  C   UNL     1      20.088  35.330  35.740  1.00  0.00     0.150 C 
ATOM     12  C   UNL     1      21.289  34.965  36.692  1.00  0.00     0.174 C 
ATOM     13  O   UNL     1      19.568  34.093  35.228  1.00  0.00    -0.344 OA
ATOM     14  C   UNL     1      20.742  34.029  37.902  1.00  0.00     0.179 C 
ATOM     15  C   UNL     1      19.961  32.783  37.366  1.00  0.00     0.202 C 
BRANCH  12  16
ATOM     16  O   UNL     1      22.224  34.261  35.929  1.00  0.00    -0.388 OA
ATOM     17  H   UNL     1      22.124  33.276  36.089  1.00  0.00     0.211 HD
ENDBRANCH  12  16
BRANCH  14  18
ATOM     18  O   UNL     1      19.777  34.729  38.642  1.00  0.00    -0.387 OA
ATOM     19  H   UNL     1      19.385  34.162  39.414  1.00  0.00     0.211 HD
ENDBRANCH  14  18
BRANCH  15  20
ATOM     20  O   UNL     1      20.707  31.624  37.011  1.00  0.00    -0.385 OA
ATOM     21  H   UNL     1      20.770  31.034  37.821  1.00  0.00     0.211 HD
ENDBRANCH  15  20
ENDBRANCH   8   9
ENDBRANCH   7   8
ENDBRANCH   1   7
BRANCH   2  22
ATOM     22  O   UNL     1      16.154  36.186  36.409  1.00  0.00    -0.387 OA
ATOM     23  H   UNL     1      17.115  36.332  36.310  1.00  0.00     0.211 HD
ENDBRANCH   2  22
BRANCH   3  24
ATOM     24  O   UNL     1      16.693  37.864  38.573  1.00  0.00    -0.387 OA
ATOM     25  H   UNL     1      16.776  38.302  39.479  1.00  0.00     0.211 HD
ENDBRANCH   3  24
BRANCH   5  26
ATOM     26  O   UNL     1      17.271  34.178  40.328  1.00  0.00    -0.462 OA
BRANCH  26  27
ATOM     27  C   UNL     1      17.946  33.594  41.383  1.00  0.00     0.130 A 
ATOM     28  C   UNL     1      18.051  32.191  41.349  1.00  0.00     0.093 A 
ATOM     29  C   UNL     1      18.387  34.261  42.456  1.00  0.00     0.094 A 
ATOM     30  C   UNL     1      18.164  31.496  42.533  1.00  0.00     0.133 A 
ATOM     31  C   UNL     1      18.394  33.498  43.623  1.00  0.00     0.138 A 
ATOM     32  C   UNL     1      18.025  32.180  43.731  1.00  0.00     0.102 A 
ATOM     33  O   UNL     1      19.382  33.863  44.452  1.00  0.00    -0.484 OA
ATOM     34  C   UNL     1      18.669  31.511  44.928  1.00  0.00     0.174 C 
ATOM     35  C   UNL     1      20.538  33.069  44.462  1.00  0.00     0.211 C 
ATOM     36  O   UNL     1      18.033  30.594  45.547  1.00  0.00    -0.294 OA
ATOM     37  C   UNL     1      20.084  31.898  45.379  1.00  0.00     0.131 C 
BRANCH  30  38
ATOM     38  O   UNL     1      18.333  30.081  42.496  1.00  0.00    -0.507 OA
ATOM     39  H   UNL     1      18.664  29.481  43.282  1.00  0.00     0.293 HD
ENDBRANCH  30  38
BRANCH  35  40
ATOM     40  C   UNL     1      21.844  34.009  44.483  1.00  0.00    -0.003 A 
ATOM     41  C   UNL     1      21.740  34.970  43.428  1.00  0.00     0.057 A 
ATOM     42  C   UNL     1      22.939  33.048  44.238  1.00  0.00     0.011 A 
ATOM     43  C   UNL     1      21.932  34.424  42.063  1.00  0.00     0.158 A 
ATOM     44  C   UNL     1      23.101  32.532  42.951  1.00  0.00     0.051 A 
ATOM     45  C   UNL     1      22.630  33.230  41.868  1.00  0.00     0.160 A 
BRANCH  43  46
ATOM     46  O   UNL     1      21.534  35.251  40.936  1.00  0.00    -0.504 OA
ATOM     47  H   UNL     1      20.871  35.985  41.219  1.00  0.00     0.293 HD
ENDBRANCH  43  46
BRANCH  45  48
ATOM     48  O   UNL     1      22.781  32.689  40.547  1.00  0.00    -0.493 OA
ATOM     49  C   UNL     1      24.014  32.932  39.910  1.00  0.00     0.278 C 
ENDBRANCH  45  48
ENDBRANCH  35  40
ENDBRANCH  26  27
ENDBRANCH   5  26
BRANCH   4  50
ATOM     50  O   UNL     1      14.660  36.718  40.371  1.00  0.00    -0.384 OA
ATOM     51  H   UNL     1      14.240  36.134  41.127  1.00  0.00     0.211 HD
ENDBRANCH   4  50
TORSDOF 15
ENDMDL
MODEL 9
REMARK VINA RESULT:    -2.377      2.872      7.801
REMARK INTER + INTRA:          -7.492
REMARK INTER:                  -3.951
REMARK INTRA:                  -3.541
REMARK UNBOUND:                -3.587
REMARK SMILES COc1ccc([C@H]2CC(=O)c3c(O)cc(O[C@@H]4O[C@H](CO[C@H]5O[C@H](C)[C@H](O)[C@@H](O)[C@@H]5O)[C@H](O)[C@@H](O)[C@H]4O)cc3O2)cc1O
REMARK SMILES IDX 19 1 32 2 34 3 36 4 17 5 18 6 20 7 21 8 22 9 25 10 24 11
REMARK SMILES IDX 26 12 23 13 28 14 30 15 27 16 29 18 31 20 33 22 35 24 16 26
REMARK SMILES IDX 15 27 14 28 38 29 12 30 39 31 11 32 40 33 9 34 7 35 10 36
REMARK SMILES IDX 8 37 13 38 6 40 41 41 5 42 42 43 4 44 3 45 43 46 2 48 1 49
REMARK SMILES IDX 37 50
REMARK H PARENT 27 17 29 19 31 21 33 23 35 25 13 39 43 47 37 51
REMARK Flexibility Score: inf
ROOT
ATOM      1  C   UNL     1      19.896  34.111  46.125  1.00  0.00     0.180 C 
ATOM      2  C   UNL     1      19.448  35.604  46.073  1.00  0.00     0.177 C 
ATOM      3  C   UNL     1      20.028  36.315  44.833  1.00  0.00     0.180 C 
ATOM      4  C   UNL     1      21.601  36.202  44.949  1.00  0.00     0.214 C 
ATOM      5  C   UNL     1      21.914  34.732  44.971  1.00  0.00     0.339 C 
ATOM      6  O   UNL     1      21.357  34.053  46.110  1.00  0.00    -0.332 OA
ENDROOT
BRANCH   1   7
ATOM      7  C   UNL     1      19.235  33.070  45.164  1.00  0.00     0.198 C 
BRANCH   7   8
ATOM      8  O   UNL     1      18.262  33.649  44.248  1.00  0.00    -0.347 OA
BRANCH   8   9
ATOM      9  C   UNL     1      17.580  32.796  43.293  1.00  0.00     0.281 C 
ATOM     10  C   UNL     1      14.988  35.438  42.240  1.00  0.00     0.041 C 
ATOM     11  C   UNL     1      16.388  34.738  42.484  1.00  0.00     0.150 C 
ATOM     12  C   UNL     1      17.026  34.603  41.049  1.00  0.00     0.174 C 
ATOM     13  O   UNL     1      16.294  33.412  43.027  1.00  0.00    -0.344 OA
ATOM     14  C   UNL     1      18.500  33.934  41.185  1.00  0.00     0.179 C 
ATOM     15  C   UNL     1      18.457  32.590  41.985  1.00  0.00     0.202 C 
BRANCH  12  16
ATOM     16  O   UNL     1      16.191  33.770  40.300  1.00  0.00    -0.388 OA
ATOM     17  H   UNL     1      15.839  33.030  40.878  1.00  0.00     0.211 HD
ENDBRANCH  12  16
BRANCH  14  18
ATOM     18  O   UNL     1      19.323  34.757  41.969  1.00  0.00    -0.387 OA
ATOM     19  H   UNL     1      20.254  34.339  42.137  1.00  0.00     0.211 HD
ENDBRANCH  14  18
BRANCH  15  20
ATOM     20  O   UNL     1      18.149  31.395  41.276  1.00  0.00    -0.385 OA
ATOM     21  H   UNL     1      18.526  30.620  41.791  1.00  0.00     0.211 HD
ENDBRANCH  15  20
ENDBRANCH   8   9
ENDBRANCH   7   8
ENDBRANCH   1   7
BRANCH   2  22
ATOM     22  O   UNL     1      17.995  35.813  46.125  1.00  0.00    -0.387 OA
ATOM     23  H   UNL     1      17.519  35.250  46.765  1.00  0.00     0.211 HD
ENDBRANCH   2  22
BRANCH   3  24
ATOM     24  O   UNL     1      19.618  37.645  44.784  1.00  0.00    -0.387 OA
ATOM     25  H   UNL     1      19.371  37.832  43.823  1.00  0.00     0.211 HD
ENDBRANCH   3  24
BRANCH   5  26
ATOM     26  O   UNL     1      21.504  34.116  43.791  1.00  0.00    -0.462 OA
BRANCH  26  27
ATOM     27  C   UNL     1      22.265  33.286  42.991  1.00  0.00     0.130 A 
ATOM     28  C   UNL     1      22.061  31.904  43.162  1.00  0.00     0.093 A 
ATOM     29  C   UNL     1      23.237  33.711  42.176  1.00  0.00     0.094 A 
ATOM     30  C   UNL     1      23.090  31.031  42.884  1.00  0.00     0.133 A 
ATOM     31  C   UNL     1      24.273  32.791  42.014  1.00  0.00     0.138 A 
ATOM     32  C   UNL     1      24.344  31.543  42.583  1.00  0.00     0.102 A 
ATOM     33  O   UNL     1      24.829  32.874  40.797  1.00  0.00    -0.484 OA
ATOM     34  C   UNL     1      25.240  30.614  41.793  1.00  0.00     0.174 C 
ATOM     35  C   UNL     1      24.438  31.920  39.847  1.00  0.00     0.211 C 
ATOM     36  O   UNL     1      25.914  29.723  42.410  1.00  0.00    -0.294 OA
ATOM     37  C   UNL     1      25.320  30.708  40.263  1.00  0.00     0.131 C 
BRANCH  30  38
ATOM     38  O   UNL     1      22.863  29.628  42.996  1.00  0.00    -0.507 OA
ATOM     39  H   UNL     1      23.583  28.905  43.211  1.00  0.00     0.293 HD
ENDBRANCH  30  38
BRANCH  35  40
ATOM     40  C   UNL     1      24.194  32.636  38.427  1.00  0.00    -0.003 A 
ATOM     41  C   UNL     1      23.370  33.789  38.625  1.00  0.00     0.057 A 
ATOM     42  C   UNL     1      23.491  31.592  37.653  1.00  0.00     0.011 A 
ATOM     43  C   UNL     1      21.947  33.498  38.928  1.00  0.00     0.158 A 
ATOM     44  C   UNL     1      22.157  31.319  37.957  1.00  0.00     0.051 A 
ATOM     45  C   UNL     1      21.380  32.276  38.561  1.00  0.00     0.160 A 
BRANCH  43  46
ATOM     46  O   UNL     1      21.127  34.578  39.450  1.00  0.00    -0.504 OA
ATOM     47  H   UNL     1      20.389  34.849  38.788  1.00  0.00     0.293 HD
ENDBRANCH  43  46
BRANCH  45  48
ATOM     48  O   UNL     1      20.013  31.986  38.889  1.00  0.00    -0.493 OA
ATOM     49  C   UNL     1      19.155  31.716  37.805  1.00  0.00     0.278 C 
ENDBRANCH  45  48
ENDBRANCH  35  40
ENDBRANCH  26  27
ENDBRANCH   5  26
BRANCH   4  50
ATOM     50  O   UNL     1      22.132  36.860  46.103  1.00  0.00    -0.384 OA
ATOM     51  H   UNL     1      22.118  37.871  45.843  1.00  0.00     0.211 HD
ENDBRANCH   4  50
TORSDOF 15
ENDMDL
