MODEL 1
REMARK VINA RESULT:    -8.140      0.000      0.000
REMARK INTER + INTRA:         -10.335
REMARK INTER:                 -10.043
REMARK INTRA:                  -0.292
REMARK UNBOUND:                -0.292
REMARK SMILES O=c1c(O)c(-c2cc(O)c(O)c(O)c2)oc2cc(O)cc(O)c12
REMARK SMILES IDX 5 1 3 2 2 3 1 4 23 5 21 6 20 7 18 8 17 9 16 10 15 11 6 12
REMARK SMILES IDX 7 13 8 14 14 15 10 16 12 17 9 18 11 20 13 22 4 24 22 26
REMARK SMILES IDX 19 28
REMARK H PARENT 9 19 11 21 13 23 4 25 22 27 19 29
REMARK Flexibility Score: inf
ROOT
ATOM      1  C   UNL     1      50.799  58.583   6.663  1.00  0.00     0.180 A 
ATOM      2  C   UNL     1      49.716  58.423   7.546  1.00  0.00     0.208 A 
ATOM      3  C   UNL     1      48.452  58.108   7.023  1.00  0.00     0.238 A 
ATOM      4  O   UNL     1      47.499  57.913   7.822  1.00  0.00    -0.285 OA
ATOM      5  C   UNL     1      48.281  57.973   5.624  1.00  0.00     0.111 A 
ATOM      6  C   UNL     1      47.038  57.695   4.982  1.00  0.00     0.134 A 
ATOM      7  C   UNL     1      47.011  57.453   3.603  1.00  0.00     0.093 A 
ATOM      8  C   UNL     1      48.171  57.544   2.834  1.00  0.00     0.123 A 
ATOM      9  C   UNL     1      49.383  57.873   3.442  1.00  0.00     0.094 A 
ATOM     10  C   UNL     1      49.447  58.084   4.821  1.00  0.00     0.146 A 
ATOM     11  O   UNL     1      50.621  58.385   5.362  1.00  0.00    -0.452 OA
ENDROOT
BRANCH   1  12
ATOM     12  C   UNL     1      52.155  58.939   7.138  1.00  0.00     0.029 A 
ATOM     13  C   UNL     1      53.177  57.977   7.218  1.00  0.00     0.062 A 
ATOM     14  C   UNL     1      54.448  58.328   7.693  1.00  0.00     0.162 A 
ATOM     15  C   UNL     1      52.414  60.248   7.573  1.00  0.00     0.062 A 
ATOM     16  C   UNL     1      54.705  59.646   8.105  1.00  0.00     0.200 A 
ATOM     17  C   UNL     1      53.679  60.606   8.047  1.00  0.00     0.162 A 
BRANCH  14  18
ATOM     18  O   UNL     1      55.457  57.367   7.762  1.00  0.00    -0.504 OA
ATOM     19  H   UNL     1      56.419  57.619   7.959  1.00  0.00     0.293 HD
ENDBRANCH  14  18
BRANCH  16  20
ATOM     20  O   UNL     1      55.966  60.012   8.576  1.00  0.00    -0.502 OA
ATOM     21  H   UNL     1      56.268  59.812   9.522  1.00  0.00     0.293 HD
ENDBRANCH  16  20
BRANCH  17  22
ATOM     22  O   UNL     1      53.900  61.921   8.456  1.00  0.00    -0.504 OA
ATOM     23  H   UNL     1      54.218  62.149   9.390  1.00  0.00     0.293 HD
ENDBRANCH  17  22
ENDBRANCH   1  12
BRANCH   2  24
ATOM     24  O   UNL     1      49.910  58.540   8.926  1.00  0.00    -0.502 OA
ATOM     25  H   UNL     1      50.450  57.868   9.457  1.00  0.00     0.293 HD
ENDBRANCH   2  24
BRANCH   6  26
ATOM     26  O   UNL     1      45.806  57.673   5.644  1.00  0.00    -0.507 OA
ATOM     27  H   UNL     1      45.088  56.981   5.497  1.00  0.00     0.293 HD
ENDBRANCH   6  26
BRANCH   8  28
ATOM     28  O   UNL     1      48.104  57.312   1.461  1.00  0.00    -0.508 OA
ATOM     29  H   UNL     1      48.054  58.076   0.797  1.00  0.00     0.293 HD
ENDBRANCH   8  28
TORSDOF 7
ENDMDL
MODEL 2
REMARK VINA RESULT:    -7.926      6.757      9.481
REMARK INTER + INTRA:         -10.072
REMARK INTER:                  -9.787
REMARK INTRA:                  -0.285
REMARK UNBOUND:                -0.292
REMARK SMILES O=c1c(O)c(-c2cc(O)c(O)c(O)c2)oc2cc(O)cc(O)c12
REMARK SMILES IDX 5 1 3 2 2 3 1 4 23 5 21 6 20 7 18 8 17 9 16 10 15 11 6 12
REMARK SMILES IDX 7 13 8 14 14 15 10 16 12 17 9 18 11 20 13 22 4 24 22 26
REMARK SMILES IDX 19 28
REMARK H PARENT 9 19 11 21 13 23 4 25 22 27 19 29
REMARK Flexibility Score: inf
ROOT
ATOM      1  C   UNL     1      52.866  61.758   0.089  1.00  0.00     0.180 A 
ATOM      2  C   UNL     1      52.608  62.821  -0.795  1.00  0.00     0.208 A 
ATOM      3  C   UNL     1      52.454  64.116  -0.275  1.00  0.00     0.238 A 
ATOM      4  O   UNL     1      52.277  65.071  -1.076  1.00  0.00    -0.285 OA
ATOM      5  C   UNL     1      52.544  64.330   1.122  1.00  0.00     0.111 A 
ATOM      6  C   UNL     1      52.366  65.593   1.761  1.00  0.00     0.134 A 
ATOM      7  C   UNL     1      52.608  65.712   3.135  1.00  0.00     0.093 A 
ATOM      8  C   UNL     1      52.957  64.602   3.903  1.00  0.00     0.123 A 
ATOM      9  C   UNL     1      53.076  63.350   3.299  1.00  0.00     0.094 A 
ATOM     10  C   UNL     1      52.877  63.208   1.924  1.00  0.00     0.146 A 
ATOM     11  O   UNL     1      53.011  62.001   1.386  1.00  0.00    -0.452 OA
ENDROOT
BRANCH   1  12
ATOM     12  C   UNL     1      53.016  60.362  -0.382  1.00  0.00     0.029 A 
ATOM     13  C   UNL     1      54.278  59.750  -0.465  1.00  0.00     0.062 A 
ATOM     14  C   UNL     1      54.403  58.436  -0.937  1.00  0.00     0.162 A 
ATOM     15  C   UNL     1      51.884  59.652  -0.811  1.00  0.00     0.062 A 
ATOM     16  C   UNL     1      53.261  57.725  -1.342  1.00  0.00     0.200 A 
ATOM     17  C   UNL     1      51.999  58.340  -1.281  1.00  0.00     0.162 A 
BRANCH  14  18
ATOM     18  O   UNL     1      55.660  57.836  -1.008  1.00  0.00    -0.504 OA
ATOM     19  H   UNL     1      56.477  58.262  -0.586  1.00  0.00     0.293 HD
ENDBRANCH  14  18
BRANCH  16  20
ATOM     20  O   UNL     1      53.367  56.414  -1.809  1.00  0.00    -0.502 OA
ATOM     21  H   UNL     1      52.906  55.638  -1.349  1.00  0.00     0.293 HD
ENDBRANCH  16  20
BRANCH  17  22
ATOM     22  O   UNL     1      50.847  57.664  -1.683  1.00  0.00    -0.504 OA
ATOM     23  H   UNL     1      49.925  58.073  -1.599  1.00  0.00     0.293 HD
ENDBRANCH  17  22
ENDBRANCH   1  12
BRANCH   2  24
ATOM     24  O   UNL     1      52.544  62.590  -2.172  1.00  0.00    -0.502 OA
ATOM     25  H   UNL     1      53.027  61.821  -2.618  1.00  0.00     0.293 HD
ENDBRANCH   2  24
BRANCH   6  26
ATOM     26  O   UNL     1      51.930  66.747   1.102  1.00  0.00    -0.507 OA
ATOM     27  H   UNL     1      52.353  67.128   0.270  1.00  0.00     0.293 HD
ENDBRANCH   6  26
BRANCH   8  28
ATOM     28  O   UNL     1      53.174  64.755   5.271  1.00  0.00    -0.508 OA
ATOM     29  H   UNL     1      52.811  64.088   5.943  1.00  0.00     0.293 HD
ENDBRANCH   8  28
TORSDOF 7
ENDMDL
MODEL 3
REMARK VINA RESULT:    -7.699      1.297      7.005
REMARK INTER + INTRA:          -9.791
REMARK INTER:                  -9.571
REMARK INTRA:                  -0.220
REMARK UNBOUND:                -0.292
REMARK SMILES O=c1c(O)c(-c2cc(O)c(O)c(O)c2)oc2cc(O)cc(O)c12
REMARK SMILES IDX 5 1 3 2 2 3 1 4 23 5 21 6 20 7 18 8 17 9 16 10 15 11 6 12
REMARK SMILES IDX 7 13 8 14 14 15 10 16 12 17 9 18 11 20 13 22 4 24 22 26
REMARK SMILES IDX 19 28
REMARK H PARENT 9 19 11 21 13 23 4 25 22 27 19 29
REMARK Flexibility Score: inf
ROOT
ATOM      1  C   UNL     1      50.356  59.028   6.109  1.00  0.00     0.180 A 
ATOM      2  C   UNL     1      50.326  60.192   6.897  1.00  0.00     0.208 A 
ATOM      3  C   UNL     1      51.454  60.524   7.664  1.00  0.00     0.238 A 
ATOM      4  O   UNL     1      51.441  61.596   8.325  1.00  0.00    -0.285 OA
ATOM      5  C   UNL     1      52.591  59.681   7.648  1.00  0.00     0.111 A 
ATOM      6  C   UNL     1      53.773  59.899   8.417  1.00  0.00     0.134 A 
ATOM      7  C   UNL     1      54.886  59.072   8.223  1.00  0.00     0.093 A 
ATOM      8  C   UNL     1      54.837  57.996   7.337  1.00  0.00     0.123 A 
ATOM      9  C   UNL     1      53.666  57.737   6.623  1.00  0.00     0.094 A 
ATOM     10  C   UNL     1      52.553  58.568   6.769  1.00  0.00     0.146 A 
ATOM     11  O   UNL     1      51.461  58.293   6.064  1.00  0.00    -0.452 OA
ENDROOT
BRANCH   1  12
ATOM     12  C   UNL     1      49.198  58.600   5.292  1.00  0.00     0.029 A 
ATOM     13  C   UNL     1      47.981  58.226   5.889  1.00  0.00     0.062 A 
ATOM     14  C   UNL     1      46.903  57.800   5.101  1.00  0.00     0.162 A 
ATOM     15  C   UNL     1      49.331  58.507   3.899  1.00  0.00     0.062 A 
ATOM     16  C   UNL     1      47.038  57.733   3.704  1.00  0.00     0.200 A 
ATOM     17  C   UNL     1      48.261  58.085   3.105  1.00  0.00     0.162 A 
BRANCH  14  18
ATOM     18  O   UNL     1      45.698  57.439   5.702  1.00  0.00    -0.504 OA
ATOM     19  H   UNL     1      45.668  56.804   6.492  1.00  0.00     0.293 HD
ENDBRANCH  14  18
BRANCH  16  20
ATOM     20  O   UNL     1      45.974  57.316   2.904  1.00  0.00    -0.502 OA
ATOM     21  H   UNL     1      45.357  57.972   2.441  1.00  0.00     0.293 HD
ENDBRANCH  16  20
BRANCH  17  22
ATOM     22  O   UNL     1      48.429  58.021   1.722  1.00  0.00    -0.504 OA
ATOM     23  H   UNL     1      47.722  57.633   1.110  1.00  0.00     0.293 HD
ENDBRANCH  17  22
ENDBRANCH   1  12
BRANCH   2  24
ATOM     24  O   UNL     1      49.201  61.022   6.882  1.00  0.00    -0.502 OA
ATOM     25  H   UNL     1      48.319  60.750   7.298  1.00  0.00     0.293 HD
ENDBRANCH   2  24
BRANCH   6  26
ATOM     26  O   UNL     1      53.894  60.889   9.397  1.00  0.00    -0.507 OA
ATOM     27  H   UNL     1      53.200  61.595   9.590  1.00  0.00     0.293 HD
ENDBRANCH   6  26
BRANCH   8  28
ATOM     28  O   UNL     1      55.959  57.184   7.181  1.00  0.00    -0.508 OA
ATOM     29  H   UNL     1      56.617  57.330   6.423  1.00  0.00     0.293 HD
ENDBRANCH   8  28
TORSDOF 7
ENDMDL
MODEL 4
REMARK VINA RESULT:    -7.669      1.664      7.037
REMARK INTER + INTRA:          -9.755
REMARK INTER:                  -9.485
REMARK INTRA:                  -0.270
REMARK UNBOUND:                -0.292
REMARK SMILES O=c1c(O)c(-c2cc(O)c(O)c(O)c2)oc2cc(O)cc(O)c12
REMARK SMILES IDX 5 1 3 2 2 3 1 4 23 5 21 6 20 7 18 8 17 9 16 10 15 11 6 12
REMARK SMILES IDX 7 13 8 14 14 15 10 16 12 17 9 18 11 20 13 22 4 24 22 26
REMARK SMILES IDX 19 28
REMARK H PARENT 9 19 11 21 13 23 4 25 22 27 19 29
REMARK Flexibility Score: inf
ROOT
ATOM      1  C   UNL     1      50.846  59.333   6.758  1.00  0.00     0.180 A 
ATOM      2  C   UNL     1      51.242  60.532   7.377  1.00  0.00     0.208 A 
ATOM      3  C   UNL     1      52.552  60.642   7.871  1.00  0.00     0.238 A 
ATOM      4  O   UNL     1      52.918  61.736   8.375  1.00  0.00    -0.285 OA
ATOM      5  C   UNL     1      53.443  59.548   7.755  1.00  0.00     0.111 A 
ATOM      6  C   UNL     1      54.779  59.534   8.255  1.00  0.00     0.134 A 
ATOM      7  C   UNL     1      55.614  58.447   7.968  1.00  0.00     0.093 A 
ATOM      8  C   UNL     1      55.141  57.345   7.257  1.00  0.00     0.123 A 
ATOM      9  C   UNL     1      53.818  57.321   6.813  1.00  0.00     0.094 A 
ATOM     10  C   UNL     1      52.973  58.408   7.053  1.00  0.00     0.146 A 
ATOM     11  O   UNL     1      51.725  58.350   6.605  1.00  0.00    -0.452 OA
ENDROOT
BRANCH   1  12
ATOM     12  C   UNL     1      49.475  59.134   6.234  1.00  0.00     0.029 A 
ATOM     13  C   UNL     1      49.034  59.790   5.073  1.00  0.00     0.062 A 
ATOM     14  C   UNL     1      47.724  59.609   4.606  1.00  0.00     0.162 A 
ATOM     15  C   UNL     1      48.577  58.321   6.942  1.00  0.00     0.062 A 
ATOM     16  C   UNL     1      46.839  58.774   5.308  1.00  0.00     0.200 A 
ATOM     17  C   UNL     1      47.269  58.133   6.483  1.00  0.00     0.162 A 
BRANCH  14  18
ATOM     18  O   UNL     1      47.299  60.259   3.448  1.00  0.00    -0.504 OA
ATOM     19  H   UNL     1      47.958  60.585   2.749  1.00  0.00     0.293 HD
ENDBRANCH  14  18
BRANCH  16  20
ATOM     20  O   UNL     1      45.534  58.579   4.855  1.00  0.00    -0.502 OA
ATOM     21  H   UNL     1      45.297  57.854   4.187  1.00  0.00     0.293 HD
ENDBRANCH  16  20
BRANCH  17  22
ATOM     22  O   UNL     1      46.412  57.305   7.207  1.00  0.00    -0.504 OA
ATOM     23  H   UNL     1      46.416  56.298   7.097  1.00  0.00     0.293 HD
ENDBRANCH  17  22
ENDBRANCH   1  12
BRANCH   2  24
ATOM     24  O   UNL     1      50.353  61.607   7.462  1.00  0.00    -0.502 OA
ATOM     25  H   UNL     1      50.135  62.197   6.668  1.00  0.00     0.293 HD
ENDBRANCH   2  24
BRANCH   6  26
ATOM     26  O   UNL     1      55.323  60.544   9.056  1.00  0.00    -0.507 OA
ATOM     27  H   UNL     1      55.159  61.531   8.927  1.00  0.00     0.293 HD
ENDBRANCH   6  26
BRANCH   8  28
ATOM     28  O   UNL     1      55.995  56.274   7.004  1.00  0.00    -0.508 OA
ATOM     29  H   UNL     1      56.984  56.414   6.833  1.00  0.00     0.293 HD
ENDBRANCH   8  28
TORSDOF 7
ENDMDL
MODEL 5
REMARK VINA RESULT:    -7.655      6.753      8.292
REMARK INTER + INTRA:          -9.737
REMARK INTER:                  -9.553
REMARK INTRA:                  -0.184
REMARK UNBOUND:                -0.292
REMARK SMILES O=c1c(O)c(-c2cc(O)c(O)c(O)c2)oc2cc(O)cc(O)c12
REMARK SMILES IDX 5 1 3 2 2 3 1 4 23 5 21 6 20 7 18 8 17 9 16 10 15 11 6 12
REMARK SMILES IDX 7 13 8 14 14 15 10 16 12 17 9 18 11 20 13 22 4 24 22 26
REMARK SMILES IDX 19 28
REMARK H PARENT 9 19 11 21 13 23 4 25 22 27 19 29
REMARK Flexibility Score: inf
ROOT
ATOM      1  C   UNL     1      52.304  61.961   0.559  1.00  0.00     0.180 A 
ATOM      2  C   UNL     1      51.197  61.570  -0.215  1.00  0.00     0.208 A 
ATOM      3  C   UNL     1      51.276  60.387  -0.967  1.00  0.00     0.238 A 
ATOM      4  O   UNL     1      50.263  60.014  -1.614  1.00  0.00    -0.285 OA
ATOM      5  C   UNL     1      52.466  59.619  -0.950  1.00  0.00     0.111 A 
ATOM      6  C   UNL     1      52.671  58.426  -1.705  1.00  0.00     0.134 A 
ATOM      7  C   UNL     1      53.838  57.677  -1.511  1.00  0.00     0.093 A 
ATOM      8  C   UNL     1      54.835  58.112  -0.639  1.00  0.00     0.123 A 
ATOM      9  C   UNL     1      54.672  59.309   0.061  1.00  0.00     0.094 A 
ATOM     10  C   UNL     1      53.502  60.058  -0.085  1.00  0.00     0.146 A 
ATOM     11  O   UNL     1      53.381  61.185   0.605  1.00  0.00    -0.452 OA
ENDROOT
BRANCH   1  12
ATOM     12  C   UNL     1      52.304  63.207   1.359  1.00  0.00     0.029 A 
ATOM     13  C   UNL     1      52.154  64.465   0.751  1.00  0.00     0.062 A 
ATOM     14  C   UNL     1      52.182  65.636   1.522  1.00  0.00     0.162 A 
ATOM     15  C   UNL     1      52.518  63.139   2.744  1.00  0.00     0.062 A 
ATOM     16  C   UNL     1      52.372  65.556   2.912  1.00  0.00     0.200 A 
ATOM     17  C   UNL     1      52.545  64.301   3.521  1.00  0.00     0.162 A 
BRANCH  14  18
ATOM     18  O   UNL     1      52.024  66.879   0.910  1.00  0.00    -0.504 OA
ATOM     19  H   UNL     1      51.534  67.639   1.368  1.00  0.00     0.293 HD
ENDBRANCH  14  18
BRANCH  16  20
ATOM     20  O   UNL     1      52.398  66.711   3.695  1.00  0.00    -0.502 OA
ATOM     21  H   UNL     1      52.917  67.537   3.422  1.00  0.00     0.293 HD
ENDBRANCH  16  20
BRANCH  17  22
ATOM     22  O   UNL     1      52.744  64.189   4.896  1.00  0.00    -0.504 OA
ATOM     23  H   UNL     1      52.272  64.791   5.560  1.00  0.00     0.293 HD
ENDBRANCH  17  22
ENDBRANCH   1  12
BRANCH   2  24
ATOM     24  O   UNL     1      50.025  62.331  -0.200  1.00  0.00    -0.502 OA
ATOM     25  H   UNL     1      49.302  62.203   0.497  1.00  0.00     0.293 HD
ENDBRANCH   2  24
BRANCH   6  26
ATOM     26  O   UNL     1      51.778  57.950  -2.671  1.00  0.00    -0.507 OA
ATOM     27  H   UNL     1      51.672  58.338  -3.596  1.00  0.00     0.293 HD
ENDBRANCH   6  26
BRANCH   8  28
ATOM     28  O   UNL     1      55.991  57.350  -0.482  1.00  0.00    -0.508 OA
ATOM     29  H   UNL     1      55.966  56.337  -0.516  1.00  0.00     0.293 HD
ENDBRANCH   8  28
TORSDOF 7
ENDMDL
MODEL 6
REMARK VINA RESULT:    -7.533      1.483      3.429
REMARK INTER + INTRA:          -9.587
REMARK INTER:                  -9.231
REMARK INTRA:                  -0.357
REMARK UNBOUND:                -0.292
REMARK SMILES O=c1c(O)c(-c2cc(O)c(O)c(O)c2)oc2cc(O)cc(O)c12
REMARK SMILES IDX 5 1 3 2 2 3 1 4 23 5 21 6 20 7 18 8 17 9 16 10 15 11 6 12
REMARK SMILES IDX 7 13 8 14 14 15 10 16 12 17 9 18 11 20 13 22 4 24 22 26
REMARK SMILES IDX 19 28
REMARK H PARENT 9 19 11 21 13 23 4 25 22 27 19 29
REMARK Flexibility Score: inf
ROOT
ATOM      1  C   UNL     1      51.792  58.797   5.629  1.00  0.00     0.180 A 
ATOM      2  C   UNL     1      51.851  59.233   4.293  1.00  0.00     0.208 A 
ATOM      3  C   UNL     1      50.687  59.185   3.509  1.00  0.00     0.238 A 
ATOM      4  O   UNL     1      50.734  59.627   2.331  1.00  0.00    -0.285 OA
ATOM      5  C   UNL     1      49.483  58.688   4.064  1.00  0.00     0.111 A 
ATOM      6  C   UNL     1      48.255  58.558   3.350  1.00  0.00     0.134 A 
ATOM      7  C   UNL     1      47.094  58.177   4.035  1.00  0.00     0.093 A 
ATOM      8  C   UNL     1      47.132  57.860   5.392  1.00  0.00     0.123 A 
ATOM      9  C   UNL     1      48.339  57.927   6.088  1.00  0.00     0.094 A 
ATOM     10  C   UNL     1      49.506  58.339   5.440  1.00  0.00     0.146 A 
ATOM     11  O   UNL     1      50.632  58.399   6.140  1.00  0.00    -0.452 OA
ENDROOT
BRANCH   1  12
ATOM     12  C   UNL     1      52.982  58.795   6.510  1.00  0.00     0.029 A 
ATOM     13  C   UNL     1      53.315  59.914   7.292  1.00  0.00     0.062 A 
ATOM     14  C   UNL     1      54.459  59.902   8.101  1.00  0.00     0.162 A 
ATOM     15  C   UNL     1      53.830  57.677   6.522  1.00  0.00     0.062 A 
ATOM     16  C   UNL     1      55.290  58.770   8.125  1.00  0.00     0.200 A 
ATOM     17  C   UNL     1      54.973  57.656   7.327  1.00  0.00     0.162 A 
BRANCH  14  18
ATOM     18  O   UNL     1      54.776  61.016   8.879  1.00  0.00    -0.504 OA
ATOM     19  H   UNL     1      54.079  61.481   9.449  1.00  0.00     0.293 HD
ENDBRANCH  14  18
BRANCH  16  20
ATOM     20  O   UNL     1      56.430  58.740   8.928  1.00  0.00    -0.502 OA
ATOM     21  H   UNL     1      57.003  59.561   9.084  1.00  0.00     0.293 HD
ENDBRANCH  16  20
BRANCH  17  22
ATOM     22  O   UNL     1      55.782  56.520   7.322  1.00  0.00    -0.504 OA
ATOM     23  H   UNL     1      56.698  56.512   6.890  1.00  0.00     0.293 HD
ENDBRANCH  17  22
ENDBRANCH   1  12
BRANCH   2  24
ATOM     24  O   UNL     1      53.045  59.740   3.771  1.00  0.00    -0.502 OA
ATOM     25  H   UNL     1      53.065  60.463   3.063  1.00  0.00     0.293 HD
ENDBRANCH   2  24
BRANCH   6  26
ATOM     26  O   UNL     1      48.128  58.762   1.972  1.00  0.00    -0.507 OA
ATOM     27  H   UNL     1      48.708  59.380   1.427  1.00  0.00     0.293 HD
ENDBRANCH   6  26
BRANCH   8  28
ATOM     28  O   UNL     1      45.960  57.470   6.038  1.00  0.00    -0.508 OA
ATOM     29  H   UNL     1      45.311  58.151   6.415  1.00  0.00     0.293 HD
ENDBRANCH   8  28
TORSDOF 7
ENDMDL
MODEL 7
REMARK VINA RESULT:    -7.452      1.829      2.927
REMARK INTER + INTRA:          -9.486
REMARK INTER:                  -9.194
REMARK INTRA:                  -0.292
REMARK UNBOUND:                -0.292
REMARK SMILES O=c1c(O)c(-c2cc(O)c(O)c(O)c2)oc2cc(O)cc(O)c12
REMARK SMILES IDX 5 1 3 2 2 3 1 4 23 5 21 6 20 7 18 8 17 9 16 10 15 11 6 12
REMARK SMILES IDX 7 13 8 14 14 15 10 16 12 17 9 18 11 20 13 22 4 24 22 26
REMARK SMILES IDX 19 28
REMARK H PARENT 9 19 11 21 13 23 4 25 22 27 19 29
REMARK Flexibility Score: inf
ROOT
ATOM      1  C   UNL     1      51.618  59.500   5.915  1.00  0.00     0.180 A 
ATOM      2  C   UNL     1      51.510  60.414   4.852  1.00  0.00     0.208 A 
ATOM      3  C   UNL     1      50.286  60.528   4.174  1.00  0.00     0.238 A 
ATOM      4  O   UNL     1      50.180  61.386   3.259  1.00  0.00    -0.285 OA
ATOM      5  C   UNL     1      49.191  59.716   4.556  1.00  0.00     0.111 A 
ATOM      6  C   UNL     1      47.917  59.720   3.914  1.00  0.00     0.134 A 
ATOM      7  C   UNL     1      46.866  58.971   4.458  1.00  0.00     0.093 A 
ATOM      8  C   UNL     1      47.061  58.169   5.582  1.00  0.00     0.123 A 
ATOM      9  C   UNL     1      48.319  58.112   6.184  1.00  0.00     0.094 A 
ATOM     10  C   UNL     1      49.376  58.876   5.685  1.00  0.00     0.146 A 
ATOM     11  O   UNL     1      50.554  58.801   6.292  1.00  0.00    -0.452 OA
ENDROOT
BRANCH   1  12
ATOM     12  C   UNL     1      52.882  59.307   6.661  1.00  0.00     0.029 A 
ATOM     13  C   UNL     1      53.672  58.159   6.477  1.00  0.00     0.062 A 
ATOM     14  C   UNL     1      54.853  57.981   7.211  1.00  0.00     0.162 A 
ATOM     15  C   UNL     1      53.274  60.258   7.615  1.00  0.00     0.062 A 
ATOM     16  C   UNL     1      55.249  58.950   8.147  1.00  0.00     0.200 A 
ATOM     17  C   UNL     1      54.451  60.090   8.351  1.00  0.00     0.162 A 
BRANCH  14  18
ATOM     18  O   UNL     1      55.632  56.842   7.015  1.00  0.00    -0.504 OA
ATOM     19  H   UNL     1      55.532  56.266   6.187  1.00  0.00     0.293 HD
ENDBRANCH  14  18
BRANCH  16  20
ATOM     20  O   UNL     1      56.424  58.792   8.882  1.00  0.00    -0.502 OA
ATOM     21  H   UNL     1      56.420  58.669   9.888  1.00  0.00     0.293 HD
ENDBRANCH  16  20
BRANCH  17  22
ATOM     22  O   UNL     1      54.813  61.066   9.278  1.00  0.00    -0.504 OA
ATOM     23  H   UNL     1      54.255  61.262  10.100  1.00  0.00     0.293 HD
ENDBRANCH  17  22
ENDBRANCH   1  12
BRANCH   2  24
ATOM     24  O   UNL     1      52.598  61.221   4.505  1.00  0.00    -0.502 OA
ATOM     25  H   UNL     1      52.524  62.227   4.421  1.00  0.00     0.293 HD
ENDBRANCH   2  24
BRANCH   6  26
ATOM     26  O   UNL     1      47.641  60.415   2.731  1.00  0.00    -0.507 OA
ATOM     27  H   UNL     1      48.337  60.734   2.077  1.00  0.00     0.293 HD
ENDBRANCH   6  26
BRANCH   8  28
ATOM     28  O   UNL     1      45.996  57.425   6.087  1.00  0.00    -0.508 OA
ATOM     29  H   UNL     1      45.075  57.466   5.666  1.00  0.00     0.293 HD
ENDBRANCH   8  28
TORSDOF 7
ENDMDL
MODEL 8
REMARK VINA RESULT:    -7.277      5.863      9.338
REMARK INTER + INTRA:          -9.271
REMARK INTER:                  -8.957
REMARK INTRA:                  -0.313
REMARK UNBOUND:                -0.292
REMARK SMILES O=c1c(O)c(-c2cc(O)c(O)c(O)c2)oc2cc(O)cc(O)c12
REMARK SMILES IDX 5 1 3 2 2 3 1 4 23 5 21 6 20 7 18 8 17 9 16 10 15 11 6 12
REMARK SMILES IDX 7 13 8 14 14 15 10 16 12 17 9 18 11 20 13 22 4 24 22 26
REMARK SMILES IDX 19 28
REMARK H PARENT 9 19 11 21 13 23 4 25 22 27 19 29
REMARK Flexibility Score: inf
ROOT
ATOM      1  C   UNL     1      48.489  63.187   2.622  1.00  0.00     0.180 A 
ATOM      2  C   UNL     1      48.831  63.306   1.264  1.00  0.00     0.208 A 
ATOM      3  C   UNL     1      50.073  63.865   0.922  1.00  0.00     0.238 A 
ATOM      4  O   UNL     1      50.397  63.918  -0.294  1.00  0.00    -0.285 OA
ATOM      5  C   UNL     1      50.949  64.313   1.939  1.00  0.00     0.111 A 
ATOM      6  C   UNL     1      52.213  64.931   1.706  1.00  0.00     0.134 A 
ATOM      7  C   UNL     1      53.054  65.216   2.789  1.00  0.00     0.093 A 
ATOM      8  C   UNL     1      52.649  64.965   4.100  1.00  0.00     0.123 A 
ATOM      9  C   UNL     1      51.390  64.415   4.344  1.00  0.00     0.094 A 
ATOM     10  C   UNL     1      50.545  64.087   3.281  1.00  0.00     0.146 A 
ATOM     11  O   UNL     1      49.359  63.556   3.555  1.00  0.00    -0.452 OA
ENDROOT
BRANCH   1  12
ATOM     12  C   UNL     1      47.188  62.630   3.060  1.00  0.00     0.029 A 
ATOM     13  C   UNL     1      47.076  61.304   3.511  1.00  0.00     0.062 A 
ATOM     14  C   UNL     1      45.832  60.787   3.898  1.00  0.00     0.162 A 
ATOM     15  C   UNL     1      46.033  63.421   2.969  1.00  0.00     0.062 A 
ATOM     16  C   UNL     1      44.684  61.593   3.825  1.00  0.00     0.200 A 
ATOM     17  C   UNL     1      44.788  62.914   3.354  1.00  0.00     0.162 A 
BRANCH  14  18
ATOM     18  O   UNL     1      45.733  59.471   4.350  1.00  0.00    -0.504 OA
ATOM     19  H   UNL     1      45.505  59.257   5.314  1.00  0.00     0.293 HD
ENDBRANCH  14  18
BRANCH  16  20
ATOM     20  O   UNL     1      43.438  61.095   4.211  1.00  0.00    -0.502 OA
ATOM     21  H   UNL     1      43.087  61.192   5.157  1.00  0.00     0.293 HD
ENDBRANCH  16  20
BRANCH  17  22
ATOM     22  O   UNL     1      43.666  63.737   3.263  1.00  0.00    -0.504 OA
ATOM     23  H   UNL     1      42.965  63.775   3.994  1.00  0.00     0.293 HD
ENDBRANCH  17  22
ENDBRANCH   1  12
BRANCH   2  24
ATOM     24  O   UNL     1      47.961  62.837   0.275  1.00  0.00    -0.502 OA
ATOM     25  H   UNL     1      47.261  62.128   0.458  1.00  0.00     0.293 HD
ENDBRANCH   2  24
BRANCH   6  26
ATOM     26  O   UNL     1      52.676  65.309   0.441  1.00  0.00    -0.507 OA
ATOM     27  H   UNL     1      52.086  65.491  -0.356  1.00  0.00     0.293 HD
ENDBRANCH   6  26
BRANCH   8  28
ATOM     28  O   UNL     1      53.505  65.275   5.154  1.00  0.00    -0.508 OA
ATOM     29  H   UNL     1      53.172  65.755   5.983  1.00  0.00     0.293 HD
ENDBRANCH   8  28
TORSDOF 7
ENDMDL
MODEL 9
REMARK VINA RESULT:    -7.188      5.667      7.110
REMARK INTER + INTRA:          -9.161
REMARK INTER:                  -8.831
REMARK INTRA:                  -0.330
REMARK UNBOUND:                -0.292
REMARK SMILES O=c1c(O)c(-c2cc(O)c(O)c(O)c2)oc2cc(O)cc(O)c12
REMARK SMILES IDX 5 1 3 2 2 3 1 4 23 5 21 6 20 7 18 8 17 9 16 10 15 11 6 12
REMARK SMILES IDX 7 13 8 14 14 15 10 16 12 17 9 18 11 20 13 22 4 24 22 26
REMARK SMILES IDX 19 28
REMARK H PARENT 9 19 11 21 13 23 4 25 22 27 19 29
REMARK Flexibility Score: inf
ROOT
ATOM      1  C   UNL     1      48.122  62.677   2.461  1.00  0.00     0.180 A 
ATOM      2  C   UNL     1      46.758  63.017   2.424  1.00  0.00     0.208 A 
ATOM      3  C   UNL     1      45.820  62.128   2.974  1.00  0.00     0.238 A 
ATOM      4  O   UNL     1      44.606  62.463   2.987  1.00  0.00    -0.285 OA
ATOM      5  C   UNL     1      46.254  60.905   3.540  1.00  0.00     0.111 A 
ATOM      6  C   UNL     1      45.389  59.913   4.089  1.00  0.00     0.134 A 
ATOM      7  C   UNL     1      45.936  58.801   4.740  1.00  0.00     0.093 A 
ATOM      8  C   UNL     1      47.316  58.612   4.803  1.00  0.00     0.123 A 
ATOM      9  C   UNL     1      48.172  59.546   4.217  1.00  0.00     0.094 A 
ATOM     10  C   UNL     1      47.655  60.684   3.593  1.00  0.00     0.146 A 
ATOM     11  O   UNL     1      48.503  61.553   3.057  1.00  0.00    -0.452 OA
ENDROOT
BRANCH   1  12
ATOM     12  C   UNL     1      49.166  63.551   1.880  1.00  0.00     0.029 A 
ATOM     13  C   UNL     1      49.729  63.279   0.621  1.00  0.00     0.062 A 
ATOM     14  C   UNL     1      50.735  64.103   0.098  1.00  0.00     0.162 A 
ATOM     15  C   UNL     1      49.649  64.638   2.623  1.00  0.00     0.062 A 
ATOM     16  C   UNL     1      51.196  65.204   0.839  1.00  0.00     0.200 A 
ATOM     17  C   UNL     1      50.651  65.467   2.109  1.00  0.00     0.162 A 
BRANCH  14  18
ATOM     18  O   UNL     1      51.281  63.829  -1.155  1.00  0.00    -0.504 OA
ATOM     19  H   UNL     1      51.375  64.548  -1.863  1.00  0.00     0.293 HD
ENDBRANCH  14  18
BRANCH  16  20
ATOM     20  O   UNL     1      52.193  66.038   0.331  1.00  0.00    -0.502 OA
ATOM     21  H   UNL     1      53.109  66.105   0.758  1.00  0.00     0.293 HD
ENDBRANCH  16  20
BRANCH  17  22
ATOM     22  O   UNL     1      51.092  66.547   2.872  1.00  0.00    -0.504 OA
ATOM     23  H   UNL     1      50.756  66.716   3.813  1.00  0.00     0.293 HD
ENDBRANCH  17  22
ENDBRANCH   1  12
BRANCH   2  24
ATOM     24  O   UNL     1      46.352  64.239   1.880  1.00  0.00    -0.502 OA
ATOM     25  H   UNL     1      45.635  64.812   2.307  1.00  0.00     0.293 HD
ENDBRANCH   2  24
BRANCH   6  26
ATOM     26  O   UNL     1      43.993  59.959   3.999  1.00  0.00    -0.507 OA
ATOM     27  H   UNL     1      43.363  59.397   4.551  1.00  0.00     0.293 HD
ENDBRANCH   6  26
BRANCH   8  28
ATOM     28  O   UNL     1      47.826  57.485   5.444  1.00  0.00    -0.508 OA
ATOM     29  H   UNL     1      48.821  57.370   5.602  1.00  0.00     0.293 HD
ENDBRANCH   8  28
TORSDOF 7
ENDMDL
