MODEL 1
REMARK VINA RESULT:     4.273      0.000      0.000
REMARK INTER + INTRA:           5.194
REMARK INTER:                   5.148
REMARK INTRA:                   0.046
REMARK UNBOUND:                 0.046
REMARK SMILES O=c1c(O)c(-c2ccc(O)c(O)c2)oc2cc(O)cc(O)c12
REMARK SMILES IDX 5 1 3 2 2 3 1 4 22 5 20 6 19 7 17 8 16 9 15 10 14 11 6 12
REMARK SMILES IDX 7 13 8 14 9 15 13 16 11 17 10 18 12 20 4 22 21 24 18 26
REMARK H PARENT 10 19 12 21 4 23 21 25 18 27
REMARK Flexibility Score: inf
ROOT
ATOM      1  C   UNL     1    -116.944 -99.411  36.719  1.00  0.00     0.180 A 
ATOM      2  C   UNL     1    -115.624 -99.749  36.379  1.00  0.00     0.208 A 
ATOM      3  C   UNL     1    -115.227 -99.682  35.034  1.00  0.00     0.238 A 
ATOM      4  O   UNL     1    -114.065-100.057  34.728  1.00  0.00    -0.285 OA
ATOM      5  C   UNL     1    -116.139 -99.224  34.053  1.00  0.00     0.111 A 
ATOM      6  C   UNL     1    -115.831 -99.073  32.666  1.00  0.00     0.134 A 
ATOM      7  C   UNL     1    -116.845 -98.712  31.770  1.00  0.00     0.093 A 
ATOM      8  C   UNL     1    -118.137 -98.436  32.215  1.00  0.00     0.123 A 
ATOM      9  C   UNL     1    -118.435 -98.527  33.576  1.00  0.00     0.094 A 
ATOM     10  C   UNL     1    -117.456 -98.922  34.490  1.00  0.00     0.146 A 
ATOM     11  O   UNL     1    -117.787 -99.017  35.772  1.00  0.00    -0.452 OA
ENDROOT
BRANCH   1  12
ATOM     12  C   UNL     1    -117.441 -99.471  38.113  1.00  0.00     0.025 A 
ATOM     13  C   UNL     1    -118.664-100.090  38.428  1.00  0.00     0.016 A 
ATOM     14  C   UNL     1    -119.124-100.113  39.747  1.00  0.00     0.051 A 
ATOM     15  C   UNL     1    -118.378 -99.508  40.766  1.00  0.00     0.157 A 
ATOM     16  C   UNL     1    -116.708 -98.848  39.135  1.00  0.00     0.062 A 
ATOM     17  C   UNL     1    -117.169 -98.872  40.459  1.00  0.00     0.158 A 
BRANCH  15  18
ATOM     18  O   UNL     1    -118.833 -99.530  42.084  1.00  0.00    -0.504 OA
ATOM     19  H   UNL     1    -119.821 -99.482  42.303  1.00  0.00     0.293 HD
ENDBRANCH  15  18
BRANCH  17  20
ATOM     20  O   UNL     1    -116.432 -98.263  41.474  1.00  0.00    -0.504 OA
ATOM     21  H   UNL     1    -116.510 -98.561  42.439  1.00  0.00     0.293 HD
ENDBRANCH  17  20
ENDBRANCH   1  12
BRANCH   2  22
ATOM     22  O   UNL     1    -114.716-100.125  37.374  1.00  0.00    -0.502 OA
ATOM     23  H   UNL     1    -114.883-100.908  37.995  1.00  0.00     0.293 HD
ENDBRANCH   2  22
BRANCH   6  24
ATOM     24  O   UNL     1    -114.553 -99.237  32.124  1.00  0.00    -0.507 OA
ATOM     25  H   UNL     1    -113.700 -99.287  32.661  1.00  0.00     0.293 HD
ENDBRANCH   6  24
BRANCH   8  26
ATOM     26  O   UNL     1    -119.116 -98.064  31.298  1.00  0.00    -0.508 OA
ATOM     27  H   UNL     1    -119.031 -98.284  30.312  1.00  0.00     0.293 HD
ENDBRANCH   8  26
TORSDOF 6
ENDMDL
MODEL 2
REMARK VINA RESULT:     4.408      1.917      3.043
REMARK INTER + INTRA:           5.356
REMARK INTER:                   5.626
REMARK INTRA:                  -0.270
REMARK UNBOUND:                 0.046
REMARK SMILES O=c1c(O)c(-c2ccc(O)c(O)c2)oc2cc(O)cc(O)c12
REMARK SMILES IDX 5 1 3 2 2 3 1 4 22 5 20 6 19 7 17 8 16 9 15 10 14 11 6 12
REMARK SMILES IDX 7 13 8 14 9 15 13 16 11 17 10 18 12 20 4 22 21 24 18 26
REMARK H PARENT 10 19 12 21 4 23 21 25 18 27
REMARK Flexibility Score: inf
ROOT
ATOM      1  C   UNL     1    -117.064 -98.791  37.930  1.00  0.00     0.180 A 
ATOM      2  C   UNL     1    -118.111 -99.471  37.287  1.00  0.00     0.208 A 
ATOM      3  C   UNL     1    -118.143 -99.503  35.884  1.00  0.00     0.238 A 
ATOM      4  O   UNL     1    -119.124-100.050  35.315  1.00  0.00    -0.285 OA
ATOM      5  C   UNL     1    -117.099 -98.901  35.141  1.00  0.00     0.111 A 
ATOM      6  C   UNL     1    -117.005 -98.912  33.716  1.00  0.00     0.134 A 
ATOM      7  C   UNL     1    -115.982 -98.192  33.086  1.00  0.00     0.093 A 
ATOM      8  C   UNL     1    -115.014 -97.517  33.828  1.00  0.00     0.123 A 
ATOM      9  C   UNL     1    -115.063 -97.547  35.222  1.00  0.00     0.094 A 
ATOM     10  C   UNL     1    -116.093 -98.223  35.879  1.00  0.00     0.146 A 
ATOM     11  O   UNL     1    -116.116 -98.208  37.206  1.00  0.00    -0.452 OA
ENDROOT
BRANCH   1  12
ATOM     12  C   UNL     1    -116.969 -98.701  39.405  1.00  0.00     0.025 A 
ATOM     13  C   UNL     1    -116.086 -99.518  40.133  1.00  0.00     0.016 A 
ATOM     14  C   UNL     1    -116.031 -99.433  41.527  1.00  0.00     0.051 A 
ATOM     15  C   UNL     1    -116.865 -98.540  42.213  1.00  0.00     0.157 A 
ATOM     16  C   UNL     1    -117.817 -97.824  40.100  1.00  0.00     0.062 A 
ATOM     17  C   UNL     1    -117.761 -97.736  41.498  1.00  0.00     0.158 A 
BRANCH  15  18
ATOM     18  O   UNL     1    -116.812 -98.451  43.603  1.00  0.00    -0.504 OA
ATOM     19  H   UNL     1    -117.423 -97.827  44.117  1.00  0.00     0.293 HD
ENDBRANCH  15  18
BRANCH  17  20
ATOM     20  O   UNL     1    -118.596 -96.855  42.184  1.00  0.00    -0.504 OA
ATOM     21  H   UNL     1    -118.792 -96.969  43.171  1.00  0.00     0.293 HD
ENDBRANCH  17  20
ENDBRANCH   1  12
BRANCH   2  22
ATOM     22  O   UNL     1    -119.092-100.125  38.039  1.00  0.00    -0.502 OA
ATOM     23  H   UNL     1    -120.067-100.139  37.766  1.00  0.00     0.293 HD
ENDBRANCH   2  22
BRANCH   6  24
ATOM     24  O   UNL     1    -117.868 -99.626  32.879  1.00  0.00    -0.507 OA
ATOM     25  H   UNL     1    -118.652 -99.229  32.383  1.00  0.00     0.293 HD
ENDBRANCH   6  24
BRANCH   8  26
ATOM     26  O   UNL     1    -114.000 -96.826  33.168  1.00  0.00    -0.508 OA
ATOM     27  H   UNL     1    -113.442 -96.124  33.640  1.00  0.00     0.293 HD
ENDBRANCH   8  26
TORSDOF 6
ENDMDL
MODEL 3
REMARK VINA RESULT:     5.426     16.174     19.585
REMARK INTER + INTRA:           6.582
REMARK INTER:                   6.380
REMARK INTRA:                   0.202
REMARK UNBOUND:                 0.046
REMARK SMILES O=c1c(O)c(-c2ccc(O)c(O)c2)oc2cc(O)cc(O)c12
REMARK SMILES IDX 5 1 3 2 2 3 1 4 22 5 20 6 19 7 17 8 16 9 15 10 14 11 6 12
REMARK SMILES IDX 7 13 8 14 9 15 13 16 11 17 10 18 12 20 4 22 21 24 18 26
REMARK H PARENT 10 19 12 21 4 23 21 25 18 27
REMARK Flexibility Score: inf
ROOT
ATOM      1  C   UNL     1    -115.427 -85.768  48.668  1.00  0.00     0.180 A 
ATOM      2  C   UNL     1    -116.827 -85.753  48.785  1.00  0.00     0.208 A 
ATOM      3  C   UNL     1    -117.485 -84.523  48.946  1.00  0.00     0.238 A 
ATOM      4  O   UNL     1    -118.731 -84.524  49.124  1.00  0.00    -0.285 OA
ATOM      5  C   UNL     1    -116.740 -83.319  48.933  1.00  0.00     0.111 A 
ATOM      6  C   UNL     1    -117.307 -82.012  49.043  1.00  0.00     0.134 A 
ATOM      7  C   UNL     1    -116.462 -80.898  49.125  1.00  0.00     0.093 A 
ATOM      8  C   UNL     1    -115.077 -81.035  49.037  1.00  0.00     0.123 A 
ATOM      9  C   UNL     1    -114.516 -82.302  48.873  1.00  0.00     0.094 A 
ATOM     10  C   UNL     1    -115.329 -83.437  48.827  1.00  0.00     0.146 A 
ATOM     11  O   UNL     1    -114.753 -84.625  48.692  1.00  0.00    -0.452 OA
ENDROOT
BRANCH   1  12
ATOM     12  C   UNL     1    -114.661 -87.026  48.509  1.00  0.00     0.025 A 
ATOM     13  C   UNL     1    -115.079 -88.219  49.125  1.00  0.00     0.016 A 
ATOM     14  C   UNL     1    -114.327 -89.388  48.981  1.00  0.00     0.051 A 
ATOM     15  C   UNL     1    -113.142 -89.378  48.233  1.00  0.00     0.157 A 
ATOM     16  C   UNL     1    -113.463 -87.017  47.779  1.00  0.00     0.062 A 
ATOM     17  C   UNL     1    -112.708 -88.190  47.633  1.00  0.00     0.158 A 
BRANCH  15  18
ATOM     18  O   UNL     1    -112.390 -90.543  48.086  1.00  0.00    -0.504 OA
ATOM     19  H   UNL     1    -112.765 -91.360  47.619  1.00  0.00     0.293 HD
ENDBRANCH  15  18
BRANCH  17  20
ATOM     20  O   UNL     1    -111.525 -88.181  46.896  1.00  0.00    -0.504 OA
ATOM     21  H   UNL     1    -111.259 -88.963  46.309  1.00  0.00     0.293 HD
ENDBRANCH  17  20
ENDBRANCH   1  12
BRANCH   2  22
ATOM     22  O   UNL     1    -117.551 -86.947  48.717  1.00  0.00    -0.502 OA
ATOM     23  H   UNL     1    -118.534 -86.974  48.473  1.00  0.00     0.293 HD
ENDBRANCH   2  22
BRANCH   6  24
ATOM     24  O   UNL     1    -118.681 -81.752  49.051  1.00  0.00    -0.507 OA
ATOM     25  H   UNL     1    -119.131 -81.046  49.613  1.00  0.00     0.293 HD
ENDBRANCH   6  24
BRANCH   8  26
ATOM     26  O   UNL     1    -114.269 -79.904  49.104  1.00  0.00    -0.508 OA
ATOM     27  H   UNL     1    -113.257 -79.974  49.129  1.00  0.00     0.293 HD
ENDBRANCH   8  26
TORSDOF 6
ENDMDL
