MODEL 1
REMARK VINA RESULT:    -2.728      0.000      0.000
REMARK INTER + INTRA:          -3.505
REMARK INTER:                  -3.287
REMARK INTRA:                  -0.218
REMARK UNBOUND:                -0.218
REMARK SMILES OCC(O)CO
REMARK SMILES IDX 3 1 5 2 6 3 2 5 1 6 4 8
REMARK H PARENT 6 4 1 7 4 9
REMARK Flexibility Score: inf
ROOT
ATOM      1  C   UNL     1     145.611 144.646 111.994  1.00  0.00     0.165 C 
ENDROOT
BRANCH   1   2
ATOM      2  C   UNL     1     144.945 144.622 110.608  1.00  0.00     0.190 C 
BRANCH   2   3
ATOM      3  O   UNL     1     145.841 144.144 109.641  1.00  0.00    -0.394 OA
ATOM      4  H   UNL     1     146.735 144.500 109.882  1.00  0.00     0.210 HD
ENDBRANCH   2   3
ENDBRANCH   1   2
BRANCH   1   5
ATOM      5  C   UNL     1     147.049 145.185 111.910  1.00  0.00     0.190 C 
BRANCH   5   6
ATOM      6  O   UNL     1     147.114 146.275 111.031  1.00  0.00    -0.394 OA
ATOM      7  H   UNL     1     146.568 146.033 110.238  1.00  0.00     0.210 HD
ENDBRANCH   5   6
ENDBRANCH   1   5
BRANCH   1   8
ATOM      8  O   UNL     1     145.592 143.367 112.577  1.00  0.00    -0.388 OA
ATOM      9  H   UNL     1     144.681 142.991 112.446  1.00  0.00     0.211 HD
ENDBRANCH   1   8
TORSDOF 5
ENDMDL
MODEL 2
REMARK VINA RESULT:    -2.650     16.456     17.643
REMARK INTER + INTRA:          -3.411
REMARK INTER:                  -3.399
REMARK INTRA:                  -0.011
REMARK UNBOUND:                -0.218
REMARK SMILES OCC(O)CO
REMARK SMILES IDX 3 1 5 2 6 3 2 5 1 6 4 8
REMARK H PARENT 6 4 1 7 4 9
REMARK Flexibility Score: inf
ROOT
ATOM      1  C   UNL     1     146.833 129.500 119.713  1.00  0.00     0.165 C 
ENDROOT
BRANCH   1   2
ATOM      2  C   UNL     1     147.089 129.072 121.168  1.00  0.00     0.190 C 
BRANCH   2   3
ATOM      3  O   UNL     1     146.363 129.883 122.052  1.00  0.00    -0.394 OA
ATOM      4  H   UNL     1     145.435 129.532 122.062  1.00  0.00     0.210 HD
ENDBRANCH   2   3
ENDBRANCH   1   2
BRANCH   1   5
ATOM      5  C   UNL     1     145.591 130.399 119.608  1.00  0.00     0.190 C 
BRANCH   5   6
ATOM      6  O   UNL     1     144.965 130.228 118.365  1.00  0.00    -0.394 OA
ATOM      7  H   UNL     1     144.839 129.251 118.243  1.00  0.00     0.210 HD
ENDBRANCH   5   6
ENDBRANCH   1   5
BRANCH   1   8
ATOM      8  O   UNL     1     146.706 128.375 118.879  1.00  0.00    -0.388 OA
ATOM      9  H   UNL     1     147.564 127.874 118.918  1.00  0.00     0.211 HD
ENDBRANCH   1   8
TORSDOF 5
ENDMDL
MODEL 3
REMARK VINA RESULT:    -2.640      0.989      2.922
REMARK INTER + INTRA:          -3.398
REMARK INTER:                  -3.222
REMARK INTRA:                  -0.176
REMARK UNBOUND:                -0.218
REMARK SMILES OCC(O)CO
REMARK SMILES IDX 3 1 5 2 6 3 2 5 1 6 4 8
REMARK H PARENT 6 4 1 7 4 9
REMARK Flexibility Score: inf
ROOT
ATOM      1  C   UNL     1     145.574 144.875 111.208  1.00  0.00     0.165 C 
ENDROOT
BRANCH   1   2
ATOM      2  C   UNL     1     146.968 145.269 111.724  1.00  0.00     0.190 C 
BRANCH   2   3
ATOM      3  O   UNL     1     146.862 145.984 112.925  1.00  0.00    -0.394 OA
ATOM      4  H   UNL     1     146.444 146.856 112.701  1.00  0.00     0.210 HD
ENDBRANCH   2   3
ENDBRANCH   1   2
BRANCH   1   5
ATOM      5  C   UNL     1     144.852 143.953 112.205  1.00  0.00     0.190 C 
BRANCH   5   6
ATOM      6  O   UNL     1     145.746 143.018 112.745  1.00  0.00    -0.394 OA
ATOM      7  H   UNL     1     145.992 142.401 112.006  1.00  0.00     0.210 HD
ENDBRANCH   5   6
ENDBRANCH   1   5
BRANCH   1   8
ATOM      8  O   UNL     1     145.665 144.266 109.943  1.00  0.00    -0.388 OA
ATOM      9  H   UNL     1     144.831 144.477 109.447  1.00  0.00     0.211 HD
ENDBRANCH   1   8
TORSDOF 5
ENDMDL
MODEL 4
REMARK VINA RESULT:    -2.639     16.598     17.413
REMARK INTER + INTRA:          -3.397
REMARK INTER:                  -3.225
REMARK INTRA:                  -0.172
REMARK UNBOUND:                -0.218
REMARK SMILES OCC(O)CO
REMARK SMILES IDX 3 1 5 2 6 3 2 5 1 6 4 8
REMARK H PARENT 6 4 1 7 4 9
REMARK Flexibility Score: inf
ROOT
ATOM      1  C   UNL     1     145.810 130.573 119.903  1.00  0.00     0.165 C 
ENDROOT
BRANCH   1   2
ATOM      2  C   UNL     1     146.990 129.776 119.322  1.00  0.00     0.190 C 
BRANCH   2   3
ATOM      3  O   UNL     1     146.562 128.516 118.882  1.00  0.00    -0.394 OA
ATOM      4  H   UNL     1     146.055 128.110 119.632  1.00  0.00     0.210 HD
ENDBRANCH   2   3
ENDBRANCH   1   2
BRANCH   1   5
ATOM      5  C   UNL     1     145.631 130.288 121.403  1.00  0.00     0.190 C 
BRANCH   5   6
ATOM      6  O   UNL     1     146.711 129.540 121.892  1.00  0.00    -0.394 OA
ATOM      7  H   UNL     1     147.405 129.544 121.182  1.00  0.00     0.210 HD
ENDBRANCH   5   6
ENDBRANCH   1   5
BRANCH   1   8
ATOM      8  O   UNL     1     144.625 130.292 119.198  1.00  0.00    -0.388 OA
ATOM      9  H   UNL     1     144.028 129.782 119.806  1.00  0.00     0.211 HD
ENDBRANCH   1   8
TORSDOF 5
ENDMDL
MODEL 5
REMARK VINA RESULT:    -2.626     16.269     17.127
REMARK INTER + INTRA:          -3.381
REMARK INTER:                  -3.168
REMARK INTRA:                  -0.213
REMARK UNBOUND:                -0.218
REMARK SMILES OCC(O)CO
REMARK SMILES IDX 3 1 5 2 6 3 2 5 1 6 4 8
REMARK H PARENT 6 4 1 7 4 9
REMARK Flexibility Score: inf
ROOT
ATOM      1  C   UNL     1     141.974 128.255 107.428  1.00  0.00     0.165 C 
ENDROOT
BRANCH   1   2
ATOM      2  C   UNL     1     142.509 129.664 107.734  1.00  0.00     0.190 C 
BRANCH   2   3
ATOM      3  O   UNL     1     143.863 129.608 108.092  1.00  0.00    -0.394 OA
ATOM      4  H   UNL     1     144.217 130.532 108.010  1.00  0.00     0.210 HD
ENDBRANCH   2   3
ENDBRANCH   1   2
BRANCH   1   5
ATOM      5  C   UNL     1     141.272 127.648 108.654  1.00  0.00     0.190 C 
BRANCH   5   6
ATOM      6  O   UNL     1     141.832 128.151 109.838  1.00  0.00    -0.394 OA
ATOM      7  H   UNL     1     141.260 128.911 110.121  1.00  0.00     0.210 HD
ENDBRANCH   5   6
ENDBRANCH   1   5
BRANCH   1   8
ATOM      8  O   UNL     1     143.011 127.415 106.982  1.00  0.00    -0.388 OA
ATOM      9  H   UNL     1     142.832 126.504 107.335  1.00  0.00     0.211 HD
ENDBRANCH   1   8
TORSDOF 5
ENDMDL
MODEL 6
REMARK VINA RESULT:    -2.596     14.129     14.442
REMARK INTER + INTRA:          -3.345
REMARK INTER:                  -3.130
REMARK INTRA:                  -0.215
REMARK UNBOUND:                -0.218
REMARK SMILES OCC(O)CO
REMARK SMILES IDX 3 1 5 2 6 3 2 5 1 6 4 8
REMARK H PARENT 6 4 1 7 4 9
REMARK Flexibility Score: inf
ROOT
ATOM      1  C   UNL     1     145.618 131.305 108.215  1.00  0.00     0.165 C 
ENDROOT
BRANCH   1   2
ATOM      2  C   UNL     1     144.121 130.954 108.193  1.00  0.00     0.190 C 
BRANCH   2   3
ATOM      3  O   UNL     1     143.942 129.587 107.944  1.00  0.00    -0.394 OA
ATOM      4  H   UNL     1     143.035 129.354 108.273  1.00  0.00     0.210 HD
ENDBRANCH   2   3
ENDBRANCH   1   2
BRANCH   1   5
ATOM      5  C   UNL     1     146.109 131.736 106.824  1.00  0.00     0.190 C 
BRANCH   5   6
ATOM      6  O   UNL     1     145.152 131.424 105.848  1.00  0.00    -0.394 OA
ATOM      7  H   UNL     1     145.060 130.435 105.846  1.00  0.00     0.210 HD
ENDBRANCH   5   6
ENDBRANCH   1   5
BRANCH   1   8
ATOM      8  O   UNL     1     146.376 130.222 108.697  1.00  0.00    -0.388 OA
ATOM      9  H   UNL     1     145.778 129.668 109.266  1.00  0.00     0.211 HD
ENDBRANCH   1   8
TORSDOF 5
ENDMDL
MODEL 7
REMARK VINA RESULT:    -2.594     15.868     16.759
REMARK INTER + INTRA:          -3.342
REMARK INTER:                  -3.127
REMARK INTRA:                  -0.216
REMARK UNBOUND:                -0.218
REMARK SMILES OCC(O)CO
REMARK SMILES IDX 3 1 5 2 6 3 2 5 1 6 4 8
REMARK H PARENT 6 4 1 7 4 9
REMARK Flexibility Score: inf
ROOT
ATOM      1  C   UNL     1     142.515 129.650 107.814  1.00  0.00     0.165 C 
ENDROOT
BRANCH   1   2
ATOM      2  C   UNL     1     141.692 129.521 109.108  1.00  0.00     0.190 C 
BRANCH   2   3
ATOM      3  O   UNL     1     141.948 128.292 109.731  1.00  0.00    -0.394 OA
ATOM      4  H   UNL     1     141.106 127.768 109.682  1.00  0.00     0.210 HD
ENDBRANCH   2   3
ENDBRANCH   1   2
BRANCH   1   5
ATOM      5  C   UNL     1     142.178 128.521 106.827  1.00  0.00     0.190 C 
BRANCH   5   6
ATOM      6  O   UNL     1     143.025 127.422 107.031  1.00  0.00    -0.394 OA
ATOM      7  H   UNL     1     142.695 126.958 107.845  1.00  0.00     0.210 HD
ENDBRANCH   5   6
ENDBRANCH   1   5
BRANCH   1   8
ATOM      8  O   UNL     1     143.892 129.668 108.101  1.00  0.00    -0.388 OA
ATOM      9  H   UNL     1     144.083 128.900 108.702  1.00  0.00     0.211 HD
ENDBRANCH   1   8
TORSDOF 5
ENDMDL
MODEL 8
REMARK VINA RESULT:    -2.562     21.334     22.113
REMARK INTER + INTRA:          -3.305
REMARK INTER:                  -3.085
REMARK INTRA:                  -0.219
REMARK UNBOUND:                -0.218
REMARK SMILES OCC(O)CO
REMARK SMILES IDX 3 1 5 2 6 3 2 5 1 6 4 8
REMARK H PARENT 6 4 1 7 4 9
REMARK Flexibility Score: inf
ROOT
ATOM      1  C   UNL     1     131.786 129.245 107.544  1.00  0.00     0.165 C 
ENDROOT
BRANCH   1   2
ATOM      2  C   UNL     1     131.438 130.157 108.733  1.00  0.00     0.190 C 
BRANCH   2   3
ATOM      3  O   UNL     1     130.514 129.529 109.578  1.00  0.00    -0.394 OA
ATOM      4  H   UNL     1     130.972 129.389 110.447  1.00  0.00     0.210 HD
ENDBRANCH   2   3
ENDBRANCH   1   2
BRANCH   1   5
ATOM      5  C   UNL     1     130.602 129.126 106.570  1.00  0.00     0.190 C 
BRANCH   5   6
ATOM      6  O   UNL     1     129.684 128.170 107.028  1.00  0.00    -0.394 OA
ATOM      7  H   UNL     1     129.245 127.789 106.223  1.00  0.00     0.210 HD
ENDBRANCH   5   6
ENDBRANCH   1   5
BRANCH   1   8
ATOM      8  O   UNL     1     132.191 127.975 107.993  1.00  0.00    -0.388 OA
ATOM      9  H   UNL     1     131.599 127.302 107.564  1.00  0.00     0.211 HD
ENDBRANCH   1   8
TORSDOF 5
ENDMDL
MODEL 9
REMARK VINA RESULT:    -2.540      1.309      1.800
REMARK INTER + INTRA:          -3.278
REMARK INTER:                  -3.095
REMARK INTRA:                  -0.184
REMARK UNBOUND:                -0.218
REMARK SMILES OCC(O)CO
REMARK SMILES IDX 3 1 5 2 6 3 2 5 1 6 4 8
REMARK H PARENT 6 4 1 7 4 9
REMARK Flexibility Score: inf
ROOT
ATOM      1  C   UNL     1     145.246 144.500 111.058  1.00  0.00     0.165 C 
ENDROOT
BRANCH   1   2
ATOM      2  C   UNL     1     144.022 145.430 110.989  1.00  0.00     0.190 C 
BRANCH   2   3
ATOM      3  O   UNL     1     144.169 146.357 109.948  1.00  0.00    -0.394 OA
ATOM      4  H   UNL     1     144.327 145.833 109.121  1.00  0.00     0.210 HD
ENDBRANCH   2   3
ENDBRANCH   1   2
BRANCH   1   5
ATOM      5  C   UNL     1     146.400 145.156 111.832  1.00  0.00     0.190 C 
BRANCH   5   6
ATOM      6  O   UNL     1     147.125 146.017 110.997  1.00  0.00    -0.394 OA
ATOM      7  H   UNL     1     146.948 146.940 111.318  1.00  0.00     0.210 HD
ENDBRANCH   5   6
ENDBRANCH   1   5
BRANCH   1   8
ATOM      8  O   UNL     1     145.661 144.128 109.766  1.00  0.00    -0.388 OA
ATOM      9  H   UNL     1     146.444 143.524 109.865  1.00  0.00     0.211 HD
ENDBRANCH   1   8
TORSDOF 5
ENDMDL
