MODEL 1
REMARK VINA RESULT:     3.162      0.000      0.000
REMARK INTER + INTRA:           4.166
REMARK INTER:                   3.901
REMARK INTRA:                   0.264
REMARK UNBOUND:                 0.264
REMARK SMILES O=c1c(O)c(-c2cc(O)c(O)c(O)c2)oc2cc(O)cc(O)c12
REMARK SMILES IDX 5 1 3 2 2 3 1 4 23 5 21 6 20 7 18 8 17 9 16 10 15 11 6 12
REMARK SMILES IDX 7 13 8 14 14 15 10 16 12 17 9 18 11 20 13 22 4 24 22 26
REMARK SMILES IDX 19 28
REMARK H PARENT 9 19 11 21 13 23 4 25 22 27 19 29
REMARK Flexibility Score: inf
ROOT
ATOM      1  C   UNL     1     -37.296 -35.553 -34.167  1.00  0.00     0.180 A 
ATOM      2  C   UNL     1     -35.896 -35.648 -34.291  1.00  0.00     0.208 A 
ATOM      3  C   UNL     1     -35.337 -35.803 -35.570  1.00  0.00     0.238 A 
ATOM      4  O   UNL     1     -34.085 -35.878 -35.694  1.00  0.00    -0.285 OA
ATOM      5  C   UNL     1     -36.184 -35.881 -36.695  1.00  0.00     0.111 A 
ATOM      6  C   UNL     1     -35.701 -36.041 -38.016  1.00  0.00     0.134 A 
ATOM      7  C   UNL     1     -36.608 -36.120 -39.084  1.00  0.00     0.093 A 
ATOM      8  C   UNL     1     -37.984 -36.042 -38.856  1.00  0.00     0.123 A 
ATOM      9  C   UNL     1     -38.467 -35.884 -37.553  1.00  0.00     0.094 A 
ATOM     10  C   UNL     1     -37.579 -35.802 -36.476  1.00  0.00     0.146 A 
ATOM     11  O   UNL     1     -38.063 -35.646 -35.249  1.00  0.00    -0.452 OA
ENDROOT
BRANCH   1  12
ATOM     12  C   UNL     1     -37.958 -35.370 -32.855  1.00  0.00     0.029 A 
ATOM     13  C   UNL     1     -37.376 -35.846 -31.669  1.00  0.00     0.062 A 
ATOM     14  C   UNL     1     -38.007 -35.642 -30.434  1.00  0.00     0.162 A 
ATOM     15  C   UNL     1     -39.164 -34.655 -32.786  1.00  0.00     0.062 A 
ATOM     16  C   UNL     1     -39.226 -34.945 -30.376  1.00  0.00     0.200 A 
ATOM     17  C   UNL     1     -39.802 -34.448 -31.558  1.00  0.00     0.162 A 
BRANCH  14  18
ATOM     18  O   UNL     1     -37.423 -36.125 -29.264  1.00  0.00    -0.504 OA
ATOM     19  H   UNL     1     -36.839 -35.538 -28.680  1.00  0.00     0.293 HD
ENDBRANCH  14  18
BRANCH  16  20
ATOM     20  O   UNL     1     -39.870 -34.737 -29.156  1.00  0.00    -0.502 OA
ATOM     21  H   UNL     1     -40.880 -34.738 -29.071  1.00  0.00     0.293 HD
ENDBRANCH  16  20
BRANCH  17  22
ATOM     22  O   UNL     1     -41.006 -33.746 -31.533  1.00  0.00    -0.504 OA
ATOM     23  H   UNL     1     -41.195 -32.978 -32.165  1.00  0.00     0.293 HD
ENDBRANCH  17  22
ENDBRANCH   1  12
BRANCH   2  24
ATOM     24  O   UNL     1     -35.083 -35.617 -33.155  1.00  0.00    -0.502 OA
ATOM     25  H   UNL     1     -35.135 -36.322 -32.431  1.00  0.00     0.293 HD
ENDBRANCH   2  24
BRANCH   6  26
ATOM     26  O   UNL     1     -34.332 -36.122 -38.277  1.00  0.00    -0.507 OA
ATOM     27  H   UNL     1     -33.952 -35.928 -39.196  1.00  0.00     0.293 HD
ENDBRANCH   6  26
BRANCH   8  28
ATOM     28  O   UNL     1     -38.864 -36.125 -39.932  1.00  0.00    -0.508 OA
ATOM     29  H   UNL     1     -39.713 -35.572 -39.968  1.00  0.00     0.293 HD
ENDBRANCH   8  28
TORSDOF 7
ENDMDL
MODEL 2
REMARK VINA RESULT:     3.263      0.138      1.758
REMARK INTER + INTRA:           4.291
REMARK INTER:                   3.952
REMARK INTRA:                   0.339
REMARK UNBOUND:                 0.264
REMARK SMILES O=c1c(O)c(-c2cc(O)c(O)c(O)c2)oc2cc(O)cc(O)c12
REMARK SMILES IDX 5 1 3 2 2 3 1 4 23 5 21 6 20 7 18 8 17 9 16 10 15 11 6 12
REMARK SMILES IDX 7 13 8 14 14 15 10 16 12 17 9 18 11 20 13 22 4 24 22 26
REMARK SMILES IDX 19 28
REMARK H PARENT 9 19 11 21 13 23 4 25 22 27 19 29
REMARK Flexibility Score: inf
ROOT
ATOM      1  C   UNL     1     -37.242 -35.523 -34.263  1.00  0.00     0.180 A 
ATOM      2  C   UNL     1     -35.843 -35.624 -34.385  1.00  0.00     0.208 A 
ATOM      3  C   UNL     1     -35.282 -35.787 -35.662  1.00  0.00     0.238 A 
ATOM      4  O   UNL     1     -34.031 -35.867 -35.785  1.00  0.00    -0.285 OA
ATOM      5  C   UNL     1     -36.128 -35.867 -36.788  1.00  0.00     0.111 A 
ATOM      6  C   UNL     1     -35.645 -36.036 -38.108  1.00  0.00     0.134 A 
ATOM      7  C   UNL     1     -36.551 -36.116 -39.176  1.00  0.00     0.093 A 
ATOM      8  C   UNL     1     -37.927 -36.033 -38.950  1.00  0.00     0.123 A 
ATOM      9  C   UNL     1     -38.410 -35.867 -37.648  1.00  0.00     0.094 A 
ATOM     10  C   UNL     1     -37.524 -35.782 -36.571  1.00  0.00     0.146 A 
ATOM     11  O   UNL     1     -38.008 -35.619 -35.345  1.00  0.00    -0.452 OA
ENDROOT
BRANCH   1  12
ATOM     12  C   UNL     1     -37.905 -35.331 -32.953  1.00  0.00     0.029 A 
ATOM     13  C   UNL     1     -39.174 -34.737 -32.855  1.00  0.00     0.062 A 
ATOM     14  C   UNL     1     -39.796 -34.585 -31.609  1.00  0.00     0.162 A 
ATOM     15  C   UNL     1     -37.280 -35.804 -31.788  1.00  0.00     0.062 A 
ATOM     16  C   UNL     1     -39.153 -35.041 -30.444  1.00  0.00     0.200 A 
ATOM     17  C   UNL     1     -37.893 -35.655 -30.539  1.00  0.00     0.162 A 
BRANCH  14  18
ATOM     18  O   UNL     1     -41.052 -33.989 -31.523  1.00  0.00    -0.504 OA
ATOM     19  H   UNL     1     -41.739 -34.087 -32.262  1.00  0.00     0.293 HD
ENDBRANCH  14  18
BRANCH  16  20
ATOM     20  O   UNL     1     -39.756 -34.893 -29.194  1.00  0.00    -0.502 OA
ATOM     21  H   UNL     1     -39.275 -35.124 -28.333  1.00  0.00     0.293 HD
ENDBRANCH  16  20
BRANCH  17  22
ATOM     22  O   UNL     1     -37.233 -36.125 -29.404  1.00  0.00    -0.504 OA
ATOM     23  H   UNL     1     -36.701 -36.986 -29.407  1.00  0.00     0.293 HD
ENDBRANCH  17  22
ENDBRANCH   1  12
BRANCH   2  24
ATOM     24  O   UNL     1     -35.030 -35.590 -33.249  1.00  0.00    -0.502 OA
ATOM     25  H   UNL     1     -34.190 -35.028 -33.198  1.00  0.00     0.293 HD
ENDBRANCH   2  24
BRANCH   6  26
ATOM     26  O   UNL     1     -34.276 -36.123 -38.367  1.00  0.00    -0.507 OA
ATOM     27  H   UNL     1     -33.895 -36.828 -38.987  1.00  0.00     0.293 HD
ENDBRANCH   6  26
BRANCH   8  28
ATOM     28  O   UNL     1     -38.806 -36.117 -40.027  1.00  0.00    -0.508 OA
ATOM     29  H   UNL     1     -39.719 -35.677 -40.003  1.00  0.00     0.293 HD
ENDBRANCH   8  28
TORSDOF 7
ENDMDL
