MODEL 1
REMARK VINA RESULT:    -4.692      0.000      0.000
REMARK INTER + INTRA:         -15.984
REMARK INTER:                 -11.823
REMARK INTRA:                  -4.161
REMARK UNBOUND:                -4.161
REMARK SMILES CCCCCCCCCCCCCCCCCCCCCCCCCCCC(=O)[O-]
REMARK SMILES IDX 15 1 16 2 17 3 18 4 19 5 20 6 21 7 22 8 23 9 24 10 25 11
REMARK SMILES IDX 26 12 27 13 28 14 29 15 30 16 14 17 13 18 12 19 11 20 10 21
REMARK SMILES IDX 9 22 8 23 7 24 6 25 5 26 4 27 3 28 2 29 1 30
REMARK H PARENT
REMARK Flexibility Score: inf
ROOT
ATOM      1  C   UNL     1      61.964 151.637   4.230  1.00  0.00     0.000 C 
ENDROOT
BRANCH   1   2
ATOM      2  C   UNL     1      60.650 152.219   4.774  1.00  0.00     0.000 C 
BRANCH   2   3
ATOM      3  C   UNL     1      60.351 151.759   6.213  1.00  0.00     0.000 C 
BRANCH   3   4
ATOM      4  C   UNL     1      61.615 151.402   7.029  1.00  0.00     0.000 C 
BRANCH   4   5
ATOM      5  C   UNL     1      61.311 150.820   8.423  1.00  0.00     0.000 C 
BRANCH   5   6
ATOM      6  C   UNL     1      59.820 150.806   8.801  1.00  0.00     0.000 C 
BRANCH   6   7
ATOM      7  C   UNL     1      59.267 149.380   8.982  1.00  0.00     0.000 C 
BRANCH   7   8
ATOM      8  C   UNL     1      60.354 148.305   8.818  1.00  0.00     0.000 C 
BRANCH   8   9
ATOM      9  C   UNL     1      60.034 147.313   7.686  1.00  0.00     0.000 C 
BRANCH   9  10
ATOM     10  C   UNL     1      60.408 147.855   6.297  1.00  0.00     0.000 C 
BRANCH  10  11
ATOM     11  C   UNL     1      61.838 147.473   5.879  1.00  0.00     0.000 C 
BRANCH  11  12
ATOM     12  C   UNL     1      62.630 148.664   5.308  1.00  0.00     0.006 C 
BRANCH  12  13
ATOM     13  C   UNL     1      64.057 148.802   5.864  1.00  0.00     0.053 C 
BRANCH  13  14
ATOM     14  C   UNL     1      64.923 149.655   4.987  1.00  0.00     0.041 C 
ATOM     15  O   UNL     1      65.256 150.811   5.359  1.00  0.00    -0.550 OA
ATOM     16  O   UNL     1      65.315 149.193   3.738  1.00  0.00    -0.550 OA
ENDBRANCH  13  14
ENDBRANCH  12  13
ENDBRANCH  11  12
ENDBRANCH  10  11
ENDBRANCH   9  10
ENDBRANCH   8   9
ENDBRANCH   7   8
ENDBRANCH   6   7
ENDBRANCH   5   6
ENDBRANCH   4   5
ENDBRANCH   3   4
ENDBRANCH   2   3
ENDBRANCH   1   2
BRANCH   1  17
ATOM     17  C   UNL     1      62.200 152.075   2.776  1.00  0.00     0.000 C 
BRANCH  17  18
ATOM     18  C   UNL     1      60.893 152.235   1.976  1.00  0.00     0.000 C 
BRANCH  18  19
ATOM     19  C   UNL     1      60.898 153.371   0.937  1.00  0.00     0.000 C 
BRANCH  19  20
ATOM     20  C   UNL     1      59.560 154.126   0.865  1.00  0.00     0.000 C 
BRANCH  20  21
ATOM     21  C   UNL     1      58.664 153.849   2.090  1.00  0.00     0.000 C 
BRANCH  21  22
ATOM     22  C   UNL     1      58.213 155.119   2.832  1.00  0.00    -0.000 C 
BRANCH  22  23
ATOM     23  C   UNL     1      58.463 155.049   4.348  1.00  0.00    -0.000 C 
BRANCH  23  24
ATOM     24  C   UNL     1      58.473 156.444   5.006  1.00  0.00    -0.000 C 
BRANCH  24  25
ATOM     25  C   UNL     1      57.934 156.463   6.451  1.00  0.00    -0.000 C 
BRANCH  25  26
ATOM     26  C   UNL     1      58.200 155.168   7.244  1.00  0.00    -0.000 C 
BRANCH  26  27
ATOM     27  C   UNL     1      59.108 155.400   8.465  1.00  0.00    -0.000 C 
BRANCH  27  28
ATOM     28  C   UNL     1      60.281 154.410   8.525  1.00  0.00    -0.000 C 
BRANCH  28  29
ATOM     29  C   UNL     1      61.646 155.113   8.521  1.00  0.00    -0.003 C 
ATOM     30  C   UNL     1      62.367 154.900   7.193  1.00  0.00     0.004 C 
ENDBRANCH  28  29
ENDBRANCH  27  28
ENDBRANCH  26  27
ENDBRANCH  25  26
ENDBRANCH  24  25
ENDBRANCH  23  24
ENDBRANCH  22  23
ENDBRANCH  21  22
ENDBRANCH  20  21
ENDBRANCH  19  20
ENDBRANCH  18  19
ENDBRANCH  17  18
ENDBRANCH   1  17
TORSDOF 26
ENDMDL
MODEL 2
REMARK VINA RESULT:    -4.573      2.082      5.460
REMARK INTER + INTRA:         -15.685
REMARK INTER:                 -11.845
REMARK INTRA:                  -3.841
REMARK UNBOUND:                -4.161
REMARK SMILES CCCCCCCCCCCCCCCCCCCCCCCCCCCC(=O)[O-]
REMARK SMILES IDX 15 1 16 2 17 3 18 4 19 5 20 6 21 7 22 8 23 9 24 10 25 11
REMARK SMILES IDX 26 12 27 13 28 14 29 15 30 16 14 17 13 18 12 19 11 20 10 21
REMARK SMILES IDX 9 22 8 23 7 24 6 25 5 26 4 27 3 28 2 29 1 30
REMARK H PARENT
REMARK Flexibility Score: inf
ROOT
ATOM      1  C   UNL     1      59.088 154.473   3.744  1.00  0.00     0.000 C 
ENDROOT
BRANCH   1   2
ATOM      2  C   UNL     1      58.181 154.200   4.953  1.00  0.00     0.000 C 
BRANCH   2   3
ATOM      3  C   UNL     1      57.875 155.474   5.762  1.00  0.00     0.000 C 
BRANCH   3   4
ATOM      4  C   UNL     1      58.987 156.545   5.683  1.00  0.00     0.000 C 
BRANCH   4   5
ATOM      5  C   UNL     1      59.911 156.575   6.916  1.00  0.00     0.000 C 
BRANCH   5   6
ATOM      6  C   UNL     1      60.831 155.351   7.057  1.00  0.00     0.000 C 
BRANCH   6   7
ATOM      7  C   UNL     1      60.845 154.781   8.487  1.00  0.00     0.000 C 
BRANCH   7   8
ATOM      8  C   UNL     1      59.430 154.609   9.063  1.00  0.00     0.000 C 
BRANCH   8   9
ATOM      9  C   UNL     1      58.786 153.273   8.653  1.00  0.00     0.000 C 
BRANCH   9  10
ATOM     10  C   UNL     1      59.797 152.117   8.597  1.00  0.00     0.000 C 
BRANCH  10  11
ATOM     11  C   UNL     1      59.298 150.935   7.748  1.00  0.00     0.000 C 
BRANCH  11  12
ATOM     12  C   UNL     1      60.274 149.744   7.753  1.00  0.00     0.006 C 
BRANCH  12  13
ATOM     13  C   UNL     1      59.683 148.442   8.318  1.00  0.00     0.053 C 
BRANCH  13  14
ATOM     14  C   UNL     1      60.121 147.240   7.538  1.00  0.00     0.041 C 
ATOM     15  O   UNL     1      60.846 147.377   6.517  1.00  0.00    -0.550 OA
ATOM     16  O   UNL     1      59.682 145.976   7.906  1.00  0.00    -0.550 OA
ENDBRANCH  13  14
ENDBRANCH  12  13
ENDBRANCH  11  12
ENDBRANCH  10  11
ENDBRANCH   9  10
ENDBRANCH   8   9
ENDBRANCH   7   8
ENDBRANCH   6   7
ENDBRANCH   5   6
ENDBRANCH   4   5
ENDBRANCH   3   4
ENDBRANCH   2   3
ENDBRANCH   1   2
BRANCH   1  17
ATOM     17  C   UNL     1      58.255 154.806   2.496  1.00  0.00     0.000 C 
BRANCH  17  18
ATOM     18  C   UNL     1      58.506 153.833   1.327  1.00  0.00     0.000 C 
BRANCH  18  19
ATOM     19  C   UNL     1      59.747 154.147   0.472  1.00  0.00     0.000 C 
BRANCH  19  20
ATOM     20  C   UNL     1      61.016 153.432   0.969  1.00  0.00     0.000 C 
BRANCH  20  21
ATOM     21  C   UNL     1      60.697 152.288   1.954  1.00  0.00     0.000 C 
BRANCH  21  22
ATOM     22  C   UNL     1      61.915 151.797   2.753  1.00  0.00    -0.000 C 
BRANCH  22  23
ATOM     23  C   UNL     1      61.532 151.150   4.095  1.00  0.00    -0.000 C 
BRANCH  23  24
ATOM     24  C   UNL     1      61.438 152.181   5.238  1.00  0.00    -0.000 C 
BRANCH  24  25
ATOM     25  C   UNL     1      62.752 152.374   6.023  1.00  0.00    -0.000 C 
BRANCH  25  26
ATOM     26  C   UNL     1      63.999 152.560   5.135  1.00  0.00    -0.000 C 
BRANCH  26  27
ATOM     27  C   UNL     1      65.053 151.461   5.360  1.00  0.00    -0.000 C 
BRANCH  27  28
ATOM     28  C   UNL     1      65.156 150.490   4.174  1.00  0.00    -0.000 C 
BRANCH  28  29
ATOM     29  C   UNL     1      65.021 149.022   4.601  1.00  0.00    -0.003 C 
ATOM     30  C   UNL     1      63.857 148.839   5.570  1.00  0.00     0.004 C 
ENDBRANCH  28  29
ENDBRANCH  27  28
ENDBRANCH  26  27
ENDBRANCH  25  26
ENDBRANCH  24  25
ENDBRANCH  23  24
ENDBRANCH  22  23
ENDBRANCH  21  22
ENDBRANCH  20  21
ENDBRANCH  19  20
ENDBRANCH  18  19
ENDBRANCH  17  18
ENDBRANCH   1  17
TORSDOF 26
ENDMDL
MODEL 3
REMARK VINA RESULT:    -4.240      2.006      6.791
REMARK INTER + INTRA:         -14.846
REMARK INTER:                 -10.183
REMARK INTRA:                  -4.663
REMARK UNBOUND:                -4.161
REMARK SMILES CCCCCCCCCCCCCCCCCCCCCCCCCCCC(=O)[O-]
REMARK SMILES IDX 15 1 16 2 17 3 18 4 19 5 20 6 21 7 22 8 23 9 24 10 25 11
REMARK SMILES IDX 26 12 27 13 28 14 29 15 30 16 14 17 13 18 12 19 11 20 10 21
REMARK SMILES IDX 9 22 8 23 7 24 6 25 5 26 4 27 3 28 2 29 1 30
REMARK H PARENT
REMARK Flexibility Score: inf
ROOT
ATOM      1  C   UNL     1      62.087 152.189   4.946  1.00  0.00     0.000 C 
ENDROOT
BRANCH   1   2
ATOM      2  C   UNL     1      63.228 152.456   5.939  1.00  0.00     0.000 C 
BRANCH   2   3
ATOM      3  C   UNL     1      63.148 153.858   6.569  1.00  0.00     0.000 C 
BRANCH   3   4
ATOM      4  C   UNL     1      61.707 154.401   6.702  1.00  0.00     0.000 C 
BRANCH   4   5
ATOM      5  C   UNL     1      61.418 155.076   8.056  1.00  0.00     0.000 C 
BRANCH   5   6
ATOM      6  C   UNL     1      60.147 154.579   8.763  1.00  0.00     0.000 C 
BRANCH   6   7
ATOM      7  C   UNL     1      58.857 155.048   8.066  1.00  0.00     0.000 C 
BRANCH   7   8
ATOM      8  C   UNL     1      57.976 153.874   7.612  1.00  0.00     0.000 C 
BRANCH   8   9
ATOM      9  C   UNL     1      57.875 153.771   6.080  1.00  0.00     0.000 C 
BRANCH   9  10
ATOM     10  C   UNL     1      58.268 155.076   5.369  1.00  0.00     0.000 C 
BRANCH  10  11
ATOM     11  C   UNL     1      58.910 154.830   3.993  1.00  0.00     0.000 C 
BRANCH  11  12
ATOM     12  C   UNL     1      58.956 153.337   3.616  1.00  0.00     0.006 C 
BRANCH  12  13
ATOM     13  C   UNL     1      58.927 153.064   2.104  1.00  0.00     0.053 C 
BRANCH  13  14
ATOM     14  C   UNL     1      60.271 153.260   1.470  1.00  0.00     0.041 C 
ATOM     15  O   UNL     1      60.439 154.165   0.609  1.00  0.00    -0.550 OA
ATOM     16  O   UNL     1      61.320 152.411   1.790  1.00  0.00    -0.550 OA
ENDBRANCH  13  14
ENDBRANCH  12  13
ENDBRANCH  11  12
ENDBRANCH  10  11
ENDBRANCH   9  10
ENDBRANCH   8   9
ENDBRANCH   7   8
ENDBRANCH   6   7
ENDBRANCH   5   6
ENDBRANCH   4   5
ENDBRANCH   3   4
ENDBRANCH   2   3
ENDBRANCH   1   2
BRANCH   1  17
ATOM     17  C   UNL     1      61.250 150.976   5.382  1.00  0.00     0.000 C 
BRANCH  17  18
ATOM     18  C   UNL     1      60.233 151.314   6.489  1.00  0.00     0.000 C 
BRANCH  18  19
ATOM     19  C   UNL     1      60.726 151.069   7.927  1.00  0.00     0.000 C 
BRANCH  19  20
ATOM     20  C   UNL     1      59.624 150.536   8.859  1.00  0.00     0.000 C 
BRANCH  20  21
ATOM     21  C   UNL     1      58.333 150.176   8.094  1.00  0.00     0.000 C 
BRANCH  21  22
ATOM     22  C   UNL     1      58.209 148.682   7.751  1.00  0.00    -0.000 C 
BRANCH  22  23
ATOM     23  C   UNL     1      59.183 147.800   8.551  1.00  0.00    -0.000 C 
BRANCH  23  24
ATOM     24  C   UNL     1      60.113 146.975   7.637  1.00  0.00    -0.000 C 
BRANCH  24  25
ATOM     25  C   UNL     1      60.869 147.814   6.586  1.00  0.00    -0.000 C 
BRANCH  25  26
ATOM     26  C   UNL     1      61.767 146.988   5.643  1.00  0.00    -0.000 C 
BRANCH  26  27
ATOM     27  C   UNL     1      62.838 147.848   4.947  1.00  0.00    -0.000 C 
BRANCH  27  28
ATOM     28  C   UNL     1      63.620 148.729   5.933  1.00  0.00    -0.000 C 
BRANCH  28  29
ATOM     29  C   UNL     1      65.022 149.087   5.418  1.00  0.00    -0.003 C 
ATOM     30  C   UNL     1      64.944 149.818   4.081  1.00  0.00     0.004 C 
ENDBRANCH  28  29
ENDBRANCH  27  28
ENDBRANCH  26  27
ENDBRANCH  25  26
ENDBRANCH  24  25
ENDBRANCH  23  24
ENDBRANCH  22  23
ENDBRANCH  21  22
ENDBRANCH  20  21
ENDBRANCH  19  20
ENDBRANCH  18  19
ENDBRANCH  17  18
ENDBRANCH   1  17
TORSDOF 26
ENDMDL
MODEL 4
REMARK VINA RESULT:    -4.132      1.995      6.359
REMARK INTER + INTRA:         -14.574
REMARK INTER:                  -9.920
REMARK INTRA:                  -4.654
REMARK UNBOUND:                -4.161
REMARK SMILES CCCCCCCCCCCCCCCCCCCCCCCCCCCC(=O)[O-]
REMARK SMILES IDX 15 1 16 2 17 3 18 4 19 5 20 6 21 7 22 8 23 9 24 10 25 11
REMARK SMILES IDX 26 12 27 13 28 14 29 15 30 16 14 17 13 18 12 19 11 20 10 21
REMARK SMILES IDX 9 22 8 23 7 24 6 25 5 26 4 27 3 28 2 29 1 30
REMARK H PARENT
REMARK Flexibility Score: inf
ROOT
ATOM      1  C   UNL     1      58.233 154.881   3.849  1.00  0.00     0.000 C 
ENDROOT
BRANCH   1   2
ATOM      2  C   UNL     1      57.996 155.743   2.600  1.00  0.00     0.000 C 
BRANCH   2   3
ATOM      3  C   UNL     1      58.323 154.995   1.295  1.00  0.00     0.000 C 
BRANCH   3   4
ATOM      4  C   UNL     1      58.843 153.555   1.514  1.00  0.00     0.000 C 
BRANCH   4   5
ATOM      5  C   UNL     1      60.346 153.385   1.219  1.00  0.00     0.000 C 
BRANCH   5   6
ATOM      6  C   UNL     1      61.095 152.478   2.210  1.00  0.00     0.000 C 
BRANCH   6   7
ATOM      7  C   UNL     1      60.521 152.557   3.637  1.00  0.00     0.000 C 
BRANCH   7   8
ATOM      8  C   UNL     1      60.868 151.317   4.477  1.00  0.00     0.000 C 
BRANCH   8   9
ATOM      9  C   UNL     1      60.451 151.470   5.950  1.00  0.00     0.000 C 
BRANCH   9  10
ATOM     10  C   UNL     1      58.970 151.847   6.114  1.00  0.00     0.000 C 
BRANCH  10  11
ATOM     11  C   UNL     1      58.554 151.986   7.588  1.00  0.00     0.000 C 
BRANCH  11  12
ATOM     12  C   UNL     1      59.386 151.093   8.528  1.00  0.00     0.006 C 
BRANCH  12  13
ATOM     13  C   UNL     1      58.883 149.644   8.636  1.00  0.00     0.053 C 
BRANCH  13  14
ATOM     14  C   UNL     1      59.954 148.650   8.305  1.00  0.00     0.041 C 
ATOM     15  O   UNL     1      61.048 148.666   8.930  1.00  0.00    -0.550 OA
ATOM     16  O   UNL     1      59.764 147.743   7.272  1.00  0.00    -0.550 OA
ENDBRANCH  13  14
ENDBRANCH  12  13
ENDBRANCH  11  12
ENDBRANCH  10  11
ENDBRANCH   9  10
ENDBRANCH   8   9
ENDBRANCH   7   8
ENDBRANCH   6   7
ENDBRANCH   5   6
ENDBRANCH   4   5
ENDBRANCH   3   4
ENDBRANCH   2   3
ENDBRANCH   1   2
BRANCH   1  17
ATOM     17  C   UNL     1      58.922 155.693   4.957  1.00  0.00     0.000 C 
BRANCH  17  18
ATOM     18  C   UNL     1      57.999 155.974   6.159  1.00  0.00     0.000 C 
BRANCH  18  19
ATOM     19  C   UNL     1      58.603 155.644   7.536  1.00  0.00     0.000 C 
BRANCH  19  20
ATOM     20  C   UNL     1      60.139 155.559   7.514  1.00  0.00     0.000 C 
BRANCH  20  21
ATOM     21  C   UNL     1      60.695 154.701   8.670  1.00  0.00     0.000 C 
BRANCH  21  22
ATOM     22  C   UNL     1      61.981 153.937   8.315  1.00  0.00    -0.000 C 
BRANCH  22  23
ATOM     23  C   UNL     1      62.454 154.193   6.874  1.00  0.00    -0.000 C 
BRANCH  23  24
ATOM     24  C   UNL     1      63.700 153.361   6.508  1.00  0.00    -0.000 C 
BRANCH  24  25
ATOM     25  C   UNL     1      63.823 153.039   5.004  1.00  0.00    -0.000 C 
BRANCH  25  26
ATOM     26  C   UNL     1      64.997 152.105   4.650  1.00  0.00    -0.000 C 
BRANCH  26  27
ATOM     27  C   UNL     1      64.532 150.803   3.974  1.00  0.00    -0.000 C 
BRANCH  27  28
ATOM     28  C   UNL     1      65.103 149.548   4.653  1.00  0.00    -0.000 C 
BRANCH  28  29
ATOM     29  C   UNL     1      64.022 148.719   5.362  1.00  0.00    -0.003 C 
ATOM     30  C   UNL     1      63.372 149.517   6.489  1.00  0.00     0.004 C 
ENDBRANCH  28  29
ENDBRANCH  27  28
ENDBRANCH  26  27
ENDBRANCH  25  26
ENDBRANCH  24  25
ENDBRANCH  23  24
ENDBRANCH  22  23
ENDBRANCH  21  22
ENDBRANCH  20  21
ENDBRANCH  19  20
ENDBRANCH  18  19
ENDBRANCH  17  18
ENDBRANCH   1  17
TORSDOF 26
ENDMDL
MODEL 5
REMARK VINA RESULT:    -4.068      2.679      6.322
REMARK INTER + INTRA:         -14.411
REMARK INTER:                 -10.198
REMARK INTRA:                  -4.213
REMARK UNBOUND:                -4.161
REMARK SMILES CCCCCCCCCCCCCCCCCCCCCCCCCCCC(=O)[O-]
REMARK SMILES IDX 15 1 16 2 17 3 18 4 19 5 20 6 21 7 22 8 23 9 24 10 25 11
REMARK SMILES IDX 26 12 27 13 28 14 29 15 30 16 14 17 13 18 12 19 11 20 10 21
REMARK SMILES IDX 9 22 8 23 7 24 6 25 5 26 4 27 3 28 2 29 1 30
REMARK H PARENT
REMARK Flexibility Score: inf
ROOT
ATOM      1  C   UNL     1      65.000 150.392   3.885  1.00  0.00     0.000 C 
ENDROOT
BRANCH   1   2
ATOM      2  C   UNL     1      64.972 149.777   5.293  1.00  0.00     0.000 C 
BRANCH   2   3
ATOM      3  C   UNL     1      63.663 149.020   5.580  1.00  0.00     0.000 C 
BRANCH   3   4
ATOM      4  C   UNL     1      62.846 149.609   6.754  1.00  0.00     0.000 C 
BRANCH   4   5
ATOM      5  C   UNL     1      61.600 150.400   6.310  1.00  0.00     0.000 C 
BRANCH   5   6
ATOM      6  C   UNL     1      61.342 150.393   4.794  1.00  0.00     0.000 C 
BRANCH   6   7
ATOM      7  C   UNL     1      60.835 151.749   4.272  1.00  0.00     0.000 C 
BRANCH   7   8
ATOM      8  C   UNL     1      60.457 151.700   2.784  1.00  0.00     0.000 C 
BRANCH   8   9
ATOM      9  C   UNL     1      61.228 152.735   1.946  1.00  0.00     0.000 C 
BRANCH   9  10
ATOM     10  C   UNL     1      60.303 153.746   1.250  1.00  0.00     0.000 C 
BRANCH  10  11
ATOM     11  C   UNL     1      58.821 153.342   1.327  1.00  0.00     0.000 C 
BRANCH  11  12
ATOM     12  C   UNL     1      57.878 154.554   1.440  1.00  0.00     0.006 C 
BRANCH  12  13
ATOM     13  C   UNL     1      58.439 155.719   2.272  1.00  0.00     0.053 C 
BRANCH  13  14
ATOM     14  C   UNL     1      58.204 155.527   3.739  1.00  0.00     0.041 C 
ATOM     15  O   UNL     1      58.257 154.373   4.244  1.00  0.00    -0.550 OA
ATOM     16  O   UNL     1      57.875 156.613   4.538  1.00  0.00    -0.550 OA
ENDBRANCH  13  14
ENDBRANCH  12  13
ENDBRANCH  11  12
ENDBRANCH  10  11
ENDBRANCH   9  10
ENDBRANCH   8   9
ENDBRANCH   7   8
ENDBRANCH   6   7
ENDBRANCH   5   6
ENDBRANCH   4   5
ENDBRANCH   3   4
ENDBRANCH   2   3
ENDBRANCH   1   2
BRANCH   1  17
ATOM     17  C   UNL     1      64.438 151.823   3.898  1.00  0.00     0.000 C 
BRANCH  17  18
ATOM     18  C   UNL     1      64.745 152.578   5.205  1.00  0.00     0.000 C 
BRANCH  18  19
ATOM     19  C   UNL     1      63.510 152.997   6.023  1.00  0.00     0.000 C 
BRANCH  19  20
ATOM     20  C   UNL     1      63.709 154.323   6.777  1.00  0.00     0.000 C 
BRANCH  20  21
ATOM     21  C   UNL     1      62.386 154.884   7.339  1.00  0.00     0.000 C 
BRANCH  21  22
ATOM     22  C   UNL     1      61.248 153.851   7.399  1.00  0.00    -0.000 C 
BRANCH  22  23
ATOM     23  C   UNL     1      59.851 154.493   7.348  1.00  0.00    -0.000 C 
BRANCH  23  24
ATOM     24  C   UNL     1      58.734 153.496   7.717  1.00  0.00    -0.000 C 
BRANCH  24  25
ATOM     25  C   UNL     1      59.116 152.507   8.837  1.00  0.00    -0.000 C 
BRANCH  25  26
ATOM     26  C   UNL     1      58.406 151.142   8.748  1.00  0.00    -0.000 C 
BRANCH  26  27
ATOM     27  C   UNL     1      58.039 150.761   7.302  1.00  0.00    -0.000 C 
BRANCH  27  28
ATOM     28  C   UNL     1      58.151 149.251   7.043  1.00  0.00    -0.000 C 
BRANCH  28  29
ATOM     29  C   UNL     1      58.738 148.490   8.240  1.00  0.00    -0.003 C 
ATOM     30  C   UNL     1      59.839 147.532   7.793  1.00  0.00     0.004 C 
ENDBRANCH  28  29
ENDBRANCH  27  28
ENDBRANCH  26  27
ENDBRANCH  25  26
ENDBRANCH  24  25
ENDBRANCH  23  24
ENDBRANCH  22  23
ENDBRANCH  21  22
ENDBRANCH  20  21
ENDBRANCH  19  20
ENDBRANCH  18  19
ENDBRANCH  17  18
ENDBRANCH   1  17
TORSDOF 26
ENDMDL
MODEL 6
REMARK VINA RESULT:    -4.060      1.593      6.512
REMARK INTER + INTRA:         -14.391
REMARK INTER:                 -10.681
REMARK INTRA:                  -3.710
REMARK UNBOUND:                -4.161
REMARK SMILES CCCCCCCCCCCCCCCCCCCCCCCCCCCC(=O)[O-]
REMARK SMILES IDX 15 1 16 2 17 3 18 4 19 5 20 6 21 7 22 8 23 9 24 10 25 11
REMARK SMILES IDX 26 12 27 13 28 14 29 15 30 16 14 17 13 18 12 19 11 20 10 21
REMARK SMILES IDX 9 22 8 23 7 24 6 25 5 26 4 27 3 28 2 29 1 30
REMARK H PARENT
REMARK Flexibility Score: inf
ROOT
ATOM      1  C   UNL     1      60.127 152.346   2.816  1.00  0.00     0.000 C 
ENDROOT
BRANCH   1   2
ATOM      2  C   UNL     1      58.882 152.755   2.015  1.00  0.00     0.000 C 
BRANCH   2   3
ATOM      3  C   UNL     1      59.055 154.109   1.304  1.00  0.00     0.000 C 
BRANCH   3   4
ATOM      4  C   UNL     1      57.892 155.097   1.550  1.00  0.00     0.000 C 
BRANCH   4   5
ATOM      5  C   UNL     1      58.109 156.026   2.760  1.00  0.00     0.000 C 
BRANCH   5   6
ATOM      6  C   UNL     1      57.875 155.363   4.127  1.00  0.00     0.000 C 
BRANCH   6   7
ATOM      7  C   UNL     1      58.258 156.278   5.304  1.00  0.00     0.000 C 
BRANCH   7   8
ATOM      8  C   UNL     1      59.221 155.596   6.288  1.00  0.00     0.000 C 
BRANCH   8   9
ATOM      9  C   UNL     1      60.532 156.382   6.469  1.00  0.00     0.000 C 
BRANCH   9  10
ATOM     10  C   UNL     1      61.510 155.694   7.435  1.00  0.00     0.000 C 
BRANCH  10  11
ATOM     11  C   UNL     1      61.629 154.182   7.178  1.00  0.00     0.000 C 
BRANCH  11  12
ATOM     12  C   UNL     1      63.069 153.743   6.856  1.00  0.00     0.006 C 
BRANCH  12  13
ATOM     13  C   UNL     1      63.177 152.683   5.749  1.00  0.00     0.053 C 
BRANCH  13  14
ATOM     14  C   UNL     1      64.533 152.669   5.111  1.00  0.00     0.041 C 
ATOM     15  O   UNL     1      64.645 152.526   3.864  1.00  0.00    -0.550 OA
ATOM     16  O   UNL     1      65.672 152.760   5.899  1.00  0.00    -0.550 OA
ENDBRANCH  13  14
ENDBRANCH  12  13
ENDBRANCH  11  12
ENDBRANCH  10  11
ENDBRANCH   9  10
ENDBRANCH   8   9
ENDBRANCH   7   8
ENDBRANCH   6   7
ENDBRANCH   5   6
ENDBRANCH   4   5
ENDBRANCH   3   4
ENDBRANCH   2   3
ENDBRANCH   1   2
BRANCH   1  17
ATOM     17  C   UNL     1      60.082 152.930   4.238  1.00  0.00     0.000 C 
BRANCH  17  18
ATOM     18  C   UNL     1      59.565 151.924   5.285  1.00  0.00     0.000 C 
BRANCH  18  19
ATOM     19  C   UNL     1      58.091 152.106   5.693  1.00  0.00     0.000 C 
BRANCH  19  20
ATOM     20  C   UNL     1      57.916 152.424   7.188  1.00  0.00     0.000 C 
BRANCH  20  21
ATOM     21  C   UNL     1      58.733 151.474   8.089  1.00  0.00     0.000 C 
BRANCH  21  22
ATOM     22  C   UNL     1      57.997 150.174   8.453  1.00  0.00    -0.000 C 
BRANCH  22  23
ATOM     23  C   UNL     1      58.307 149.017   7.487  1.00  0.00    -0.000 C 
BRANCH  23  24
ATOM     24  C   UNL     1      59.386 148.064   8.041  1.00  0.00    -0.000 C 
BRANCH  24  25
ATOM     25  C   UNL     1      60.667 147.998   7.185  1.00  0.00    -0.000 C 
BRANCH  25  26
ATOM     26  C   UNL     1      61.277 149.374   6.849  1.00  0.00    -0.000 C 
BRANCH  26  27
ATOM     27  C   UNL     1      62.817 149.350   6.843  1.00  0.00    -0.000 C 
BRANCH  27  28
ATOM     28  C   UNL     1      63.394 148.833   5.516  1.00  0.00    -0.000 C 
BRANCH  28  29
ATOM     29  C   UNL     1      64.908 149.058   5.405  1.00  0.00    -0.003 C 
ATOM     30  C   UNL     1      65.334 149.208   3.948  1.00  0.00     0.004 C 
ENDBRANCH  28  29
ENDBRANCH  27  28
ENDBRANCH  26  27
ENDBRANCH  25  26
ENDBRANCH  24  25
ENDBRANCH  23  24
ENDBRANCH  22  23
ENDBRANCH  21  22
ENDBRANCH  20  21
ENDBRANCH  19  20
ENDBRANCH  18  19
ENDBRANCH  17  18
ENDBRANCH   1  17
TORSDOF 26
ENDMDL
MODEL 7
REMARK VINA RESULT:    -3.683      2.258      6.164
REMARK INTER + INTRA:         -13.441
REMARK INTER:                 -10.194
REMARK INTRA:                  -3.247
REMARK UNBOUND:                -4.161
REMARK SMILES CCCCCCCCCCCCCCCCCCCCCCCCCCCC(=O)[O-]
REMARK SMILES IDX 15 1 16 2 17 3 18 4 19 5 20 6 21 7 22 8 23 9 24 10 25 11
REMARK SMILES IDX 26 12 27 13 28 14 29 15 30 16 14 17 13 18 12 19 11 20 10 21
REMARK SMILES IDX 9 22 8 23 7 24 6 25 5 26 4 27 3 28 2 29 1 30
REMARK H PARENT
REMARK Flexibility Score: inf
ROOT
ATOM      1  C   UNL     1      58.939 154.280   3.869  1.00  0.00     0.000 C 
ENDROOT
BRANCH   1   2
ATOM      2  C   UNL     1      58.179 155.455   3.235  1.00  0.00     0.000 C 
BRANCH   2   3
ATOM      3  C   UNL     1      57.902 155.238   1.736  1.00  0.00     0.000 C 
BRANCH   3   4
ATOM      4  C   UNL     1      58.489 153.922   1.176  1.00  0.00     0.000 C 
BRANCH   4   5
ATOM      5  C   UNL     1      59.674 154.128   0.214  1.00  0.00     0.000 C 
BRANCH   5   6
ATOM      6  C   UNL     1      61.013 153.564   0.716  1.00  0.00     0.000 C 
BRANCH   6   7
ATOM      7  C   UNL     1      60.941 153.071   2.173  1.00  0.00     0.000 C 
BRANCH   7   8
ATOM      8  C   UNL     1      61.153 151.554   2.289  1.00  0.00     0.000 C 
BRANCH   8   9
ATOM      9  C   UNL     1      61.966 151.167   3.538  1.00  0.00     0.000 C 
BRANCH   9  10
ATOM     10  C   UNL     1      61.080 150.902   4.766  1.00  0.00     0.000 C 
BRANCH  10  11
ATOM     11  C   UNL     1      61.887 150.833   6.073  1.00  0.00     0.000 C 
BRANCH  11  12
ATOM     12  C   UNL     1      61.900 149.423   6.693  1.00  0.00     0.006 C 
BRANCH  12  13
ATOM     13  C   UNL     1      60.825 148.477   6.136  1.00  0.00     0.053 C 
BRANCH  13  14
ATOM     14  C   UNL     1      60.101 147.743   7.224  1.00  0.00     0.041 C 
ATOM     15  O   UNL     1      59.520 148.383   8.141  1.00  0.00    -0.550 OA
ATOM     16  O   UNL     1      60.116 146.356   7.256  1.00  0.00    -0.550 OA
ENDBRANCH  13  14
ENDBRANCH  12  13
ENDBRANCH  11  12
ENDBRANCH  10  11
ENDBRANCH   9  10
ENDBRANCH   8   9
ENDBRANCH   7   8
ENDBRANCH   6   7
ENDBRANCH   5   6
ENDBRANCH   4   5
ENDBRANCH   3   4
ENDBRANCH   2   3
ENDBRANCH   1   2
BRANCH   1  17
ATOM     17  C   UNL     1      58.647 154.184   5.375  1.00  0.00     0.000 C 
BRANCH  17  18
ATOM     18  C   UNL     1      57.875 152.906   5.757  1.00  0.00     0.000 C 
BRANCH  18  19
ATOM     19  C   UNL     1      58.599 151.978   6.750  1.00  0.00     0.000 C 
BRANCH  19  20
ATOM     20  C   UNL     1      58.669 152.559   8.173  1.00  0.00     0.000 C 
BRANCH  20  21
ATOM     21  C   UNL     1      59.812 151.939   9.004  1.00  0.00     0.000 C 
BRANCH  21  22
ATOM     22  C   UNL     1      61.099 152.780   9.018  1.00  0.00    -0.000 C 
BRANCH  22  23
ATOM     23  C   UNL     1      61.017 154.019   8.110  1.00  0.00    -0.000 C 
BRANCH  23  24
ATOM     24  C   UNL     1      62.333 154.822   8.092  1.00  0.00    -0.000 C 
BRANCH  24  25
ATOM     25  C   UNL     1      63.154 154.657   6.797  1.00  0.00    -0.000 C 
BRANCH  25  26
ATOM     26  C   UNL     1      64.012 153.377   6.748  1.00  0.00    -0.000 C 
BRANCH  26  27
ATOM     27  C   UNL     1      64.414 152.991   5.313  1.00  0.00    -0.000 C 
BRANCH  27  28
ATOM     28  C   UNL     1      65.458 151.863   5.276  1.00  0.00    -0.000 C 
BRANCH  28  29
ATOM     29  C   UNL     1      64.972 150.638   4.489  1.00  0.00    -0.003 C 
ATOM     30  C   UNL     1      65.289 149.346   5.237  1.00  0.00     0.004 C 
ENDBRANCH  28  29
ENDBRANCH  27  28
ENDBRANCH  26  27
ENDBRANCH  25  26
ENDBRANCH  24  25
ENDBRANCH  23  24
ENDBRANCH  22  23
ENDBRANCH  21  22
ENDBRANCH  20  21
ENDBRANCH  19  20
ENDBRANCH  18  19
ENDBRANCH  17  18
ENDBRANCH   1  17
TORSDOF 26
ENDMDL
MODEL 8
REMARK VINA RESULT:    -3.575      2.183      6.215
REMARK INTER + INTRA:         -13.169
REMARK INTER:                 -10.532
REMARK INTRA:                  -2.637
REMARK UNBOUND:                -4.161
REMARK SMILES CCCCCCCCCCCCCCCCCCCCCCCCCCCC(=O)[O-]
REMARK SMILES IDX 15 1 16 2 17 3 18 4 19 5 20 6 21 7 22 8 23 9 24 10 25 11
REMARK SMILES IDX 26 12 27 13 28 14 29 15 30 16 14 17 13 18 12 19 11 20 10 21
REMARK SMILES IDX 9 22 8 23 7 24 6 25 5 26 4 27 3 28 2 29 1 30
REMARK H PARENT
REMARK Flexibility Score: inf
ROOT
ATOM      1  C   UNL     1      62.756 149.194   6.895  1.00  0.00     0.000 C 
ENDROOT
BRANCH   1   2
ATOM      2  C   UNL     1      63.949 150.035   6.416  1.00  0.00     0.000 C 
BRANCH   2   3
ATOM      3  C   UNL     1      65.064 149.177   5.791  1.00  0.00     0.000 C 
BRANCH   3   4
ATOM      4  C   UNL     1      64.969 149.055   4.252  1.00  0.00     0.000 C 
BRANCH   4   5
ATOM      5  C   UNL     1      65.018 150.408   3.517  1.00  0.00     0.000 C 
BRANCH   5   6
ATOM      6  C   UNL     1      64.269 151.550   4.224  1.00  0.00     0.000 C 
BRANCH   6   7
ATOM      7  C   UNL     1      62.922 151.880   3.556  1.00  0.00     0.000 C 
BRANCH   7   8
ATOM      8  C   UNL     1      61.803 152.123   4.581  1.00  0.00     0.000 C 
BRANCH   8   9
ATOM      9  C   UNL     1      60.418 151.712   4.050  1.00  0.00     0.000 C 
BRANCH   9  10
ATOM     10  C   UNL     1      59.320 152.729   4.401  1.00  0.00     0.000 C 
BRANCH  10  11
ATOM     11  C   UNL     1      59.212 153.861   3.365  1.00  0.00     0.000 C 
BRANCH  11  12
ATOM     12  C   UNL     1      58.743 153.363   1.985  1.00  0.00     0.006 C 
BRANCH  12  13
ATOM     13  C   UNL     1      59.281 154.181   0.800  1.00  0.00     0.053 C 
BRANCH  13  14
ATOM     14  C   UNL     1      60.682 153.791   0.437  1.00  0.00     0.041 C 
ATOM     15  O   UNL     1      61.324 152.986   1.163  1.00  0.00    -0.550 OA
ATOM     16  O   UNL     1      61.295 154.359  -0.671  1.00  0.00    -0.550 OA
ENDBRANCH  13  14
ENDBRANCH  12  13
ENDBRANCH  11  12
ENDBRANCH  10  11
ENDBRANCH   9  10
ENDBRANCH   8   9
ENDBRANCH   7   8
ENDBRANCH   6   7
ENDBRANCH   5   6
ENDBRANCH   4   5
ENDBRANCH   3   4
ENDBRANCH   2   3
ENDBRANCH   1   2
BRANCH   1  17
ATOM     17  C   UNL     1      62.006 148.575   5.704  1.00  0.00     0.000 C 
BRANCH  17  18
ATOM     18  C   UNL     1      60.973 147.514   6.130  1.00  0.00     0.000 C 
BRANCH  18  19
ATOM     19  C   UNL     1      60.547 147.573   7.609  1.00  0.00     0.000 C 
BRANCH  19  20
ATOM     20  C   UNL     1      59.020 147.569   7.795  1.00  0.00     0.000 C 
BRANCH  20  21
ATOM     21  C   UNL     1      58.587 148.257   9.107  1.00  0.00     0.000 C 
BRANCH  21  22
ATOM     22  C   UNL     1      58.081 149.696   8.917  1.00  0.00    -0.000 C 
BRANCH  22  23
ATOM     23  C   UNL     1      58.371 150.254   7.513  1.00  0.00    -0.000 C 
BRANCH  23  24
ATOM     24  C   UNL     1      58.806 151.734   7.549  1.00  0.00    -0.000 C 
BRANCH  24  25
ATOM     25  C   UNL     1      60.234 151.958   8.086  1.00  0.00    -0.000 C 
BRANCH  25  26
ATOM     26  C   UNL     1      60.569 153.429   8.403  1.00  0.00    -0.000 C 
BRANCH  26  27
ATOM     27  C   UNL     1      61.236 154.151   7.217  1.00  0.00    -0.000 C 
BRANCH  27  28
ATOM     28  C   UNL     1      60.682 155.567   7.001  1.00  0.00    -0.000 C 
BRANCH  28  29
ATOM     29  C   UNL     1      59.279 155.748   7.598  1.00  0.00    -0.003 C 
ATOM     30  C   UNL     1      58.202 155.558   6.534  1.00  0.00     0.004 C 
ENDBRANCH  28  29
ENDBRANCH  27  28
ENDBRANCH  26  27
ENDBRANCH  25  26
ENDBRANCH  24  25
ENDBRANCH  23  24
ENDBRANCH  22  23
ENDBRANCH  21  22
ENDBRANCH  20  21
ENDBRANCH  19  20
ENDBRANCH  18  19
ENDBRANCH  17  18
ENDBRANCH   1  17
TORSDOF 26
ENDMDL
