MODEL 1
REMARK VINA RESULT:    -4.054      0.000      0.000
REMARK INTER + INTRA:          -5.193
REMARK INTER:                  -5.002
REMARK INTRA:                  -0.190
REMARK UNBOUND:                -0.190
REMARK SMILES CCCCC=CC(C)=O
REMARK SMILES IDX 4 1 3 2 2 3 1 4 5 5 6 6 7 7 9 8 8 9
REMARK H PARENT
REMARK Flexibility Score: inf
ROOT
ATOM      1  C   UNL     1      -7.470  -2.037   8.452  1.00  0.00     0.027 C 
ENDROOT
BRANCH   1   2
ATOM      2  C   UNL     1      -8.091  -1.775   9.828  1.00  0.00     0.004 C 
BRANCH   2   3
ATOM      3  C   UNL     1      -8.533  -0.313   9.961  1.00  0.00    -0.003 C 
ATOM      4  C   UNL     1      -9.773  -0.032   9.117  1.00  0.00     0.004 C 
ENDBRANCH   2   3
ENDBRANCH   1   2
BRANCH   1   5
ATOM      5  C   UNL     1      -6.161  -2.764   8.575  1.00  0.00    -0.023 C 
ATOM      6  C   UNL     1      -5.806  -3.377   9.709  1.00  0.00     0.042 C 
BRANCH   6   7
ATOM      7  C   UNL     1      -4.521  -4.086   9.855  1.00  0.00     0.152 C 
ATOM      8  O   UNL     1      -4.278  -4.776  10.882  1.00  0.00    -0.295 OA
ATOM      9  C   UNL     1      -3.492  -3.984   8.775  1.00  0.00     0.093 C 
ENDBRANCH   6   7
ENDBRANCH   1   5
TORSDOF 4
ENDMDL
MODEL 2
REMARK VINA RESULT:    -4.033      1.427      1.673
REMARK INTER + INTRA:          -5.166
REMARK INTER:                  -5.005
REMARK INTRA:                  -0.161
REMARK UNBOUND:                -0.190
REMARK SMILES CCCCC=CC(C)=O
REMARK SMILES IDX 4 1 3 2 2 3 1 4 5 5 6 6 7 7 9 8 8 9
REMARK H PARENT
REMARK Flexibility Score: inf
ROOT
ATOM      1  C   UNL     1      -7.628  -2.047  10.203  1.00  0.00     0.027 C 
ENDROOT
BRANCH   1   2
ATOM      2  C   UNL     1      -7.874  -0.547  10.003  1.00  0.00     0.004 C 
BRANCH   2   3
ATOM      3  C   UNL     1      -9.372  -0.248   9.877  1.00  0.00    -0.003 C 
ATOM      4  C   UNL     1      -9.742   0.125   8.444  1.00  0.00     0.004 C 
ENDBRANCH   2   3
ENDBRANCH   1   2
BRANCH   1   5
ATOM      5  C   UNL     1      -6.831  -2.625   9.068  1.00  0.00    -0.023 C 
ATOM      6  C   UNL     1      -5.786  -3.430   9.288  1.00  0.00     0.042 C 
BRANCH   6   7
ATOM      7  C   UNL     1      -4.983  -3.998   8.190  1.00  0.00     0.152 C 
ATOM      8  O   UNL     1      -3.744  -4.187   8.328  1.00  0.00    -0.295 OA
ATOM      9  C   UNL     1      -5.643  -4.353   6.897  1.00  0.00     0.093 C 
ENDBRANCH   6   7
ENDBRANCH   1   5
TORSDOF 4
ENDMDL
MODEL 3
REMARK VINA RESULT:    -4.004      1.043      1.794
REMARK INTER + INTRA:          -5.131
REMARK INTER:                  -4.846
REMARK INTRA:                  -0.285
REMARK UNBOUND:                -0.190
REMARK SMILES CCCCC=CC(C)=O
REMARK SMILES IDX 4 1 3 2 2 3 1 4 5 5 6 6 7 7 9 8 8 9
REMARK H PARENT
REMARK Flexibility Score: inf
ROOT
ATOM      1  C   UNL     1      -7.705  -1.803   9.964  1.00  0.00     0.027 C 
ENDROOT
BRANCH   1   2
ATOM      2  C   UNL     1      -8.102  -0.914   8.780  1.00  0.00     0.004 C 
BRANCH   2   3
ATOM      3  C   UNL     1      -7.181  -1.157   7.579  1.00  0.00    -0.003 C 
ATOM      4  C   UNL     1      -7.895  -1.952   6.489  1.00  0.00     0.004 C 
ENDBRANCH   2   3
ENDBRANCH   1   2
BRANCH   1   5
ATOM      5  C   UNL     1      -6.291  -2.291   9.830  1.00  0.00    -0.023 C 
ATOM      6  C   UNL     1      -5.956  -3.552  10.123  1.00  0.00     0.042 C 
BRANCH   6   7
ATOM      7  C   UNL     1      -4.572  -4.048  10.010  1.00  0.00     0.152 C 
ATOM      8  O   UNL     1      -4.125  -4.904  10.821  1.00  0.00    -0.295 OA
ATOM      9  C   UNL     1      -3.686  -3.529   8.924  1.00  0.00     0.093 C 
ENDBRANCH   6   7
ENDBRANCH   1   5
TORSDOF 4
ENDMDL
MODEL 4
REMARK VINA RESULT:    -4.000      1.808      2.418
REMARK INTER + INTRA:          -5.126
REMARK INTER:                  -4.846
REMARK INTRA:                  -0.280
REMARK UNBOUND:                -0.190
REMARK SMILES CCCCC=CC(C)=O
REMARK SMILES IDX 4 1 3 2 2 3 1 4 5 5 6 6 7 7 9 8 8 9
REMARK H PARENT
REMARK Flexibility Score: inf
ROOT
ATOM      1  C   UNL     1      -8.645  -1.257   6.386  1.00  0.00     0.027 C 
ENDROOT
BRANCH   1   2
ATOM      2  C   UNL     1      -8.493  -0.044   7.312  1.00  0.00     0.004 C 
BRANCH   2   3
ATOM      3  C   UNL     1      -9.729   0.125   8.202  1.00  0.00    -0.003 C 
ATOM      4  C   UNL     1      -9.428  -0.272   9.645  1.00  0.00     0.004 C 
ENDBRANCH   2   3
ENDBRANCH   1   2
BRANCH   1   5
ATOM      5  C   UNL     1      -7.527  -2.240   6.587  1.00  0.00    -0.023 C 
ATOM      6  C   UNL     1      -7.129  -2.604   7.811  1.00  0.00     0.042 C 
BRANCH   6   7
ATOM      7  C   UNL     1      -6.026  -3.558   8.031  1.00  0.00     0.152 C 
ATOM      8  O   UNL     1      -5.443  -3.623   9.147  1.00  0.00    -0.295 OA
ATOM      9  C   UNL     1      -5.593  -4.457   6.919  1.00  0.00     0.093 C 
ENDBRANCH   6   7
ENDBRANCH   1   5
TORSDOF 4
ENDMDL
MODEL 5
REMARK VINA RESULT:    -3.999      2.480      4.930
REMARK INTER + INTRA:          -5.124
REMARK INTER:                  -4.866
REMARK INTRA:                  -0.258
REMARK UNBOUND:                -0.190
REMARK SMILES CCCCC=CC(C)=O
REMARK SMILES IDX 4 1 3 2 2 3 1 4 5 5 6 6 7 7 9 8 8 9
REMARK H PARENT
REMARK Flexibility Score: inf
ROOT
ATOM      1  C   UNL     1      -6.120  -3.190   9.899  1.00  0.00     0.027 C 
ENDROOT
BRANCH   1   2
ATOM      2  C   UNL     1      -5.219  -2.959   8.680  1.00  0.00     0.004 C 
BRANCH   2   3
ATOM      3  C   UNL     1      -5.481  -4.010   7.596  1.00  0.00    -0.003 C 
ATOM      4  C   UNL     1      -6.381  -3.455   6.495  1.00  0.00     0.004 C 
ENDBRANCH   2   3
ENDBRANCH   1   2
BRANCH   1   5
ATOM      5  C   UNL     1      -6.970  -1.985  10.185  1.00  0.00    -0.023 C 
ATOM      6  C   UNL     1      -8.035  -1.687   9.432  1.00  0.00     0.042 C 
BRANCH   6   7
ATOM      7  C   UNL     1      -8.876  -0.503   9.688  1.00  0.00     0.152 C 
ATOM      8  O   UNL     1      -8.792   0.124  10.778  1.00  0.00    -0.295 OA
ATOM      9  C   UNL     1      -9.842  -0.042   8.645  1.00  0.00     0.093 C 
ENDBRANCH   6   7
ENDBRANCH   1   5
TORSDOF 4
ENDMDL
MODEL 6
REMARK VINA RESULT:    -3.994      1.979      2.381
REMARK INTER + INTRA:          -5.118
REMARK INTER:                  -4.925
REMARK INTRA:                  -0.194
REMARK UNBOUND:                -0.190
REMARK SMILES CCCCC=CC(C)=O
REMARK SMILES IDX 4 1 3 2 2 3 1 4 5 5 6 6 7 7 9 8 8 9
REMARK H PARENT
REMARK Flexibility Score: inf
ROOT
ATOM      1  C   UNL     1      -7.095  -2.820   6.730  1.00  0.00     0.027 C 
ENDROOT
BRANCH   1   2
ATOM      2  C   UNL     1      -7.583  -1.613   7.540  1.00  0.00     0.004 C 
BRANCH   2   3
ATOM      3  C   UNL     1      -8.110  -0.510   6.616  1.00  0.00    -0.003 C 
ATOM      4  C   UNL     1      -9.011  -1.086   5.526  1.00  0.00     0.004 C 
ENDBRANCH   2   3
ENDBRANCH   1   2
BRANCH   1   5
ATOM      5  C   UNL     1      -6.022  -3.572   7.466  1.00  0.00    -0.023 C 
ATOM      6  C   UNL     1      -5.336  -3.010   8.466  1.00  0.00     0.042 C 
BRANCH   6   7
ATOM      7  C   UNL     1      -4.271  -3.725   9.193  1.00  0.00     0.152 C 
ATOM      8  O   UNL     1      -3.124  -3.862   8.686  1.00  0.00    -0.295 OA
ATOM      9  C   UNL     1      -4.553  -4.297  10.545  1.00  0.00     0.093 C 
ENDBRANCH   6   7
ENDBRANCH   1   5
TORSDOF 4
ENDMDL
MODEL 7
REMARK VINA RESULT:    -3.917      1.250      1.513
REMARK INTER + INTRA:          -5.023
REMARK INTER:                  -4.872
REMARK INTRA:                  -0.151
REMARK UNBOUND:                -0.190
REMARK SMILES CCCCC=CC(C)=O
REMARK SMILES IDX 4 1 3 2 2 3 1 4 5 5 6 6 7 7 9 8 8 9
REMARK H PARENT
REMARK Flexibility Score: inf
ROOT
ATOM      1  C   UNL     1      -7.329  -2.154   7.385  1.00  0.00     0.027 C 
ENDROOT
BRANCH   1   2
ATOM      2  C   UNL     1      -7.419  -0.916   8.284  1.00  0.00     0.004 C 
BRANCH   2   3
ATOM      3  C   UNL     1      -8.319  -1.182   9.495  1.00  0.00    -0.003 C 
ATOM      4  C   UNL     1      -9.543  -0.269   9.484  1.00  0.00     0.004 C 
ENDBRANCH   2   3
ENDBRANCH   1   2
BRANCH   1   5
ATOM      5  C   UNL     1      -6.364  -3.163   7.940  1.00  0.00    -0.023 C 
ATOM      6  C   UNL     1      -5.255  -2.786   8.585  1.00  0.00     0.042 C 
BRANCH   6   7
ATOM      7  C   UNL     1      -4.288  -3.759   9.128  1.00  0.00     0.152 C 
ATOM      8  O   UNL     1      -3.313  -4.154   8.434  1.00  0.00    -0.295 OA
ATOM      9  C   UNL     1      -4.467  -4.285  10.515  1.00  0.00     0.093 C 
ENDBRANCH   6   7
ENDBRANCH   1   5
TORSDOF 4
ENDMDL
MODEL 8
REMARK VINA RESULT:    -3.867      2.010      4.788
REMARK INTER + INTRA:          -4.961
REMARK INTER:                  -4.782
REMARK INTRA:                  -0.179
REMARK UNBOUND:                -0.190
REMARK SMILES CCCCC=CC(C)=O
REMARK SMILES IDX 4 1 3 2 2 3 1 4 5 5 6 6 7 7 9 8 8 9
REMARK H PARENT
REMARK Flexibility Score: inf
ROOT
ATOM      1  C   UNL     1      -6.348  -3.704   7.621  1.00  0.00     0.027 C 
ENDROOT
BRANCH   1   2
ATOM      2  C   UNL     1      -4.911  -4.153   7.910  1.00  0.00     0.004 C 
BRANCH   2   3
ATOM      3  C   UNL     1      -4.334  -3.404   9.116  1.00  0.00    -0.003 C 
ATOM      4  C   UNL     1      -4.255  -4.310  10.342  1.00  0.00     0.004 C 
ENDBRANCH   2   3
ENDBRANCH   1   2
BRANCH   1   5
ATOM      5  C   UNL     1      -6.646  -2.381   8.267  1.00  0.00    -0.023 C 
ATOM      6  C   UNL     1      -7.673  -2.232   9.111  1.00  0.00     0.042 C 
BRANCH   6   7
ATOM      7  C   UNL     1      -7.991  -0.940   9.746  1.00  0.00     0.152 C 
ATOM      8  O   UNL     1      -7.122  -0.321  10.419  1.00  0.00    -0.295 OA
ATOM      9  C   UNL     1      -9.358  -0.357   9.595  1.00  0.00     0.093 C 
ENDBRANCH   6   7
ENDBRANCH   1   5
TORSDOF 4
ENDMDL
MODEL 9
REMARK VINA RESULT:    -3.840      3.069      5.333
REMARK INTER + INTRA:          -4.928
REMARK INTER:                  -4.707
REMARK INTRA:                  -0.222
REMARK UNBOUND:                -0.190
REMARK SMILES CCCCC=CC(C)=O
REMARK SMILES IDX 4 1 3 2 2 3 1 4 5 5 6 6 7 7 9 8 8 9
REMARK H PARENT
REMARK Flexibility Score: inf
ROOT
ATOM      1  C   UNL     1      -5.902  -3.774   7.678  1.00  0.00     0.027 C 
ENDROOT
BRANCH   1   2
ATOM      2  C   UNL     1      -5.944  -3.316   9.141  1.00  0.00     0.004 C 
BRANCH   2   3
ATOM      3  C   UNL     1      -4.567  -3.457   9.800  1.00  0.00    -0.003 C 
ATOM      4  C   UNL     1      -3.548  -4.047   8.828  1.00  0.00     0.004 C 
ENDBRANCH   2   3
ENDBRANCH   1   2
BRANCH   1   5
ATOM      5  C   UNL     1      -6.874  -2.999   6.836  1.00  0.00    -0.023 C 
ATOM      6  C   UNL     1      -7.499  -1.915   7.309  1.00  0.00     0.042 C 
BRANCH   6   7
ATOM      7  C   UNL     1      -8.466  -1.147   6.504  1.00  0.00     0.152 C 
ATOM      8  O   UNL     1      -8.817  -1.548   5.361  1.00  0.00    -0.295 OA
ATOM      9  C   UNL     1      -9.036   0.124   7.045  1.00  0.00     0.093 C 
ENDBRANCH   6   7
ENDBRANCH   1   5
TORSDOF 4
ENDMDL
