MODEL 1
REMARK VINA RESULT:     4.949      0.000      0.000
REMARK INTER + INTRA:           8.115
REMARK INTER:                   8.711
REMARK INTRA:                  -0.595
REMARK UNBOUND:                -0.595
REMARK SMILES CCCCCCCCCCCCCCC(=O)[O-]
REMARK SMILES IDX 9 1 10 2 11 3 12 4 13 5 14 6 15 7 16 8 17 9 8 10 7 11 6 12
REMARK SMILES IDX 5 13 4 14 3 15 2 16 1 17
REMARK H PARENT
REMARK Flexibility Score: inf
ROOT
ATOM      1  C   UNL     1     -18.509  64.445  -0.238  1.00  0.00     0.000 C 
ENDROOT
BRANCH   1   2
ATOM      2  C   UNL     1     -17.922  63.033  -0.069  1.00  0.00     0.000 C 
BRANCH   2   3
ATOM      3  C   UNL     1     -16.570  62.869  -0.783  1.00  0.00     0.000 C 
BRANCH   3   4
ATOM      4  C   UNL     1     -16.579  61.735  -1.822  1.00  0.00     0.000 C 
BRANCH   4   5
ATOM      5  C   UNL     1     -15.175  61.364  -2.346  1.00  0.00     0.006 C 
BRANCH   5   6
ATOM      6  C   UNL     1     -14.455  60.372  -1.423  1.00  0.00     0.053 C 
BRANCH   6   7
ATOM      7  C   UNL     1     -13.035  60.792  -1.208  1.00  0.00     0.041 C 
ATOM      8  O   UNL     1     -12.381  60.341  -0.232  1.00  0.00    -0.550 OA
ATOM      9  O   UNL     1     -12.418  61.643  -2.117  1.00  0.00    -0.550 OA
ENDBRANCH   6   7
ENDBRANCH   5   6
ENDBRANCH   4   5
ENDBRANCH   3   4
ENDBRANCH   2   3
ENDBRANCH   1   2
BRANCH   1  10
ATOM     10  C   UNL     1     -20.041  64.433  -0.374  1.00  0.00     0.000 C 
BRANCH  10  11
ATOM     11  C   UNL     1     -20.554  63.210  -1.151  1.00  0.00    -0.000 C 
BRANCH  11  12
ATOM     12  C   UNL     1     -19.890  63.063  -2.531  1.00  0.00    -0.000 C 
BRANCH  12  13
ATOM     13  C   UNL     1     -19.608  61.598  -2.899  1.00  0.00    -0.000 C 
BRANCH  13  14
ATOM     14  C   UNL     1     -20.621  60.626  -2.274  1.00  0.00    -0.000 C 
BRANCH  14  15
ATOM     15  C   UNL     1     -21.570  60.061  -3.342  1.00  0.00    -0.000 C 
BRANCH  15  16
ATOM     16  C   UNL     1     -20.920  59.991  -4.733  1.00  0.00    -0.003 C 
ATOM     17  C   UNL     1     -21.779  59.242  -5.751  1.00  0.00     0.004 C 
ENDBRANCH  15  16
ENDBRANCH  14  15
ENDBRANCH  13  14
ENDBRANCH  12  13
ENDBRANCH  11  12
ENDBRANCH  10  11
ENDBRANCH   1  10
TORSDOF 13
ENDMDL
MODEL 2
REMARK VINA RESULT:     5.490      3.650      6.622
REMARK INTER + INTRA:           9.067
REMARK INTER:                   9.636
REMARK INTRA:                  -0.569
REMARK UNBOUND:                -0.595
REMARK SMILES CCCCCCCCCCCCCCC(=O)[O-]
REMARK SMILES IDX 9 1 10 2 11 3 12 4 13 5 14 6 15 7 16 8 17 9 8 10 7 11 6 12
REMARK SMILES IDX 5 13 4 14 3 15 2 16 1 17
REMARK H PARENT
REMARK Flexibility Score: inf
ROOT
ATOM      1  C   UNL     1     -20.286  63.771  -0.715  1.00  0.00     0.000 C 
ENDROOT
BRANCH   1   2
ATOM      2  C   UNL     1     -20.532  62.295  -0.362  1.00  0.00     0.000 C 
BRANCH   2   3
ATOM      3  C   UNL     1     -20.776  61.425  -1.607  1.00  0.00     0.000 C 
BRANCH   3   4
ATOM      4  C   UNL     1     -19.624  61.501  -2.622  1.00  0.00     0.000 C 
BRANCH   4   5
ATOM      5  C   UNL     1     -19.894  60.720  -3.926  1.00  0.00     0.006 C 
BRANCH   5   6
ATOM      6  C   UNL     1     -21.312  60.132  -3.966  1.00  0.00     0.053 C 
BRANCH   6   7
ATOM      7  C   UNL     1     -21.583  59.508  -5.298  1.00  0.00     0.041 C 
ATOM      8  O   UNL     1     -20.694  58.828  -5.873  1.00  0.00    -0.550 OA
ATOM      9  O   UNL     1     -22.838  59.636  -5.882  1.00  0.00    -0.550 OA
ENDBRANCH   6   7
ENDBRANCH   5   6
ENDBRANCH   4   5
ENDBRANCH   3   4
ENDBRANCH   2   3
ENDBRANCH   1   2
BRANCH   1  10
ATOM     10  C   UNL     1     -18.810  64.176  -0.556  1.00  0.00     0.000 C 
BRANCH  10  11
ATOM     11  C   UNL     1     -17.918  62.999  -0.132  1.00  0.00    -0.000 C 
BRANCH  11  12
ATOM     12  C   UNL     1     -16.588  62.953  -0.904  1.00  0.00    -0.000 C 
BRANCH  12  13
ATOM     13  C   UNL     1     -16.541  61.815  -1.935  1.00  0.00    -0.000 C 
BRANCH  13  14
ATOM     14  C   UNL     1     -15.279  60.949  -1.803  1.00  0.00    -0.000 C 
BRANCH  14  15
ATOM     15  C   UNL     1     -14.105  61.567  -2.579  1.00  0.00    -0.000 C 
BRANCH  15  16
ATOM     16  C   UNL     1     -12.749  61.301  -1.907  1.00  0.00    -0.003 C 
ATOM     17  C   UNL     1     -12.851  60.330  -0.731  1.00  0.00     0.004 C 
ENDBRANCH  15  16
ENDBRANCH  14  15
ENDBRANCH  13  14
ENDBRANCH  12  13
ENDBRANCH  11  12
ENDBRANCH  10  11
ENDBRANCH   1  10
TORSDOF 13
ENDMDL
MODEL 3
REMARK VINA RESULT:     5.841      4.505      5.263
REMARK INTER + INTRA:           9.684
REMARK INTER:                  10.291
REMARK INTRA:                  -0.606
REMARK UNBOUND:                -0.595
REMARK SMILES CCCCCCCCCCCCCCC(=O)[O-]
REMARK SMILES IDX 9 1 10 2 11 3 12 4 13 5 14 6 15 7 16 8 17 9 8 10 7 11 6 12
REMARK SMILES IDX 5 13 4 14 3 15 2 16 1 17
REMARK H PARENT
REMARK Flexibility Score: inf
ROOT
ATOM      1  C   UNL     1     -16.762  66.352  -1.795  1.00  0.00     0.000 C 
ENDROOT
BRANCH   1   2
ATOM      2  C   UNL     1     -15.513  67.153  -1.389  1.00  0.00     0.000 C 
BRANCH   2   3
ATOM      3  C   UNL     1     -15.100  68.179  -2.458  1.00  0.00     0.000 C 
BRANCH   3   4
ATOM      4  C   UNL     1     -14.337  69.377  -1.870  1.00  0.00     0.000 C 
BRANCH   4   5
ATOM      5  C   UNL     1     -12.828  69.372  -2.197  1.00  0.00     0.006 C 
BRANCH   5   6
ATOM      6  C   UNL     1     -11.963  69.217  -0.939  1.00  0.00     0.053 C 
BRANCH   6   7
ATOM      7  C   UNL     1     -11.909  67.785  -0.512  1.00  0.00     0.041 C 
ATOM      8  O   UNL     1     -11.879  67.488   0.711  1.00  0.00    -0.550 OA
ATOM      9  O   UNL     1     -11.946  66.775  -1.466  1.00  0.00    -0.550 OA
ENDBRANCH   6   7
ENDBRANCH   5   6
ENDBRANCH   4   5
ENDBRANCH   3   4
ENDBRANCH   2   3
ENDBRANCH   1   2
BRANCH   1  10
ATOM     10  C   UNL     1     -17.628  65.959  -0.586  1.00  0.00     0.000 C 
BRANCH  10  11
ATOM     11  C   UNL     1     -18.087  64.493  -0.641  1.00  0.00    -0.000 C 
BRANCH  11  12
ATOM     12  C   UNL     1     -19.598  64.336  -0.392  1.00  0.00    -0.000 C 
BRANCH  12  13
ATOM     13  C   UNL     1     -20.114  62.935  -0.756  1.00  0.00    -0.000 C 
BRANCH  13  14
ATOM     14  C   UNL     1     -19.126  62.149  -1.631  1.00  0.00    -0.000 C 
BRANCH  14  15
ATOM     15  C   UNL     1     -19.741  61.831  -3.003  1.00  0.00    -0.000 C 
BRANCH  15  16
ATOM     16  C   UNL     1     -20.393  60.440  -3.049  1.00  0.00    -0.003 C 
ATOM     17  C   UNL     1     -21.791  60.421  -2.433  1.00  0.00     0.004 C 
ENDBRANCH  15  16
ENDBRANCH  14  15
ENDBRANCH  13  14
ENDBRANCH  12  13
ENDBRANCH  11  12
ENDBRANCH  10  11
ENDBRANCH   1  10
TORSDOF 13
ENDMDL
MODEL 4
REMARK VINA RESULT:     5.874      6.159      8.354
REMARK INTER + INTRA:           9.742
REMARK INTER:                  10.157
REMARK INTRA:                  -0.415
REMARK UNBOUND:                -0.595
REMARK SMILES CCCCCCCCCCCCCCC(=O)[O-]
REMARK SMILES IDX 9 1 10 2 11 3 12 4 13 5 14 6 15 7 16 8 17 9 8 10 7 11 6 12
REMARK SMILES IDX 5 13 4 14 3 15 2 16 1 17
REMARK H PARENT
REMARK Flexibility Score: inf
ROOT
ATOM      1  C   UNL     1     -12.040  62.895  -7.594  1.00  0.00     0.000 C 
ENDROOT
BRANCH   1   2
ATOM      2  C   UNL     1     -11.894  61.850  -6.475  1.00  0.00     0.000 C 
BRANCH   2   3
ATOM      3  C   UNL     1     -13.043  61.916  -5.455  1.00  0.00     0.000 C 
BRANCH   3   4
ATOM      4  C   UNL     1     -12.619  61.463  -4.048  1.00  0.00     0.000 C 
BRANCH   4   5
ATOM      5  C   UNL     1     -13.807  61.155  -3.111  1.00  0.00     0.006 C 
BRANCH   5   6
ATOM      6  C   UNL     1     -13.552  61.634  -1.675  1.00  0.00     0.053 C 
BRANCH   6   7
ATOM      7  C   UNL     1     -12.731  60.632  -0.927  1.00  0.00     0.041 C 
ATOM      8  O   UNL     1     -11.883  59.927  -1.534  1.00  0.00    -0.550 OA
ATOM      9  O   UNL     1     -12.865  60.515   0.451  1.00  0.00    -0.550 OA
ENDBRANCH   6   7
ENDBRANCH   5   6
ENDBRANCH   4   5
ENDBRANCH   3   4
ENDBRANCH   2   3
ENDBRANCH   1   2
BRANCH   1  10
ATOM     10  C   UNL     1     -13.393  62.797  -8.319  1.00  0.00     0.000 C 
BRANCH  10  11
ATOM     11  C   UNL     1     -13.384  61.749  -9.443  1.00  0.00    -0.000 C 
BRANCH  11  12
ATOM     12  C   UNL     1     -11.964  61.277  -9.803  1.00  0.00    -0.000 C 
BRANCH  12  13
ATOM     13  C   UNL     1     -11.893  59.764 -10.067  1.00  0.00    -0.000 C 
BRANCH  13  14
ATOM     14  C   UNL     1     -12.628  58.942  -8.998  1.00  0.00    -0.000 C 
BRANCH  14  15
ATOM     15  C   UNL     1     -12.048  57.522  -8.903  1.00  0.00    -0.000 C 
BRANCH  15  16
ATOM     16  C   UNL     1     -12.663  56.563  -9.934  1.00  0.00    -0.003 C 
ATOM     17  C   UNL     1     -12.161  55.128  -9.779  1.00  0.00     0.004 C 
ENDBRANCH  15  16
ENDBRANCH  14  15
ENDBRANCH  13  14
ENDBRANCH  12  13
ENDBRANCH  11  12
ENDBRANCH  10  11
ENDBRANCH   1  10
TORSDOF 13
ENDMDL
MODEL 5
REMARK VINA RESULT:     5.980      3.389      6.803
REMARK INTER + INTRA:           9.929
REMARK INTER:                  10.679
REMARK INTRA:                  -0.750
REMARK UNBOUND:                -0.595
REMARK SMILES CCCCCCCCCCCCCCC(=O)[O-]
REMARK SMILES IDX 9 1 10 2 11 3 12 4 13 5 14 6 15 7 16 8 17 9 8 10 7 11 6 12
REMARK SMILES IDX 5 13 4 14 3 15 2 16 1 17
REMARK H PARENT
REMARK Flexibility Score: inf
ROOT
ATOM      1  C   UNL     1     -17.747  63.035  -0.107  1.00  0.00     0.000 C 
ENDROOT
BRANCH   1   2
ATOM      2  C   UNL     1     -18.472  64.357  -0.408  1.00  0.00     0.000 C 
BRANCH   2   3
ATOM      3  C   UNL     1     -19.999  64.186  -0.486  1.00  0.00     0.000 C 
BRANCH   3   4
ATOM      4  C   UNL     1     -20.419  62.782  -0.951  1.00  0.00     0.000 C 
BRANCH   4   5
ATOM      5  C   UNL     1     -20.067  62.488  -2.426  1.00  0.00     0.006 C 
BRANCH   5   6
ATOM      6  C   UNL     1     -19.807  60.995  -2.673  1.00  0.00     0.053 C 
BRANCH   6   7
ATOM      7  C   UNL     1     -21.042  60.325  -3.183  1.00  0.00     0.041 C 
ATOM      8  O   UNL     1     -22.063  60.235  -2.451  1.00  0.00    -0.550 OA
ATOM      9  O   UNL     1     -21.084  59.844  -4.486  1.00  0.00    -0.550 OA
ENDBRANCH   6   7
ENDBRANCH   5   6
ENDBRANCH   4   5
ENDBRANCH   3   4
ENDBRANCH   2   3
ENDBRANCH   1   2
BRANCH   1  10
ATOM     10  C   UNL     1     -16.540  62.801  -1.032  1.00  0.00     0.000 C 
BRANCH  10  11
ATOM     11  C   UNL     1     -16.659  61.498  -1.838  1.00  0.00    -0.000 C 
BRANCH  11  12
ATOM     12  C   UNL     1     -15.332  61.087  -2.500  1.00  0.00    -0.000 C 
BRANCH  12  13
ATOM     13  C   UNL     1     -14.140  61.920  -2.002  1.00  0.00    -0.000 C 
BRANCH  13  14
ATOM     14  C   UNL     1     -12.812  61.497  -2.648  1.00  0.00    -0.000 C 
BRANCH  14  15
ATOM     15  C   UNL     1     -11.991  60.620  -1.691  1.00  0.00    -0.000 C 
BRANCH  15  16
ATOM     16  C   UNL     1     -12.615  60.530  -0.290  1.00  0.00    -0.003 C 
ATOM     17  C   UNL     1     -13.051  59.111   0.074  1.00  0.00     0.004 C 
ENDBRANCH  15  16
ENDBRANCH  14  15
ENDBRANCH  13  14
ENDBRANCH  12  13
ENDBRANCH  11  12
ENDBRANCH  10  11
ENDBRANCH   1  10
TORSDOF 13
ENDMDL
MODEL 6
REMARK VINA RESULT:     6.329      5.215      8.202
REMARK INTER + INTRA:          10.544
REMARK INTER:                  11.108
REMARK INTRA:                  -0.564
REMARK UNBOUND:                -0.595
REMARK SMILES CCCCCCCCCCCCCCC(=O)[O-]
REMARK SMILES IDX 9 1 10 2 11 3 12 4 13 5 14 6 15 7 16 8 17 9 8 10 7 11 6 12
REMARK SMILES IDX 5 13 4 14 3 15 2 16 1 17
REMARK H PARENT
REMARK Flexibility Score: inf
ROOT
ATOM      1  C   UNL     1     -17.570  65.537  -1.378  1.00  0.00     0.000 C 
ENDROOT
BRANCH   1   2
ATOM      2  C   UNL     1     -18.100  64.594  -0.285  1.00  0.00     0.000 C 
BRANCH   2   3
ATOM      3  C   UNL     1     -19.598  64.284  -0.452  1.00  0.00     0.000 C 
BRANCH   3   4
ATOM      4  C   UNL     1     -19.886  62.777  -0.564  1.00  0.00     0.000 C 
BRANCH   4   5
ATOM      5  C   UNL     1     -19.003  62.053  -1.604  1.00  0.00     0.006 C 
BRANCH   5   6
ATOM      6  C   UNL     1     -19.677  61.971  -2.980  1.00  0.00     0.053 C 
BRANCH   6   7
ATOM      7  C   UNL     1     -20.620  60.811  -3.033  1.00  0.00     0.041 C 
ATOM      8  O   UNL     1     -21.416  60.598  -2.082  1.00  0.00    -0.550 OA
ATOM      9  O   UNL     1     -20.655  59.996  -4.157  1.00  0.00    -0.550 OA
ENDBRANCH   6   7
ENDBRANCH   5   6
ENDBRANCH   4   5
ENDBRANCH   3   4
ENDBRANCH   2   3
ENDBRANCH   1   2
BRANCH   1  10
ATOM     10  C   UNL     1     -16.409  66.417  -0.883  1.00  0.00     0.000 C 
BRANCH  10  11
ATOM     11  C   UNL     1     -15.625  67.062  -2.037  1.00  0.00    -0.000 C 
BRANCH  11  12
ATOM     12  C   UNL     1     -15.393  68.569  -1.825  1.00  0.00    -0.000 C 
BRANCH  12  13
ATOM     13  C   UNL     1     -14.213  69.107  -2.650  1.00  0.00    -0.000 C 
BRANCH  13  14
ATOM     14  C   UNL     1     -12.987  69.437  -1.785  1.00  0.00    -0.000 C 
BRANCH  14  15
ATOM     15  C   UNL     1     -11.875  68.397  -1.988  1.00  0.00    -0.000 C 
BRANCH  15  16
ATOM     16  C   UNL     1     -12.028  67.180  -1.063  1.00  0.00    -0.003 C 
ATOM     17  C   UNL     1     -11.896  67.541   0.416  1.00  0.00     0.004 C 
ENDBRANCH  15  16
ENDBRANCH  14  15
ENDBRANCH  13  14
ENDBRANCH  12  13
ENDBRANCH  11  12
ENDBRANCH  10  11
ENDBRANCH   1  10
TORSDOF 13
ENDMDL
MODEL 7
REMARK VINA RESULT:     6.423      5.140      7.135
REMARK INTER + INTRA:          10.708
REMARK INTER:                  11.279
REMARK INTRA:                  -0.570
REMARK UNBOUND:                -0.595
REMARK SMILES CCCCCCCCCCCCCCC(=O)[O-]
REMARK SMILES IDX 9 1 10 2 11 3 12 4 13 5 14 6 15 7 16 8 17 9 8 10 7 11 6 12
REMARK SMILES IDX 5 13 4 14 3 15 2 16 1 17
REMARK H PARENT
REMARK Flexibility Score: inf
ROOT
ATOM      1  C   UNL     1     -12.545  61.648  -4.686  1.00  0.00     0.000 C 
ENDROOT
BRANCH   1   2
ATOM      2  C   UNL     1     -12.797  62.176  -6.109  1.00  0.00     0.000 C 
BRANCH   2   3
ATOM      3  C   UNL     1     -11.879  61.518  -7.152  1.00  0.00     0.000 C 
BRANCH   3   4
ATOM      4  C   UNL     1     -12.034  62.130  -8.554  1.00  0.00     0.000 C 
BRANCH   4   5
ATOM      5  C   UNL     1     -12.359  61.093  -9.651  1.00  0.00     0.006 C 
BRANCH   5   6
ATOM      6  C   UNL     1     -12.103  59.655  -9.182  1.00  0.00     0.053 C 
BRANCH   6   7
ATOM      7  C   UNL     1     -13.280  58.785  -9.490  1.00  0.00     0.041 C 
ATOM      8  O   UNL     1     -13.112  57.577  -9.800  1.00  0.00    -0.550 OA
ATOM      9  O   UNL     1     -14.568  59.297  -9.384  1.00  0.00    -0.550 OA
ENDBRANCH   6   7
ENDBRANCH   5   6
ENDBRANCH   4   5
ENDBRANCH   3   4
ENDBRANCH   2   3
ENDBRANCH   1   2
BRANCH   1  10
ATOM     10  C   UNL     1     -13.738  61.895  -3.747  1.00  0.00     0.000 C 
BRANCH  10  11
ATOM     11  C   UNL     1     -13.512  61.313  -2.343  1.00  0.00    -0.000 C 
BRANCH  11  12
ATOM     12  C   UNL     1     -14.825  61.127  -1.560  1.00  0.00    -0.000 C 
BRANCH  12  13
ATOM     13  C   UNL     1     -16.070  61.313  -2.441  1.00  0.00    -0.000 C 
BRANCH  13  14
ATOM     14  C   UNL     1     -17.254  61.920  -1.672  1.00  0.00    -0.000 C 
BRANCH  14  15
ATOM     15  C   UNL     1     -18.584  61.600  -2.371  1.00  0.00    -0.000 C 
BRANCH  15  16
ATOM     16  C   UNL     1     -19.779  62.316  -1.721  1.00  0.00    -0.003 C 
ATOM     17  C   UNL     1     -19.366  63.228  -0.567  1.00  0.00     0.004 C 
ENDBRANCH  15  16
ENDBRANCH  14  15
ENDBRANCH  13  14
ENDBRANCH  12  13
ENDBRANCH  11  12
ENDBRANCH  10  11
ENDBRANCH   1  10
TORSDOF 13
ENDMDL
MODEL 8
REMARK VINA RESULT:     6.626      2.765      6.787
REMARK INTER + INTRA:          11.066
REMARK INTER:                  11.309
REMARK INTRA:                  -0.242
REMARK UNBOUND:                -0.595
REMARK SMILES CCCCCCCCCCCCCCC(=O)[O-]
REMARK SMILES IDX 9 1 10 2 11 3 12 4 13 5 14 6 15 7 16 8 17 9 8 10 7 11 6 12
REMARK SMILES IDX 5 13 4 14 3 15 2 16 1 17
REMARK H PARENT
REMARK Flexibility Score: inf
ROOT
ATOM      1  C   UNL     1     -19.013  61.784  -3.147  1.00  0.00     0.000 C 
ENDROOT
BRANCH   1   2
ATOM      2  C   UNL     1     -20.164  60.804  -3.429  1.00  0.00     0.000 C 
BRANCH   2   3
ATOM      3  C   UNL     1     -20.989  60.488  -2.169  1.00  0.00     0.000 C 
BRANCH   3   4
ATOM      4  C   UNL     1     -21.405  61.751  -1.397  1.00  0.00     0.000 C 
BRANCH   4   5
ATOM      5  C   UNL     1     -20.480  62.082  -0.206  1.00  0.00     0.006 C 
BRANCH   5   6
ATOM      6  C   UNL     1     -20.432  63.587   0.091  1.00  0.00     0.053 C 
BRANCH   6   7
ATOM      7  C   UNL     1     -19.421  64.261  -0.780  1.00  0.00     0.041 C 
ATOM      8  O   UNL     1     -18.259  64.482  -0.350  1.00  0.00    -0.550 OA
ATOM      9  O   UNL     1     -19.747  64.600  -2.088  1.00  0.00    -0.550 OA
ENDBRANCH   6   7
ENDBRANCH   5   6
ENDBRANCH   4   5
ENDBRANCH   3   4
ENDBRANCH   2   3
ENDBRANCH   1   2
BRANCH   1  10
ATOM     10  C   UNL     1     -17.944  61.184  -2.218  1.00  0.00     0.000 C 
BRANCH  10  11
ATOM     11  C   UNL     1     -16.638  61.994  -2.222  1.00  0.00    -0.000 C 
BRANCH  11  12
ATOM     12  C   UNL     1     -15.391  61.110  -2.037  1.00  0.00    -0.000 C 
BRANCH  12  13
ATOM     13  C   UNL     1     -14.266  61.460  -3.023  1.00  0.00    -0.000 C 
BRANCH  13  14
ATOM     14  C   UNL     1     -12.959  61.849  -2.316  1.00  0.00    -0.000 C 
BRANCH  14  15
ATOM     15  C   UNL     1     -12.312  60.627  -1.647  1.00  0.00    -0.000 C 
BRANCH  15  16
ATOM     16  C   UNL     1     -12.642  60.531  -0.149  1.00  0.00    -0.003 C 
ATOM     17  C   UNL     1     -12.752  59.087   0.341  1.00  0.00     0.004 C 
ENDBRANCH  15  16
ENDBRANCH  14  15
ENDBRANCH  13  14
ENDBRANCH  12  13
ENDBRANCH  11  12
ENDBRANCH  10  11
ENDBRANCH   1  10
TORSDOF 13
ENDMDL
MODEL 9
REMARK VINA RESULT:     6.693      3.975      4.583
REMARK INTER + INTRA:          11.184
REMARK INTER:                  11.741
REMARK INTRA:                  -0.557
REMARK UNBOUND:                -0.595
REMARK SMILES CCCCCCCCCCCCCCC(=O)[O-]
REMARK SMILES IDX 9 1 10 2 11 3 12 4 13 5 14 6 15 7 16 8 17 9 8 10 7 11 6 12
REMARK SMILES IDX 5 13 4 14 3 15 2 16 1 17
REMARK H PARENT
REMARK Flexibility Score: inf
ROOT
ATOM      1  C   UNL     1     -17.309  65.024  -0.722  1.00  0.00     0.000 C 
ENDROOT
BRANCH   1   2
ATOM      2  C   UNL     1     -17.042  66.319  -1.508  1.00  0.00     0.000 C 
BRANCH   2   3
ATOM      3  C   UNL     1     -15.591  66.806  -1.365  1.00  0.00     0.000 C 
BRANCH   3   4
ATOM      4  C   UNL     1     -15.231  67.914  -2.369  1.00  0.00     0.000 C 
BRANCH   4   5
ATOM      5  C   UNL     1     -14.401  69.062  -1.755  1.00  0.00     0.006 C 
BRANCH   5   6
ATOM      6  C   UNL     1     -12.923  68.989  -2.162  1.00  0.00     0.053 C 
BRANCH   6   7
ATOM      7  C   UNL     1     -12.191  68.005  -1.306  1.00  0.00     0.041 C 
ATOM      8  O   UNL     1     -11.900  68.294  -0.116  1.00  0.00    -0.550 OA
ATOM      9  O   UNL     1     -11.875  66.749  -1.808  1.00  0.00    -0.550 OA
ENDBRANCH   6   7
ENDBRANCH   5   6
ENDBRANCH   4   5
ENDBRANCH   3   4
ENDBRANCH   2   3
ENDBRANCH   1   2
BRANCH   1  10
ATOM     10  C   UNL     1     -18.796  64.843  -0.373  1.00  0.00     0.000 C 
BRANCH  10  11
ATOM     11  C   UNL     1     -19.312  63.434  -0.704  1.00  0.00    -0.000 C 
BRANCH  11  12
ATOM     12  C   UNL     1     -19.752  63.293  -2.172  1.00  0.00    -0.000 C 
BRANCH  12  13
ATOM     13  C   UNL     1     -19.603  61.856  -2.698  1.00  0.00    -0.000 C 
BRANCH  13  14
ATOM     14  C   UNL     1     -20.584  60.878  -2.032  1.00  0.00    -0.000 C 
BRANCH  14  15
ATOM     15  C   UNL     1     -21.443  60.161  -3.084  1.00  0.00    -0.000 C 
BRANCH  15  16
ATOM     16  C   UNL     1     -20.783  60.140  -4.471  1.00  0.00    -0.003 C 
ATOM     17  C   UNL     1     -21.570  59.314  -5.488  1.00  0.00     0.004 C 
ENDBRANCH  15  16
ENDBRANCH  14  15
ENDBRANCH  13  14
ENDBRANCH  12  13
ENDBRANCH  11  12
ENDBRANCH  10  11
ENDBRANCH   1  10
TORSDOF 13
ENDMDL
