MODEL 1
REMARK VINA RESULT:    -4.262      0.000      0.000
REMARK INTER + INTRA:          -8.875
REMARK INTER:                  -7.751
REMARK INTRA:                  -1.124
REMARK UNBOUND:                -1.124
REMARK SMILES CCCCCCCCCCCCCC[C@H](C)C(=O)[O-]
REMARK SMILES IDX 9 1 10 2 11 3 12 4 13 5 14 6 15 7 16 8 17 9 18 10 19 11 8 12
REMARK SMILES IDX 7 13 6 14 5 15 4 16 3 17 2 18 1 19
REMARK H PARENT
REMARK Flexibility Score: inf
ROOT
ATOM      1  C   UNL     1       4.031  29.582  53.753  1.00  0.00     0.000 C 
ENDROOT
BRANCH   1   2
ATOM      2  C   UNL     1       3.808  28.149  54.260  1.00  0.00     0.000 C 
BRANCH   2   3
ATOM      3  C   UNL     1       4.284  27.944  55.710  1.00  0.00     0.000 C 
BRANCH   3   4
ATOM      4  C   UNL     1       3.548  28.797  56.762  1.00  0.00     0.000 C 
BRANCH   4   5
ATOM      5  C   UNL     1       2.739  27.989  57.796  1.00  0.00     0.001 C 
BRANCH   5   6
ATOM      6  C   UNL     1       1.216  27.983  57.523  1.00  0.00     0.009 C 
BRANCH   6   7
ATOM      7  C   UNL     1       0.707  29.261  56.815  1.00  0.00     0.032 C 
ATOM      8  C   UNL     1      -0.489  29.886  57.546  1.00  0.00     0.014 C 
BRANCH   7   9
ATOM      9  C   UNL     1       0.324  28.947  55.395  1.00  0.00     0.044 C 
ATOM     10  O   UNL     1       0.471  27.784  54.934  1.00  0.00    -0.550 OA
ATOM     11  O   UNL     1      -0.198  29.945  54.580  1.00  0.00    -0.550 OA
ENDBRANCH   7   9
ENDBRANCH   6   7
ENDBRANCH   5   6
ENDBRANCH   4   5
ENDBRANCH   3   4
ENDBRANCH   2   3
ENDBRANCH   1   2
BRANCH   1  12
ATOM     12  C   UNL     1       5.481  29.781  53.291  1.00  0.00     0.000 C 
BRANCH  12  13
ATOM     13  C   UNL     1       5.604  29.588  51.771  1.00  0.00    -0.000 C 
BRANCH  13  14
ATOM     14  C   UNL     1       4.275  29.182  51.115  1.00  0.00    -0.000 C 
BRANCH  14  15
ATOM     15  C   UNL     1       4.233  29.512  49.614  1.00  0.00    -0.000 C 
BRANCH  15  16
ATOM     16  C   UNL     1       5.290  28.742  48.802  1.00  0.00    -0.000 C 
BRANCH  16  17
ATOM     17  C   UNL     1       4.796  27.429  48.159  1.00  0.00    -0.000 C 
BRANCH  17  18
ATOM     18  C   UNL     1       5.297  26.143  48.839  1.00  0.00    -0.003 C 
ATOM     19  C   UNL     1       4.301  25.576  49.849  1.00  0.00     0.004 C 
ENDBRANCH  17  18
ENDBRANCH  16  17
ENDBRANCH  15  16
ENDBRANCH  14  15
ENDBRANCH  13  14
ENDBRANCH  12  13
ENDBRANCH   1  12
TORSDOF 14
ENDMDL
MODEL 2
REMARK VINA RESULT:    -4.205      1.674      2.342
REMARK INTER + INTRA:          -8.771
REMARK INTER:                  -7.679
REMARK INTRA:                  -1.091
REMARK UNBOUND:                -1.124
REMARK SMILES CCCCCCCCCCCCCC[C@H](C)C(=O)[O-]
REMARK SMILES IDX 9 1 10 2 11 3 12 4 13 5 14 6 15 7 16 8 17 9 18 10 19 11 8 12
REMARK SMILES IDX 7 13 6 14 5 15 4 16 3 17 2 18 1 19
REMARK H PARENT
REMARK Flexibility Score: inf
ROOT
ATOM      1  C   UNL     1       4.164  29.460  54.164  1.00  0.00     0.000 C 
ENDROOT
BRANCH   1   2
ATOM      2  C   UNL     1       4.959  28.988  55.390  1.00  0.00     0.000 C 
BRANCH   2   3
ATOM      3  C   UNL     1       4.431  27.667  55.976  1.00  0.00     0.000 C 
BRANCH   3   4
ATOM      4  C   UNL     1       4.182  27.685  57.497  1.00  0.00     0.000 C 
BRANCH   4   5
ATOM      5  C   UNL     1       2.697  27.689  57.908  1.00  0.00     0.001 C 
BRANCH   5   6
ATOM      6  C   UNL     1       1.892  28.866  57.310  1.00  0.00     0.009 C 
BRANCH   6   7
ATOM      7  C   UNL     1       0.637  28.422  56.521  1.00  0.00     0.032 C 
ATOM      8  C   UNL     1       0.991  27.924  55.112  1.00  0.00     0.014 C 
BRANCH   7   9
ATOM      9  C   UNL     1      -0.342  29.560  56.424  1.00  0.00     0.044 C 
ATOM     10  O   UNL     1      -0.960  29.962  57.444  1.00  0.00    -0.550 OA
ATOM     11  O   UNL     1      -0.568  30.177  55.199  1.00  0.00    -0.550 OA
ENDBRANCH   7   9
ENDBRANCH   6   7
ENDBRANCH   5   6
ENDBRANCH   4   5
ENDBRANCH   3   4
ENDBRANCH   2   3
ENDBRANCH   1   2
BRANCH   1  12
ATOM     12  C   UNL     1       4.476  28.591  52.939  1.00  0.00     0.000 C 
BRANCH  12  13
ATOM     13  C   UNL     1       5.490  29.286  52.016  1.00  0.00    -0.000 C 
BRANCH  13  14
ATOM     14  C   UNL     1       5.542  28.660  50.614  1.00  0.00    -0.000 C 
BRANCH  14  15
ATOM     15  C   UNL     1       4.155  28.224  50.111  1.00  0.00    -0.000 C 
BRANCH  15  16
ATOM     16  C   UNL     1       3.649  29.078  48.935  1.00  0.00    -0.000 C 
BRANCH  16  17
ATOM     17  C   UNL     1       2.362  28.564  48.256  1.00  0.00    -0.000 C 
BRANCH  17  18
ATOM     18  C   UNL     1       2.168  29.020  46.799  1.00  0.00    -0.003 C 
ATOM     19  C   UNL     1       3.469  29.479  46.141  1.00  0.00     0.004 C 
ENDBRANCH  17  18
ENDBRANCH  16  17
ENDBRANCH  15  16
ENDBRANCH  14  15
ENDBRANCH  13  14
ENDBRANCH  12  13
ENDBRANCH   1  12
TORSDOF 14
ENDMDL
MODEL 3
REMARK VINA RESULT:    -4.107     14.210     16.201
REMARK INTER + INTRA:          -8.592
REMARK INTER:                  -6.169
REMARK INTRA:                  -2.423
REMARK UNBOUND:                -1.124
REMARK SMILES CCCCCCCCCCCCCC[C@H](C)C(=O)[O-]
REMARK SMILES IDX 9 1 10 2 11 3 12 4 13 5 14 6 15 7 16 8 17 9 18 10 19 11 8 12
REMARK SMILES IDX 7 13 6 14 5 15 4 16 3 17 2 18 1 19
REMARK H PARENT
REMARK Flexibility Score: inf
ROOT
ATOM      1  C   UNL     1      -7.820  39.770  45.189  1.00  0.00     0.000 C 
ENDROOT
BRANCH   1   2
ATOM      2  C   UNL     1      -7.977  38.631  46.206  1.00  0.00     0.000 C 
BRANCH   2   3
ATOM      3  C   UNL     1      -8.164  37.254  45.543  1.00  0.00     0.000 C 
BRANCH   3   4
ATOM      4  C   UNL     1      -7.748  36.052  46.412  1.00  0.00     0.000 C 
BRANCH   4   5
ATOM      5  C   UNL     1      -7.781  34.691  45.690  1.00  0.00     0.001 C 
BRANCH   5   6
ATOM      6  C   UNL     1      -7.702  34.804  44.150  1.00  0.00     0.009 C 
BRANCH   6   7
ATOM      7  C   UNL     1      -7.419  33.458  43.442  1.00  0.00     0.032 C 
ATOM      8  C   UNL     1      -6.211  33.547  42.500  1.00  0.00     0.014 C 
BRANCH   7   9
ATOM      9  C   UNL     1      -8.631  33.016  42.669  1.00  0.00     0.044 C 
ATOM     10  O   UNL     1      -8.630  33.036  41.410  1.00  0.00    -0.550 OA
ATOM     11  O   UNL     1      -9.764  32.580  43.346  1.00  0.00    -0.550 OA
ENDBRANCH   7   9
ENDBRANCH   6   7
ENDBRANCH   5   6
ENDBRANCH   4   5
ENDBRANCH   3   4
ENDBRANCH   2   3
ENDBRANCH   1   2
BRANCH   1  12
ATOM     12  C   UNL     1      -6.371  39.870  44.696  1.00  0.00     0.000 C 
BRANCH  12  13
ATOM     13  C   UNL     1      -6.243  39.343  43.258  1.00  0.00    -0.000 C 
BRANCH  13  14
ATOM     14  C   UNL     1      -4.907  38.626  43.006  1.00  0.00    -0.000 C 
BRANCH  14  15
ATOM     15  C   UNL     1      -5.049  37.095  43.012  1.00  0.00    -0.000 C 
BRANCH  15  16
ATOM     16  C   UNL     1      -4.469  36.444  44.281  1.00  0.00    -0.000 C 
BRANCH  16  17
ATOM     17  C   UNL     1      -3.846  37.426  45.295  1.00  0.00    -0.000 C 
BRANCH  17  18
ATOM     18  C   UNL     1      -4.183  37.140  46.769  1.00  0.00    -0.003 C 
ATOM     19  C   UNL     1      -4.185  35.648  47.100  1.00  0.00     0.004 C 
ENDBRANCH  17  18
ENDBRANCH  16  17
ENDBRANCH  15  16
ENDBRANCH  14  15
ENDBRANCH  13  14
ENDBRANCH  12  13
ENDBRANCH   1  12
TORSDOF 14
ENDMDL
MODEL 4
REMARK VINA RESULT:    -4.099     14.478     16.369
REMARK INTER + INTRA:          -8.577
REMARK INTER:                  -6.300
REMARK INTRA:                  -2.278
REMARK UNBOUND:                -1.124
REMARK SMILES CCCCCCCCCCCCCC[C@H](C)C(=O)[O-]
REMARK SMILES IDX 9 1 10 2 11 3 12 4 13 5 14 6 15 7 16 8 17 9 18 10 19 11 8 12
REMARK SMILES IDX 7 13 6 14 5 15 4 16 3 17 2 18 1 19
REMARK H PARENT
REMARK Flexibility Score: inf
ROOT
ATOM      1  C   UNL     1      -3.310  36.840  41.594  1.00  0.00     0.000 C 
ENDROOT
BRANCH   1   2
ATOM      2  C   UNL     1      -3.978  35.622  40.940  1.00  0.00     0.000 C 
BRANCH   2   3
ATOM      3  C   UNL     1      -3.339  34.287  41.364  1.00  0.00     0.000 C 
BRANCH   3   4
ATOM      4  C   UNL     1      -4.168  33.461  42.368  1.00  0.00     0.000 C 
BRANCH   4   5
ATOM      5  C   UNL     1      -5.678  33.769  42.365  1.00  0.00     0.001 C 
BRANCH   5   6
ATOM      6  C   UNL     1      -6.470  32.996  43.447  1.00  0.00     0.009 C 
BRANCH   6   7
ATOM      7  C   UNL     1      -7.963  33.396  43.527  1.00  0.00     0.032 C 
ATOM      8  C   UNL     1      -8.537  33.192  44.936  1.00  0.00     0.014 C 
BRANCH   7   9
ATOM      9  C   UNL     1      -8.765  32.599  42.535  1.00  0.00     0.044 C 
ATOM     10  O   UNL     1      -8.873  32.986  41.341  1.00  0.00    -0.550 OA
ATOM     11  O   UNL     1      -9.392  31.425  42.933  1.00  0.00    -0.550 OA
ENDBRANCH   7   9
ENDBRANCH   6   7
ENDBRANCH   5   6
ENDBRANCH   4   5
ENDBRANCH   3   4
ENDBRANCH   2   3
ENDBRANCH   1   2
BRANCH   1  12
ATOM     12  C   UNL     1      -4.343  37.932  41.902  1.00  0.00     0.000 C 
BRANCH  12  13
ATOM     13  C   UNL     1      -3.794  38.933  42.931  1.00  0.00    -0.000 C 
BRANCH  13  14
ATOM     14  C   UNL     1      -4.896  39.543  43.812  1.00  0.00    -0.000 C 
BRANCH  14  15
ATOM     15  C   UNL     1      -6.302  39.338  43.223  1.00  0.00    -0.000 C 
BRANCH  15  16
ATOM     16  C   UNL     1      -7.233  38.544  44.158  1.00  0.00    -0.000 C 
BRANCH  16  17
ATOM     17  C   UNL     1      -7.119  37.010  44.050  1.00  0.00    -0.000 C 
BRANCH  17  18
ATOM     18  C   UNL     1      -6.485  36.316  45.268  1.00  0.00    -0.003 C 
ATOM     19  C   UNL     1      -4.983  36.085  45.106  1.00  0.00     0.004 C 
ENDBRANCH  17  18
ENDBRANCH  16  17
ENDBRANCH  15  16
ENDBRANCH  14  15
ENDBRANCH  13  14
ENDBRANCH  12  13
ENDBRANCH   1  12
TORSDOF 14
ENDMDL
MODEL 5
REMARK VINA RESULT:    -4.098      3.733      6.287
REMARK INTER + INTRA:          -8.577
REMARK INTER:                  -7.168
REMARK INTRA:                  -1.409
REMARK UNBOUND:                -1.124
REMARK SMILES CCCCCCCCCCCCCC[C@H](C)C(=O)[O-]
REMARK SMILES IDX 9 1 10 2 11 3 12 4 13 5 14 6 15 7 16 8 17 9 18 10 19 11 8 12
REMARK SMILES IDX 7 13 6 14 5 15 4 16 3 17 2 18 1 19
REMARK H PARENT
REMARK Flexibility Score: inf
ROOT
ATOM      1  C   UNL     1       0.615  28.322  56.890  1.00  0.00     0.000 C 
ENDROOT
BRANCH   1   2
ATOM      2  C   UNL     1       0.145  28.752  55.492  1.00  0.00     0.000 C 
BRANCH   2   3
ATOM      3  C   UNL     1       1.090  29.770  54.828  1.00  0.00     0.000 C 
BRANCH   3   4
ATOM      4  C   UNL     1       0.387  30.965  54.154  1.00  0.00     0.000 C 
BRANCH   4   5
ATOM      5  C   UNL     1       1.322  31.905  53.368  1.00  0.00     0.001 C 
BRANCH   5   6
ATOM      6  C   UNL     1       0.604  32.708  52.258  1.00  0.00     0.009 C 
BRANCH   6   7
ATOM      7  C   UNL     1       0.757  34.240  52.402  1.00  0.00     0.032 C 
ATOM      8  C   UNL     1      -0.537  34.984  52.044  1.00  0.00     0.014 C 
BRANCH   7   9
ATOM      9  C   UNL     1       1.880  34.731  51.530  1.00  0.00     0.044 C 
ATOM     10  O   UNL     1       2.283  35.921  51.614  1.00  0.00    -0.550 OA
ATOM     11  O   UNL     1       2.483  33.867  50.624  1.00  0.00    -0.550 OA
ENDBRANCH   7   9
ENDBRANCH   6   7
ENDBRANCH   5   6
ENDBRANCH   4   5
ENDBRANCH   3   4
ENDBRANCH   2   3
ENDBRANCH   1   2
BRANCH   1  12
ATOM     12  C   UNL     1       2.012  28.878  57.195  1.00  0.00     0.000 C 
BRANCH  12  13
ATOM     13  C   UNL     1       2.887  27.818  57.882  1.00  0.00    -0.000 C 
BRANCH  13  14
ATOM     14  C   UNL     1       4.218  27.582  57.149  1.00  0.00    -0.000 C 
BRANCH  14  15
ATOM     15  C   UNL     1       4.121  27.874  55.642  1.00  0.00    -0.000 C 
BRANCH  15  16
ATOM     16  C   UNL     1       4.967  29.086  55.211  1.00  0.00    -0.000 C 
BRANCH  16  17
ATOM     17  C   UNL     1       4.671  29.624  53.796  1.00  0.00    -0.000 C 
BRANCH  17  18
ATOM     18  C   UNL     1       5.576  30.780  53.337  1.00  0.00    -0.003 C 
ATOM     19  C   UNL     1       4.851  31.784  52.441  1.00  0.00     0.004 C 
ENDBRANCH  17  18
ENDBRANCH  16  17
ENDBRANCH  15  16
ENDBRANCH  14  15
ENDBRANCH  13  14
ENDBRANCH  12  13
ENDBRANCH   1  12
TORSDOF 14
ENDMDL
MODEL 6
REMARK VINA RESULT:    -3.998     15.205     16.461
REMARK INTER + INTRA:          -8.395
REMARK INTER:                  -6.608
REMARK INTRA:                  -1.787
REMARK UNBOUND:                -1.124
REMARK SMILES CCCCCCCCCCCCCC[C@H](C)C(=O)[O-]
REMARK SMILES IDX 9 1 10 2 11 3 12 4 13 5 14 6 15 7 16 8 17 9 18 10 19 11 8 12
REMARK SMILES IDX 7 13 6 14 5 15 4 16 3 17 2 18 1 19
REMARK H PARENT
REMARK Flexibility Score: inf
ROOT
ATOM      1  C   UNL     1      -7.620  39.394  45.162  1.00  0.00     0.000 C 
ENDROOT
BRANCH   1   2
ATOM      2  C   UNL     1      -8.511  38.354  45.855  1.00  0.00     0.000 C 
BRANCH   2   3
ATOM      3  C   UNL     1      -8.101  36.904  45.538  1.00  0.00     0.000 C 
BRANCH   3   4
ATOM      4  C   UNL     1      -7.382  36.714  44.188  1.00  0.00     0.000 C 
BRANCH   4   5
ATOM      5  C   UNL     1      -6.337  35.581  44.166  1.00  0.00     0.001 C 
BRANCH   5   6
ATOM      6  C   UNL     1      -6.819  34.308  43.433  1.00  0.00     0.009 C 
BRANCH   6   7
ATOM      7  C   UNL     1      -8.150  33.741  43.981  1.00  0.00     0.032 C 
ATOM      8  C   UNL     1      -7.927  32.809  45.180  1.00  0.00     0.014 C 
BRANCH   7   9
ATOM      9  C   UNL     1      -8.883  33.002  42.896  1.00  0.00     0.044 C 
ATOM     10  O   UNL     1      -9.881  32.285  43.170  1.00  0.00    -0.550 OA
ATOM     11  O   UNL     1      -8.460  33.110  41.576  1.00  0.00    -0.550 OA
ENDBRANCH   7   9
ENDBRANCH   6   7
ENDBRANCH   5   6
ENDBRANCH   4   5
ENDBRANCH   3   4
ENDBRANCH   2   3
ENDBRANCH   1   2
BRANCH   1  12
ATOM     12  C   UNL     1      -6.532  39.906  46.114  1.00  0.00     0.000 C 
BRANCH  12  13
ATOM     13  C   UNL     1      -5.136  39.738  45.494  1.00  0.00    -0.000 C 
BRANCH  13  14
ATOM     14  C   UNL     1      -5.167  39.725  43.957  1.00  0.00    -0.000 C 
BRANCH  14  15
ATOM     15  C   UNL     1      -4.172  38.718  43.356  1.00  0.00    -0.000 C 
BRANCH  15  16
ATOM     16  C   UNL     1      -4.681  38.081  42.050  1.00  0.00    -0.000 C 
BRANCH  16  17
ATOM     17  C   UNL     1      -3.581  37.646  41.060  1.00  0.00    -0.000 C 
BRANCH  17  18
ATOM     18  C   UNL     1      -3.907  36.387  40.237  1.00  0.00    -0.003 C 
ATOM     19  C   UNL     1      -3.960  35.118  41.088  1.00  0.00     0.004 C 
ENDBRANCH  17  18
ENDBRANCH  16  17
ENDBRANCH  15  16
ENDBRANCH  14  15
ENDBRANCH  13  14
ENDBRANCH  12  13
ENDBRANCH   1  12
TORSDOF 14
ENDMDL
MODEL 7
REMARK VINA RESULT:    -3.997     14.408     16.533
REMARK INTER + INTRA:          -8.393
REMARK INTER:                  -6.123
REMARK INTRA:                  -2.270
REMARK UNBOUND:                -1.124
REMARK SMILES CCCCCCCCCCCCCC[C@H](C)C(=O)[O-]
REMARK SMILES IDX 9 1 10 2 11 3 12 4 13 5 14 6 15 7 16 8 17 9 18 10 19 11 8 12
REMARK SMILES IDX 7 13 6 14 5 15 4 16 3 17 2 18 1 19
REMARK H PARENT
REMARK Flexibility Score: inf
ROOT
ATOM      1  C   UNL     1      -5.441  37.511  43.257  1.00  0.00     0.000 C 
ENDROOT
BRANCH   1   2
ATOM      2  C   UNL     1      -4.230  37.128  42.394  1.00  0.00     0.000 C 
BRANCH   2   3
ATOM      3  C   UNL     1      -3.532  35.843  42.876  1.00  0.00     0.000 C 
BRANCH   3   4
ATOM      4  C   UNL     1      -3.627  34.649  41.907  1.00  0.00     0.000 C 
BRANCH   4   5
ATOM      5  C   UNL     1      -5.049  34.087  41.713  1.00  0.00     0.001 C 
BRANCH   5   6
ATOM      6  C   UNL     1      -5.712  33.611  43.027  1.00  0.00     0.009 C 
BRANCH   6   7
ATOM      7  C   UNL     1      -7.152  34.142  43.225  1.00  0.00     0.032 C 
ATOM      8  C   UNL     1      -7.431  34.516  44.687  1.00  0.00     0.014 C 
BRANCH   7   9
ATOM      9  C   UNL     1      -8.149  33.114  42.766  1.00  0.00     0.044 C 
ATOM     10  O   UNL     1      -8.556  33.103  41.575  1.00  0.00    -0.550 OA
ATOM     11  O   UNL     1      -8.628  32.165  43.662  1.00  0.00    -0.550 OA
ENDBRANCH   7   9
ENDBRANCH   6   7
ENDBRANCH   5   6
ENDBRANCH   4   5
ENDBRANCH   3   4
ENDBRANCH   2   3
ENDBRANCH   1   2
BRANCH   1  12
ATOM     12  C   UNL     1      -5.628  39.034  43.295  1.00  0.00     0.000 C 
BRANCH  12  13
ATOM     13  C   UNL     1      -7.017  39.404  43.839  1.00  0.00    -0.000 C 
BRANCH  13  14
ATOM     14  C   UNL     1      -7.842  38.172  44.244  1.00  0.00    -0.000 C 
BRANCH  14  15
ATOM     15  C   UNL     1      -8.469  38.316  45.641  1.00  0.00    -0.000 C 
BRANCH  15  16
ATOM     16  C   UNL     1      -7.677  37.571  46.731  1.00  0.00    -0.000 C 
BRANCH  16  17
ATOM     17  C   UNL     1      -6.516  38.368  47.360  1.00  0.00    -0.000 C 
BRANCH  17  18
ATOM     18  C   UNL     1      -5.108  37.878  46.977  1.00  0.00    -0.003 C 
ATOM     19  C   UNL     1      -4.129  39.023  46.720  1.00  0.00     0.004 C 
ENDBRANCH  17  18
ENDBRANCH  16  17
ENDBRANCH  15  16
ENDBRANCH  14  15
ENDBRANCH  13  14
ENDBRANCH  12  13
ENDBRANCH   1  12
TORSDOF 14
ENDMDL
MODEL 8
REMARK VINA RESULT:    -3.990     14.863     16.386
REMARK INTER + INTRA:          -8.380
REMARK INTER:                  -6.641
REMARK INTRA:                  -1.740
REMARK UNBOUND:                -1.124
REMARK SMILES CCCCCCCCCCCCCC[C@H](C)C(=O)[O-]
REMARK SMILES IDX 9 1 10 2 11 3 12 4 13 5 14 6 15 7 16 8 17 9 18 10 19 11 8 12
REMARK SMILES IDX 7 13 6 14 5 15 4 16 3 17 2 18 1 19
REMARK H PARENT
REMARK Flexibility Score: inf
ROOT
ATOM      1  C   UNL     1      -3.200  34.597  41.378  1.00  0.00     0.000 C 
ENDROOT
BRANCH   1   2
ATOM      2  C   UNL     1      -4.719  34.369  41.359  1.00  0.00     0.000 C 
BRANCH   2   3
ATOM      3  C   UNL     1      -5.225  33.588  42.585  1.00  0.00     0.000 C 
BRANCH   3   4
ATOM      4  C   UNL     1      -5.490  34.445  43.838  1.00  0.00     0.000 C 
BRANCH   4   5
ATOM      5  C   UNL     1      -6.662  33.962  44.714  1.00  0.00     0.001 C 
BRANCH   5   6
ATOM      6  C   UNL     1      -8.031  34.001  43.995  1.00  0.00     0.009 C 
BRANCH   6   7
ATOM      7  C   UNL     1      -8.750  32.631  43.956  1.00  0.00     0.032 C 
ATOM      8  C   UNL     1      -7.931  31.532  44.647  1.00  0.00     0.014 C 
BRANCH   7   9
ATOM      9  C   UNL     1      -9.027  32.234  42.532  1.00  0.00     0.044 C 
ATOM     10  O   UNL     1      -8.750  33.014  41.583  1.00  0.00    -0.550 OA
ATOM     11  O   UNL     1      -9.594  30.995  42.255  1.00  0.00    -0.550 OA
ENDBRANCH   7   9
ENDBRANCH   6   7
ENDBRANCH   5   6
ENDBRANCH   4   5
ENDBRANCH   3   4
ENDBRANCH   2   3
ENDBRANCH   1   2
BRANCH   1  12
ATOM     12  C   UNL     1      -2.843  35.963  40.776  1.00  0.00     0.000 C 
BRANCH  12  13
ATOM     13  C   UNL     1      -3.978  36.975  40.998  1.00  0.00    -0.000 C 
BRANCH  13  14
ATOM     14  C   UNL     1      -3.727  37.892  42.206  1.00  0.00    -0.000 C 
BRANCH  14  15
ATOM     15  C   UNL     1      -4.992  38.648  42.646  1.00  0.00    -0.000 C 
BRANCH  15  16
ATOM     16  C   UNL     1      -5.905  37.809  43.557  1.00  0.00    -0.000 C 
BRANCH  16  17
ATOM     17  C   UNL     1      -7.231  38.485  43.960  1.00  0.00    -0.000 C 
BRANCH  17  18
ATOM     18  C   UNL     1      -8.191  37.601  44.775  1.00  0.00    -0.003 C 
ATOM     19  C   UNL     1      -8.149  37.899  46.274  1.00  0.00     0.004 C 
ENDBRANCH  17  18
ENDBRANCH  16  17
ENDBRANCH  15  16
ENDBRANCH  14  15
ENDBRANCH  13  14
ENDBRANCH  12  13
ENDBRANCH   1  12
TORSDOF 14
ENDMDL
MODEL 9
REMARK VINA RESULT:    -3.976     14.451     16.604
REMARK INTER + INTRA:          -8.355
REMARK INTER:                  -5.819
REMARK INTRA:                  -2.536
REMARK UNBOUND:                -1.124
REMARK SMILES CCCCCCCCCCCCCC[C@H](C)C(=O)[O-]
REMARK SMILES IDX 9 1 10 2 11 3 12 4 13 5 14 6 15 7 16 8 17 9 18 10 19 11 8 12
REMARK SMILES IDX 7 13 6 14 5 15 4 16 3 17 2 18 1 19
REMARK H PARENT
REMARK Flexibility Score: inf
ROOT
ATOM      1  C   UNL     1      -6.568  35.818  46.180  1.00  0.00     0.000 C 
ENDROOT
BRANCH   1   2
ATOM      2  C   UNL     1      -7.670  35.261  45.267  1.00  0.00     0.000 C 
BRANCH   2   3
ATOM      3  C   UNL     1      -7.180  34.982  43.835  1.00  0.00     0.000 C 
BRANCH   3   4
ATOM      4  C   UNL     1      -5.648  34.959  43.666  1.00  0.00     0.000 C 
BRANCH   4   5
ATOM      5  C   UNL     1      -5.119  33.861  42.723  1.00  0.00     0.001 C 
BRANCH   5   6
ATOM      6  C   UNL     1      -4.566  34.406  41.385  1.00  0.00     0.009 C 
BRANCH   6   7
ATOM      7  C   UNL     1      -3.562  35.571  41.558  1.00  0.00     0.032 C 
ATOM      8  C   UNL     1      -3.928  36.778  40.683  1.00  0.00     0.014 C 
BRANCH   7   9
ATOM      9  C   UNL     1      -2.171  35.108  41.224  1.00  0.00     0.044 C 
ATOM     10  O   UNL     1      -1.316  35.917  40.778  1.00  0.00    -0.550 OA
ATOM     11  O   UNL     1      -1.821  33.775  41.409  1.00  0.00    -0.550 OA
ENDBRANCH   7   9
ENDBRANCH   6   7
ENDBRANCH   5   6
ENDBRANCH   4   5
ENDBRANCH   3   4
ENDBRANCH   2   3
ENDBRANCH   1   2
BRANCH   1  12
ATOM     12  C   UNL     1      -7.079  37.017  46.990  1.00  0.00     0.000 C 
BRANCH  12  13
ATOM     13  C   UNL     1      -8.137  37.803  46.199  1.00  0.00    -0.000 C 
BRANCH  13  14
ATOM     14  C   UNL     1      -7.906  39.322  46.249  1.00  0.00    -0.000 C 
BRANCH  14  15
ATOM     15  C   UNL     1      -7.357  39.879  44.925  1.00  0.00    -0.000 C 
BRANCH  15  16
ATOM     16  C   UNL     1      -7.200  38.798  43.840  1.00  0.00    -0.000 C 
BRANCH  16  17
ATOM     17  C   UNL     1      -5.770  38.627  43.287  1.00  0.00    -0.000 C 
BRANCH  17  18
ATOM     18  C   UNL     1      -4.648  39.112  44.221  1.00  0.00    -0.003 C 
ATOM     19  C   UNL     1      -3.859  37.964  44.851  1.00  0.00     0.004 C 
ENDBRANCH  17  18
ENDBRANCH  16  17
ENDBRANCH  15  16
ENDBRANCH  14  15
ENDBRANCH  13  14
ENDBRANCH  12  13
ENDBRANCH   1  12
TORSDOF 14
ENDMDL
