MODEL 1
REMARK VINA RESULT:    -3.886      0.000      0.000
REMARK INTER + INTRA:          -5.162
REMARK INTER:                  -5.022
REMARK INTRA:                  -0.141
REMARK UNBOUND:                -0.141
REMARK SMILES CCCCCCC=O
REMARK SMILES IDX 4 1 3 2 2 3 1 4 5 5 6 6 7 7 8 8
REMARK H PARENT
REMARK Flexibility Score: inf
ROOT
ATOM      1  C   UNL     1      25.211  58.102  -8.965  1.00  0.00     0.000 C 
ENDROOT
BRANCH   1   2
ATOM      2  C   UNL     1      26.241  59.183  -9.356  1.00  0.00    -0.000 C 
BRANCH   2   3
ATOM      3  C   UNL     1      27.241  58.722 -10.429  1.00  0.00    -0.003 C 
ATOM      4  C   UNL     1      28.483  59.606 -10.509  1.00  0.00     0.004 C 
ENDBRANCH   2   3
ENDBRANCH   1   2
BRANCH   1   5
ATOM      5  C   UNL     1      25.811  56.688  -8.997  1.00  0.00     0.008 C 
BRANCH   5   6
ATOM      6  C   UNL     1      25.182  55.800  -7.917  1.00  0.00     0.072 C 
BRANCH   6   7
ATOM      7  C   UNL     1      23.753  55.489  -8.245  1.00  0.00     0.224 C 
ATOM      8  O   UNL     1      22.999  55.065  -7.383  1.00  0.00    -0.303 OA
ENDBRANCH   6   7
ENDBRANCH   5   6
ENDBRANCH   1   5
TORSDOF 5
ENDMDL
MODEL 2
REMARK VINA RESULT:    -3.857      3.130      5.436
REMARK INTER + INTRA:          -5.125
REMARK INTER:                  -5.075
REMARK INTRA:                  -0.050
REMARK UNBOUND:                -0.141
REMARK SMILES CCCCCCC=O
REMARK SMILES IDX 4 1 3 2 2 3 1 4 5 5 6 6 7 7 8 8
REMARK H PARENT
REMARK Flexibility Score: inf
ROOT
ATOM      1  C   UNL     1      25.824  56.995  -8.986  1.00  0.00     0.000 C 
ENDROOT
BRANCH   1   2
ATOM      2  C   UNL     1      24.368  56.550  -8.734  1.00  0.00    -0.000 C 
BRANCH   2   3
ATOM      3  C   UNL     1      24.223  55.536  -7.587  1.00  0.00    -0.003 C 
ATOM      4  C   UNL     1      22.830  54.915  -7.511  1.00  0.00     0.004 C 
ENDBRANCH   2   3
ENDBRANCH   1   2
BRANCH   1   5
ATOM      5  C   UNL     1      25.931  58.499  -9.281  1.00  0.00     0.008 C 
BRANCH   5   6
ATOM      6  C   UNL     1      27.072  58.786 -10.262  1.00  0.00     0.072 C 
BRANCH   6   7
ATOM      7  C   UNL     1      27.697  60.120  -9.982  1.00  0.00     0.224 C 
ATOM      8  O   UNL     1      28.421  60.651 -10.810  1.00  0.00    -0.303 OA
ENDBRANCH   6   7
ENDBRANCH   5   6
ENDBRANCH   1   5
TORSDOF 5
ENDMDL
MODEL 3
REMARK VINA RESULT:    -3.587      3.355      5.451
REMARK INTER + INTRA:          -4.776
REMARK INTER:                  -4.678
REMARK INTRA:                  -0.098
REMARK UNBOUND:                -0.141
REMARK SMILES CCCCCCC=O
REMARK SMILES IDX 4 1 3 2 2 3 1 4 5 5 6 6 7 7 8 8
REMARK H PARENT
REMARK Flexibility Score: inf
ROOT
ATOM      1  C   UNL     1      26.806  58.498  -9.779  1.00  0.00     0.000 C 
ENDROOT
BRANCH   1   2
ATOM      2  C   UNL     1      25.568  58.004  -9.003  1.00  0.00    -0.000 C 
BRANCH   2   3
ATOM      3  C   UNL     1      25.524  56.478  -8.820  1.00  0.00    -0.003 C 
ATOM      4  C   UNL     1      24.107  55.937  -8.639  1.00  0.00     0.004 C 
ENDBRANCH   2   3
ENDBRANCH   1   2
BRANCH   1   5
ATOM      5  C   UNL     1      26.967  60.025  -9.706  1.00  0.00     0.008 C 
BRANCH   5   6
ATOM      6  C   UNL     1      28.247  60.476 -10.419  1.00  0.00     0.072 C 
BRANCH   6   7
ATOM      7  C   UNL     1      29.071  59.297 -10.840  1.00  0.00     0.224 C 
ATOM      8  O   UNL     1      29.944  59.421 -11.685  1.00  0.00    -0.303 OA
ENDBRANCH   6   7
ENDBRANCH   5   6
ENDBRANCH   1   5
TORSDOF 5
ENDMDL
MODEL 4
REMARK VINA RESULT:    -3.571      1.476      2.411
REMARK INTER + INTRA:          -4.756
REMARK INTER:                  -4.623
REMARK INTRA:                  -0.133
REMARK UNBOUND:                -0.141
REMARK SMILES CCCCCCC=O
REMARK SMILES IDX 4 1 3 2 2 3 1 4 5 5 6 6 7 7 8 8
REMARK H PARENT
REMARK Flexibility Score: inf
ROOT
ATOM      1  C   UNL     1      26.980  59.912  -9.645  1.00  0.00     0.000 C 
ENDROOT
BRANCH   1   2
ATOM      2  C   UNL     1      28.168  60.358 -10.523  1.00  0.00    -0.000 C 
BRANCH   2   3
ATOM      3  C   UNL     1      29.414  59.470 -10.370  1.00  0.00    -0.003 C 
ATOM      4  C   UNL     1      30.103  59.172 -11.700  1.00  0.00     0.004 C 
ENDBRANCH   2   3
ENDBRANCH   1   2
BRANCH   1   5
ATOM      5  C   UNL     1      26.679  58.412  -9.790  1.00  0.00     0.008 C 
BRANCH   5   6
ATOM      6  C   UNL     1      25.423  58.025  -9.003  1.00  0.00     0.072 C 
BRANCH   6   7
ATOM      7  C   UNL     1      25.292  56.536  -8.900  1.00  0.00     0.224 C 
ATOM      8  O   UNL     1      25.843  55.926  -7.997  1.00  0.00    -0.303 OA
ENDBRANCH   6   7
ENDBRANCH   5   6
ENDBRANCH   1   5
TORSDOF 5
ENDMDL
MODEL 5
REMARK VINA RESULT:    -3.479     17.289     18.522
REMARK INTER + INTRA:          -4.637
REMARK INTER:                  -4.401
REMARK INTRA:                  -0.235
REMARK UNBOUND:                -0.141
REMARK SMILES CCCCCCC=O
REMARK SMILES IDX 4 1 3 2 2 3 1 4 5 5 6 6 7 7 8 8
REMARK H PARENT
REMARK Flexibility Score: inf
ROOT
ATOM      1  C   UNL     1      17.761  44.233   0.058  1.00  0.00     0.000 C 
ENDROOT
BRANCH   1   2
ATOM      2  C   UNL     1      17.112  43.879   1.412  1.00  0.00    -0.000 C 
BRANCH   2   3
ATOM      3  C   UNL     1      15.731  44.523   1.620  1.00  0.00    -0.003 C 
ATOM      4  C   UNL     1      15.283  45.377   0.436  1.00  0.00     0.004 C 
ENDBRANCH   2   3
ENDBRANCH   1   2
BRANCH   1   5
ATOM      5  C   UNL     1      19.251  44.581   0.201  1.00  0.00     0.008 C 
BRANCH   5   6
ATOM      6  C   UNL     1      19.831  43.994   1.492  1.00  0.00     0.072 C 
BRANCH   6   7
ATOM      7  C   UNL     1      20.883  42.970   1.190  1.00  0.00     0.224 C 
ATOM      8  O   UNL     1      20.893  42.391   0.115  1.00  0.00    -0.303 OA
ENDBRANCH   6   7
ENDBRANCH   5   6
ENDBRANCH   1   5
TORSDOF 5
ENDMDL
MODEL 6
REMARK VINA RESULT:    -3.416     15.196     16.992
REMARK INTER + INTRA:          -4.555
REMARK INTER:                  -4.454
REMARK INTRA:                  -0.101
REMARK UNBOUND:                -0.141
REMARK SMILES CCCCCCC=O
REMARK SMILES IDX 4 1 3 2 2 3 1 4 5 5 6 6 7 7 8 8
REMARK H PARENT
REMARK Flexibility Score: inf
ROOT
ATOM      1  C   UNL     1      31.607  45.341   0.810  1.00  0.00     0.000 C 
ENDROOT
BRANCH   1   2
ATOM      2  C   UNL     1      30.077  45.368   1.003  1.00  0.00    -0.000 C 
BRANCH   2   3
ATOM      3  C   UNL     1      29.289  44.980  -0.259  1.00  0.00    -0.003 C 
ATOM      4  C   UNL     1      28.140  45.938  -0.566  1.00  0.00     0.004 C 
ENDBRANCH   2   3
ENDBRANCH   1   2
BRANCH   1   5
ATOM      5  C   UNL     1      32.360  45.204   2.142  1.00  0.00     0.008 C 
BRANCH   5   6
ATOM      6  C   UNL     1      33.102  46.499   2.490  1.00  0.00     0.072 C 
BRANCH   6   7
ATOM      7  C   UNL     1      32.715  46.990   3.852  1.00  0.00     0.224 C 
ATOM      8  O   UNL     1      31.726  47.692   3.999  1.00  0.00    -0.303 OA
ENDBRANCH   6   7
ENDBRANCH   5   6
ENDBRANCH   1   5
TORSDOF 5
ENDMDL
MODEL 7
REMARK VINA RESULT:    -3.365     14.826     16.529
REMARK INTER + INTRA:          -4.489
REMARK INTER:                  -4.363
REMARK INTRA:                  -0.126
REMARK UNBOUND:                -0.141
REMARK SMILES CCCCCCC=O
REMARK SMILES IDX 4 1 3 2 2 3 1 4 5 5 6 6 7 7 8 8
REMARK H PARENT
REMARK Flexibility Score: inf
ROOT
ATOM      1  C   UNL     1      31.607  44.608   1.028  1.00  0.00     0.000 C 
ENDROOT
BRANCH   1   2
ATOM      2  C   UNL     1      32.444  44.978   2.269  1.00  0.00    -0.000 C 
BRANCH   2   3
ATOM      3  C   UNL     1      32.653  46.492   2.443  1.00  0.00    -0.003 C 
ATOM      4  C   UNL     1      32.752  46.919   3.905  1.00  0.00     0.004 C 
ENDBRANCH   2   3
ENDBRANCH   1   2
BRANCH   1   5
ATOM      5  C   UNL     1      30.252  45.332   1.001  1.00  0.00     0.008 C 
BRANCH   5   6
ATOM      6  C   UNL     1      29.468  44.985  -0.270  1.00  0.00     0.072 C 
BRANCH   6   7
ATOM      7  C   UNL     1      28.161  45.717  -0.310  1.00  0.00     0.224 C 
ATOM      8  O   UNL     1      27.908  46.484  -1.226  1.00  0.00    -0.303 OA
ENDBRANCH   6   7
ENDBRANCH   5   6
ENDBRANCH   1   5
TORSDOF 5
ENDMDL
MODEL 8
REMARK VINA RESULT:    -3.351      1.329      2.475
REMARK INTER + INTRA:          -4.471
REMARK INTER:                  -4.338
REMARK INTRA:                  -0.133
REMARK UNBOUND:                -0.141
REMARK SMILES CCCCCCC=O
REMARK SMILES IDX 4 1 3 2 2 3 1 4 5 5 6 6 7 7 8 8
REMARK H PARENT
REMARK Flexibility Score: inf
ROOT
ATOM      1  C   UNL     1      25.104  55.620  -8.226  1.00  0.00     0.000 C 
ENDROOT
BRANCH   1   2
ATOM      2  C   UNL     1      25.942  56.678  -8.974  1.00  0.00    -0.000 C 
BRANCH   2   3
ATOM      3  C   UNL     1      25.286  58.068  -9.015  1.00  0.00    -0.003 C 
ATOM      4  C   UNL     1      26.269  59.184  -9.360  1.00  0.00     0.004 C 
ENDBRANCH   2   3
ENDBRANCH   1   2
BRANCH   1   5
ATOM      5  C   UNL     1      23.595  55.883  -8.345  1.00  0.00     0.008 C 
BRANCH   5   6
ATOM      6  C   UNL     1      22.790  54.793  -7.627  1.00  0.00     0.072 C 
BRANCH   6   7
ATOM      7  C   UNL     1      23.152  54.728  -6.175  1.00  0.00     0.224 C 
ATOM      8  O   UNL     1      22.330  54.368  -5.347  1.00  0.00    -0.303 OA
ENDBRANCH   6   7
ENDBRANCH   5   6
ENDBRANCH   1   5
TORSDOF 5
ENDMDL
MODEL 9
REMARK VINA RESULT:    -3.185     17.485     18.671
REMARK INTER + INTRA:          -4.256
REMARK INTER:                  -3.908
REMARK INTRA:                  -0.348
REMARK UNBOUND:                -0.141
REMARK SMILES CCCCCCC=O
REMARK SMILES IDX 4 1 3 2 2 3 1 4 5 5 6 6 7 7 8 8
REMARK H PARENT
REMARK Flexibility Score: inf
ROOT
ATOM      1  C   UNL     1      18.023  44.137   0.073  1.00  0.00     0.000 C 
ENDROOT
BRANCH   1   2
ATOM      2  C   UNL     1      19.478  44.511   0.421  1.00  0.00    -0.000 C 
BRANCH   2   3
ATOM      3  C   UNL     1      20.232  43.410   1.186  1.00  0.00    -0.003 C 
ATOM      4  C   UNL     1      21.022  42.479   0.270  1.00  0.00     0.004 C 
ENDBRANCH   2   3
ENDBRANCH   1   2
BRANCH   1   5
ATOM      5  C   UNL     1      17.410  43.170   1.098  1.00  0.00     0.008 C 
BRANCH   5   6
ATOM      6  C   UNL     1      17.052  41.831   0.443  1.00  0.00     0.072 C 
BRANCH   6   7
ATOM      7  C   UNL     1      17.361  41.851  -1.024  1.00  0.00     0.224 C 
ATOM      8  O   UNL     1      18.138  41.041  -1.504  1.00  0.00    -0.303 OA
ENDBRANCH   6   7
ENDBRANCH   5   6
ENDBRANCH   1   5
TORSDOF 5
ENDMDL
