MODEL 1
REMARK VINA RESULT:    -3.699      0.000      0.000
REMARK INTER + INTRA:          -4.649
REMARK INTER:                  -4.564
REMARK INTRA:                  -0.085
REMARK UNBOUND:                -0.085
REMARK SMILES CCCCCC(=O)[O-]
REMARK SMILES IDX 4 1 5 2 6 3 7 4 8 5 3 6 2 7 1 8
REMARK H PARENT
REMARK Flexibility Score: inf
ROOT
ATOM      1  C   UNL     1      -7.862  24.875  14.383  1.00  0.00     0.006 C 
ENDROOT
BRANCH   1   2
ATOM      2  C   UNL     1      -8.883  25.432  13.383  1.00  0.00     0.053 C 
BRANCH   2   3
ATOM      3  C   UNL     1      -8.746  26.918  13.271  1.00  0.00     0.041 C 
ATOM      4  O   UNL     1      -9.507  27.568  12.506  1.00  0.00    -0.550 OA
ATOM      5  O   UNL     1      -7.747  27.579  13.973  1.00  0.00    -0.550 OA
ENDBRANCH   2   3
ENDBRANCH   1   2
BRANCH   1   6
ATOM      6  C   UNL     1      -7.816  23.338  14.389  1.00  0.00     0.000 C 
BRANCH   6   7
ATOM      7  C   UNL     1      -9.215  22.706  14.367  1.00  0.00    -0.003 C 
ATOM      8  C   UNL     1      -9.129  21.183  14.344  1.00  0.00     0.004 C 
ENDBRANCH   6   7
ENDBRANCH   1   6
TORSDOF 4
ENDMDL
MODEL 2
REMARK VINA RESULT:    -3.679      3.447      4.910
REMARK INTER + INTRA:          -4.624
REMARK INTER:                  -4.568
REMARK INTRA:                  -0.056
REMARK UNBOUND:                -0.085
REMARK SMILES CCCCCC(=O)[O-]
REMARK SMILES IDX 4 1 5 2 6 3 7 4 8 5 3 6 2 7 1 8
REMARK H PARENT
REMARK Flexibility Score: inf
ROOT
ATOM      1  C   UNL     1      -8.033  23.880  13.917  1.00  0.00     0.006 C 
ENDROOT
BRANCH   1   2
ATOM      2  C   UNL     1      -9.111  22.873  14.334  1.00  0.00     0.053 C 
BRANCH   2   3
ATOM      3  C   UNL     1      -8.529  21.498  14.436  1.00  0.00     0.041 C 
ATOM      4  O   UNL     1      -9.277  20.507  14.646  1.00  0.00    -0.550 OA
ATOM      5  O   UNL     1      -7.155  21.316  14.347  1.00  0.00    -0.550 OA
ENDBRANCH   2   3
ENDBRANCH   1   2
BRANCH   1   6
ATOM      6  C   UNL     1      -8.400  25.327  14.286  1.00  0.00     0.000 C 
BRANCH   6   7
ATOM      7  C   UNL     1      -9.129  26.060  13.152  1.00  0.00    -0.003 C 
ATOM      8  C   UNL     1      -8.797  27.549  13.158  1.00  0.00     0.004 C 
ENDBRANCH   6   7
ENDBRANCH   1   6
TORSDOF 4
ENDMDL
MODEL 3
REMARK VINA RESULT:    -3.664      1.275      2.075
REMARK INTER + INTRA:          -4.606
REMARK INTER:                  -4.498
REMARK INTRA:                  -0.108
REMARK UNBOUND:                -0.085
REMARK SMILES CCCCCC(=O)[O-]
REMARK SMILES IDX 4 1 5 2 6 3 7 4 8 5 3 6 2 7 1 8
REMARK H PARENT
REMARK Flexibility Score: inf
ROOT
ATOM      1  C   UNL     1      -8.450  23.250  14.669  1.00  0.00     0.006 C 
ENDROOT
BRANCH   1   2
ATOM      2  C   UNL     1      -8.250  24.210  13.490  1.00  0.00     0.053 C 
BRANCH   2   3
ATOM      3  C   UNL     1      -8.709  25.587  13.854  1.00  0.00     0.041 C 
ATOM      4  O   UNL     1      -8.525  26.029  15.019  1.00  0.00    -0.550 OA
ATOM      5  O   UNL     1      -9.383  26.365  12.922  1.00  0.00    -0.550 OA
ENDBRANCH   2   3
ENDBRANCH   1   2
BRANCH   1   6
ATOM      6  C   UNL     1      -9.316  22.034  14.302  1.00  0.00     0.000 C 
BRANCH   6   7
ATOM      7  C   UNL     1      -8.686  20.706  14.743  1.00  0.00    -0.003 C 
ATOM      8  C   UNL     1      -7.175  20.717  14.529  1.00  0.00     0.004 C 
ENDBRANCH   6   7
ENDBRANCH   1   6
TORSDOF 4
ENDMDL
MODEL 4
REMARK VINA RESULT:    -3.393      4.192      5.044
REMARK INTER + INTRA:          -4.272
REMARK INTER:                  -4.223
REMARK INTRA:                  -0.049
REMARK UNBOUND:                -0.085
REMARK SMILES CCCCCC(=O)[O-]
REMARK SMILES IDX 4 1 5 2 6 3 7 4 8 5 3 6 2 7 1 8
REMARK H PARENT
REMARK Flexibility Score: inf
ROOT
ATOM      1  C   UNL     1      -6.866  20.583  14.291  1.00  0.00     0.006 C 
ENDROOT
BRANCH   1   2
ATOM      2  C   UNL     1      -7.372  21.920  14.846  1.00  0.00     0.053 C 
BRANCH   2   3
ATOM      3  C   UNL     1      -8.757  22.200  14.351  1.00  0.00     0.041 C 
ATOM      4  O   UNL     1      -9.091  23.371  14.033  1.00  0.00    -0.550 OA
ATOM      5  O   UNL     1      -9.693  21.176  14.288  1.00  0.00    -0.550 OA
ENDBRANCH   2   3
ENDBRANCH   1   2
BRANCH   1   6
ATOM      6  C   UNL     1      -5.451  20.237  14.780  1.00  0.00     0.000 C 
BRANCH   6   7
ATOM      7  C   UNL     1      -4.817  19.085  13.987  1.00  0.00    -0.003 C 
ATOM      8  C   UNL     1      -4.728  17.819  14.834  1.00  0.00     0.004 C 
ENDBRANCH   6   7
ENDBRANCH   1   6
TORSDOF 4
ENDMDL
MODEL 5
REMARK VINA RESULT:    -2.820      1.542      2.298
REMARK INTER + INTRA:          -3.564
REMARK INTER:                  -3.517
REMARK INTRA:                  -0.047
REMARK UNBOUND:                -0.085
REMARK SMILES CCCCCC(=O)[O-]
REMARK SMILES IDX 4 1 5 2 6 3 7 4 8 5 3 6 2 7 1 8
REMARK H PARENT
REMARK Flexibility Score: inf
ROOT
ATOM      1  C   UNL     1      -8.954  26.199  13.010  1.00  0.00     0.006 C 
ENDROOT
BRANCH   1   2
ATOM      2  C   UNL     1      -9.637  27.572  12.982  1.00  0.00     0.053 C 
BRANCH   2   3
ATOM      3  C   UNL     1      -8.711  28.625  13.505  1.00  0.00     0.041 C 
ATOM      4  O   UNL     1      -8.899  29.124  14.646  1.00  0.00    -0.550 OA
ATOM      5  O   UNL     1      -7.669  29.091  12.714  1.00  0.00    -0.550 OA
ENDBRANCH   2   3
ENDBRANCH   1   2
BRANCH   1   6
ATOM      6  C   UNL     1      -8.180  25.950  14.315  1.00  0.00     0.000 C 
BRANCH   6   7
ATOM      7  C   UNL     1      -7.777  24.479  14.491  1.00  0.00    -0.003 C 
ATOM      8  C   UNL     1      -8.916  23.545  14.094  1.00  0.00     0.004 C 
ENDBRANCH   6   7
ENDBRANCH   1   6
TORSDOF 4
ENDMDL
MODEL 6
REMARK VINA RESULT:    -2.798      8.382      9.580
REMARK INTER + INTRA:          -3.537
REMARK INTER:                  -3.381
REMARK INTRA:                  -0.156
REMARK UNBOUND:                -0.085
REMARK SMILES CCCCCC(=O)[O-]
REMARK SMILES IDX 4 1 5 2 6 3 7 4 8 5 3 6 2 7 1 8
REMARK H PARENT
REMARK Flexibility Score: inf
ROOT
ATOM      1  C   UNL     1      -3.715  18.628  13.115  1.00  0.00     0.006 C 
ENDROOT
BRANCH   1   2
ATOM      2  C   UNL     1      -2.193  18.655  12.930  1.00  0.00     0.053 C 
BRANCH   2   3
ATOM      3  C   UNL     1      -1.678  17.279  12.643  1.00  0.00     0.041 C 
ATOM      4  O   UNL     1      -0.849  16.739  13.422  1.00  0.00    -0.550 OA
ATOM      5  O   UNL     1      -2.075  16.614  11.491  1.00  0.00    -0.550 OA
ENDBRANCH   2   3
ENDBRANCH   1   2
BRANCH   1   6
ATOM      6  C   UNL     1      -4.146  17.823  14.352  1.00  0.00     0.000 C 
BRANCH   6   7
ATOM      7  C   UNL     1      -5.423  18.376  15.001  1.00  0.00    -0.003 C 
ATOM      8  C   UNL     1      -5.792  19.736  14.416  1.00  0.00     0.004 C 
ENDBRANCH   6   7
ENDBRANCH   1   6
TORSDOF 4
ENDMDL
MODEL 7
REMARK VINA RESULT:    -2.789      8.465      9.513
REMARK INTER + INTRA:          -3.526
REMARK INTER:                  -3.348
REMARK INTRA:                  -0.177
REMARK UNBOUND:                -0.085
REMARK SMILES CCCCCC(=O)[O-]
REMARK SMILES IDX 4 1 5 2 6 3 7 4 8 5 3 6 2 7 1 8
REMARK H PARENT
REMARK Flexibility Score: inf
ROOT
ATOM      1  C   UNL     1      -1.905  18.526  13.430  1.00  0.00     0.006 C 
ENDROOT
BRANCH   1   2
ATOM      2  C   UNL     1      -3.313  18.659  12.835  1.00  0.00     0.053 C 
BRANCH   2   3
ATOM      3  C   UNL     1      -4.347  18.525  13.909  1.00  0.00     0.041 C 
ATOM      4  O   UNL     1      -4.367  17.503  14.645  1.00  0.00    -0.550 OA
ATOM      5  O   UNL     1      -5.319  19.505  14.065  1.00  0.00    -0.550 OA
ENDBRANCH   2   3
ENDBRANCH   1   2
BRANCH   1   6
ATOM      6  C   UNL     1      -1.110  17.364  12.813  1.00  0.00     0.000 C 
BRANCH   6   7
ATOM      7  C   UNL     1      -1.872  16.663  11.680  1.00  0.00    -0.003 C 
ATOM      8  C   UNL     1      -1.846  15.147  11.856  1.00  0.00     0.004 C 
ENDBRANCH   6   7
ENDBRANCH   1   6
TORSDOF 4
ENDMDL
