MODEL 1
REMARK VINA RESULT:    -3.860      0.000      0.000
REMARK INTER + INTRA:          -4.687
REMARK INTER:                  -4.424
REMARK INTRA:                  -0.263
REMARK UNBOUND:                -0.263
REMARK SMILES COC(=O)c1ccccc1O
REMARK SMILES IDX 5 1 6 2 7 3 8 4 9 5 10 6 3 7 4 8 2 9 1 10 11 11
REMARK H PARENT 11 12
REMARK Flexibility Score: inf
ROOT
ATOM      1  C   UNL     1      38.660 184.106 171.595  1.00  0.00     0.101 A 
ATOM      2  C   UNL     1      38.669 185.328 172.291  1.00  0.00     0.019 A 
ATOM      3  C   UNL     1      39.856 185.836 172.823  1.00  0.00     0.001 A 
ATOM      4  C   UNL     1      41.049 185.132 172.668  1.00  0.00     0.004 A 
ATOM      5  C   UNL     1      41.063 183.928 171.963  1.00  0.00     0.047 A 
ATOM      6  C   UNL     1      39.885 183.415 171.405  1.00  0.00     0.130 A 
ENDROOT
BRANCH   1   7
ATOM      7  C   UNL     1      37.361 183.578 171.120  1.00  0.00     0.341 C 
ATOM      8  O   UNL     1      36.892 182.510 171.598  1.00  0.00    -0.246 OA
BRANCH   7   9
ATOM      9  O   UNL     1      36.627 184.309 170.180  1.00  0.00    -0.465 OA
ATOM     10  C   UNL     1      37.056 184.478 168.835  1.00  0.00     0.282 C 
ENDBRANCH   7   9
ENDBRANCH   1   7
BRANCH   6  11
ATOM     11  O   UNL     1      39.981 182.246 170.646  1.00  0.00    -0.507 OA
ATOM     12  H   UNL     1      39.183 181.765 170.258  1.00  0.00     0.293 HD
ENDBRANCH   6  11
TORSDOF 3
ENDMDL
MODEL 2
REMARK VINA RESULT:    -3.817     21.080     22.247
REMARK INTER + INTRA:          -4.638
REMARK INTER:                  -4.336
REMARK INTRA:                  -0.303
REMARK UNBOUND:                -0.263
REMARK SMILES COC(=O)c1ccccc1O
REMARK SMILES IDX 5 1 6 2 7 3 8 4 9 5 10 6 3 7 4 8 2 9 1 10 11 11
REMARK H PARENT 11 12
REMARK Flexibility Score: inf
ROOT
ATOM      1  C   UNL     1      32.235 168.799 156.904  1.00  0.00     0.101 A 
ATOM      2  C   UNL     1      31.229 169.221 156.015  1.00  0.00     0.019 A 
ATOM      3  C   UNL     1      31.534 169.526 154.687  1.00  0.00     0.001 A 
ATOM      4  C   UNL     1      32.845 169.414 154.227  1.00  0.00     0.004 A 
ATOM      5  C   UNL     1      33.852 168.977 155.088  1.00  0.00     0.047 A 
ATOM      6  C   UNL     1      33.560 168.647 156.417  1.00  0.00     0.130 A 
ENDROOT
BRANCH   1   7
ATOM      7  C   UNL     1      31.868 168.563 158.318  1.00  0.00     0.341 C 
ATOM      8  O   UNL     1      31.058 169.331 158.905  1.00  0.00    -0.246 OA
BRANCH   7   9
ATOM      9  O   UNL     1      32.380 167.443 158.981  1.00  0.00    -0.465 OA
ATOM     10  C   UNL     1      32.409 167.338 160.400  1.00  0.00     0.282 C 
ENDBRANCH   7   9
ENDBRANCH   1   7
BRANCH   6  11
ATOM     11  O   UNL     1      34.598 168.142 157.205  1.00  0.00    -0.507 OA
ATOM     12  H   UNL     1      34.510 167.319 157.784  1.00  0.00     0.293 HD
ENDBRANCH   6  11
TORSDOF 3
ENDMDL
MODEL 3
REMARK VINA RESULT:    -3.729      1.798      2.170
REMARK INTER + INTRA:          -4.537
REMARK INTER:                  -4.260
REMARK INTRA:                  -0.277
REMARK UNBOUND:                -0.263
REMARK SMILES COC(=O)c1ccccc1O
REMARK SMILES IDX 5 1 6 2 7 3 8 4 9 5 10 6 3 7 4 8 2 9 1 10 11 11
REMARK H PARENT 11 12
REMARK Flexibility Score: inf
ROOT
ATOM      1  C   UNL     1      37.967 183.452 171.150  1.00  0.00     0.101 A 
ATOM      2  C   UNL     1      37.827 183.477 172.549  1.00  0.00     0.019 A 
ATOM      3  C   UNL     1      38.879 183.082 173.378  1.00  0.00     0.001 A 
ATOM      4  C   UNL     1      40.085 182.657 172.823  1.00  0.00     0.004 A 
ATOM      5  C   UNL     1      40.250 182.645 171.438  1.00  0.00     0.047 A 
ATOM      6  C   UNL     1      39.212 183.058 170.592  1.00  0.00     0.130 A 
ENDROOT
BRANCH   1   7
ATOM      7  C   UNL     1      36.795 183.808 170.320  1.00  0.00     0.341 C 
ATOM      8  O   UNL     1      36.950 184.231 169.143  1.00  0.00    -0.246 OA
BRANCH   7   9
ATOM      9  O   UNL     1      35.508 183.610 170.831  1.00  0.00    -0.465 OA
ATOM     10  C   UNL     1      34.618 182.630 170.311  1.00  0.00     0.282 C 
ENDBRANCH   7   9
ENDBRANCH   1   7
BRANCH   6  11
ATOM     11  O   UNL     1      39.469 183.096 169.219  1.00  0.00    -0.507 OA
ATOM     12  H   UNL     1      38.872 182.665 168.527  1.00  0.00     0.293 HD
ENDBRANCH   6  11
TORSDOF 3
ENDMDL
MODEL 4
REMARK VINA RESULT:    -3.718     20.962     22.041
REMARK INTER + INTRA:          -4.524
REMARK INTER:                  -4.199
REMARK INTRA:                  -0.325
REMARK UNBOUND:                -0.263
REMARK SMILES COC(=O)c1ccccc1O
REMARK SMILES IDX 5 1 6 2 7 3 8 4 9 5 10 6 3 7 4 8 2 9 1 10 11 11
REMARK H PARENT 11 12
REMARK Flexibility Score: inf
ROOT
ATOM      1  C   UNL     1      32.039 168.762 157.120  1.00  0.00     0.101 A 
ATOM      2  C   UNL     1      32.046 169.431 155.883  1.00  0.00     0.019 A 
ATOM      3  C   UNL     1      33.168 169.379 155.052  1.00  0.00     0.001 A 
ATOM      4  C   UNL     1      34.296 168.660 155.444  1.00  0.00     0.004 A 
ATOM      5  C   UNL     1      34.299 167.974 156.658  1.00  0.00     0.047 A 
ATOM      6  C   UNL     1      33.176 167.998 157.494  1.00  0.00     0.130 A 
ENDROOT
BRANCH   1   7
ATOM      7  C   UNL     1      30.854 168.914 157.993  1.00  0.00     0.341 C 
ATOM      8  O   UNL     1      29.692 168.764 157.526  1.00  0.00    -0.246 OA
BRANCH   7   9
ATOM      9  O   UNL     1      31.034 169.164 159.358  1.00  0.00    -0.465 OA
ATOM     10  C   UNL     1      30.253 168.531 160.363  1.00  0.00     0.282 C 
ENDBRANCH   7   9
ENDBRANCH   1   7
BRANCH   6  11
ATOM     11  O   UNL     1      33.215 167.226 158.659  1.00  0.00    -0.507 OA
ATOM     12  H   UNL     1      34.069 166.994 159.146  1.00  0.00     0.293 HD
ENDBRANCH   6  11
TORSDOF 3
ENDMDL
MODEL 5
REMARK VINA RESULT:    -3.700      2.392      4.226
REMARK INTER + INTRA:          -4.503
REMARK INTER:                  -4.263
REMARK INTRA:                  -0.241
REMARK UNBOUND:                -0.263
REMARK SMILES COC(=O)c1ccccc1O
REMARK SMILES IDX 5 1 6 2 7 3 8 4 9 5 10 6 3 7 4 8 2 9 1 10 11 11
REMARK H PARENT 11 12
REMARK Flexibility Score: inf
ROOT
ATOM      1  C   UNL     1      40.257 183.398 172.112  1.00  0.00     0.101 A 
ATOM      2  C   UNL     1      39.023 183.222 171.462  1.00  0.00     0.019 A 
ATOM      3  C   UNL     1      38.077 184.249 171.438  1.00  0.00     0.001 A 
ATOM      4  C   UNL     1      38.350 185.465 172.062  1.00  0.00     0.004 A 
ATOM      5  C   UNL     1      39.577 185.665 172.695  1.00  0.00     0.047 A 
ATOM      6  C   UNL     1      40.545 184.653 172.710  1.00  0.00     0.130 A 
ENDROOT
BRANCH   1   7
ATOM      7  C   UNL     1      41.190 182.250 172.171  1.00  0.00     0.341 C 
ATOM      8  O   UNL     1      40.966 181.210 171.495  1.00  0.00    -0.246 OA
BRANCH   7   9
ATOM      9  O   UNL     1      42.356 182.353 172.936  1.00  0.00    -0.465 OA
ATOM     10  C   UNL     1      43.471 181.489 172.755  1.00  0.00     0.282 C 
ENDBRANCH   7   9
ENDBRANCH   1   7
BRANCH   6  11
ATOM     11  O   UNL     1      41.781 184.945 173.292  1.00  0.00    -0.507 OA
ATOM     12  H   UNL     1      42.421 184.240 173.627  1.00  0.00     0.293 HD
ENDBRANCH   6  11
TORSDOF 3
ENDMDL
MODEL 6
REMARK VINA RESULT:    -3.679      1.800      2.452
REMARK INTER + INTRA:          -4.480
REMARK INTER:                  -4.215
REMARK INTRA:                  -0.265
REMARK UNBOUND:                -0.263
REMARK SMILES COC(=O)c1ccccc1O
REMARK SMILES IDX 5 1 6 2 7 3 8 4 9 5 10 6 3 7 4 8 2 9 1 10 11 11
REMARK H PARENT 11 12
REMARK Flexibility Score: inf
ROOT
ATOM      1  C   UNL     1      39.208 184.245 171.904  1.00  0.00     0.101 A 
ATOM      2  C   UNL     1      39.443 182.859 171.931  1.00  0.00     0.019 A 
ATOM      3  C   UNL     1      40.619 182.347 172.484  1.00  0.00     0.001 A 
ATOM      4  C   UNL     1      41.575 183.210 173.018  1.00  0.00     0.004 A 
ATOM      5  C   UNL     1      41.349 184.586 173.018  1.00  0.00     0.047 A 
ATOM      6  C   UNL     1      40.166 185.115 172.487  1.00  0.00     0.130 A 
ENDROOT
BRANCH   1   7
ATOM      7  C   UNL     1      37.981 184.736 171.238  1.00  0.00     0.341 C 
ATOM      8  O   UNL     1      37.543 185.894 171.478  1.00  0.00    -0.246 OA
BRANCH   7   9
ATOM      9  O   UNL     1      37.345 183.928 170.290  1.00  0.00    -0.465 OA
ATOM     10  C   UNL     1      37.077 184.367 168.963  1.00  0.00     0.282 C 
ENDBRANCH   7   9
ENDBRANCH   1   7
BRANCH   6  11
ATOM     11  O   UNL     1      39.968 186.495 172.590  1.00  0.00    -0.507 OA
ATOM     12  H   UNL     1      39.206 186.913 173.106  1.00  0.00     0.293 HD
ENDBRANCH   6  11
TORSDOF 3
ENDMDL
MODEL 7
REMARK VINA RESULT:    -3.637      1.952      3.803
REMARK INTER + INTRA:          -4.431
REMARK INTER:                  -4.126
REMARK INTRA:                  -0.305
REMARK UNBOUND:                -0.263
REMARK SMILES COC(=O)c1ccccc1O
REMARK SMILES IDX 5 1 6 2 7 3 8 4 9 5 10 6 3 7 4 8 2 9 1 10 11 11
REMARK H PARENT 11 12
REMARK Flexibility Score: inf
ROOT
ATOM      1  C   UNL     1      38.920 183.016 171.658  1.00  0.00     0.101 A 
ATOM      2  C   UNL     1      37.936 183.240 172.637  1.00  0.00     0.019 A 
ATOM      3  C   UNL     1      36.709 183.813 172.296  1.00  0.00     0.001 A 
ATOM      4  C   UNL     1      36.447 184.170 170.974  1.00  0.00     0.004 A 
ATOM      5  C   UNL     1      37.404 183.936 169.986  1.00  0.00     0.047 A 
ATOM      6  C   UNL     1      38.631 183.343 170.307  1.00  0.00     0.130 A 
ENDROOT
BRANCH   1   7
ATOM      7  C   UNL     1      40.230 182.477 172.089  1.00  0.00     0.341 C 
ATOM      8  O   UNL     1      40.734 181.480 171.505  1.00  0.00    -0.246 OA
BRANCH   7   9
ATOM      9  O   UNL     1      40.935 183.123 173.109  1.00  0.00    -0.465 OA
ATOM     10  C   UNL     1      41.358 184.478 173.011  1.00  0.00     0.282 C 
ENDBRANCH   7   9
ENDBRANCH   1   7
BRANCH   6  11
ATOM     11  O   UNL     1      39.513 183.066 169.259  1.00  0.00    -0.507 OA
ATOM     12  H   UNL     1      40.514 182.997 169.374  1.00  0.00     0.293 HD
ENDBRANCH   6  11
TORSDOF 3
ENDMDL
MODEL 8
REMARK VINA RESULT:    -3.607      3.873      6.169
REMARK INTER + INTRA:          -4.397
REMARK INTER:                  -4.124
REMARK INTRA:                  -0.273
REMARK UNBOUND:                -0.263
REMARK SMILES COC(=O)c1ccccc1O
REMARK SMILES IDX 5 1 6 2 7 3 8 4 9 5 10 6 3 7 4 8 2 9 1 10 11 11
REMARK H PARENT 11 12
REMARK Flexibility Score: inf
ROOT
ATOM      1  C   UNL     1      34.816 181.453 171.048  1.00  0.00     0.101 A 
ATOM      2  C   UNL     1      35.041 180.283 171.796  1.00  0.00     0.019 A 
ATOM      3  C   UNL     1      34.136 179.221 171.748  1.00  0.00     0.001 A 
ATOM      4  C   UNL     1      32.995 179.311 170.952  1.00  0.00     0.004 A 
ATOM      5  C   UNL     1      32.766 180.455 170.187  1.00  0.00     0.047 A 
ATOM      6  C   UNL     1      33.674 181.520 170.207  1.00  0.00     0.130 A 
ENDROOT
BRANCH   1   7
ATOM      7  C   UNL     1      35.769 182.576 171.197  1.00  0.00     0.341 C 
ATOM      8  O   UNL     1      36.609 182.580 172.137  1.00  0.00    -0.246 OA
BRANCH   7   9
ATOM      9  O   UNL     1      35.772 183.603 170.248  1.00  0.00    -0.465 OA
ATOM     10  C   UNL     1      36.967 184.092 169.651  1.00  0.00     0.282 C 
ENDBRANCH   7   9
ENDBRANCH   1   7
BRANCH   6  11
ATOM     11  O   UNL     1      33.426 182.603 169.359  1.00  0.00    -0.507 OA
ATOM     12  H   UNL     1      34.032 182.864 168.594  1.00  0.00     0.293 HD
ENDBRANCH   6  11
TORSDOF 3
ENDMDL
MODEL 9
REMARK VINA RESULT:    -3.575     21.032     22.394
REMARK INTER + INTRA:          -4.361
REMARK INTER:                  -4.077
REMARK INTRA:                  -0.284
REMARK UNBOUND:                -0.263
REMARK SMILES COC(=O)c1ccccc1O
REMARK SMILES IDX 5 1 6 2 7 3 8 4 9 5 10 6 3 7 4 8 2 9 1 10 11 11
REMARK H PARENT 11 12
REMARK Flexibility Score: inf
ROOT
ATOM      1  C   UNL     1      32.170 168.835 156.961  1.00  0.00     0.101 A 
ATOM      2  C   UNL     1      33.545 168.800 156.666  1.00  0.00     0.019 A 
ATOM      3  C   UNL     1      33.997 168.972 155.356  1.00  0.00     0.001 A 
ATOM      4  C   UNL     1      33.084 169.181 154.323  1.00  0.00     0.004 A 
ATOM      5  C   UNL     1      31.718 169.239 154.601  1.00  0.00     0.047 A 
ATOM      6  C   UNL     1      31.249 169.090 155.912  1.00  0.00     0.130 A 
ENDROOT
BRANCH   1   7
ATOM      7  C   UNL     1      31.745 168.571 158.354  1.00  0.00     0.341 C 
ATOM      8  O   UNL     1      30.787 169.215 158.862  1.00  0.00    -0.246 OA
BRANCH   7   9
ATOM      9  O   UNL     1      32.373 167.556 159.083  1.00  0.00    -0.465 OA
ATOM     10  C   UNL     1      32.313 167.480 160.502  1.00  0.00     0.282 C 
ENDBRANCH   7   9
ENDBRANCH   1   7
BRANCH   6  11
ATOM     11  O   UNL     1      29.877 169.237 156.132  1.00  0.00    -0.507 OA
ATOM     12  H   UNL     1      29.376 168.761 156.868  1.00  0.00     0.293 HD
ENDBRANCH   6  11
TORSDOF 3
ENDMDL
