MODEL 1
REMARK VINA RESULT:    -4.327      0.000      0.000
REMARK INTER + INTRA:          -6.494
REMARK INTER:                  -5.972
REMARK INTRA:                  -0.522
REMARK UNBOUND:                -0.522
REMARK SMILES CC[C@@H](CC[C@H](C)[C@H]1CC[C@H]2[C@H]3CC=C4C[C@H](O)CC[C@@]4(C)[C@@H]3CC[C@@]12C)C(C)C
REMARK SMILES IDX 5 1 4 2 3 3 2 4 1 5 28 6 29 7 30 8 6 9 7 10 8 11 9 12 26 13
REMARK SMILES IDX 10 14 11 15 25 16 27 17 12 18 24 19 23 20 13 21 21 22 14 23
REMARK SMILES IDX 15 24 20 25 22 26 16 27 19 28 17 29 18 30
REMARK H PARENT 18 31
REMARK Flexibility Score: inf
ROOT
ATOM      1  C   UNL     1       3.667  41.805  12.817  1.00  0.00     0.004 C 
ENDROOT
BRANCH   1   2
ATOM      2  C   UNL     1       2.597  40.826  12.263  1.00  0.00     0.004 C 
BRANCH   2   3
ATOM      3  C   UNL     1       1.842  40.026  13.361  1.00  0.00    -0.009 C 
BRANCH   3   4
ATOM      4  C   UNL     1       1.714  38.515  12.991  1.00  0.00     0.000 C 
ATOM      5  C   UNL     1       2.934  37.995  12.230  1.00  0.00     0.004 C 
ENDBRANCH   3   4
BRANCH   3   6
ATOM      6  C   UNL     1       0.470  40.696  13.693  1.00  0.00    -0.014 C 
ATOM      7  C   UNL     1      -0.748  39.812  13.372  1.00  0.00     0.007 C 
ATOM      8  C   UNL     1       0.407  41.195  15.147  1.00  0.00     0.007 C 
ENDBRANCH   3   6
ENDBRANCH   2   3
ENDBRANCH   1   2
BRANCH   1   9
ATOM      9  C   UNL     1       3.840  43.100  11.965  1.00  0.00    -0.011 C 
ATOM     10  C   UNL     1       4.177  44.294  12.868  1.00  0.00     0.008 C 
BRANCH   9  11
ATOM     11  C   UNL     1       2.712  43.431  10.913  1.00  0.00    -0.002 C 
ATOM     12  C   UNL     1       1.336  43.707  11.533  1.00  0.00     0.005 C 
ATOM     13  C   UNL     1       2.883  44.533   9.815  1.00  0.00    -0.026 C 
ATOM     14  C   UNL     1       0.510  44.414  10.459  1.00  0.00     0.005 C 
ATOM     15  C   UNL     1       1.438  44.623   9.251  1.00  0.00    -0.001 C 
ATOM     16  C   UNL     1       3.313  45.899  10.419  1.00  0.00     0.007 C 
ATOM     17  C   UNL     1       3.860  44.096   8.690  1.00  0.00     0.012 C 
ATOM     18  C   UNL     1       1.151  45.895   8.389  1.00  0.00     0.000 C 
ATOM     19  C   UNL     1       3.109  47.075   9.460  1.00  0.00     0.005 C 
ATOM     20  C   UNL     1       1.618  47.207   9.071  1.00  0.00     0.003 C 
ATOM     21  C   UNL     1      -0.320  45.950   7.888  1.00  0.00     0.031 C 
ATOM     22  C   UNL     1       1.288  48.462   8.176  1.00  0.00    -0.008 C 
ATOM     23  C   UNL     1      -0.914  47.330   7.769  1.00  0.00    -0.027 C 
ATOM     24  C   UNL     1      -0.220  48.476   7.927  1.00  0.00    -0.065 C 
ATOM     25  C   UNL     1       1.680  49.772   8.922  1.00  0.00     0.014 C 
ATOM     26  C   UNL     1       2.025  48.411   6.809  1.00  0.00     0.016 C 
ATOM     27  C   UNL     1      -1.002  49.772   8.044  1.00  0.00     0.063 C 
ATOM     28  C   UNL     1       1.209  51.067   8.225  1.00  0.00     0.033 C 
ATOM     29  C   UNL     1      -0.193  50.983   7.572  1.00  0.00     0.118 C 
BRANCH  29  30
ATOM     30  O   UNL     1      -0.084  50.941   6.172  1.00  0.00    -0.393 OA
ATOM     31  H   UNL     1       0.866  50.733   5.963  1.00  0.00     0.210 HD
ENDBRANCH  29  30
ENDBRANCH   9  11
ENDBRANCH   1   9
TORSDOF 7
ENDMDL
MODEL 2
REMARK VINA RESULT:    -3.785      0.444      1.554
REMARK INTER + INTRA:          -5.745
REMARK INTER:                  -4.828
REMARK INTRA:                  -0.917
REMARK UNBOUND:                -0.522
REMARK SMILES CC[C@@H](CC[C@H](C)[C@H]1CC[C@H]2[C@H]3CC=C4C[C@H](O)CC[C@@]4(C)[C@@H]3CC[C@@]12C)C(C)C
REMARK SMILES IDX 5 1 4 2 3 3 2 4 1 5 28 6 29 7 30 8 6 9 7 10 8 11 9 12 26 13
REMARK SMILES IDX 10 14 11 15 25 16 27 17 12 18 24 19 23 20 13 21 21 22 14 23
REMARK SMILES IDX 15 24 20 25 22 26 16 27 19 28 17 29 18 30
REMARK H PARENT 18 31
REMARK Flexibility Score: inf
ROOT
ATOM      1  C   UNL     1       3.703  41.842  12.928  1.00  0.00     0.004 C 
ENDROOT
BRANCH   1   2
ATOM      2  C   UNL     1       3.237  40.572  12.166  1.00  0.00     0.004 C 
BRANCH   2   3
ATOM      3  C   UNL     1       1.901  39.974  12.687  1.00  0.00    -0.009 C 
BRANCH   3   4
ATOM      4  C   UNL     1       1.396  40.714  13.965  1.00  0.00     0.000 C 
ATOM      5  C   UNL     1      -0.100  41.023  13.908  1.00  0.00     0.004 C 
ENDBRANCH   3   4
BRANCH   3   6
ATOM      6  C   UNL     1       2.022  38.428  12.880  1.00  0.00    -0.014 C 
ATOM      7  C   UNL     1       0.736  37.656  12.540  1.00  0.00     0.007 C 
ATOM      8  C   UNL     1       3.221  37.843  12.113  1.00  0.00     0.007 C 
ENDBRANCH   3   6
ENDBRANCH   2   3
ENDBRANCH   1   2
BRANCH   1   9
ATOM      9  C   UNL     1       3.879  43.096  12.018  1.00  0.00    -0.011 C 
ATOM     10  C   UNL     1       4.279  44.316  12.858  1.00  0.00     0.008 C 
BRANCH   9  11
ATOM     11  C   UNL     1       2.723  43.415  10.992  1.00  0.00    -0.002 C 
ATOM     12  C   UNL     1       1.364  43.697  11.645  1.00  0.00     0.005 C 
ATOM     13  C   UNL     1       2.866  44.504   9.877  1.00  0.00    -0.026 C 
ATOM     14  C   UNL     1       0.510  44.392  10.585  1.00  0.00     0.005 C 
ATOM     15  C   UNL     1       1.406  44.589   9.351  1.00  0.00    -0.001 C 
ATOM     16  C   UNL     1       3.310  45.878  10.455  1.00  0.00     0.007 C 
ATOM     17  C   UNL     1       3.813  44.055   8.732  1.00  0.00     0.012 C 
ATOM     18  C   UNL     1       1.096  45.850   8.482  1.00  0.00     0.000 C 
ATOM     19  C   UNL     1       3.081  47.043   9.488  1.00  0.00     0.005 C 
ATOM     20  C   UNL     1       1.580  47.170   9.137  1.00  0.00     0.003 C 
ATOM     21  C   UNL     1      -0.387  45.899   8.020  1.00  0.00     0.031 C 
ATOM     22  C   UNL     1       1.226  48.415   8.237  1.00  0.00    -0.008 C 
ATOM     23  C   UNL     1      -0.985  47.278   7.900  1.00  0.00    -0.027 C 
ATOM     24  C   UNL     1      -0.288  48.426   8.027  1.00  0.00    -0.065 C 
ATOM     25  C   UNL     1       1.637  49.734   8.958  1.00  0.00     0.014 C 
ATOM     26  C   UNL     1       1.927  48.349   6.852  1.00  0.00     0.016 C 
ATOM     27  C   UNL     1      -1.067  49.723   8.151  1.00  0.00     0.063 C 
ATOM     28  C   UNL     1       1.148  51.020   8.259  1.00  0.00     0.033 C 
ATOM     29  C   UNL     1      -0.271  50.929   7.644  1.00  0.00     0.118 C 
BRANCH  29  30
ATOM     30  O   UNL     1      -0.199  50.871   6.242  1.00  0.00    -0.393 OA
ATOM     31  H   UNL     1      -0.641  50.024   5.965  1.00  0.00     0.210 HD
ENDBRANCH  29  30
ENDBRANCH   9  11
ENDBRANCH   1   9
TORSDOF 7
ENDMDL
MODEL 3
REMARK VINA RESULT:    -3.657      1.342      2.891
REMARK INTER + INTRA:          -5.568
REMARK INTER:                  -5.112
REMARK INTRA:                  -0.455
REMARK UNBOUND:                -0.522
REMARK SMILES CC[C@@H](CC[C@H](C)[C@H]1CC[C@H]2[C@H]3CC=C4C[C@H](O)CC[C@@]4(C)[C@@H]3CC[C@@]12C)C(C)C
REMARK SMILES IDX 5 1 4 2 3 3 2 4 1 5 28 6 29 7 30 8 6 9 7 10 8 11 9 12 26 13
REMARK SMILES IDX 10 14 11 15 25 16 27 17 12 18 24 19 23 20 13 21 21 22 14 23
REMARK SMILES IDX 15 24 20 25 22 26 16 27 19 28 17 29 18 30
REMARK H PARENT 18 31
REMARK Flexibility Score: inf
ROOT
ATOM      1  C   UNL     1       1.774  41.087  12.702  1.00  0.00     0.004 C 
ENDROOT
BRANCH   1   2
ATOM      2  C   UNL     1       1.409  39.889  13.619  1.00  0.00     0.004 C 
BRANCH   2   3
ATOM      3  C   UNL     1      -0.039  39.942  14.183  1.00  0.00    -0.009 C 
BRANCH   3   4
ATOM      4  C   UNL     1      -1.090  39.485  13.124  1.00  0.00     0.000 C 
ATOM      5  C   UNL     1      -0.977  37.996  12.793  1.00  0.00     0.004 C 
ENDBRANCH   3   4
BRANCH   3   6
ATOM      6  C   UNL     1      -0.348  41.349  14.789  1.00  0.00    -0.014 C 
ATOM      7  C   UNL     1      -1.124  42.278  13.839  1.00  0.00     0.007 C 
ATOM      8  C   UNL     1      -1.062  41.247  16.148  1.00  0.00     0.007 C 
ENDBRANCH   3   6
ENDBRANCH   2   3
ENDBRANCH   1   2
BRANCH   1   9
ATOM      9  C   UNL     1       3.153  40.939  11.987  1.00  0.00    -0.011 C 
ATOM     10  C   UNL     1       4.189  40.332  12.942  1.00  0.00     0.008 C 
BRANCH   9  11
ATOM     11  C   UNL     1       3.703  42.197  11.209  1.00  0.00    -0.002 C 
ATOM     12  C   UNL     1       3.740  42.025   9.685  1.00  0.00     0.005 C 
ATOM     13  C   UNL     1       3.140  43.639  11.436  1.00  0.00    -0.026 C 
ATOM     14  C   UNL     1       3.869  43.429   9.094  1.00  0.00     0.005 C 
ATOM     15  C   UNL     1       3.819  44.414  10.273  1.00  0.00    -0.001 C 
ATOM     16  C   UNL     1       1.593  43.693  11.287  1.00  0.00     0.007 C 
ATOM     17  C   UNL     1       3.584  44.237  12.798  1.00  0.00     0.012 C 
ATOM     18  C   UNL     1       3.191  45.811   9.963  1.00  0.00     0.000 C 
ATOM     19  C   UNL     1       1.052  45.114  11.109  1.00  0.00     0.005 C 
ATOM     20  C   UNL     1       1.646  45.766   9.838  1.00  0.00     0.003 C 
ATOM     21  C   UNL     1       3.886  46.519   8.766  1.00  0.00     0.031 C 
ATOM     22  C   UNL     1       1.060  47.190   9.503  1.00  0.00    -0.008 C 
ATOM     23  C   UNL     1       2.990  47.378   7.911  1.00  0.00    -0.027 C 
ATOM     24  C   UNL     1       1.705  47.668   8.202  1.00  0.00    -0.065 C 
ATOM     25  C   UNL     1      -0.481  47.101   9.289  1.00  0.00     0.014 C 
ATOM     26  C   UNL     1       1.363  48.221  10.625  1.00  0.00     0.016 C 
ATOM     27  C   UNL     1       0.857  48.314   7.122  1.00  0.00     0.063 C 
ATOM     28  C   UNL     1      -1.125  48.397   8.753  1.00  0.00     0.033 C 
ATOM     29  C   UNL     1      -0.279  49.160   7.703  1.00  0.00     0.118 C 
BRANCH  29  30
ATOM     30  O   UNL     1       0.262  50.330   8.260  1.00  0.00    -0.393 OA
ATOM     31  H   UNL     1      -0.383  50.648   8.947  1.00  0.00     0.210 HD
ENDBRANCH  29  30
ENDBRANCH   9  11
ENDBRANCH   1   9
TORSDOF 7
ENDMDL
MODEL 4
REMARK VINA RESULT:    -2.135      1.088      1.632
REMARK INTER + INTRA:          -3.468
REMARK INTER:                  -3.033
REMARK INTRA:                  -0.435
REMARK UNBOUND:                -0.522
REMARK SMILES CC[C@@H](CC[C@H](C)[C@H]1CC[C@H]2[C@H]3CC=C4C[C@H](O)CC[C@@]4(C)[C@@H]3CC[C@@]12C)C(C)C
REMARK SMILES IDX 5 1 4 2 3 3 2 4 1 5 28 6 29 7 30 8 6 9 7 10 8 11 9 12 26 13
REMARK SMILES IDX 10 14 11 15 25 16 27 17 12 18 24 19 23 20 13 21 21 22 14 23
REMARK SMILES IDX 15 24 20 25 22 26 16 27 19 28 17 29 18 30
REMARK H PARENT 18 31
REMARK Flexibility Score: inf
ROOT
ATOM      1  C   UNL     1       3.788  42.608  12.483  1.00  0.00     0.004 C 
ENDROOT
BRANCH   1   2
ATOM      2  C   UNL     1       3.679  41.175  11.897  1.00  0.00     0.004 C 
BRANCH   2   3
ATOM      3  C   UNL     1       3.299  40.090  12.943  1.00  0.00    -0.009 C 
BRANCH   3   4
ATOM      4  C   UNL     1       4.527  39.209  13.335  1.00  0.00     0.000 C 
ATOM      5  C   UNL     1       5.695  40.040  13.867  1.00  0.00     0.004 C 
ENDBRANCH   3   4
BRANCH   3   6
ATOM      6  C   UNL     1       2.073  39.253  12.454  1.00  0.00    -0.014 C 
ATOM      7  C   UNL     1       2.397  37.772  12.189  1.00  0.00     0.007 C 
ATOM      8  C   UNL     1       0.871  39.381  13.406  1.00  0.00     0.007 C 
ENDBRANCH   3   6
ENDBRANCH   2   3
ENDBRANCH   1   2
BRANCH   1   9
ATOM      9  C   UNL     1       2.410  43.291  12.743  1.00  0.00    -0.011 C 
ATOM     10  C   UNL     1       1.635  42.537  13.831  1.00  0.00     0.008 C 
BRANCH   9  11
ATOM     11  C   UNL     1       1.521  43.631  11.485  1.00  0.00    -0.002 C 
ATOM     12  C   UNL     1       0.092  44.073  11.826  1.00  0.00     0.005 C 
ATOM     13  C   UNL     1       1.990  44.621  10.366  1.00  0.00    -0.026 C 
ATOM     14  C   UNL     1      -0.460  44.759  10.577  1.00  0.00     0.005 C 
ATOM     15  C   UNL     1       0.681  44.789   9.546  1.00  0.00    -0.001 C 
ATOM     16  C   UNL     1       2.440  45.990  10.949  1.00  0.00     0.007 C 
ATOM     17  C   UNL     1       3.100  44.012   9.468  1.00  0.00     0.012 C 
ATOM     18  C   UNL     1       0.676  46.006   8.565  1.00  0.00     0.000 C 
ATOM     19  C   UNL     1       2.524  47.097   9.894  1.00  0.00     0.005 C 
ATOM     20  C   UNL     1       1.144  47.325   9.234  1.00  0.00     0.003 C 
ATOM     21  C   UNL     1      -0.672  46.146   7.804  1.00  0.00     0.031 C 
ATOM     22  C   UNL     1       1.101  48.526   8.214  1.00  0.00    -0.008 C 
ATOM     23  C   UNL     1      -1.097  47.557   7.489  1.00  0.00    -0.027 C 
ATOM     24  C   UNL     1      -0.332  48.649   7.696  1.00  0.00    -0.065 C 
ATOM     25  C   UNL     1       1.484  49.854   8.933  1.00  0.00     0.014 C 
ATOM     26  C   UNL     1       2.056  48.301   7.010  1.00  0.00     0.016 C 
ATOM     27  C   UNL     1      -0.990  50.013   7.586  1.00  0.00     0.063 C 
ATOM     28  C   UNL     1       1.273  51.123   8.080  1.00  0.00     0.033 C 
ATOM     29  C   UNL     1       0.005  51.107   7.190  1.00  0.00     0.118 C 
BRANCH  29  30
ATOM     30  O   UNL     1       0.352  50.942   5.839  1.00  0.00    -0.393 OA
ATOM     31  H   UNL     1       0.878  50.100   5.777  1.00  0.00     0.210 HD
ENDBRANCH  29  30
ENDBRANCH   9  11
ENDBRANCH   1   9
TORSDOF 7
ENDMDL
MODEL 5
REMARK VINA RESULT:    -1.987      1.543      3.840
REMARK INTER + INTRA:          -3.263
REMARK INTER:                  -2.976
REMARK INTRA:                  -0.287
REMARK UNBOUND:                -0.522
REMARK SMILES CC[C@@H](CC[C@H](C)[C@H]1CC[C@H]2[C@H]3CC=C4C[C@H](O)CC[C@@]4(C)[C@@H]3CC[C@@]12C)C(C)C
REMARK SMILES IDX 5 1 4 2 3 3 2 4 1 5 28 6 29 7 30 8 6 9 7 10 8 11 9 12 26 13
REMARK SMILES IDX 10 14 11 15 25 16 27 17 12 18 24 19 23 20 13 21 21 22 14 23
REMARK SMILES IDX 15 24 20 25 22 26 16 27 19 28 17 29 18 30
REMARK H PARENT 18 31
REMARK Flexibility Score: inf
ROOT
ATOM      1  C   UNL     1       1.875  39.979  13.155  1.00  0.00     0.004 C 
ENDROOT
BRANCH   1   2
ATOM      2  C   UNL     1       1.414  38.499  13.081  1.00  0.00     0.004 C 
BRANCH   2   3
ATOM      3  C   UNL     1      -0.005  38.307  12.476  1.00  0.00    -0.009 C 
BRANCH   3   4
ATOM      4  C   UNL     1      -1.124  38.719  13.483  1.00  0.00     0.000 C 
ATOM      5  C   UNL     1      -1.123  40.220  13.774  1.00  0.00     0.004 C 
ENDBRANCH   3   4
BRANCH   3   6
ATOM      6  C   UNL     1      -0.180  36.856  11.922  1.00  0.00    -0.014 C 
ATOM      7  C   UNL     1       1.148  36.116  11.686  1.00  0.00     0.007 C 
ATOM      8  C   UNL     1      -1.120  36.013  12.801  1.00  0.00     0.007 C 
ENDBRANCH   3   6
ENDBRANCH   2   3
ENDBRANCH   1   2
BRANCH   1   9
ATOM      9  C   UNL     1       3.236  40.255  12.444  1.00  0.00    -0.011 C 
ATOM     10  C   UNL     1       4.330  39.337  13.006  1.00  0.00     0.008 C 
BRANCH   9  11
ATOM     11  C   UNL     1       3.701  41.758  12.328  1.00  0.00    -0.002 C 
ATOM     12  C   UNL     1       4.807  41.995  11.291  1.00  0.00     0.005 C 
ATOM     13  C   UNL     1       2.693  42.936  12.114  1.00  0.00    -0.026 C 
ATOM     14  C   UNL     1       4.819  43.496  11.005  1.00  0.00     0.005 C 
ATOM     15  C   UNL     1       3.663  44.111  11.812  1.00  0.00    -0.001 C 
ATOM     16  C   UNL     1       1.753  42.688  10.900  1.00  0.00     0.007 C 
ATOM     17  C   UNL     1       1.870  43.247  13.393  1.00  0.00     0.012 C 
ATOM     18  C   UNL     1       2.988  45.370  11.178  1.00  0.00     0.000 C 
ATOM     19  C   UNL     1       1.039  43.955  10.420  1.00  0.00     0.005 C 
ATOM     20  C   UNL     1       2.067  45.024   9.979  1.00  0.00     0.003 C 
ATOM     21  C   UNL     1       4.014  46.495  10.861  1.00  0.00     0.031 C 
ATOM     22  C   UNL     1       1.427  46.323   9.358  1.00  0.00    -0.008 C 
ATOM     23  C   UNL     1       3.709  47.328   9.643  1.00  0.00    -0.027 C 
ATOM     24  C   UNL     1       2.567  47.247   8.929  1.00  0.00    -0.065 C 
ATOM     25  C   UNL     1       0.583  45.959   8.100  1.00  0.00     0.014 C 
ATOM     26  C   UNL     1       0.528  47.073  10.379  1.00  0.00     0.016 C 
ATOM     27  C   UNL     1       2.517  47.948   7.583  1.00  0.00     0.063 C 
ATOM     28  C   UNL     1       0.084  47.178   7.294  1.00  0.00     0.033 C 
ATOM     29  C   UNL     1       1.092  48.349   7.190  1.00  0.00     0.118 C 
BRANCH  29  30
ATOM     30  O   UNL     1       0.683  49.426   7.993  1.00  0.00    -0.393 OA
ATOM     31  H   UNL     1       1.498  49.775   8.445  1.00  0.00     0.210 HD
ENDBRANCH  29  30
ENDBRANCH   9  11
ENDBRANCH   1   9
TORSDOF 7
ENDMDL
