MODEL 1
REMARK VINA RESULT:     0.822      0.000      0.000
REMARK INTER + INTRA:           1.119
REMARK INTER:                   1.206
REMARK INTRA:                  -0.087
REMARK UNBOUND:                -0.087
REMARK SMILES O=C([O-])CCCCCCCC(=O)[O-]
REMARK SMILES IDX 7 1 6 2 5 3 4 4 2 5 1 6 3 7 8 8 9 9 10 10 11 11 12 12 13 13
REMARK H PARENT
REMARK Flexibility Score: inf
ROOT
ATOM      1  C   UNL     1      16.393  -8.330  27.446  1.00  0.00     0.000 C 
ENDROOT
BRANCH   1   2
ATOM      2  C   UNL     1      15.879  -9.656  28.031  1.00  0.00     0.000 C 
BRANCH   2   3
ATOM      3  C   UNL     1      16.004  -9.716  29.561  1.00  0.00     0.006 C 
BRANCH   3   4
ATOM      4  C   UNL     1      16.667  -8.446  30.106  1.00  0.00     0.053 C 
BRANCH   4   5
ATOM      5  C   UNL     1      18.157  -8.560  30.028  1.00  0.00     0.041 C 
ATOM      6  O   UNL     1      18.877  -7.531  30.125  1.00  0.00    -0.550 OA
ATOM      7  O   UNL     1      18.754  -9.807  29.896  1.00  0.00    -0.550 OA
ENDBRANCH   4   5
ENDBRANCH   3   4
ENDBRANCH   2   3
ENDBRANCH   1   2
BRANCH   1   8
ATOM      8  C   UNL     1      15.875  -8.071  26.023  1.00  0.00     0.000 C 
BRANCH   8   9
ATOM      9  C   UNL     1      16.734  -8.803  24.985  1.00  0.00     0.006 C 
BRANCH   9  10
ATOM     10  C   UNL     1      18.226  -8.632  25.289  1.00  0.00     0.053 C 
BRANCH  10  11
ATOM     11  C   UNL     1      18.877  -7.775  24.249  1.00  0.00     0.041 C 
ATOM     12  O   UNL     1      18.697  -6.529  24.252  1.00  0.00    -0.550 OA
ATOM     13  O   UNL     1      19.721  -8.346  23.305  1.00  0.00    -0.550 OA
ENDBRANCH  10  11
ENDBRANCH   9  10
ENDBRANCH   8   9
ENDBRANCH   1   8
TORSDOF 8
ENDMDL
MODEL 2
REMARK VINA RESULT:     1.047     11.268     12.811
REMARK INTER + INTRA:           1.449
REMARK INTER:                   1.725
REMARK INTRA:                  -0.276
REMARK UNBOUND:                -0.087
REMARK SMILES O=C([O-])CCCCCCCC(=O)[O-]
REMARK SMILES IDX 7 1 6 2 5 3 4 4 2 5 1 6 3 7 8 8 9 9 10 10 11 11 12 12 13 13
REMARK H PARENT
REMARK Flexibility Score: inf
ROOT
ATOM      1  C   UNL     1      19.562 -19.851  26.608  1.00  0.00     0.000 C 
ENDROOT
BRANCH   1   2
ATOM      2  C   UNL     1      21.047 -19.864  26.211  1.00  0.00     0.000 C 
BRANCH   2   3
ATOM      3  C   UNL     1      21.380 -20.973  25.202  1.00  0.00     0.006 C 
BRANCH   3   4
ATOM      4  C   UNL     1      22.867 -21.339  25.263  1.00  0.00     0.053 C 
BRANCH   4   5
ATOM      5  C   UNL     1      23.530 -21.058  23.951  1.00  0.00     0.041 C 
ATOM      6  O   UNL     1      23.684 -19.870  23.561  1.00  0.00    -0.550 OA
ATOM      7  O   UNL     1      24.022 -22.105  23.182  1.00  0.00    -0.550 OA
ENDBRANCH   4   5
ENDBRANCH   3   4
ENDBRANCH   2   3
ENDBRANCH   1   2
BRANCH   1   8
ATOM      8  C   UNL     1      18.693 -19.056  25.621  1.00  0.00     0.000 C 
BRANCH   8   9
ATOM      9  C   UNL     1      17.362 -18.651  26.267  1.00  0.00     0.006 C 
BRANCH   9  10
ATOM     10  C   UNL     1      17.130 -19.415  27.573  1.00  0.00     0.053 C 
BRANCH  10  11
ATOM     11  C   UNL     1      16.934 -18.462  28.710  1.00  0.00     0.041 C 
ATOM     12  O   UNL     1      16.076 -17.545  28.627  1.00  0.00    -0.550 OA
ATOM     13  O   UNL     1      17.666 -18.617  29.881  1.00  0.00    -0.550 OA
ENDBRANCH  10  11
ENDBRANCH   9  10
ENDBRANCH   8   9
ENDBRANCH   1   8
TORSDOF 8
ENDMDL
MODEL 3
REMARK VINA RESULT:     1.101     11.276     12.044
REMARK INTER + INTRA:           1.529
REMARK INTER:                   1.803
REMARK INTRA:                  -0.274
REMARK UNBOUND:                -0.087
REMARK SMILES O=C([O-])CCCCCCCC(=O)[O-]
REMARK SMILES IDX 7 1 6 2 5 3 4 4 2 5 1 6 3 7 8 8 9 9 10 10 11 11 12 12 13 13
REMARK H PARENT
REMARK Flexibility Score: inf
ROOT
ATOM      1  C   UNL     1      19.595 -19.872  26.605  1.00  0.00     0.000 C 
ENDROOT
BRANCH   1   2
ATOM      2  C   UNL     1      18.728 -19.062  25.627  1.00  0.00     0.000 C 
BRANCH   2   3
ATOM      3  C   UNL     1      17.376 -18.655  26.231  1.00  0.00     0.006 C 
BRANCH   3   4
ATOM      4  C   UNL     1      17.104 -19.422  27.530  1.00  0.00     0.053 C 
BRANCH   4   5
ATOM      5  C   UNL     1      16.964 -18.473  28.679  1.00  0.00     0.041 C 
ATOM      6  O   UNL     1      16.155 -17.510  28.611  1.00  0.00    -0.550 OA
ATOM      7  O   UNL     1      17.691 -18.681  29.844  1.00  0.00    -0.550 OA
ENDBRANCH   4   5
ENDBRANCH   3   4
ENDBRANCH   2   3
ENDBRANCH   1   2
BRANCH   1   8
ATOM      8  C   UNL     1      21.084 -19.860  26.226  1.00  0.00     0.000 C 
BRANCH   8   9
ATOM      9  C   UNL     1      21.396 -20.955  25.199  1.00  0.00     0.006 C 
BRANCH   9  10
ATOM     10  C   UNL     1      22.877 -21.343  25.242  1.00  0.00     0.053 C 
BRANCH  10  11
ATOM     11  C   UNL     1      23.531 -21.062  23.926  1.00  0.00     0.041 C 
ATOM     12  O   UNL     1      23.689 -19.875  23.539  1.00  0.00    -0.550 OA
ATOM     13  O   UNL     1      24.010 -22.110  23.150  1.00  0.00    -0.550 OA
ENDBRANCH  10  11
ENDBRANCH   9  10
ENDBRANCH   8   9
ENDBRANCH   1   8
TORSDOF 8
ENDMDL
MODEL 4
REMARK VINA RESULT:     1.748      0.628      5.182
REMARK INTER + INTRA:           2.478
REMARK INTER:                   2.411
REMARK INTRA:                   0.068
REMARK UNBOUND:                -0.087
REMARK SMILES O=C([O-])CCCCCCCC(=O)[O-]
REMARK SMILES IDX 7 1 6 2 5 3 4 4 2 5 1 6 3 7 8 8 9 9 10 10 11 11 12 12 13 13
REMARK H PARENT
REMARK Flexibility Score: inf
ROOT
ATOM      1  C   UNL     1      16.719  -8.954  27.230  1.00  0.00     0.000 C 
ENDROOT
BRANCH   1   2
ATOM      2  C   UNL     1      15.876  -7.931  26.453  1.00  0.00     0.000 C 
BRANCH   2   3
ATOM      3  C   UNL     1      16.510  -7.538  25.110  1.00  0.00     0.006 C 
BRANCH   3   4
ATOM      4  C   UNL     1      17.547  -8.578  24.670  1.00  0.00     0.053 C 
BRANCH   4   5
ATOM      5  C   UNL     1      18.848  -7.915  24.345  1.00  0.00     0.041 C 
ATOM      6  O   UNL     1      19.620  -8.421  23.487  1.00  0.00    -0.550 OA
ATOM      7  O   UNL     1      19.186  -6.712  24.952  1.00  0.00    -0.550 OA
ENDBRANCH   4   5
ENDBRANCH   3   4
ENDBRANCH   2   3
ENDBRANCH   1   2
BRANCH   1   8
ATOM      8  C   UNL     1      15.876 -10.108  27.795  1.00  0.00     0.000 C 
BRANCH   8   9
ATOM      9  C   UNL     1      15.995 -10.177  29.322  1.00  0.00     0.006 C 
BRANCH   9  10
ATOM     10  C   UNL     1      16.571  -8.874  29.887  1.00  0.00     0.053 C 
BRANCH  10  11
ATOM     11  C   UNL     1      18.066  -8.931  29.914  1.00  0.00     0.041 C 
ATOM     12  O   UNL     1      18.656 -10.036  30.030  1.00  0.00    -0.550 OA
ATOM     13  O   UNL     1      18.809  -7.766  29.761  1.00  0.00    -0.550 OA
ENDBRANCH  10  11
ENDBRANCH   9  10
ENDBRANCH   8   9
ENDBRANCH   1   8
TORSDOF 8
ENDMDL
MODEL 5
REMARK VINA RESULT:     3.240     11.805     12.828
REMARK INTER + INTRA:           4.668
REMARK INTER:                   4.958
REMARK INTRA:                  -0.290
REMARK UNBOUND:                -0.087
REMARK SMILES O=C([O-])CCCCCCCC(=O)[O-]
REMARK SMILES IDX 7 1 6 2 5 3 4 4 2 5 1 6 3 7 8 8 9 9 10 10 11 11 12 12 13 13
REMARK H PARENT
REMARK Flexibility Score: inf
ROOT
ATOM      1  C   UNL     1      19.945 -19.440  26.372  1.00  0.00     0.000 C 
ENDROOT
BRANCH   1   2
ATOM      2  C   UNL     1      20.694 -20.777  26.251  1.00  0.00     0.000 C 
BRANCH   2   3
ATOM      3  C   UNL     1      22.113 -20.612  25.686  1.00  0.00     0.006 C 
BRANCH   3   4
ATOM      4  C   UNL     1      22.235 -21.275  24.310  1.00  0.00     0.053 C 
BRANCH   4   5
ATOM      5  C   UNL     1      23.567 -20.973  23.699  1.00  0.00     0.041 C 
ATOM      6  O   UNL     1      24.106 -19.849  23.878  1.00  0.00    -0.550 OA
ATOM      7  O   UNL     1      24.237 -21.950  22.972  1.00  0.00    -0.550 OA
ENDBRANCH   4   5
ENDBRANCH   3   4
ENDBRANCH   2   3
ENDBRANCH   1   2
BRANCH   1   8
ATOM      8  C   UNL     1      18.594 -19.582  27.090  1.00  0.00     0.000 C 
BRANCH   8   9
ATOM      9  C   UNL     1      17.458 -18.999  26.241  1.00  0.00     0.006 C 
BRANCH   9  10
ATOM     10  C   UNL     1      17.994 -18.430  24.924  1.00  0.00     0.053 C 
BRANCH  10  11
ATOM     11  C   UNL     1      17.556 -19.278  23.771  1.00  0.00     0.041 C 
ATOM     12  O   UNL     1      16.460 -19.896  23.820  1.00  0.00    -0.550 OA
ATOM     13  O   UNL     1      18.335 -19.348  22.623  1.00  0.00    -0.550 OA
ENDBRANCH  10  11
ENDBRANCH   9  10
ENDBRANCH   8   9
ENDBRANCH   1   8
TORSDOF 8
ENDMDL
