MODEL 1
REMARK VINA RESULT:    -0.203      0.000      0.000
REMARK INTER + INTRA:          -1.005
REMARK INTER:                  -0.394
REMARK INTRA:                  -0.611
REMARK UNBOUND:                -0.611
REMARK SMILES CCCCCCCCCCCCCCCCCC(=O)[O-]
REMARK SMILES IDX 10 1 11 2 12 3 13 4 14 5 15 6 16 7 17 8 18 9 19 10 20 11
REMARK SMILES IDX 9 12 8 13 7 14 6 15 5 16 4 17 3 18 2 19 1 20
REMARK H PARENT
REMARK Flexibility Score: inf
ROOT
ATOM      1  C   UNL     1      45.547 -22.857   0.684  1.00  0.00     0.000 C 
ENDROOT
BRANCH   1   2
ATOM      2  C   UNL     1      45.241 -23.913   1.758  1.00  0.00     0.000 C 
BRANCH   2   3
ATOM      3  C   UNL     1      45.106 -25.328   1.171  1.00  0.00     0.000 C 
BRANCH   3   4
ATOM      4  C   UNL     1      46.006 -26.352   1.881  1.00  0.00     0.000 C 
BRANCH   4   5
ATOM      5  C   UNL     1      45.731 -27.799   1.435  1.00  0.00     0.000 C 
BRANCH   5   6
ATOM      6  C   UNL     1      46.102 -28.826   2.526  1.00  0.00     0.000 C 
BRANCH   6   7
ATOM      7  C   UNL     1      45.806 -28.340   3.955  1.00  0.00     0.006 C 
BRANCH   7   8
ATOM      8  C   UNL     1      45.762 -29.480   4.978  1.00  0.00     0.053 C 
BRANCH   8   9
ATOM      9  C   UNL     1      45.713 -28.933   6.369  1.00  0.00     0.041 C 
ATOM     10  O   UNL     1      45.958 -27.716   6.580  1.00  0.00    -0.550 OA
ATOM     11  O   UNL     1      45.443 -29.777   7.439  1.00  0.00    -0.550 OA
ENDBRANCH   8   9
ENDBRANCH   7   8
ENDBRANCH   6   7
ENDBRANCH   5   6
ENDBRANCH   4   5
ENDBRANCH   3   4
ENDBRANCH   2   3
ENDBRANCH   1   2
BRANCH   1  12
ATOM     12  C   UNL     1      45.899 -23.481  -0.678  1.00  0.00     0.000 C 
BRANCH  12  13
ATOM     13  C   UNL     1      44.652 -23.832  -1.505  1.00  0.00    -0.000 C 
BRANCH  13  14
ATOM     14  C   UNL     1      44.732 -25.239  -2.123  1.00  0.00    -0.000 C 
BRANCH  14  15
ATOM     15  C   UNL     1      45.958 -25.417  -3.034  1.00  0.00    -0.000 C 
BRANCH  15  16
ATOM     16  C   UNL     1      45.571 -25.717  -4.493  1.00  0.00    -0.000 C 
BRANCH  16  17
ATOM     17  C   UNL     1      45.003 -24.486  -5.219  1.00  0.00    -0.000 C 
BRANCH  17  18
ATOM     18  C   UNL     1      46.070 -23.408  -5.479  1.00  0.00    -0.000 C 
BRANCH  18  19
ATOM     19  C   UNL     1      46.027 -22.874  -6.920  1.00  0.00    -0.003 C 
ATOM     20  C   UNL     1      45.866 -23.984  -7.959  1.00  0.00     0.004 C 
ENDBRANCH  18  19
ENDBRANCH  17  18
ENDBRANCH  16  17
ENDBRANCH  15  16
ENDBRANCH  14  15
ENDBRANCH  13  14
ENDBRANCH  12  13
ENDBRANCH   1  12
TORSDOF 16
ENDMDL
MODEL 2
REMARK VINA RESULT:     0.848      4.983     10.350
REMARK INTER + INTRA:           1.031
REMARK INTER:                  -1.166
REMARK INTRA:                   2.196
REMARK UNBOUND:                -0.611
REMARK SMILES CCCCCCCCCCCCCCCCCC(=O)[O-]
REMARK SMILES IDX 10 1 11 2 12 3 13 4 14 5 15 6 16 7 17 8 18 9 19 10 20 11
REMARK SMILES IDX 9 12 8 13 7 14 6 15 5 16 4 17 3 18 2 19 1 20
REMARK H PARENT
REMARK Flexibility Score: inf
ROOT
ATOM      1  C   UNL     1      45.183 -24.118  -0.770  1.00  0.00     0.000 C 
ENDROOT
BRANCH   1   2
ATOM      2  C   UNL     1      46.119 -25.102  -1.489  1.00  0.00     0.000 C 
BRANCH   2   3
ATOM      3  C   UNL     1      46.035 -24.984  -3.020  1.00  0.00     0.000 C 
BRANCH   3   4
ATOM      4  C   UNL     1      45.029 -23.915  -3.476  1.00  0.00     0.000 C 
BRANCH   4   5
ATOM      5  C   UNL     1      44.843 -23.884  -5.004  1.00  0.00     0.000 C 
BRANCH   5   6
ATOM      6  C   UNL     1      46.123 -24.307  -5.756  1.00  0.00     0.000 C 
BRANCH   6   7
ATOM      7  C   UNL     1      45.846 -25.033  -7.082  1.00  0.00     0.006 C 
BRANCH   7   8
ATOM      8  C   UNL     1      45.829 -24.088  -8.289  1.00  0.00     0.053 C 
BRANCH   8   9
ATOM      9  C   UNL     1      45.978 -22.669  -7.843  1.00  0.00     0.041 C 
ATOM     10  O   UNL     1      45.976 -22.387  -6.616  1.00  0.00    -0.550 OA
ATOM     11  O   UNL     1      46.073 -21.651  -8.783  1.00  0.00    -0.550 OA
ENDBRANCH   8   9
ENDBRANCH   7   8
ENDBRANCH   6   7
ENDBRANCH   5   6
ENDBRANCH   4   5
ENDBRANCH   3   4
ENDBRANCH   2   3
ENDBRANCH   1   2
BRANCH   1  12
ATOM     12  C   UNL     1      45.483 -24.005   0.735  1.00  0.00     0.000 C 
BRANCH  12  13
ATOM     13  C   UNL     1      46.111 -25.285   1.307  1.00  0.00    -0.000 C 
BRANCH  13  14
ATOM     14  C   UNL     1      45.923 -25.403   2.830  1.00  0.00    -0.000 C 
BRANCH  14  15
ATOM     15  C   UNL     1      45.042 -26.598   3.227  1.00  0.00    -0.000 C 
BRANCH  15  16
ATOM     16  C   UNL     1      45.296 -27.836   2.350  1.00  0.00    -0.000 C 
BRANCH  16  17
ATOM     17  C   UNL     1      45.898 -29.009   3.141  1.00  0.00    -0.000 C 
BRANCH  17  18
ATOM     18  C   UNL     1      46.124 -28.668   4.624  1.00  0.00    -0.000 C 
BRANCH  18  19
ATOM     19  C   UNL     1      45.938 -29.886   5.544  1.00  0.00    -0.003 C 
ATOM     20  C   UNL     1      45.907 -29.511   7.025  1.00  0.00     0.004 C 
ENDBRANCH  18  19
ENDBRANCH  17  18
ENDBRANCH  16  17
ENDBRANCH  15  16
ENDBRANCH  14  15
ENDBRANCH  13  14
ENDBRANCH  12  13
ENDBRANCH   1  12
TORSDOF 16
ENDMDL
MODEL 3
REMARK VINA RESULT:     2.467      1.677      3.828
REMARK INTER + INTRA:           4.164
REMARK INTER:                   5.009
REMARK INTRA:                  -0.845
REMARK UNBOUND:                -0.611
REMARK SMILES CCCCCCCCCCCCCCCCCC(=O)[O-]
REMARK SMILES IDX 10 1 11 2 12 3 13 4 14 5 15 6 16 7 17 8 18 9 19 10 20 11
REMARK SMILES IDX 9 12 8 13 7 14 6 15 5 16 4 17 3 18 2 19 1 20
REMARK H PARENT
REMARK Flexibility Score: inf
ROOT
ATOM      1  C   UNL     1      45.033 -25.281  -2.633  1.00  0.00     0.000 C 
ENDROOT
BRANCH   1   2
ATOM      2  C   UNL     1      44.472 -23.903  -2.243  1.00  0.00     0.000 C 
BRANCH   2   3
ATOM      3  C   UNL     1      45.491 -23.051  -1.468  1.00  0.00     0.000 C 
BRANCH   3   4
ATOM      4  C   UNL     1      45.118 -22.884   0.013  1.00  0.00     0.000 C 
BRANCH   4   5
ATOM      5  C   UNL     1      46.085 -23.618   0.959  1.00  0.00     0.000 C 
BRANCH   5   6
ATOM      6  C   UNL     1      45.949 -25.152   0.856  1.00  0.00     0.000 C 
BRANCH   6   7
ATOM      7  C   UNL     1      45.749 -25.845   2.213  1.00  0.00     0.006 C 
BRANCH   7   8
ATOM      8  C   UNL     1      46.069 -27.344   2.173  1.00  0.00     0.053 C 
BRANCH   8   9
ATOM      9  C   UNL     1      46.013 -27.928   3.549  1.00  0.00     0.041 C 
ATOM     10  O   UNL     1      46.122 -29.171   3.714  1.00  0.00    -0.550 OA
ATOM     11  O   UNL     1      45.794 -27.104   4.645  1.00  0.00    -0.550 OA
ENDBRANCH   8   9
ENDBRANCH   7   8
ENDBRANCH   6   7
ENDBRANCH   5   6
ENDBRANCH   4   5
ENDBRANCH   3   4
ENDBRANCH   2   3
ENDBRANCH   1   2
BRANCH   1  12
ATOM     12  C   UNL     1      45.911 -25.229  -3.895  1.00  0.00     0.000 C 
BRANCH  12  13
ATOM     13  C   UNL     1      45.125 -25.559  -5.173  1.00  0.00    -0.000 C 
BRANCH  13  14
ATOM     14  C   UNL     1      46.031 -25.644  -6.415  1.00  0.00    -0.000 C 
BRANCH  14  15
ATOM     15  C   UNL     1      45.348 -25.110  -7.684  1.00  0.00    -0.000 C 
BRANCH  15  16
ATOM     16  C   UNL     1      46.095 -23.912  -8.298  1.00  0.00    -0.000 C 
BRANCH  16  17
ATOM     17  C   UNL     1      46.124 -22.692  -7.363  1.00  0.00    -0.000 C 
BRANCH  17  18
ATOM     18  C   UNL     1      45.198 -21.559  -7.839  1.00  0.00    -0.000 C 
BRANCH  18  19
ATOM     19  C   UNL     1      45.705 -20.886  -9.125  1.00  0.00    -0.003 C 
ATOM     20  C   UNL     1      45.941 -19.386  -8.955  1.00  0.00     0.004 C 
ENDBRANCH  18  19
ENDBRANCH  17  18
ENDBRANCH  16  17
ENDBRANCH  15  16
ENDBRANCH  14  15
ENDBRANCH  13  14
ENDBRANCH  12  13
ENDBRANCH   1  12
TORSDOF 16
ENDMDL
