MODEL 1
REMARK VINA RESULT:    -3.868      0.000      0.000
REMARK INTER + INTRA:          -6.720
REMARK INTER:                  -5.903
REMARK INTRA:                  -0.817
REMARK UNBOUND:                -0.817
REMARK SMILES O=C([O-])CCCCCCCCC(=O)[O-]
REMARK SMILES IDX 7 1 6 2 5 3 4 4 2 5 1 6 3 7 8 8 9 9 10 10 11 11 12 12 13 13
REMARK SMILES IDX 14 14
REMARK H PARENT
REMARK Flexibility Score: inf
ROOT
ATOM      1  C   UNL     1      -5.893   3.484  53.210  1.00  0.00     0.000 C 
ENDROOT
BRANCH   1   2
ATOM      2  C   UNL     1      -5.871   4.045  54.643  1.00  0.00     0.000 C 
BRANCH   2   3
ATOM      3  C   UNL     1      -7.243   4.580  55.093  1.00  0.00     0.006 C 
BRANCH   3   4
ATOM      4  C   UNL     1      -7.211   6.016  55.641  1.00  0.00     0.053 C 
BRANCH   4   5
ATOM      5  C   UNL     1      -7.020   6.047  57.126  1.00  0.00     0.041 C 
ATOM      6  O   UNL     1      -5.879   5.850  57.623  1.00  0.00    -0.550 OA
ATOM      7  O   UNL     1      -8.107   6.256  57.964  1.00  0.00    -0.550 OA
ENDBRANCH   4   5
ENDBRANCH   3   4
ENDBRANCH   2   3
ENDBRANCH   1   2
BRANCH   1   8
ATOM      8  C   UNL     1      -7.302   3.061  52.762  1.00  0.00     0.000 C 
BRANCH   8   9
ATOM      9  C   UNL     1      -7.606   3.468  51.310  1.00  0.00     0.000 C 
BRANCH   9  10
ATOM     10  C   UNL     1      -7.362   4.969  51.056  1.00  0.00     0.006 C 
BRANCH  10  11
ATOM     11  C   UNL     1      -8.302   5.888  51.854  1.00  0.00     0.053 C 
BRANCH  11  12
ATOM     12  C   UNL     1      -9.745   5.623  51.556  1.00  0.00     0.041 C 
ATOM     13  O   UNL     1     -10.261   6.055  50.492  1.00  0.00    -0.550 OA
ATOM     14  O   UNL     1     -10.527   4.924  52.467  1.00  0.00    -0.550 OA
ENDBRANCH  11  12
ENDBRANCH  10  11
ENDBRANCH   9  10
ENDBRANCH   8   9
ENDBRANCH   1   8
TORSDOF 9
ENDMDL
MODEL 2
REMARK VINA RESULT:    -3.821      1.512      2.099
REMARK INTER + INTRA:          -6.649
REMARK INTER:                  -6.078
REMARK INTRA:                  -0.571
REMARK UNBOUND:                -0.817
REMARK SMILES O=C([O-])CCCCCCCCC(=O)[O-]
REMARK SMILES IDX 7 1 6 2 5 3 4 4 2 5 1 6 3 7 8 8 9 9 10 10 11 11 12 12 13 13
REMARK SMILES IDX 14 14
REMARK H PARENT
REMARK Flexibility Score: inf
ROOT
ATOM      1  C   UNL     1      -6.080   3.754  54.689  1.00  0.00     0.000 C 
ENDROOT
BRANCH   1   2
ATOM      2  C   UNL     1      -6.633   5.047  55.314  1.00  0.00     0.000 C 
BRANCH   2   3
ATOM      3  C   UNL     1      -6.817   4.939  56.839  1.00  0.00     0.006 C 
BRANCH   3   4
ATOM      4  C   UNL     1      -5.763   5.703  57.656  1.00  0.00     0.053 C 
BRANCH   4   5
ATOM      5  C   UNL     1      -4.904   4.783  58.467  1.00  0.00     0.041 C 
ATOM      6  O   UNL     1      -4.540   5.113  59.627  1.00  0.00    -0.550 OA
ATOM      7  O   UNL     1      -4.474   3.576  57.928  1.00  0.00    -0.550 OA
ENDBRANCH   4   5
ENDBRANCH   3   4
ENDBRANCH   2   3
ENDBRANCH   1   2
BRANCH   1   8
ATOM      8  C   UNL     1      -5.997   3.826  53.156  1.00  0.00     0.000 C 
BRANCH   8   9
ATOM      9  C   UNL     1      -6.961   2.846  52.465  1.00  0.00     0.000 C 
BRANCH   9  10
ATOM     10  C   UNL     1      -7.690   3.485  51.267  1.00  0.00     0.006 C 
BRANCH  10  11
ATOM     11  C   UNL     1      -7.574   5.018  51.222  1.00  0.00     0.053 C 
BRANCH  11  12
ATOM     12  C   UNL     1      -8.850   5.698  51.608  1.00  0.00     0.041 C 
ATOM     13  O   UNL     1      -9.674   6.046  50.722  1.00  0.00    -0.550 OA
ATOM     14  O   UNL     1      -9.117   5.972  52.944  1.00  0.00    -0.550 OA
ENDBRANCH  11  12
ENDBRANCH  10  11
ENDBRANCH   9  10
ENDBRANCH   8   9
ENDBRANCH   1   8
TORSDOF 9
ENDMDL
MODEL 3
REMARK VINA RESULT:    -3.818      1.290      6.021
REMARK INTER + INTRA:          -6.644
REMARK INTER:                  -6.096
REMARK INTRA:                  -0.548
REMARK UNBOUND:                -0.817
REMARK SMILES O=C([O-])CCCCCCCCC(=O)[O-]
REMARK SMILES IDX 7 1 6 2 5 3 4 4 2 5 1 6 3 7 8 8 9 9 10 10 11 11 12 12 13 13
REMARK SMILES IDX 14 14
REMARK H PARENT
REMARK Flexibility Score: inf
ROOT
ATOM      1  C   UNL     1      -5.872   3.856  53.225  1.00  0.00     0.000 C 
ENDROOT
BRANCH   1   2
ATOM      2  C   UNL     1      -7.056   3.031  52.690  1.00  0.00     0.000 C 
BRANCH   2   3
ATOM      3  C   UNL     1      -7.589   3.560  51.347  1.00  0.00     0.006 C 
BRANCH   3   4
ATOM      4  C   UNL     1      -7.574   5.092  51.221  1.00  0.00     0.053 C 
BRANCH   4   5
ATOM      5  C   UNL     1      -8.892   5.699  51.590  1.00  0.00     0.041 C 
ATOM      6  O   UNL     1      -9.730   5.987  50.694  1.00  0.00    -0.550 OA
ATOM      7  O   UNL     1      -9.181   5.982  52.919  1.00  0.00    -0.550 OA
ENDBRANCH   4   5
ENDBRANCH   3   4
ENDBRANCH   2   3
ENDBRANCH   1   2
BRANCH   1   8
ATOM      8  C   UNL     1      -5.869   3.961  54.759  1.00  0.00     0.000 C 
BRANCH   8   9
ATOM      9  C   UNL     1      -7.003   4.854  55.292  1.00  0.00     0.000 C 
BRANCH   9  10
ATOM     10  C   UNL     1      -6.533   5.783  56.430  1.00  0.00     0.006 C 
BRANCH  10  11
ATOM     11  C   UNL     1      -6.620   5.141  57.824  1.00  0.00     0.053 C 
BRANCH  11  12
ATOM     12  C   UNL     1      -5.290   5.085  58.509  1.00  0.00     0.041 C 
ATOM     13  O   UNL     1      -4.544   4.081  58.361  1.00  0.00    -0.550 OA
ATOM     14  O   UNL     1      -4.887   6.128  59.333  1.00  0.00    -0.550 OA
ENDBRANCH  11  12
ENDBRANCH  10  11
ENDBRANCH   9  10
ENDBRANCH   8   9
ENDBRANCH   1   8
TORSDOF 9
ENDMDL
MODEL 4
REMARK VINA RESULT:    -3.792      1.069      4.955
REMARK INTER + INTRA:          -6.604
REMARK INTER:                  -5.776
REMARK INTRA:                  -0.828
REMARK UNBOUND:                -0.817
REMARK SMILES O=C([O-])CCCCCCCCC(=O)[O-]
REMARK SMILES IDX 7 1 6 2 5 3 4 4 2 5 1 6 3 7 8 8 9 9 10 10 11 11 12 12 13 13
REMARK SMILES IDX 14 14
REMARK H PARENT
REMARK Flexibility Score: inf
ROOT
ATOM      1  C   UNL     1      -7.817   1.919  52.545  1.00  0.00     0.000 C 
ENDROOT
BRANCH   1   2
ATOM      2  C   UNL     1      -8.612   2.976  51.757  1.00  0.00     0.000 C 
BRANCH   2   3
ATOM      3  C   UNL     1      -7.707   3.903  50.926  1.00  0.00     0.006 C 
BRANCH   3   4
ATOM      4  C   UNL     1      -7.737   5.375  51.367  1.00  0.00     0.053 C 
BRANCH   4   5
ATOM      5  C   UNL     1      -9.134   5.865  51.595  1.00  0.00     0.041 C 
ATOM      6  O   UNL     1      -9.917   6.024  50.621  1.00  0.00    -0.550 OA
ATOM      7  O   UNL     1      -9.560   6.183  52.879  1.00  0.00    -0.550 OA
ENDBRANCH   4   5
ENDBRANCH   3   4
ENDBRANCH   2   3
ENDBRANCH   1   2
BRANCH   1   8
ATOM      8  C   UNL     1      -6.407   2.401  52.924  1.00  0.00     0.000 C 
BRANCH   8   9
ATOM      9  C   UNL     1      -6.199   2.481  54.446  1.00  0.00     0.000 C 
BRANCH   9  10
ATOM     10  C   UNL     1      -5.831   3.902  54.916  1.00  0.00     0.006 C 
BRANCH  10  11
ATOM     11  C   UNL     1      -7.030   4.863  54.969  1.00  0.00     0.053 C 
BRANCH  11  12
ATOM     12  C   UNL     1      -6.893   5.886  56.053  1.00  0.00     0.041 C 
ATOM     13  O   UNL     1      -7.657   6.887  56.078  1.00  0.00    -0.550 OA
ATOM     14  O   UNL     1      -5.904   5.749  57.020  1.00  0.00    -0.550 OA
ENDBRANCH  11  12
ENDBRANCH  10  11
ENDBRANCH   9  10
ENDBRANCH   8   9
ENDBRANCH   1   8
TORSDOF 9
ENDMDL
MODEL 5
REMARK VINA RESULT:    -3.782      0.930      5.619
REMARK INTER + INTRA:          -6.588
REMARK INTER:                  -5.905
REMARK INTRA:                  -0.683
REMARK UNBOUND:                -0.817
REMARK SMILES O=C([O-])CCCCCCCCC(=O)[O-]
REMARK SMILES IDX 7 1 6 2 5 3 4 4 2 5 1 6 3 7 8 8 9 9 10 10 11 11 12 12 13 13
REMARK SMILES IDX 14 14
REMARK H PARENT
REMARK Flexibility Score: inf
ROOT
ATOM      1  C   UNL     1      -7.181   2.959  52.752  1.00  0.00     0.000 C 
ENDROOT
BRANCH   1   2
ATOM      2  C   UNL     1      -7.627   3.457  51.366  1.00  0.00     0.000 C 
BRANCH   2   3
ATOM      3  C   UNL     1      -7.410   4.969  51.179  1.00  0.00     0.006 C 
BRANCH   3   4
ATOM      4  C   UNL     1      -8.379   5.849  51.984  1.00  0.00     0.053 C 
BRANCH   4   5
ATOM      5  C   UNL     1      -9.808   5.598  51.613  1.00  0.00     0.041 C 
ATOM      6  O   UNL     1     -10.284   6.091  50.556  1.00  0.00    -0.550 OA
ATOM      7  O   UNL     1     -10.625   4.851  52.452  1.00  0.00    -0.550 OA
ENDBRANCH   4   5
ENDBRANCH   3   4
ENDBRANCH   2   3
ENDBRANCH   1   2
BRANCH   1   8
ATOM      8  C   UNL     1      -5.861   3.599  53.214  1.00  0.00     0.000 C 
BRANCH   8   9
ATOM      9  C   UNL     1      -5.811   3.816  54.736  1.00  0.00     0.000 C 
BRANCH   9  10
ATOM     10  C   UNL     1      -6.795   4.905  55.207  1.00  0.00     0.006 C 
BRANCH  10  11
ATOM     11  C   UNL     1      -6.324   5.659  56.462  1.00  0.00     0.053 C 
BRANCH  11  12
ATOM     12  C   UNL     1      -6.082   4.742  57.620  1.00  0.00     0.041 C 
ATOM     13  O   UNL     1      -7.017   4.026  58.065  1.00  0.00    -0.550 OA
ATOM     14  O   UNL     1      -4.832   4.699  58.225  1.00  0.00    -0.550 OA
ENDBRANCH  11  12
ENDBRANCH  10  11
ENDBRANCH   9  10
ENDBRANCH   8   9
ENDBRANCH   1   8
TORSDOF 9
ENDMDL
MODEL 6
REMARK VINA RESULT:    -3.759      9.914     11.150
REMARK INTER + INTRA:          -6.554
REMARK INTER:                  -6.014
REMARK INTRA:                  -0.540
REMARK UNBOUND:                -0.817
REMARK SMILES O=C([O-])CCCCCCCCC(=O)[O-]
REMARK SMILES IDX 7 1 6 2 5 3 4 4 2 5 1 6 3 7 8 8 9 9 10 10 11 11 12 12 13 13
REMARK SMILES IDX 14 14
REMARK H PARENT
REMARK Flexibility Score: inf
ROOT
ATOM      1  C   UNL     1       1.213   1.717  56.137  1.00  0.00     0.000 C 
ENDROOT
BRANCH   1   2
ATOM      2  C   UNL     1      -0.056   0.946  56.540  1.00  0.00     0.000 C 
BRANCH   2   3
ATOM      3  C   UNL     1      -0.644   1.428  57.879  1.00  0.00     0.006 C 
BRANCH   3   4
ATOM      4  C   UNL     1       0.162   0.994  59.114  1.00  0.00     0.053 C 
BRANCH   4   5
ATOM      5  C   UNL     1       0.605   2.165  59.935  1.00  0.00     0.041 C 
ATOM      6  O   UNL     1       1.241   3.111  59.399  1.00  0.00    -0.550 OA
ATOM      7  O   UNL     1       0.350   2.196  61.300  1.00  0.00    -0.550 OA
ENDBRANCH   4   5
ENDBRANCH   3   4
ENDBRANCH   2   3
ENDBRANCH   1   2
BRANCH   1   8
ATOM      8  C   UNL     1       2.290   0.805  55.526  1.00  0.00     0.000 C 
BRANCH   8   9
ATOM      9  C   UNL     1       2.501   1.066  54.024  1.00  0.00     0.000 C 
BRANCH   9  10
ATOM     10  C   UNL     1       2.795  -0.228  53.239  1.00  0.00     0.006 C 
BRANCH  10  11
ATOM     11  C   UNL     1       1.744  -1.330  53.454  1.00  0.00     0.053 C 
BRANCH  11  12
ATOM     12  C   UNL     1       2.355  -2.618  53.911  1.00  0.00     0.041 C 
ATOM     13  O   UNL     1       3.543  -2.641  54.329  1.00  0.00    -0.550 OA
ATOM     14  O   UNL     1       1.622  -3.797  53.850  1.00  0.00    -0.550 OA
ENDBRANCH  11  12
ENDBRANCH  10  11
ENDBRANCH   9  10
ENDBRANCH   8   9
ENDBRANCH   1   8
TORSDOF 9
ENDMDL
MODEL 7
REMARK VINA RESULT:    -3.737      0.878      1.646
REMARK INTER + INTRA:          -6.519
REMARK INTER:                  -5.769
REMARK INTRA:                  -0.751
REMARK UNBOUND:                -0.817
REMARK SMILES O=C([O-])CCCCCCCCC(=O)[O-]
REMARK SMILES IDX 7 1 6 2 5 3 4 4 2 5 1 6 3 7 8 8 9 9 10 10 11 11 12 12 13 13
REMARK SMILES IDX 14 14
REMARK H PARENT
REMARK Flexibility Score: inf
ROOT
ATOM      1  C   UNL     1      -7.297   3.256  52.991  1.00  0.00     0.000 C 
ENDROOT
BRANCH   1   2
ATOM      2  C   UNL     1      -5.899   3.641  53.506  1.00  0.00     0.000 C 
BRANCH   2   3
ATOM      3  C   UNL     1      -5.928   4.200  54.940  1.00  0.00     0.006 C 
BRANCH   3   4
ATOM      4  C   UNL     1      -6.987   5.288  55.172  1.00  0.00     0.053 C 
BRANCH   4   5
ATOM      5  C   UNL     1      -6.891   5.884  56.542  1.00  0.00     0.041 C 
ATOM      6  O   UNL     1      -7.868   6.514  57.029  1.00  0.00    -0.550 OA
ATOM      7  O   UNL     1      -5.711   5.777  57.268  1.00  0.00    -0.550 OA
ENDBRANCH   4   5
ENDBRANCH   3   4
ENDBRANCH   2   3
ENDBRANCH   1   2
BRANCH   1   8
ATOM      8  C   UNL     1      -7.437   3.435  51.470  1.00  0.00     0.000 C 
BRANCH   8   9
ATOM      9  C   UNL     1      -7.308   4.905  51.034  1.00  0.00     0.000 C 
BRANCH   9  10
ATOM     10  C   UNL     1      -8.339   5.817  51.728  1.00  0.00     0.006 C 
BRANCH  10  11
ATOM     11  C   UNL     1      -9.711   5.833  51.035  1.00  0.00     0.053 C 
BRANCH  11  12
ATOM     12  C   UNL     1     -10.800   5.303  51.915  1.00  0.00     0.041 C 
ATOM     13  O   UNL     1     -10.910   4.063  52.106  1.00  0.00    -0.550 OA
ATOM     14  O   UNL     1     -11.709   6.174  52.501  1.00  0.00    -0.550 OA
ENDBRANCH  11  12
ENDBRANCH  10  11
ENDBRANCH   9  10
ENDBRANCH   8   9
ENDBRANCH   1   8
TORSDOF 9
ENDMDL
MODEL 8
REMARK VINA RESULT:    -3.620     10.275     12.329
REMARK INTER + INTRA:          -6.341
REMARK INTER:                  -5.918
REMARK INTRA:                  -0.423
REMARK UNBOUND:                -0.817
REMARK SMILES O=C([O-])CCCCCCCCC(=O)[O-]
REMARK SMILES IDX 7 1 6 2 5 3 4 4 2 5 1 6 3 7 8 8 9 9 10 10 11 11 12 12 13 13
REMARK SMILES IDX 14 14
REMARK H PARENT
REMARK Flexibility Score: inf
ROOT
ATOM      1  C   UNL     1       2.759   0.797  55.146  1.00  0.00     0.000 C 
ENDROOT
BRANCH   1   2
ATOM      2  C   UNL     1       2.675   0.600  53.622  1.00  0.00     0.000 C 
BRANCH   2   3
ATOM      3  C   UNL     1       2.311  -0.843  53.228  1.00  0.00     0.006 C 
BRANCH   3   4
ATOM      4  C   UNL     1       3.058  -1.922  54.028  1.00  0.00     0.053 C 
BRANCH   4   5
ATOM      5  C   UNL     1       2.281  -3.199  54.110  1.00  0.00     0.041 C 
ATOM      6  O   UNL     1       1.129  -3.274  53.605  1.00  0.00    -0.550 OA
ATOM      7  O   UNL     1       2.813  -4.297  54.775  1.00  0.00    -0.550 OA
ENDBRANCH   4   5
ENDBRANCH   3   4
ENDBRANCH   2   3
ENDBRANCH   1   2
BRANCH   1   8
ATOM      8  C   UNL     1       1.577   1.606  55.704  1.00  0.00     0.000 C 
BRANCH   8   9
ATOM      9  C   UNL     1       0.683   0.775  56.641  1.00  0.00     0.000 C 
BRANCH   9  10
ATOM     10  C   UNL     1       0.035   1.631  57.748  1.00  0.00     0.006 C 
BRANCH  10  11
ATOM     11  C   UNL     1       0.997   1.985  58.893  1.00  0.00     0.053 C 
BRANCH  11  12
ATOM     12  C   UNL     1       0.471   1.566  60.230  1.00  0.00     0.041 C 
ATOM     13  O   UNL     1       0.567   2.340  61.219  1.00  0.00    -0.550 OA
ATOM     14  O   UNL     1      -0.102   0.310  60.391  1.00  0.00    -0.550 OA
ENDBRANCH  11  12
ENDBRANCH  10  11
ENDBRANCH   9  10
ENDBRANCH   8   9
ENDBRANCH   1   8
TORSDOF 9
ENDMDL
MODEL 9
REMARK VINA RESULT:    -3.601      2.077      4.836
REMARK INTER + INTRA:          -6.313
REMARK INTER:                  -5.467
REMARK INTRA:                  -0.845
REMARK UNBOUND:                -0.817
REMARK SMILES O=C([O-])CCCCCCCCC(=O)[O-]
REMARK SMILES IDX 7 1 6 2 5 3 4 4 2 5 1 6 3 7 8 8 9 9 10 10 11 11 12 12 13 13
REMARK SMILES IDX 14 14
REMARK H PARENT
REMARK Flexibility Score: inf
ROOT
ATOM      1  C   UNL     1      -7.258   4.044  53.477  1.00  0.00     0.000 C 
ENDROOT
BRANCH   1   2
ATOM      2  C   UNL     1      -6.649   4.043  52.063  1.00  0.00     0.000 C 
BRANCH   2   3
ATOM      3  C   UNL     1      -7.305   5.080  51.133  1.00  0.00     0.006 C 
BRANCH   3   4
ATOM      4  C   UNL     1      -8.525   5.790  51.742  1.00  0.00     0.053 C 
BRANCH   4   5
ATOM      5  C   UNL     1      -9.803   5.386  51.074  1.00  0.00     0.041 C 
ATOM      6  O   UNL     1     -10.639   6.261  50.724  1.00  0.00    -0.550 OA
ATOM      7  O   UNL     1     -10.088   4.042  50.870  1.00  0.00    -0.550 OA
ENDBRANCH   4   5
ENDBRANCH   3   4
ENDBRANCH   2   3
ENDBRANCH   1   2
BRANCH   1   8
ATOM      8  C   UNL     1      -6.193   3.930  54.580  1.00  0.00     0.000 C 
BRANCH   8   9
ATOM      9  C   UNL     1      -6.387   4.968  55.698  1.00  0.00     0.000 C 
BRANCH   9  10
ATOM     10  C   UNL     1      -7.385   6.076  55.306  1.00  0.00     0.006 C 
BRANCH  10  11
ATOM     11  C   UNL     1      -8.699   6.030  56.103  1.00  0.00     0.053 C 
BRANCH  11  12
ATOM     12  C   UNL     1      -9.905   6.088  55.219  1.00  0.00     0.041 C 
ATOM     13  O   UNL     1     -10.454   5.025  54.828  1.00  0.00    -0.550 OA
ATOM     14  O   UNL     1     -10.406   7.316  54.803  1.00  0.00    -0.550 OA
ENDBRANCH  11  12
ENDBRANCH  10  11
ENDBRANCH   9  10
ENDBRANCH   8   9
ENDBRANCH   1   8
TORSDOF 9
ENDMDL
