MODEL 1
REMARK VINA RESULT:    -3.506      0.000      0.000
REMARK INTER + INTRA:          -4.224
REMARK INTER:                  -4.121
REMARK INTRA:                  -0.103
REMARK UNBOUND:                -0.103
REMARK SMILES CCCCC(=O)[O-]
REMARK SMILES IDX 4 1 5 2 6 3 7 4 3 5 2 6 1 7
REMARK H PARENT
REMARK Flexibility Score: inf
ROOT
ATOM      1  C   UNL     1      28.501 -11.841  15.964  1.00  0.00     0.053 C 
ENDROOT
BRANCH   1   2
ATOM      2  C   UNL     1      27.679 -10.744  15.359  1.00  0.00     0.041 C 
ATOM      3  O   UNL     1      27.594  -9.624  15.929  1.00  0.00    -0.550 OA
ATOM      4  O   UNL     1      26.982 -10.968  14.179  1.00  0.00    -0.550 OA
ENDBRANCH   1   2
BRANCH   1   5
ATOM      5  C   UNL     1      27.715 -13.154  16.122  1.00  0.00     0.006 C 
BRANCH   5   6
ATOM      6  C   UNL     1      28.143 -14.258  15.138  1.00  0.00    -0.003 C 
ATOM      7  C   UNL     1      27.055 -14.613  14.124  1.00  0.00     0.004 C 
ENDBRANCH   5   6
ENDBRANCH   1   5
TORSDOF 3
ENDMDL
MODEL 2
REMARK VINA RESULT:    -3.424      0.760      1.396
REMARK INTER + INTRA:          -4.128
REMARK INTER:                  -4.027
REMARK INTRA:                  -0.101
REMARK UNBOUND:                -0.103
REMARK SMILES CCCCC(=O)[O-]
REMARK SMILES IDX 4 1 5 2 6 3 7 4 3 5 2 6 1 7
REMARK H PARENT
REMARK Flexibility Score: inf
ROOT
ATOM      1  C   UNL     1      27.248 -12.501  15.903  1.00  0.00     0.053 C 
ENDROOT
BRANCH   1   2
ATOM      2  C   UNL     1      27.619 -11.193  15.274  1.00  0.00     0.041 C 
ATOM      3  O   UNL     1      28.014 -11.152  14.079  1.00  0.00    -0.550 OA
ATOM      4  O   UNL     1      27.557 -10.022  16.018  1.00  0.00    -0.550 OA
ENDBRANCH   1   2
BRANCH   1   5
ATOM      5  C   UNL     1      28.442 -13.464  16.021  1.00  0.00     0.006 C 
BRANCH   5   6
ATOM      6  C   UNL     1      28.366 -14.670  15.068  1.00  0.00    -0.003 C 
ATOM      7  C   UNL     1      27.088 -14.695  14.229  1.00  0.00     0.004 C 
ENDBRANCH   5   6
ENDBRANCH   1   5
TORSDOF 3
ENDMDL
MODEL 3
REMARK VINA RESULT:    -3.393      2.504      3.941
REMARK INTER + INTRA:          -4.091
REMARK INTER:                  -4.043
REMARK INTRA:                  -0.048
REMARK UNBOUND:                -0.103
REMARK SMILES CCCCC(=O)[O-]
REMARK SMILES IDX 4 1 5 2 6 3 7 4 3 5 2 6 1 7
REMARK H PARENT
REMARK Flexibility Score: inf
ROOT
ATOM      1  C   UNL     1      27.086 -13.230  15.579  1.00  0.00     0.053 C 
ENDROOT
BRANCH   1   2
ATOM      2  C   UNL     1      27.846 -14.243  14.780  1.00  0.00     0.041 C 
ATOM      3  O   UNL     1      27.608 -14.394  13.553  1.00  0.00    -0.550 OA
ATOM      4  O   UNL     1      28.800 -15.042  15.398  1.00  0.00    -0.550 OA
ENDBRANCH   1   2
BRANCH   1   5
ATOM      5  C   UNL     1      27.876 -11.928  15.794  1.00  0.00     0.006 C 
BRANCH   5   6
ATOM      6  C   UNL     1      27.626 -10.861  14.712  1.00  0.00    -0.003 C 
ATOM      7  C   UNL     1      28.042  -9.456  15.145  1.00  0.00     0.004 C 
ENDBRANCH   5   6
ENDBRANCH   1   5
TORSDOF 3
ENDMDL
MODEL 4
REMARK VINA RESULT:    -3.365      2.473      3.848
REMARK INTER + INTRA:          -4.058
REMARK INTER:                  -4.014
REMARK INTRA:                  -0.044
REMARK UNBOUND:                -0.103
REMARK SMILES CCCCC(=O)[O-]
REMARK SMILES IDX 4 1 5 2 6 3 7 4 3 5 2 6 1 7
REMARK H PARENT
REMARK Flexibility Score: inf
ROOT
ATOM      1  C   UNL     1      27.337 -13.219  15.730  1.00  0.00     0.053 C 
ENDROOT
BRANCH   1   2
ATOM      2  C   UNL     1      27.965 -14.273  14.870  1.00  0.00     0.041 C 
ATOM      3  O   UNL     1      28.811 -15.068  15.356  1.00  0.00    -0.550 OA
ATOM      4  O   UNL     1      27.637 -14.357  13.523  1.00  0.00    -0.550 OA
ENDBRANCH   1   2
BRANCH   1   5
ATOM      5  C   UNL     1      28.166 -11.924  15.783  1.00  0.00     0.006 C 
BRANCH   5   6
ATOM      6  C   UNL     1      27.619 -10.797  14.888  1.00  0.00    -0.003 C 
ATOM      7  C   UNL     1      28.005  -9.401  15.377  1.00  0.00     0.004 C 
ENDBRANCH   5   6
ENDBRANCH   1   5
TORSDOF 3
ENDMDL
MODEL 5
REMARK VINA RESULT:    -3.361      1.360      1.820
REMARK INTER + INTRA:          -4.053
REMARK INTER:                  -3.958
REMARK INTRA:                  -0.095
REMARK UNBOUND:                -0.103
REMARK SMILES CCCCC(=O)[O-]
REMARK SMILES IDX 4 1 5 2 6 3 7 4 3 5 2 6 1 7
REMARK H PARENT
REMARK Flexibility Score: inf
ROOT
ATOM      1  C   UNL     1      27.875 -11.622  14.038  1.00  0.00     0.053 C 
ENDROOT
BRANCH   1   2
ATOM      2  C   UNL     1      28.044 -11.023  15.400  1.00  0.00     0.041 C 
ATOM      3  O   UNL     1      27.307 -10.073  15.773  1.00  0.00    -0.550 OA
ATOM      4  O   UNL     1      29.037 -11.495  16.249  1.00  0.00    -0.550 OA
ENDBRANCH   1   2
BRANCH   1   5
ATOM      5  C   UNL     1      26.875 -12.791  14.023  1.00  0.00     0.006 C 
BRANCH   5   6
ATOM      6  C   UNL     1      27.522 -14.161  13.752  1.00  0.00    -0.003 C 
ATOM      7  C   UNL     1      28.252 -14.733  14.968  1.00  0.00     0.004 C 
ENDBRANCH   5   6
ENDBRANCH   1   5
TORSDOF 3
ENDMDL
MODEL 6
REMARK VINA RESULT:    -3.181      2.185      3.762
REMARK INTER + INTRA:          -3.842
REMARK INTER:                  -3.739
REMARK INTRA:                  -0.103
REMARK UNBOUND:                -0.103
REMARK SMILES CCCCC(=O)[O-]
REMARK SMILES IDX 4 1 5 2 6 3 7 4 3 5 2 6 1 7
REMARK H PARENT
REMARK Flexibility Score: inf
ROOT
ATOM      1  C   UNL     1      28.042 -12.121  14.037  1.00  0.00     0.053 C 
ENDROOT
BRANCH   1   2
ATOM      2  C   UNL     1      27.834 -13.253  14.998  1.00  0.00     0.041 C 
ATOM      3  O   UNL     1      27.545 -13.020  16.201  1.00  0.00    -0.550 OA
ATOM      4  O   UNL     1      27.988 -14.565  14.570  1.00  0.00    -0.550 OA
ENDBRANCH   1   2
BRANCH   1   5
ATOM      5  C   UNL     1      27.276 -10.850  14.443  1.00  0.00     0.006 C 
BRANCH   5   6
ATOM      6  C   UNL     1      28.187  -9.663  14.806  1.00  0.00    -0.003 C 
ATOM      7  C   UNL     1      28.263  -9.403  16.310  1.00  0.00     0.004 C 
ENDBRANCH   5   6
ENDBRANCH   1   5
TORSDOF 3
ENDMDL
MODEL 7
REMARK VINA RESULT:    -3.099      8.492      9.569
REMARK INTER + INTRA:          -3.745
REMARK INTER:                  -3.658
REMARK INTRA:                  -0.087
REMARK UNBOUND:                -0.103
REMARK SMILES CCCCC(=O)[O-]
REMARK SMILES IDX 4 1 5 2 6 3 7 4 3 5 2 6 1 7
REMARK H PARENT
REMARK Flexibility Score: inf
ROOT
ATOM      1  C   UNL     1      33.857  -5.456  10.704  1.00  0.00     0.053 C 
ENDROOT
BRANCH   1   2
ATOM      2  C   UNL     1      34.809  -6.403  11.369  1.00  0.00     0.041 C 
ATOM      3  O   UNL     1      34.448  -7.064  12.377  1.00  0.00    -0.550 OA
ATOM      4  O   UNL     1      36.107  -6.534  10.891  1.00  0.00    -0.550 OA
ENDBRANCH   1   2
BRANCH   1   5
ATOM      5  C   UNL     1      32.559  -5.260  11.506  1.00  0.00     0.006 C 
BRANCH   5   6
ATOM      6  C   UNL     1      31.370  -6.084  10.979  1.00  0.00    -0.003 C 
ATOM      7  C   UNL     1      30.686  -6.914  12.065  1.00  0.00     0.004 C 
ENDBRANCH   5   6
ENDBRANCH   1   5
TORSDOF 3
ENDMDL
MODEL 8
REMARK VINA RESULT:    -3.097     15.893     16.541
REMARK INTER + INTRA:          -3.743
REMARK INTER:                  -3.657
REMARK INTRA:                  -0.086
REMARK UNBOUND:                -0.103
REMARK SMILES CCCCC(=O)[O-]
REMARK SMILES IDX 4 1 5 2 6 3 7 4 3 5 2 6 1 7
REMARK H PARENT
REMARK Flexibility Score: inf
ROOT
ATOM      1  C   UNL     1      41.027 -20.790  20.303  1.00  0.00     0.053 C 
ENDROOT
BRANCH   1   2
ATOM      2  C   UNL     1      41.701 -21.917  19.581  1.00  0.00     0.041 C 
ATOM      3  O   UNL     1      41.197 -22.390  18.529  1.00  0.00    -0.550 OA
ATOM      4  O   UNL     1      42.872 -22.465  20.088  1.00  0.00    -0.550 OA
ENDBRANCH   1   2
BRANCH   1   5
ATOM      5  C   UNL     1      39.497 -20.813  20.144  1.00  0.00     0.006 C 
BRANCH   5   6
ATOM      6  C   UNL     1      38.953 -19.733  19.191  1.00  0.00    -0.003 C 
ATOM      7  C   UNL     1      38.048 -20.298  18.096  1.00  0.00     0.004 C 
ENDBRANCH   5   6
ENDBRANCH   1   5
TORSDOF 3
ENDMDL
MODEL 9
REMARK VINA RESULT:    -3.064      2.618      3.810
REMARK INTER + INTRA:          -3.704
REMARK INTER:                  -3.617
REMARK INTRA:                  -0.087
REMARK UNBOUND:                -0.103
REMARK SMILES CCCCC(=O)[O-]
REMARK SMILES IDX 4 1 5 2 6 3 7 4 3 5 2 6 1 7
REMARK H PARENT
REMARK Flexibility Score: inf
ROOT
ATOM      1  C   UNL     1      29.493 -11.714  15.254  1.00  0.00     0.053 C 
ENDROOT
BRANCH   1   2
ATOM      2  C   UNL     1      29.410 -12.711  16.370  1.00  0.00     0.041 C 
ATOM      3  O   UNL     1      28.294 -13.168  16.732  1.00  0.00    -0.550 OA
ATOM      4  O   UNL     1      30.564 -13.114  17.029  1.00  0.00    -0.550 OA
ENDBRANCH   1   2
BRANCH   1   5
ATOM      5  C   UNL     1      28.183 -11.607  14.455  1.00  0.00     0.006 C 
BRANCH   5   6
ATOM      6  C   UNL     1      27.370 -10.336  14.758  1.00  0.00    -0.003 C 
ATOM      7  C   UNL     1      28.146  -9.307  15.580  1.00  0.00     0.004 C 
ENDBRANCH   5   6
ENDBRANCH   1   5
TORSDOF 3
ENDMDL
