MODEL 1
REMARK VINA RESULT:    -4.053      0.000      0.000
REMARK INTER + INTRA:          -6.406
REMARK INTER:                  -5.712
REMARK INTRA:                  -0.694
REMARK UNBOUND:                -0.694
REMARK SMILES CCCCCCCCC(=O)[O-]
REMARK SMILES IDX 6 1 7 2 8 3 9 4 10 5 11 6 5 7 4 8 3 9 2 10 1 11
REMARK H PARENT
REMARK Flexibility Score: inf
ROOT
ATOM      1  C   UNL     1     -12.445  -2.760 -26.356  1.00  0.00     0.000 C 
ENDROOT
BRANCH   1   2
ATOM      2  C   UNL     1     -11.784  -1.543 -27.027  1.00  0.00     0.006 C 
BRANCH   2   3
ATOM      3  C   UNL     1     -10.539  -1.050 -26.279  1.00  0.00     0.053 C 
BRANCH   3   4
ATOM      4  C   UNL     1     -10.708   0.379 -25.869  1.00  0.00     0.041 C 
ATOM      5  O   UNL     1     -11.783   0.763 -25.338  1.00  0.00    -0.550 OA
ATOM      6  O   UNL     1      -9.659   1.277 -26.029  1.00  0.00    -0.550 OA
ENDBRANCH   3   4
ENDBRANCH   2   3
ENDBRANCH   1   2
BRANCH   1   7
ATOM      7  C   UNL     1     -12.034  -2.999 -24.891  1.00  0.00     0.000 C 
BRANCH   7   8
ATOM      8  C   UNL     1     -12.944  -2.275 -23.888  1.00  0.00    -0.000 C 
BRANCH   8   9
ATOM      9  C   UNL     1     -12.326  -2.276 -22.485  1.00  0.00    -0.000 C 
BRANCH   9  10
ATOM     10  C   UNL     1     -11.736  -0.904 -22.142  1.00  0.00    -0.003 C 
ATOM     11  C   UNL     1     -10.232  -0.871 -22.398  1.00  0.00     0.004 C 
ENDBRANCH   9  10
ENDBRANCH   8   9
ENDBRANCH   7   8
ENDBRANCH   1   7
TORSDOF 7
ENDMDL
MODEL 2
REMARK VINA RESULT:    -3.977      2.853      4.647
REMARK INTER + INTRA:          -6.298
REMARK INTER:                  -5.936
REMARK INTRA:                  -0.361
REMARK UNBOUND:                -0.694
REMARK SMILES CCCCCCCCC(=O)[O-]
REMARK SMILES IDX 6 1 7 2 8 3 9 4 10 5 11 6 5 7 4 8 3 9 2 10 1 11
REMARK H PARENT
REMARK Flexibility Score: inf
ROOT
ATOM      1  C   UNL     1     -12.964  -2.372 -22.922  1.00  0.00     0.000 C 
ENDROOT
BRANCH   1   2
ATOM      2  C   UNL     1     -12.759  -1.022 -22.211  1.00  0.00     0.006 C 
BRANCH   2   3
ATOM      3  C   UNL     1     -11.664  -1.071 -21.138  1.00  0.00     0.053 C 
BRANCH   3   4
ATOM      4  C   UNL     1     -11.959  -0.093 -20.045  1.00  0.00     0.041 C 
ATOM      5  O   UNL     1     -13.073   0.492 -20.003  1.00  0.00    -0.550 OA
ATOM      6  O   UNL     1     -11.023   0.135 -19.044  1.00  0.00    -0.550 OA
ENDBRANCH   3   4
ENDBRANCH   2   3
ENDBRANCH   1   2
BRANCH   1   7
ATOM      7  C   UNL     1     -12.009  -2.640 -24.099  1.00  0.00     0.000 C 
BRANCH   7   8
ATOM      8  C   UNL     1     -12.744  -2.821 -25.436  1.00  0.00    -0.000 C 
BRANCH   8   9
ATOM      9  C   UNL     1     -11.970  -2.159 -26.583  1.00  0.00    -0.000 C 
BRANCH   9  10
ATOM     10  C   UNL     1     -11.213  -0.920 -26.093  1.00  0.00    -0.003 C 
ATOM     11  C   UNL     1      -9.838  -0.819 -26.747  1.00  0.00     0.004 C 
ENDBRANCH   9  10
ENDBRANCH   8   9
ENDBRANCH   7   8
ENDBRANCH   1   7
TORSDOF 7
ENDMDL
MODEL 3
REMARK VINA RESULT:    -3.970      1.634      3.708
REMARK INTER + INTRA:          -6.289
REMARK INTER:                  -5.542
REMARK INTRA:                  -0.747
REMARK UNBOUND:                -0.694
REMARK SMILES CCCCCCCCC(=O)[O-]
REMARK SMILES IDX 6 1 7 2 8 3 9 4 10 5 11 6 5 7 4 8 3 9 2 10 1 11
REMARK H PARENT
REMARK Flexibility Score: inf
ROOT
ATOM      1  C   UNL     1     -12.045  -3.011 -24.784  1.00  0.00     0.000 C 
ENDROOT
BRANCH   1   2
ATOM      2  C   UNL     1     -13.010  -2.345 -23.786  1.00  0.00     0.006 C 
BRANCH   2   3
ATOM      3  C   UNL     1     -12.379  -2.117 -22.406  1.00  0.00     0.053 C 
BRANCH   3   4
ATOM      4  C   UNL     1     -11.563  -0.863 -22.405  1.00  0.00     0.041 C 
ATOM      5  O   UNL     1     -10.306  -0.925 -22.354  1.00  0.00    -0.550 OA
ATOM      6  O   UNL     1     -12.188   0.373 -22.511  1.00  0.00    -0.550 OA
ENDBRANCH   3   4
ENDBRANCH   2   3
ENDBRANCH   1   2
BRANCH   1   7
ATOM      7  C   UNL     1     -12.487  -2.948 -26.257  1.00  0.00     0.000 C 
BRANCH   7   8
ATOM      8  C   UNL     1     -11.907  -1.739 -27.005  1.00  0.00    -0.000 C 
BRANCH   8   9
ATOM      9  C   UNL     1     -10.803  -1.061 -26.183  1.00  0.00    -0.000 C 
BRANCH   9  10
ATOM     10  C   UNL     1     -11.139   0.411 -25.919  1.00  0.00    -0.003 C 
ATOM     11  C   UNL     1     -12.635   0.670 -26.068  1.00  0.00     0.004 C 
ENDBRANCH   9  10
ENDBRANCH   8   9
ENDBRANCH   7   8
ENDBRANCH   1   7
TORSDOF 7
ENDMDL
MODEL 4
REMARK VINA RESULT:    -3.967      1.325      2.297
REMARK INTER + INTRA:          -6.284
REMARK INTER:                  -5.761
REMARK INTRA:                  -0.523
REMARK UNBOUND:                -0.694
REMARK SMILES CCCCCCCCC(=O)[O-]
REMARK SMILES IDX 6 1 7 2 8 3 9 4 10 5 11 6 5 7 4 8 3 9 2 10 1 11
REMARK H PARENT
REMARK Flexibility Score: inf
ROOT
ATOM      1  C   UNL     1     -12.031  -2.747 -24.035  1.00  0.00     0.000 C 
ENDROOT
BRANCH   1   2
ATOM      2  C   UNL     1     -12.986  -2.773 -25.242  1.00  0.00     0.006 C 
BRANCH   2   3
ATOM      3  C   UNL     1     -12.256  -2.636 -26.584  1.00  0.00     0.053 C 
BRANCH   3   4
ATOM      4  C   UNL     1     -11.672  -1.266 -26.723  1.00  0.00     0.041 C 
ATOM      5  O   UNL     1     -12.396  -0.249 -26.555  1.00  0.00    -0.550 OA
ATOM      6  O   UNL     1     -10.317  -1.111 -26.989  1.00  0.00    -0.550 OA
ENDBRANCH   3   4
ENDBRANCH   2   3
ENDBRANCH   1   2
BRANCH   1   7
ATOM      7  C   UNL     1     -12.684  -2.354 -22.697  1.00  0.00     0.000 C 
BRANCH   7   8
ATOM      8  C   UNL     1     -11.753  -1.529 -21.796  1.00  0.00    -0.000 C 
BRANCH   8   9
ATOM      9  C   UNL     1     -10.970  -0.495 -22.615  1.00  0.00    -0.000 C 
BRANCH   9  10
ATOM     10  C   UNL     1      -9.459  -0.690 -22.447  1.00  0.00    -0.003 C 
ATOM     11  C   UNL     1      -8.769  -0.841 -23.800  1.00  0.00     0.004 C 
ENDBRANCH   9  10
ENDBRANCH   8   9
ENDBRANCH   7   8
ENDBRANCH   1   7
TORSDOF 7
ENDMDL
MODEL 5
REMARK VINA RESULT:    -3.967      1.512      1.820
REMARK INTER + INTRA:          -6.284
REMARK INTER:                  -5.683
REMARK INTRA:                  -0.601
REMARK UNBOUND:                -0.694
REMARK SMILES CCCCCCCCC(=O)[O-]
REMARK SMILES IDX 6 1 7 2 8 3 9 4 10 5 11 6 5 7 4 8 3 9 2 10 1 11
REMARK H PARENT
REMARK Flexibility Score: inf
ROOT
ATOM      1  C   UNL     1     -11.981  -1.939 -26.742  1.00  0.00     0.000 C 
ENDROOT
BRANCH   1   2
ATOM      2  C   UNL     1     -11.784  -0.487 -26.271  1.00  0.00     0.006 C 
BRANCH   2   3
ATOM      3  C   UNL     1     -13.104   0.211 -25.915  1.00  0.00     0.053 C 
BRANCH   3   4
ATOM      4  C   UNL     1     -12.860   1.648 -25.579  1.00  0.00     0.041 C 
ATOM      5  O   UNL     1     -12.886   2.031 -24.380  1.00  0.00    -0.550 OA
ATOM      6  O   UNL     1     -12.556   2.556 -26.586  1.00  0.00    -0.550 OA
ENDBRANCH   3   4
ENDBRANCH   2   3
ENDBRANCH   1   2
BRANCH   1   7
ATOM      7  C   UNL     1     -12.740  -2.846 -25.756  1.00  0.00     0.000 C 
BRANCH   7   8
ATOM      8  C   UNL     1     -12.029  -2.984 -24.402  1.00  0.00    -0.000 C 
BRANCH   8   9
ATOM      9  C   UNL     1     -12.846  -2.326 -23.283  1.00  0.00    -0.000 C 
BRANCH   9  10
ATOM     10  C   UNL     1     -11.931  -1.793 -22.174  1.00  0.00    -0.003 C 
ATOM     11  C   UNL     1     -10.726  -1.061 -22.757  1.00  0.00     0.004 C 
ENDBRANCH   9  10
ENDBRANCH   8   9
ENDBRANCH   7   8
ENDBRANCH   1   7
TORSDOF 7
ENDMDL
MODEL 6
REMARK VINA RESULT:    -3.933      3.437      5.490
REMARK INTER + INTRA:          -6.236
REMARK INTER:                  -6.002
REMARK INTRA:                  -0.234
REMARK UNBOUND:                -0.694
REMARK SMILES CCCCCCCCC(=O)[O-]
REMARK SMILES IDX 6 1 7 2 8 3 9 4 10 5 11 6 5 7 4 8 3 9 2 10 1 11
REMARK H PARENT
REMARK Flexibility Score: inf
ROOT
ATOM      1  C   UNL     1     -11.701  -1.049 -22.132  1.00  0.00     0.000 C 
ENDROOT
BRANCH   1   2
ATOM      2  C   UNL     1     -11.799  -0.780 -20.619  1.00  0.00     0.006 C 
BRANCH   2   3
ATOM      3  C   UNL     1     -10.586  -0.019 -20.067  1.00  0.00     0.053 C 
BRANCH   3   4
ATOM      4  C   UNL     1     -10.953   0.710 -18.814  1.00  0.00     0.041 C 
ATOM      5  O   UNL     1     -10.682   0.212 -17.689  1.00  0.00    -0.550 OA
ATOM      6  O   UNL     1     -11.551   1.962 -18.887  1.00  0.00    -0.550 OA
ENDBRANCH   3   4
ENDBRANCH   2   3
ENDBRANCH   1   2
BRANCH   1   7
ATOM      7  C   UNL     1     -12.613  -2.173 -22.654  1.00  0.00     0.000 C 
BRANCH   7   8
ATOM      8  C   UNL     1     -12.044  -2.879 -23.894  1.00  0.00    -0.000 C 
BRANCH   8   9
ATOM      9  C   UNL     1     -11.666  -1.864 -24.980  1.00  0.00    -0.000 C 
BRANCH   9  10
ATOM     10  C   UNL     1     -12.067  -2.370 -26.370  1.00  0.00    -0.003 C 
ATOM     11  C   UNL     1     -12.858  -3.672 -26.276  1.00  0.00     0.004 C 
ENDBRANCH   9  10
ENDBRANCH   8   9
ENDBRANCH   7   8
ENDBRANCH   1   7
TORSDOF 7
ENDMDL
MODEL 7
REMARK VINA RESULT:    -3.922     17.732     19.036
REMARK INTER + INTRA:          -6.221
REMARK INTER:                  -5.535
REMARK INTRA:                  -0.686
REMARK UNBOUND:                -0.694
REMARK SMILES CCCCCCCCC(=O)[O-]
REMARK SMILES IDX 6 1 7 2 8 3 9 4 10 5 11 6 5 7 4 8 3 9 2 10 1 11
REMARK H PARENT
REMARK Flexibility Score: inf
ROOT
ATOM      1  C   UNL     1       6.367   7.558 -26.586  1.00  0.00     0.000 C 
ENDROOT
BRANCH   1   2
ATOM      2  C   UNL     1       5.699   6.404 -27.356  1.00  0.00     0.006 C 
BRANCH   2   3
ATOM      3  C   UNL     1       4.824   5.517 -26.461  1.00  0.00     0.053 C 
BRANCH   3   4
ATOM      4  C   UNL     1       5.468   4.181 -26.261  1.00  0.00     0.041 C 
ATOM      5  O   UNL     1       6.691   4.104 -25.972  1.00  0.00    -0.550 OA
ATOM      6  O   UNL     1       4.706   3.022 -26.346  1.00  0.00    -0.550 OA
ENDBRANCH   3   4
ENDBRANCH   2   3
ENDBRANCH   1   2
BRANCH   1   7
ATOM      7  C   UNL     1       5.915   7.713 -25.123  1.00  0.00     0.000 C 
BRANCH   7   8
ATOM      8  C   UNL     1       7.085   7.679 -24.128  1.00  0.00    -0.000 C 
BRANCH   8   9
ATOM      9  C   UNL     1       7.064   6.389 -23.298  1.00  0.00    -0.000 C 
BRANCH   9  10
ATOM     10  C   UNL     1       5.645   6.070 -22.814  1.00  0.00    -0.003 C 
ATOM     11  C   UNL     1       5.584   6.007 -21.290  1.00  0.00     0.004 C 
ENDBRANCH   9  10
ENDBRANCH   8   9
ENDBRANCH   7   8
ENDBRANCH   1   7
TORSDOF 7
ENDMDL
MODEL 8
REMARK VINA RESULT:    -3.842      2.026      3.919
REMARK INTER + INTRA:          -6.109
REMARK INTER:                  -5.470
REMARK INTRA:                  -0.638
REMARK UNBOUND:                -0.694
REMARK SMILES CCCCCCCCC(=O)[O-]
REMARK SMILES IDX 6 1 7 2 8 3 9 4 10 5 11 6 5 7 4 8 3 9 2 10 1 11
REMARK H PARENT
REMARK Flexibility Score: inf
ROOT
ATOM      1  C   UNL     1     -13.037  -2.303 -23.194  1.00  0.00     0.000 C 
ENDROOT
BRANCH   1   2
ATOM      2  C   UNL     1     -12.619  -1.001 -22.487  1.00  0.00     0.006 C 
BRANCH   2   3
ATOM      3  C   UNL     1     -11.672  -1.241 -21.304  1.00  0.00     0.053 C 
BRANCH   3   4
ATOM      4  C   UNL     1     -10.374  -0.530 -21.522  1.00  0.00     0.041 C 
ATOM      5  O   UNL     1     -10.022   0.398 -20.746  1.00  0.00    -0.550 OA
ATOM      6  O   UNL     1      -9.529  -0.924 -22.552  1.00  0.00    -0.550 OA
ENDBRANCH   3   4
ENDBRANCH   2   3
ENDBRANCH   1   2
BRANCH   1   7
ATOM      7  C   UNL     1     -12.000  -2.868 -24.183  1.00  0.00     0.000 C 
BRANCH   7   8
ATOM      8  C   UNL     1     -12.553  -3.021 -25.607  1.00  0.00    -0.000 C 
BRANCH   8   9
ATOM      9  C   UNL     1     -11.956  -1.964 -26.545  1.00  0.00    -0.000 C 
BRANCH   9  10
ATOM     10  C   UNL     1     -10.814  -1.203 -25.861  1.00  0.00    -0.003 C 
ATOM     11  C   UNL     1     -11.091   0.297 -25.834  1.00  0.00     0.004 C 
ENDBRANCH   9  10
ENDBRANCH   8   9
ENDBRANCH   7   8
ENDBRANCH   1   7
TORSDOF 7
ENDMDL
