MODEL 1
REMARK VINA RESULT:    -5.210      0.000      0.000
REMARK INTER + INTRA:         -17.862
REMARK INTER:                 -13.739
REMARK INTRA:                  -4.123
REMARK UNBOUND:                -4.123
REMARK SMILES CCCCCCCCCCCCCCCCCCCCCCCCCCCCCC(=O)[O-]
REMARK SMILES IDX 16 1 17 2 18 3 19 4 20 5 21 6 22 7 23 8 24 9 25 10 26 11
REMARK SMILES IDX 27 12 28 13 29 14 30 15 31 16 32 17 15 18 14 19 13 20 12 21
REMARK SMILES IDX 11 22 10 23 9 24 8 25 7 26 6 27 5 28 4 29 3 30 2 31 1 32
REMARK H PARENT
REMARK Flexibility Score: inf
ROOT
ATOM      1  C   UNL     1       3.108 -29.718   3.856  1.00  0.00     0.000 C 
ENDROOT
BRANCH   1   2
ATOM      2  C   UNL     1       3.462 -29.549   5.348  1.00  0.00     0.000 C 
BRANCH   2   3
ATOM      3  C   UNL     1       2.677 -30.472   6.296  1.00  0.00     0.000 C 
BRANCH   3   4
ATOM      4  C   UNL     1       2.399 -31.855   5.680  1.00  0.00     0.000 C 
BRANCH   4   5
ATOM      5  C   UNL     1       3.451 -32.909   6.073  1.00  0.00     0.000 C 
BRANCH   5   6
ATOM      6  C   UNL     1       4.520 -33.212   4.998  1.00  0.00     0.000 C 
BRANCH   6   7
ATOM      7  C   UNL     1       5.981 -33.055   5.458  1.00  0.00     0.000 C 
BRANCH   7   8
ATOM      8  C   UNL     1       6.251 -31.710   6.150  1.00  0.00     0.000 C 
BRANCH   8   9
ATOM      9  C   UNL     1       6.995 -30.712   5.245  1.00  0.00     0.000 C 
BRANCH   9  10
ATOM     10  C   UNL     1       7.653 -29.544   6.008  1.00  0.00     0.000 C 
BRANCH  10  11
ATOM     11  C   UNL     1       9.145 -29.802   6.279  1.00  0.00     0.000 C 
BRANCH  11  12
ATOM     12  C   UNL     1       9.677 -31.051   5.561  1.00  0.00     0.000 C 
BRANCH  12  13
ATOM     13  C   UNL     1      10.105 -32.159   6.535  1.00  0.00     0.006 C 
BRANCH  13  14
ATOM     14  C   UNL     1      10.180 -31.628   7.971  1.00  0.00     0.053 C 
BRANCH  14  15
ATOM     15  C   UNL     1       9.008 -32.098   8.777  1.00  0.00     0.041 C 
ATOM     16  O   UNL     1       8.670 -33.311   8.758  1.00  0.00    -0.550 OA
ATOM     17  O   UNL     1       8.294 -31.197   9.559  1.00  0.00    -0.550 OA
ENDBRANCH  14  15
ENDBRANCH  13  14
ENDBRANCH  12  13
ENDBRANCH  11  12
ENDBRANCH  10  11
ENDBRANCH   9  10
ENDBRANCH   8   9
ENDBRANCH   7   8
ENDBRANCH   6   7
ENDBRANCH   5   6
ENDBRANCH   4   5
ENDBRANCH   3   4
ENDBRANCH   2   3
ENDBRANCH   1   2
BRANCH   1  18
ATOM     18  C   UNL     1       4.331 -29.612   2.930  1.00  0.00     0.000 C 
BRANCH  18  19
ATOM     19  C   UNL     1       3.906 -29.298   1.488  1.00  0.00     0.000 C 
BRANCH  19  20
ATOM     20  C   UNL     1       2.379 -29.306   1.294  1.00  0.00     0.000 C 
BRANCH  20  21
ATOM     21  C   UNL     1       1.736 -27.926   1.077  1.00  0.00     0.000 C 
BRANCH  21  22
ATOM     22  C   UNL     1       1.101 -27.769  -0.313  1.00  0.00     0.000 C 
BRANCH  22  23
ATOM     23  C   UNL     1       1.880 -26.795  -1.215  1.00  0.00     0.000 C 
BRANCH  23  24
ATOM     24  C   UNL     1       2.958 -27.442  -2.106  1.00  0.00    -0.000 C 
BRANCH  24  25
ATOM     25  C   UNL     1       4.392 -26.934  -1.868  1.00  0.00    -0.000 C 
BRANCH  25  26
ATOM     26  C   UNL     1       5.459 -27.880  -2.439  1.00  0.00    -0.000 C 
BRANCH  26  27
ATOM     27  C   UNL     1       6.330 -28.466  -1.319  1.00  0.00    -0.000 C 
BRANCH  27  28
ATOM     28  C   UNL     1       7.753 -27.879  -1.299  1.00  0.00    -0.000 C 
BRANCH  28  29
ATOM     29  C   UNL     1       8.616 -28.302  -0.092  1.00  0.00    -0.000 C 
BRANCH  29  30
ATOM     30  C   UNL     1       7.855 -29.022   1.038  1.00  0.00    -0.000 C 
BRANCH  30  31
ATOM     31  C   UNL     1       8.552 -28.981   2.409  1.00  0.00    -0.003 C 
ATOM     32  C   UNL     1       9.171 -27.620   2.720  1.00  0.00     0.004 C 
ENDBRANCH  30  31
ENDBRANCH  29  30
ENDBRANCH  28  29
ENDBRANCH  27  28
ENDBRANCH  26  27
ENDBRANCH  25  26
ENDBRANCH  24  25
ENDBRANCH  23  24
ENDBRANCH  22  23
ENDBRANCH  21  22
ENDBRANCH  20  21
ENDBRANCH  19  20
ENDBRANCH  18  19
ENDBRANCH   1  18
TORSDOF 28
ENDMDL
MODEL 2
REMARK VINA RESULT:    -5.196      3.289      6.462
REMARK INTER + INTRA:         -17.824
REMARK INTER:                 -14.294
REMARK INTRA:                  -3.529
REMARK UNBOUND:                -4.123
REMARK SMILES CCCCCCCCCCCCCCCCCCCCCCCCCCCCCC(=O)[O-]
REMARK SMILES IDX 16 1 17 2 18 3 19 4 20 5 21 6 22 7 23 8 24 9 25 10 26 11
REMARK SMILES IDX 27 12 28 13 29 14 30 15 31 16 32 17 15 18 14 19 13 20 12 21
REMARK SMILES IDX 11 22 10 23 9 24 8 25 7 26 6 27 5 28 4 29 3 30 2 31 1 32
REMARK H PARENT
REMARK Flexibility Score: inf
ROOT
ATOM      1  C   UNL     1       3.099 -29.857   2.839  1.00  0.00     0.000 C 
ENDROOT
BRANCH   1   2
ATOM      2  C   UNL     1       4.246 -29.625   3.844  1.00  0.00     0.000 C 
BRANCH   2   3
ATOM      3  C   UNL     1       3.920 -30.043   5.289  1.00  0.00     0.000 C 
BRANCH   3   4
ATOM      4  C   UNL     1       2.526 -30.683   5.419  1.00  0.00     0.000 C 
BRANCH   4   5
ATOM      5  C   UNL     1       2.585 -32.179   5.784  1.00  0.00     0.000 C 
BRANCH   5   6
ATOM      6  C   UNL     1       4.005 -32.758   5.978  1.00  0.00     0.000 C 
BRANCH   6   7
ATOM      7  C   UNL     1       4.436 -33.810   4.939  1.00  0.00     0.000 C 
BRANCH   7   8
ATOM      8  C   UNL     1       4.602 -33.225   3.527  1.00  0.00     0.000 C 
BRANCH   8   9
ATOM      9  C   UNL     1       6.047 -32.788   3.228  1.00  0.00     0.000 C 
BRANCH   9  10
ATOM     10  C   UNL     1       7.071 -33.241   4.288  1.00  0.00     0.000 C 
BRANCH  10  11
ATOM     11  C   UNL     1       7.878 -32.058   4.850  1.00  0.00     0.000 C 
BRANCH  11  12
ATOM     12  C   UNL     1       7.308 -31.518   6.170  1.00  0.00     0.000 C 
BRANCH  12  13
ATOM     13  C   UNL     1       7.845 -30.123   6.523  1.00  0.00     0.006 C 
BRANCH  13  14
ATOM     14  C   UNL     1       9.374 -30.136   6.634  1.00  0.00     0.053 C 
BRANCH  14  15
ATOM     15  C   UNL     1       9.805 -30.213   8.066  1.00  0.00     0.041 C 
ATOM     16  O   UNL     1      11.020 -30.087   8.371  1.00  0.00    -0.550 OA
ATOM     17  O   UNL     1       8.861 -30.415   9.068  1.00  0.00    -0.550 OA
ENDBRANCH  14  15
ENDBRANCH  13  14
ENDBRANCH  12  13
ENDBRANCH  11  12
ENDBRANCH  10  11
ENDBRANCH   9  10
ENDBRANCH   8   9
ENDBRANCH   7   8
ENDBRANCH   6   7
ENDBRANCH   5   6
ENDBRANCH   4   5
ENDBRANCH   3   4
ENDBRANCH   2   3
ENDBRANCH   1   2
BRANCH   1  18
ATOM     18  C   UNL     1       3.411 -29.317   1.434  1.00  0.00     0.000 C 
BRANCH  18  19
ATOM     19  C   UNL     1       2.255 -28.457   0.904  1.00  0.00     0.000 C 
BRANCH  19  20
ATOM     20  C   UNL     1       2.565 -27.802  -0.456  1.00  0.00     0.000 C 
BRANCH  20  21
ATOM     21  C   UNL     1       1.422 -26.969  -1.060  1.00  0.00     0.000 C 
BRANCH  21  22
ATOM     22  C   UNL     1       0.581 -26.240  -0.000  1.00  0.00     0.000 C 
BRANCH  22  23
ATOM     23  C   UNL     1      -0.906 -26.148  -0.383  1.00  0.00     0.000 C 
BRANCH  23  24
ATOM     24  C   UNL     1      -1.221 -25.233  -1.584  1.00  0.00    -0.000 C 
BRANCH  24  25
ATOM     25  C   UNL     1      -2.165 -24.056  -1.277  1.00  0.00    -0.000 C 
BRANCH  25  26
ATOM     26  C   UNL     1      -1.695 -23.215  -0.081  1.00  0.00    -0.000 C 
BRANCH  26  27
ATOM     27  C   UNL     1      -2.760 -23.187   1.025  1.00  0.00    -0.000 C 
BRANCH  27  28
ATOM     28  C   UNL     1      -4.029 -23.975   0.654  1.00  0.00    -0.000 C 
BRANCH  28  29
ATOM     29  C   UNL     1      -4.136 -25.376   1.289  1.00  0.00    -0.000 C 
BRANCH  29  30
ATOM     30  C   UNL     1      -4.637 -26.487   0.345  1.00  0.00    -0.000 C 
BRANCH  30  31
ATOM     31  C   UNL     1      -5.498 -25.993  -0.830  1.00  0.00    -0.003 C 
ATOM     32  C   UNL     1      -4.917 -26.370  -2.191  1.00  0.00     0.004 C 
ENDBRANCH  30  31
ENDBRANCH  29  30
ENDBRANCH  28  29
ENDBRANCH  27  28
ENDBRANCH  26  27
ENDBRANCH  25  26
ENDBRANCH  24  25
ENDBRANCH  23  24
ENDBRANCH  22  23
ENDBRANCH  21  22
ENDBRANCH  20  21
ENDBRANCH  19  20
ENDBRANCH  18  19
ENDBRANCH   1  18
TORSDOF 28
ENDMDL
MODEL 3
REMARK VINA RESULT:    -5.180      6.501     11.986
REMARK INTER + INTRA:         -17.782
REMARK INTER:                 -14.619
REMARK INTRA:                  -3.163
REMARK UNBOUND:                -4.123
REMARK SMILES CCCCCCCCCCCCCCCCCCCCCCCCCCCCCC(=O)[O-]
REMARK SMILES IDX 16 1 17 2 18 3 19 4 20 5 21 6 22 7 23 8 24 9 25 10 26 11
REMARK SMILES IDX 27 12 28 13 29 14 30 15 31 16 32 17 15 18 14 19 13 20 12 21
REMARK SMILES IDX 11 22 10 23 9 24 8 25 7 26 6 27 5 28 4 29 3 30 2 31 1 32
REMARK H PARENT
REMARK Flexibility Score: inf
ROOT
ATOM      1  C   UNL     1       2.244 -27.819  -0.237  1.00  0.00     0.000 C 
ENDROOT
BRANCH   1   2
ATOM      2  C   UNL     1       1.098 -27.391   0.702  1.00  0.00     0.000 C 
BRANCH   2   3
ATOM      3  C   UNL     1      -0.221 -27.053  -0.017  1.00  0.00     0.000 C 
BRANCH   3   4
ATOM      4  C   UNL     1      -0.324 -25.564  -0.392  1.00  0.00     0.000 C 
BRANCH   4   5
ATOM      5  C   UNL     1      -1.365 -25.294  -1.495  1.00  0.00     0.000 C 
BRANCH   5   6
ATOM      6  C   UNL     1      -2.250 -24.045  -1.278  1.00  0.00     0.000 C 
BRANCH   6   7
ATOM      7  C   UNL     1      -2.461 -23.633   0.191  1.00  0.00     0.000 C 
BRANCH   7   8
ATOM      8  C   UNL     1      -3.806 -24.109   0.761  1.00  0.00     0.000 C 
BRANCH   8   9
ATOM      9  C   UNL     1      -3.780 -25.582   1.204  1.00  0.00     0.000 C 
BRANCH   9  10
ATOM     10  C   UNL     1      -4.671 -26.509   0.352  1.00  0.00     0.000 C 
BRANCH  10  11
ATOM     11  C   UNL     1      -5.577 -25.715  -0.605  1.00  0.00     0.000 C 
BRANCH  11  12
ATOM     12  C   UNL     1      -5.736 -26.389  -1.976  1.00  0.00     0.000 C 
BRANCH  12  13
ATOM     13  C   UNL     1      -4.984 -25.650  -3.093  1.00  0.00     0.006 C 
BRANCH  13  14
ATOM     14  C   UNL     1      -5.425 -24.185  -3.174  1.00  0.00     0.053 C 
BRANCH  14  15
ATOM     15  C   UNL     1      -4.778 -23.495  -4.336  1.00  0.00     0.041 C 
ATOM     16  O   UNL     1      -3.816 -22.704  -4.150  1.00  0.00    -0.550 OA
ATOM     17  O   UNL     1      -5.231 -23.735  -5.629  1.00  0.00    -0.550 OA
ENDBRANCH  14  15
ENDBRANCH  13  14
ENDBRANCH  12  13
ENDBRANCH  11  12
ENDBRANCH  10  11
ENDBRANCH   9  10
ENDBRANCH   8   9
ENDBRANCH   7   8
ENDBRANCH   6   7
ENDBRANCH   5   6
ENDBRANCH   4   5
ENDBRANCH   3   4
ENDBRANCH   2   3
ENDBRANCH   1   2
BRANCH   1  18
ATOM     18  C   UNL     1       3.262 -28.751   0.442  1.00  0.00     0.000 C 
BRANCH  18  19
ATOM     19  C   UNL     1       2.623 -29.501   1.619  1.00  0.00     0.000 C 
BRANCH  19  20
ATOM     20  C   UNL     1       3.136 -29.022   2.990  1.00  0.00     0.000 C 
BRANCH  20  21
ATOM     21  C   UNL     1       4.309 -29.829   3.572  1.00  0.00     0.000 C 
BRANCH  21  22
ATOM     22  C   UNL     1       4.347 -29.814   5.109  1.00  0.00     0.000 C 
BRANCH  22  23
ATOM     23  C   UNL     1       3.025 -30.288   5.739  1.00  0.00     0.000 C 
BRANCH  23  24
ATOM     24  C   UNL     1       2.636 -31.748   5.433  1.00  0.00    -0.000 C 
BRANCH  24  25
ATOM     25  C   UNL     1       3.557 -32.812   6.057  1.00  0.00    -0.000 C 
BRANCH  25  26
ATOM     26  C   UNL     1       4.272 -33.670   5.003  1.00  0.00    -0.000 C 
BRANCH  26  27
ATOM     27  C   UNL     1       5.785 -33.711   5.260  1.00  0.00    -0.000 C 
BRANCH  27  28
ATOM     28  C   UNL     1       6.299 -32.465   6.005  1.00  0.00    -0.000 C 
BRANCH  28  29
ATOM     29  C   UNL     1       7.565 -31.821   5.403  1.00  0.00    -0.000 C 
BRANCH  29  30
ATOM     30  C   UNL     1       8.367 -30.925   6.367  1.00  0.00    -0.000 C 
BRANCH  30  31
ATOM     31  C   UNL     1       8.443 -29.445   5.956  1.00  0.00    -0.003 C 
ATOM     32  C   UNL     1       8.761 -29.256   4.474  1.00  0.00     0.004 C 
ENDBRANCH  30  31
ENDBRANCH  29  30
ENDBRANCH  28  29
ENDBRANCH  27  28
ENDBRANCH  26  27
ENDBRANCH  25  26
ENDBRANCH  24  25
ENDBRANCH  23  24
ENDBRANCH  22  23
ENDBRANCH  21  22
ENDBRANCH  20  21
ENDBRANCH  19  20
ENDBRANCH  18  19
ENDBRANCH   1  18
TORSDOF 28
ENDMDL
MODEL 4
REMARK VINA RESULT:    -5.175      6.033     11.120
REMARK INTER + INTRA:         -17.768
REMARK INTER:                 -14.656
REMARK INTRA:                  -3.112
REMARK UNBOUND:                -4.123
REMARK SMILES CCCCCCCCCCCCCCCCCCCCCCCCCCCCCC(=O)[O-]
REMARK SMILES IDX 16 1 17 2 18 3 19 4 20 5 21 6 22 7 23 8 24 9 25 10 26 11
REMARK SMILES IDX 27 12 28 13 29 14 30 15 31 16 32 17 15 18 14 19 13 20 12 21
REMARK SMILES IDX 11 22 10 23 9 24 8 25 7 26 6 27 5 28 4 29 3 30 2 31 1 32
REMARK H PARENT
REMARK Flexibility Score: inf
ROOT
ATOM      1  C   UNL     1       3.444 -28.902   1.378  1.00  0.00     0.000 C 
ENDROOT
BRANCH   1   2
ATOM      2  C   UNL     1       2.050 -28.253   1.494  1.00  0.00     0.000 C 
BRANCH   2   3
ATOM      3  C   UNL     1       1.301 -28.111   0.157  1.00  0.00     0.000 C 
BRANCH   3   4
ATOM      4  C   UNL     1       1.156 -26.644  -0.287  1.00  0.00     0.000 C 
BRANCH   4   5
ATOM      5  C   UNL     1      -0.296 -26.136  -0.216  1.00  0.00     0.000 C 
BRANCH   5   6
ATOM      6  C   UNL     1      -0.839 -25.500  -1.516  1.00  0.00     0.000 C 
BRANCH   6   7
ATOM      7  C   UNL     1      -1.758 -24.280  -1.320  1.00  0.00     0.000 C 
BRANCH   7   8
ATOM      8  C   UNL     1      -1.479 -23.523  -0.011  1.00  0.00     0.000 C 
BRANCH   8   9
ATOM      9  C   UNL     1      -2.755 -23.248   0.804  1.00  0.00     0.000 C 
BRANCH   9  10
ATOM     10  C   UNL     1      -3.942 -24.161   0.436  1.00  0.00     0.000 C 
BRANCH  10  11
ATOM     11  C   UNL     1      -3.894 -25.500   1.191  1.00  0.00     0.000 C 
BRANCH  11  12
ATOM     12  C   UNL     1      -4.380 -26.685   0.342  1.00  0.00     0.000 C 
BRANCH  12  13
ATOM     13  C   UNL     1      -5.536 -26.308  -0.596  1.00  0.00     0.006 C 
BRANCH  13  14
ATOM     14  C   UNL     1      -5.113 -26.434  -2.064  1.00  0.00     0.053 C 
BRANCH  14  15
ATOM     15  C   UNL     1      -5.530 -25.225  -2.846  1.00  0.00     0.041 C 
ATOM     16  O   UNL     1      -4.700 -24.310  -3.092  1.00  0.00    -0.550 OA
ATOM     17  O   UNL     1      -6.836 -25.114  -3.312  1.00  0.00    -0.550 OA
ENDBRANCH  14  15
ENDBRANCH  13  14
ENDBRANCH  12  13
ENDBRANCH  11  12
ENDBRANCH  10  11
ENDBRANCH   9  10
ENDBRANCH   8   9
ENDBRANCH   7   8
ENDBRANCH   6   7
ENDBRANCH   5   6
ENDBRANCH   4   5
ENDBRANCH   3   4
ENDBRANCH   2   3
ENDBRANCH   1   2
BRANCH   1  18
ATOM     18  C   UNL     1       3.946 -29.492   2.706  1.00  0.00     0.000 C 
BRANCH  18  19
ATOM     19  C   UNL     1       2.782 -29.729   3.679  1.00  0.00     0.000 C 
BRANCH  19  20
ATOM     20  C   UNL     1       3.122 -29.343   5.131  1.00  0.00     0.000 C 
BRANCH  20  21
ATOM     21  C   UNL     1       2.674 -30.352   6.202  1.00  0.00     0.000 C 
BRANCH  21  22
ATOM     22  C   UNL     1       2.484 -31.773   5.649  1.00  0.00     0.000 C 
BRANCH  22  23
ATOM     23  C   UNL     1       3.728 -32.657   5.845  1.00  0.00     0.000 C 
BRANCH  23  24
ATOM     24  C   UNL     1       4.622 -32.820   4.599  1.00  0.00    -0.000 C 
BRANCH  24  25
ATOM     25  C   UNL     1       6.105 -32.465   4.810  1.00  0.00    -0.000 C 
BRANCH  25  26
ATOM     26  C   UNL     1       6.308 -31.012   5.263  1.00  0.00    -0.000 C 
BRANCH  26  27
ATOM     27  C   UNL     1       7.664 -30.471   4.788  1.00  0.00    -0.000 C 
BRANCH  27  28
ATOM     28  C   UNL     1       7.903 -30.694   3.283  1.00  0.00    -0.000 C 
BRANCH  28  29
ATOM     29  C   UNL     1       7.401 -29.560   2.368  1.00  0.00    -0.000 C 
BRANCH  29  30
ATOM     30  C   UNL     1       8.258 -29.301   1.113  1.00  0.00    -0.000 C 
BRANCH  30  31
ATOM     31  C   UNL     1       9.294 -28.174   1.263  1.00  0.00    -0.003 C 
ATOM     32  C   UNL     1       9.226 -27.483   2.624  1.00  0.00     0.004 C 
ENDBRANCH  30  31
ENDBRANCH  29  30
ENDBRANCH  28  29
ENDBRANCH  27  28
ENDBRANCH  26  27
ENDBRANCH  25  26
ENDBRANCH  24  25
ENDBRANCH  23  24
ENDBRANCH  22  23
ENDBRANCH  21  22
ENDBRANCH  20  21
ENDBRANCH  19  20
ENDBRANCH  18  19
ENDBRANCH   1  18
TORSDOF 28
ENDMDL
MODEL 5
REMARK VINA RESULT:    -5.161      4.706      8.039
REMARK INTER + INTRA:         -17.733
REMARK INTER:                 -13.948
REMARK INTRA:                  -3.785
REMARK UNBOUND:                -4.123
REMARK SMILES CCCCCCCCCCCCCCCCCCCCCCCCCCCCCC(=O)[O-]
REMARK SMILES IDX 16 1 17 2 18 3 19 4 20 5 21 6 22 7 23 8 24 9 25 10 26 11
REMARK SMILES IDX 27 12 28 13 29 14 30 15 31 16 32 17 15 18 14 19 13 20 12 21
REMARK SMILES IDX 11 22 10 23 9 24 8 25 7 26 6 27 5 28 4 29 3 30 2 31 1 32
REMARK H PARENT
REMARK Flexibility Score: inf
ROOT
ATOM      1  C   UNL     1       3.978 -29.460   2.517  1.00  0.00     0.000 C 
ENDROOT
BRANCH   1   2
ATOM      2  C   UNL     1       2.913 -29.233   3.609  1.00  0.00     0.000 C 
BRANCH   2   3
ATOM      3  C   UNL     1       3.244 -29.880   4.965  1.00  0.00     0.000 C 
BRANCH   3   4
ATOM      4  C   UNL     1       4.756 -30.087   5.168  1.00  0.00     0.000 C 
BRANCH   4   5
ATOM      5  C   UNL     1       5.119 -31.537   5.540  1.00  0.00     0.000 C 
BRANCH   5   6
ATOM      6  C   UNL     1       4.364 -32.632   4.752  1.00  0.00     0.000 C 
BRANCH   6   7
ATOM      7  C   UNL     1       4.967 -32.992   3.381  1.00  0.00     0.000 C 
BRANCH   7   8
ATOM      8  C   UNL     1       6.491 -32.806   3.329  1.00  0.00     0.000 C 
BRANCH   8   9
ATOM      9  C   UNL     1       6.924 -31.692   2.360  1.00  0.00     0.000 C 
BRANCH   9  10
ATOM     10  C   UNL     1       7.775 -30.586   3.017  1.00  0.00     0.000 C 
BRANCH  10  11
ATOM     11  C   UNL     1       7.779 -29.292   2.185  1.00  0.00     0.000 C 
BRANCH  11  12
ATOM     12  C   UNL     1       7.328 -29.513   0.733  1.00  0.00     0.000 C 
BRANCH  12  13
ATOM     13  C   UNL     1       7.495 -28.259  -0.138  1.00  0.00     0.006 C 
BRANCH  13  14
ATOM     14  C   UNL     1       6.398 -28.184  -1.206  1.00  0.00     0.053 C 
BRANCH  14  15
ATOM     15  C   UNL     1       6.967 -28.404  -2.574  1.00  0.00     0.041 C 
ATOM     16  O   UNL     1       8.021 -29.078  -2.722  1.00  0.00    -0.550 OA
ATOM     17  O   UNL     1       6.327 -27.873  -3.689  1.00  0.00    -0.550 OA
ENDBRANCH  14  15
ENDBRANCH  13  14
ENDBRANCH  12  13
ENDBRANCH  11  12
ENDBRANCH  10  11
ENDBRANCH   9  10
ENDBRANCH   8   9
ENDBRANCH   7   8
ENDBRANCH   6   7
ENDBRANCH   5   6
ENDBRANCH   4   5
ENDBRANCH   3   4
ENDBRANCH   2   3
ENDBRANCH   1   2
BRANCH   1  18
ATOM     18  C   UNL     1       3.539 -28.953   1.133  1.00  0.00     0.000 C 
BRANCH  18  19
ATOM     19  C   UNL     1       2.221 -28.170   1.225  1.00  0.00     0.000 C 
BRANCH  19  20
ATOM     20  C   UNL     1       1.482 -28.073  -0.122  1.00  0.00     0.000 C 
BRANCH  20  21
ATOM     21  C   UNL     1       1.199 -26.644  -0.616  1.00  0.00     0.000 C 
BRANCH  21  22
ATOM     22  C   UNL     1      -0.228 -26.169  -0.300  1.00  0.00     0.000 C 
BRANCH  22  23
ATOM     23  C   UNL     1      -0.947 -25.590  -1.531  1.00  0.00     0.000 C 
BRANCH  23  24
ATOM     24  C   UNL     1      -1.755 -24.302  -1.276  1.00  0.00    -0.000 C 
BRANCH  24  25
ATOM     25  C   UNL     1      -1.395 -23.552   0.019  1.00  0.00    -0.000 C 
BRANCH  25  26
ATOM     26  C   UNL     1      -2.630 -23.186   0.855  1.00  0.00    -0.000 C 
BRANCH  26  27
ATOM     27  C   UNL     1      -3.853 -24.005   0.418  1.00  0.00    -0.000 C 
BRANCH  27  28
ATOM     28  C   UNL     1      -4.004 -25.321   1.202  1.00  0.00    -0.000 C 
BRANCH  28  29
ATOM     29  C   UNL     1      -4.355 -26.555   0.345  1.00  0.00    -0.000 C 
BRANCH  29  30
ATOM     30  C   UNL     1      -5.388 -26.305  -0.771  1.00  0.00    -0.000 C 
BRANCH  30  31
ATOM     31  C   UNL     1      -4.800 -26.261  -2.192  1.00  0.00    -0.003 C 
ATOM     32  C   UNL     1      -5.155 -24.979  -2.942  1.00  0.00     0.004 C 
ENDBRANCH  30  31
ENDBRANCH  29  30
ENDBRANCH  28  29
ENDBRANCH  27  28
ENDBRANCH  26  27
ENDBRANCH  25  26
ENDBRANCH  24  25
ENDBRANCH  23  24
ENDBRANCH  22  23
ENDBRANCH  21  22
ENDBRANCH  20  21
ENDBRANCH  19  20
ENDBRANCH  18  19
ENDBRANCH   1  18
TORSDOF 28
ENDMDL
MODEL 6
REMARK VINA RESULT:    -5.135      2.745      5.946
REMARK INTER + INTRA:         -17.663
REMARK INTER:                 -14.058
REMARK INTRA:                  -3.605
REMARK UNBOUND:                -4.123
REMARK SMILES CCCCCCCCCCCCCCCCCCCCCCCCCCCCCC(=O)[O-]
REMARK SMILES IDX 16 1 17 2 18 3 19 4 20 5 21 6 22 7 23 8 24 9 25 10 26 11
REMARK SMILES IDX 27 12 28 13 29 14 30 15 31 16 32 17 15 18 14 19 13 20 12 21
REMARK SMILES IDX 11 22 10 23 9 24 8 25 7 26 6 27 5 28 4 29 3 30 2 31 1 32
REMARK H PARENT
REMARK Flexibility Score: inf
ROOT
ATOM      1  C   UNL     1       2.476 -31.513   5.367  1.00  0.00     0.000 C 
ENDROOT
BRANCH   1   2
ATOM      2  C   UNL     1       3.154 -32.727   6.036  1.00  0.00     0.000 C 
BRANCH   2   3
ATOM      3  C   UNL     1       4.224 -33.416   5.170  1.00  0.00     0.000 C 
BRANCH   3   4
ATOM      4  C   UNL     1       5.656 -33.111   5.645  1.00  0.00     0.000 C 
BRANCH   4   5
ATOM      5  C   UNL     1       6.427 -32.194   4.678  1.00  0.00     0.000 C 
BRANCH   5   6
ATOM      6  C   UNL     1       5.919 -32.195   3.218  1.00  0.00     0.000 C 
BRANCH   6   7
ATOM      7  C   UNL     1       6.826 -31.473   2.203  1.00  0.00     0.000 C 
BRANCH   7   8
ATOM      8  C   UNL     1       6.693 -29.943   2.262  1.00  0.00     0.000 C 
BRANCH   8   9
ATOM      9  C   UNL     1       7.989 -29.248   2.714  1.00  0.00     0.000 C 
BRANCH   9  10
ATOM     10  C   UNL     1       9.275 -29.907   2.174  1.00  0.00     0.000 C 
BRANCH  10  11
ATOM     11  C   UNL     1      10.297 -30.175   3.292  1.00  0.00     0.000 C 
BRANCH  11  12
ATOM     12  C   UNL     1       9.976 -31.438   4.106  1.00  0.00     0.000 C 
BRANCH  12  13
ATOM     13  C   UNL     1      10.242 -31.261   5.608  1.00  0.00     0.006 C 
BRANCH  13  14
ATOM     14  C   UNL     1       9.168 -30.379   6.254  1.00  0.00     0.053 C 
BRANCH  14  15
ATOM     15  C   UNL     1       9.374 -30.284   7.735  1.00  0.00     0.041 C 
ATOM     16  O   UNL     1       8.387 -30.151   8.506  1.00  0.00    -0.550 OA
ATOM     17  O   UNL     1      10.658 -30.352   8.265  1.00  0.00    -0.550 OA
ENDBRANCH  14  15
ENDBRANCH  13  14
ENDBRANCH  12  13
ENDBRANCH  11  12
ENDBRANCH  10  11
ENDBRANCH   9  10
ENDBRANCH   8   9
ENDBRANCH   7   8
ENDBRANCH   6   7
ENDBRANCH   5   6
ENDBRANCH   4   5
ENDBRANCH   3   4
ENDBRANCH   2   3
ENDBRANCH   1   2
BRANCH   1  18
ATOM     18  C   UNL     1       3.164 -30.180   5.703  1.00  0.00     0.000 C 
BRANCH  18  19
ATOM     19  C   UNL     1       3.795 -29.554   4.451  1.00  0.00     0.000 C 
BRANCH  19  20
ATOM     20  C   UNL     1       2.992 -29.833   3.167  1.00  0.00     0.000 C 
BRANCH  20  21
ATOM     21  C   UNL     1       3.118 -28.765   2.067  1.00  0.00     0.000 C 
BRANCH  21  22
ATOM     22  C   UNL     1       1.847 -28.625   1.214  1.00  0.00     0.000 C 
BRANCH  22  23
ATOM     23  C   UNL     1       2.153 -28.283  -0.255  1.00  0.00     0.000 C 
BRANCH  23  24
ATOM     24  C   UNL     1       1.758 -26.859  -0.696  1.00  0.00    -0.000 C 
BRANCH  24  25
ATOM     25  C   UNL     1       0.709 -26.169   0.195  1.00  0.00    -0.000 C 
BRANCH  25  26
ATOM     26  C   UNL     1      -0.713 -26.276  -0.373  1.00  0.00    -0.000 C 
BRANCH  26  27
ATOM     27  C   UNL     1      -0.922 -25.281  -1.525  1.00  0.00    -0.000 C 
BRANCH  27  28
ATOM     28  C   UNL     1      -2.166 -24.395  -1.331  1.00  0.00    -0.000 C 
BRANCH  28  29
ATOM     29  C   UNL     1      -2.171 -23.550  -0.041  1.00  0.00    -0.000 C 
BRANCH  29  30
ATOM     30  C   UNL     1      -3.484 -23.591   0.765  1.00  0.00    -0.000 C 
BRANCH  30  31
ATOM     31  C   UNL     1      -4.095 -24.994   0.928  1.00  0.00    -0.003 C 
ATOM     32  C   UNL     1      -5.310 -25.220   0.032  1.00  0.00     0.004 C 
ENDBRANCH  30  31
ENDBRANCH  29  30
ENDBRANCH  28  29
ENDBRANCH  27  28
ENDBRANCH  26  27
ENDBRANCH  25  26
ENDBRANCH  24  25
ENDBRANCH  23  24
ENDBRANCH  22  23
ENDBRANCH  21  22
ENDBRANCH  20  21
ENDBRANCH  19  20
ENDBRANCH  18  19
ENDBRANCH   1  18
TORSDOF 28
ENDMDL
MODEL 7
REMARK VINA RESULT:    -5.114      4.029      7.793
REMARK INTER + INTRA:         -17.607
REMARK INTER:                 -14.636
REMARK INTRA:                  -2.971
REMARK UNBOUND:                -4.123
REMARK SMILES CCCCCCCCCCCCCCCCCCCCCCCCCCCCCC(=O)[O-]
REMARK SMILES IDX 16 1 17 2 18 3 19 4 20 5 21 6 22 7 23 8 24 9 25 10 26 11
REMARK SMILES IDX 27 12 28 13 29 14 30 15 31 16 32 17 15 18 14 19 13 20 12 21
REMARK SMILES IDX 11 22 10 23 9 24 8 25 7 26 6 27 5 28 4 29 3 30 2 31 1 32
REMARK H PARENT
REMARK Flexibility Score: inf
ROOT
ATOM      1  C   UNL     1       4.491 -29.367   1.593  1.00  0.00     0.000 C 
ENDROOT
BRANCH   1   2
ATOM      2  C   UNL     1       5.612 -29.758   2.578  1.00  0.00     0.000 C 
BRANCH   2   3
ATOM      3  C   UNL     1       7.034 -29.649   2.000  1.00  0.00     0.000 C 
BRANCH   3   4
ATOM      4  C   UNL     1       8.107 -30.185   2.964  1.00  0.00     0.000 C 
BRANCH   4   5
ATOM      5  C   UNL     1       8.760 -29.077   3.812  1.00  0.00     0.000 C 
BRANCH   5   6
ATOM      6  C   UNL     1       8.679 -29.280   5.342  1.00  0.00     0.000 C 
BRANCH   6   7
ATOM      7  C   UNL     1       7.377 -29.924   5.854  1.00  0.00     0.000 C 
BRANCH   7   8
ATOM      8  C   UNL     1       7.626 -31.082   6.834  1.00  0.00     0.000 C 
BRANCH   8   9
ATOM      9  C   UNL     1       7.815 -32.435   6.124  1.00  0.00     0.000 C 
BRANCH   9  10
ATOM     10  C   UNL     1       6.509 -33.236   5.945  1.00  0.00     0.000 C 
BRANCH  10  11
ATOM     11  C   UNL     1       5.778 -32.860   4.645  1.00  0.00     0.000 C 
BRANCH  11  12
ATOM     12  C   UNL     1       4.249 -32.910   4.782  1.00  0.00     0.000 C 
BRANCH  12  13
ATOM     13  C   UNL     1       3.618 -31.515   4.908  1.00  0.00     0.006 C 
BRANCH  13  14
ATOM     14  C   UNL     1       3.371 -31.155   6.377  1.00  0.00     0.053 C 
BRANCH  14  15
ATOM     15  C   UNL     1       2.198 -30.233   6.512  1.00  0.00     0.041 C 
ATOM     16  O   UNL     1       2.377 -29.007   6.740  1.00  0.00    -0.550 OA
ATOM     17  O   UNL     1       0.905 -30.726   6.375  1.00  0.00    -0.550 OA
ENDBRANCH  14  15
ENDBRANCH  13  14
ENDBRANCH  12  13
ENDBRANCH  11  12
ENDBRANCH  10  11
ENDBRANCH   9  10
ENDBRANCH   8   9
ENDBRANCH   7   8
ENDBRANCH   6   7
ENDBRANCH   5   6
ENDBRANCH   4   5
ENDBRANCH   3   4
ENDBRANCH   2   3
ENDBRANCH   1   2
BRANCH   1  18
ATOM     18  C   UNL     1       3.135 -29.139   2.283  1.00  0.00     0.000 C 
BRANCH  18  19
ATOM     19  C   UNL     1       2.281 -28.132   1.501  1.00  0.00     0.000 C 
BRANCH  19  20
ATOM     20  C   UNL     1       2.489 -28.218  -0.023  1.00  0.00     0.000 C 
BRANCH  20  21
ATOM     21  C   UNL     1       1.543 -27.347  -0.867  1.00  0.00     0.000 C 
BRANCH  21  22
ATOM     22  C   UNL     1       0.846 -26.248  -0.050  1.00  0.00     0.000 C 
BRANCH  22  23
ATOM     23  C   UNL     1      -0.680 -26.242  -0.245  1.00  0.00     0.000 C 
BRANCH  23  24
ATOM     24  C   UNL     1      -1.181 -25.500  -1.500  1.00  0.00    -0.000 C 
BRANCH  24  25
ATOM     25  C   UNL     1      -1.799 -24.115  -1.236  1.00  0.00    -0.000 C 
BRANCH  25  26
ATOM     26  C   UNL     1      -1.770 -23.727   0.250  1.00  0.00    -0.000 C 
BRANCH  26  27
ATOM     27  C   UNL     1      -3.192 -23.522   0.793  1.00  0.00    -0.000 C 
BRANCH  27  28
ATOM     28  C   UNL     1      -4.281 -23.998  -0.186  1.00  0.00    -0.000 C 
BRANCH  28  29
ATOM     29  C   UNL     1      -5.119 -25.196   0.304  1.00  0.00    -0.000 C 
BRANCH  29  30
ATOM     30  C   UNL     1      -5.452 -26.248  -0.773  1.00  0.00    -0.000 C 
BRANCH  30  31
ATOM     31  C   UNL     1      -6.946 -26.357  -1.125  1.00  0.00    -0.003 C 
ATOM     32  C   UNL     1      -7.242 -25.982  -2.576  1.00  0.00     0.004 C 
ENDBRANCH  30  31
ENDBRANCH  29  30
ENDBRANCH  28  29
ENDBRANCH  27  28
ENDBRANCH  26  27
ENDBRANCH  25  26
ENDBRANCH  24  25
ENDBRANCH  23  24
ENDBRANCH  22  23
ENDBRANCH  21  22
ENDBRANCH  20  21
ENDBRANCH  19  20
ENDBRANCH  18  19
ENDBRANCH   1  18
TORSDOF 28
ENDMDL
MODEL 8
REMARK VINA RESULT:    -5.113      5.847     11.165
REMARK INTER + INTRA:         -17.606
REMARK INTER:                 -14.479
REMARK INTRA:                  -3.127
REMARK UNBOUND:                -4.123
REMARK SMILES CCCCCCCCCCCCCCCCCCCCCCCCCCCCCC(=O)[O-]
REMARK SMILES IDX 16 1 17 2 18 3 19 4 20 5 21 6 22 7 23 8 24 9 25 10 26 11
REMARK SMILES IDX 27 12 28 13 29 14 30 15 31 16 32 17 15 18 14 19 13 20 12 21
REMARK SMILES IDX 11 22 10 23 9 24 8 25 7 26 6 27 5 28 4 29 3 30 2 31 1 32
REMARK H PARENT
REMARK Flexibility Score: inf
ROOT
ATOM      1  C   UNL     1       5.091 -28.863  -1.035  1.00  0.00     0.000 C 
ENDROOT
BRANCH   1   2
ATOM      2  C   UNL     1       4.420 -27.750  -1.866  1.00  0.00     0.000 C 
BRANCH   2   3
ATOM      3  C   UNL     1       3.072 -27.264  -1.306  1.00  0.00     0.000 C 
BRANCH   3   4
ATOM      4  C   UNL     1       2.591 -28.104  -0.110  1.00  0.00     0.000 C 
BRANCH   4   5
ATOM      5  C   UNL     1       1.360 -27.500   0.593  1.00  0.00     0.000 C 
BRANCH   5   6
ATOM      6  C   UNL     1       0.180 -27.137  -0.337  1.00  0.00     0.000 C 
BRANCH   6   7
ATOM      7  C   UNL     1      -0.425 -25.738  -0.119  1.00  0.00     0.000 C 
BRANCH   7   8
ATOM      8  C   UNL     1      -0.975 -25.114  -1.412  1.00  0.00     0.000 C 
BRANCH   8   9
ATOM      9  C   UNL     1      -2.427 -24.625  -1.269  1.00  0.00     0.000 C 
BRANCH   9  10
ATOM     10  C   UNL     1      -2.710 -23.881   0.052  1.00  0.00     0.000 C 
BRANCH  10  11
ATOM     11  C   UNL     1      -4.071 -24.274   0.653  1.00  0.00     0.000 C 
BRANCH  11  12
ATOM     12  C   UNL     1      -4.485 -25.712   0.308  1.00  0.00     0.000 C 
BRANCH  12  13
ATOM     13  C   UNL     1      -5.861 -25.789  -0.368  1.00  0.00     0.006 C 
BRANCH  13  14
ATOM     14  C   UNL     1      -5.727 -25.728  -1.894  1.00  0.00     0.053 C 
BRANCH  14  15
ATOM     15  C   UNL     1      -6.073 -27.047  -2.514  1.00  0.00     0.041 C 
ATOM     16  O   UNL     1      -6.529 -27.097  -3.687  1.00  0.00    -0.550 OA
ATOM     17  O   UNL     1      -5.882 -28.225  -1.799  1.00  0.00    -0.550 OA
ENDBRANCH  14  15
ENDBRANCH  13  14
ENDBRANCH  12  13
ENDBRANCH  11  12
ENDBRANCH  10  11
ENDBRANCH   9  10
ENDBRANCH   8   9
ENDBRANCH   7   8
ENDBRANCH   6   7
ENDBRANCH   5   6
ENDBRANCH   4   5
ENDBRANCH   3   4
ENDBRANCH   2   3
ENDBRANCH   1   2
BRANCH   1  18
ATOM     18  C   UNL     1       6.505 -28.490  -0.560  1.00  0.00     0.000 C 
BRANCH  18  19
ATOM     19  C   UNL     1       7.151 -27.464  -1.502  1.00  0.00     0.000 C 
BRANCH  19  20
ATOM     20  C   UNL     1       8.629 -27.772  -1.807  1.00  0.00     0.000 C 
BRANCH  20  21
ATOM     21  C   UNL     1       9.355 -28.623  -0.750  1.00  0.00     0.000 C 
BRANCH  21  22
ATOM     22  C   UNL     1      10.696 -28.017  -0.307  1.00  0.00     0.000 C 
BRANCH  22  23
ATOM     23  C   UNL     1      10.847 -27.968   1.224  1.00  0.00     0.000 C 
BRANCH  23  24
ATOM     24  C   UNL     1       9.559 -27.633   2.003  1.00  0.00    -0.000 C 
BRANCH  24  25
ATOM     25  C   UNL     1       9.230 -28.593   3.160  1.00  0.00    -0.000 C 
BRANCH  25  26
ATOM     26  C   UNL     1       8.510 -29.865   2.689  1.00  0.00    -0.000 C 
BRANCH  26  27
ATOM     27  C   UNL     1       6.991 -29.740   2.877  1.00  0.00    -0.000 C 
BRANCH  27  28
ATOM     28  C   UNL     1       6.253 -31.078   2.692  1.00  0.00    -0.000 C 
BRANCH  28  29
ATOM     29  C   UNL     1       4.714 -30.986   2.742  1.00  0.00    -0.000 C 
BRANCH  29  30
ATOM     30  C   UNL     1       4.144 -29.555   2.812  1.00  0.00    -0.000 C 
BRANCH  30  31
ATOM     31  C   UNL     1       3.199 -29.298   3.998  1.00  0.00    -0.003 C 
ATOM     32  C   UNL     1       3.753 -29.817   5.322  1.00  0.00     0.004 C 
ENDBRANCH  30  31
ENDBRANCH  29  30
ENDBRANCH  28  29
ENDBRANCH  27  28
ENDBRANCH  26  27
ENDBRANCH  25  26
ENDBRANCH  24  25
ENDBRANCH  23  24
ENDBRANCH  22  23
ENDBRANCH  21  22
ENDBRANCH  20  21
ENDBRANCH  19  20
ENDBRANCH  18  19
ENDBRANCH   1  18
TORSDOF 28
ENDMDL
MODEL 9
REMARK VINA RESULT:    -5.087      5.218     10.126
REMARK INTER + INTRA:         -17.535
REMARK INTER:                 -14.033
REMARK INTRA:                  -3.503
REMARK UNBOUND:                -4.123
REMARK SMILES CCCCCCCCCCCCCCCCCCCCCCCCCCCCCC(=O)[O-]
REMARK SMILES IDX 16 1 17 2 18 3 19 4 20 5 21 6 22 7 23 8 24 9 25 10 26 11
REMARK SMILES IDX 27 12 28 13 29 14 30 15 31 16 32 17 15 18 14 19 13 20 12 21
REMARK SMILES IDX 11 22 10 23 9 24 8 25 7 26 6 27 5 28 4 29 3 30 2 31 1 32
REMARK H PARENT
REMARK Flexibility Score: inf
ROOT
ATOM      1  C   UNL     1       3.451 -29.615   5.288  1.00  0.00     0.000 C 
ENDROOT
BRANCH   1   2
ATOM      2  C   UNL     1       4.618 -29.986   4.350  1.00  0.00     0.000 C 
BRANCH   2   3
ATOM      3  C   UNL     1       4.389 -29.617   2.874  1.00  0.00     0.000 C 
BRANCH   3   4
ATOM      4  C   UNL     1       2.907 -29.700   2.467  1.00  0.00     0.000 C 
BRANCH   4   5
ATOM      5  C   UNL     1       2.426 -28.461   1.689  1.00  0.00     0.000 C 
BRANCH   5   6
ATOM      6  C   UNL     1       2.694 -28.489   0.167  1.00  0.00     0.000 C 
BRANCH   6   7
ATOM      7  C   UNL     1       1.752 -27.618  -0.685  1.00  0.00     0.000 C 
BRANCH   7   8
ATOM      8  C   UNL     1       0.697 -26.880   0.153  1.00  0.00     0.000 C 
BRANCH   8   9
ATOM      9  C   UNL     1      -0.333 -26.128  -0.710  1.00  0.00     0.000 C 
BRANCH   9  10
ATOM     10  C   UNL     1      -0.813 -24.797  -0.096  1.00  0.00     0.000 C 
BRANCH  10  11
ATOM     11  C   UNL     1      -2.048 -24.240  -0.824  1.00  0.00     0.000 C 
BRANCH  11  12
ATOM     12  C   UNL     1      -3.264 -24.076   0.100  1.00  0.00     0.000 C 
BRANCH  12  13
ATOM     13  C   UNL     1      -3.837 -25.420   0.574  1.00  0.00     0.006 C 
BRANCH  13  14
ATOM     14  C   UNL     1      -5.176 -25.716  -0.109  1.00  0.00     0.053 C 
BRANCH  14  15
ATOM     15  C   UNL     1      -4.992 -26.652  -1.264  1.00  0.00     0.041 C 
ATOM     16  O   UNL     1      -5.098 -27.896  -1.097  1.00  0.00    -0.550 OA
ATOM     17  O   UNL     1      -4.712 -26.149  -2.531  1.00  0.00    -0.550 OA
ENDBRANCH  14  15
ENDBRANCH  13  14
ENDBRANCH  12  13
ENDBRANCH  11  12
ENDBRANCH  10  11
ENDBRANCH   9  10
ENDBRANCH   8   9
ENDBRANCH   7   8
ENDBRANCH   6   7
ENDBRANCH   5   6
ENDBRANCH   4   5
ENDBRANCH   3   4
ENDBRANCH   2   3
ENDBRANCH   1   2
BRANCH   1  18
ATOM     18  C   UNL     1       3.123 -30.719   6.307  1.00  0.00     0.000 C 
BRANCH  18  19
ATOM     19  C   UNL     1       2.502 -31.941   5.615  1.00  0.00     0.000 C 
BRANCH  19  20
ATOM     20  C   UNL     1       3.196 -33.264   5.990  1.00  0.00     0.000 C 
BRANCH  20  21
ATOM     21  C   UNL     1       4.688 -33.350   5.624  1.00  0.00     0.000 C 
BRANCH  21  22
ATOM     22  C   UNL     1       4.929 -33.546   4.119  1.00  0.00     0.000 C 
BRANCH  22  23
ATOM     23  C   UNL     1       6.424 -33.550   3.753  1.00  0.00     0.000 C 
BRANCH  23  24
ATOM     24  C   UNL     1       6.857 -32.470   2.741  1.00  0.00    -0.000 C 
BRANCH  24  25
ATOM     25  C   UNL     1       8.086 -31.642   3.157  1.00  0.00    -0.000 C 
BRANCH  25  26
ATOM     26  C   UNL     1       8.050 -30.209   2.609  1.00  0.00    -0.000 C 
BRANCH  26  27
ATOM     27  C   UNL     1       8.654 -29.219   3.615  1.00  0.00    -0.000 C 
BRANCH  27  28
ATOM     28  C   UNL     1       8.903 -29.848   4.998  1.00  0.00    -0.000 C 
BRANCH  28  29
ATOM     29  C   UNL     1       7.784 -29.613   6.032  1.00  0.00    -0.000 C 
BRANCH  29  30
ATOM     30  C   UNL     1       7.273 -30.881   6.745  1.00  0.00    -0.000 C 
BRANCH  30  31
ATOM     31  C   UNL     1       8.262 -31.495   7.751  1.00  0.00    -0.003 C 
ATOM     32  C   UNL     1       8.573 -30.564   8.921  1.00  0.00     0.004 C 
ENDBRANCH  30  31
ENDBRANCH  29  30
ENDBRANCH  28  29
ENDBRANCH  27  28
ENDBRANCH  26  27
ENDBRANCH  25  26
ENDBRANCH  24  25
ENDBRANCH  23  24
ENDBRANCH  22  23
ENDBRANCH  21  22
ENDBRANCH  20  21
ENDBRANCH  19  20
ENDBRANCH  18  19
ENDBRANCH   1  18
TORSDOF 28
ENDMDL
