MODEL 1
REMARK VINA RESULT:    -5.708      0.000      0.000
REMARK INTER + INTRA:          -9.375
REMARK INTER:                  -7.543
REMARK INTRA:                  -1.832
REMARK UNBOUND:                -1.832
REMARK SMILES CC(C)=CCC[C@H](C(=O)[O-])[C@H]1CC[C@]2(C)C3=C(CC[C@]12C)[C@@]1(C)CC[C@H](O)C(C)(C)[C@@H]1CC3
REMARK SMILES IDX 6 1 7 2 8 3 9 4 10 5 11 6 12 7 20 8 13 9 14 10 19 11 21 12
REMARK SMILES IDX 15 13 16 14 18 15 17 16 33 17 22 18 32 19 31 20 24 21 23 22
REMARK SMILES IDX 28 23 25 24 26 25 29 26 30 27 27 28 5 30 4 31 2 32 1 33 3 34
REMARK H PARENT 27 29
REMARK Flexibility Score: inf
ROOT
ATOM      1  C   UNL     1      59.070 -17.527   2.700  1.00  0.00     0.014 C 
ENDROOT
BRANCH   1   2
ATOM      2  C   UNL     1      57.945 -18.192   1.859  1.00  0.00     0.039 C 
BRANCH   2   3
ATOM      3  C   UNL     1      57.905 -19.693   2.039  1.00  0.00     0.045 C 
ATOM      4  O   UNL     1      58.926 -20.297   2.463  1.00  0.00    -0.550 OA
ATOM      5  O   UNL     1      56.758 -20.427   1.758  1.00  0.00    -0.550 OA
ENDBRANCH   2   3
BRANCH   2   6
ATOM      6  C   UNL     1      57.857 -17.798   0.343  1.00  0.00     0.004 C 
ATOM      7  C   UNL     1      58.324 -18.903  -0.600  1.00  0.00     0.006 C 
ATOM      8  C   UNL     1      56.553 -17.175  -0.302  1.00  0.00    -0.020 C 
ATOM      9  C   UNL     1      57.896 -18.434  -1.976  1.00  0.00     0.012 C 
ATOM     10  C   UNL     1      56.511 -17.776  -1.787  1.00  0.00    -0.006 C 
ATOM     11  C   UNL     1      56.680 -15.622  -0.316  1.00  0.00     0.012 C 
ATOM     12  C   UNL     1      55.260 -17.475   0.506  1.00  0.00     0.012 C 
ATOM     13  C   UNL     1      55.456 -18.921  -1.935  1.00  0.00     0.017 C 
ATOM     14  C   UNL     1      56.325 -16.701  -2.901  1.00  0.00    -0.064 C 
ATOM     15  C   UNL     1      57.560 -15.116  -1.451  1.00  0.00     0.032 C 
ATOM     16  C   UNL     1      56.942 -15.479  -2.787  1.00  0.00    -0.064 C 
ATOM     17  C   UNL     1      55.621 -17.115  -4.196  1.00  0.00     0.032 C 
ATOM     18  C   UNL     1      56.872 -14.405  -3.900  1.00  0.00    -0.008 C 
ATOM     19  C   UNL     1      55.449 -16.016  -5.247  1.00  0.00     0.009 C 
ATOM     20  C   UNL     1      56.699 -15.124  -5.286  1.00  0.00     0.007 C 
ATOM     21  C   UNL     1      58.200 -13.590  -3.953  1.00  0.00     0.014 C 
ATOM     22  C   UNL     1      55.698 -13.467  -3.509  1.00  0.00     0.016 C 
ATOM     23  C   UNL     1      56.858 -14.243  -6.594  1.00  0.00    -0.006 C 
ATOM     24  C   UNL     1      58.278 -12.644  -5.155  1.00  0.00     0.033 C 
ATOM     25  C   UNL     1      58.169 -13.400  -6.482  1.00  0.00     0.120 C 
ATOM     26  C   UNL     1      57.026 -15.184  -7.823  1.00  0.00     0.014 C 
ATOM     27  C   UNL     1      55.635 -13.328  -6.888  1.00  0.00     0.014 C 
BRANCH  25  28
ATOM     28  O   UNL     1      58.255 -12.466  -7.534  1.00  0.00    -0.393 OA
ATOM     29  H   UNL     1      57.402 -12.507  -8.041  1.00  0.00     0.210 HD
ENDBRANCH  25  28
ENDBRANCH   2   6
ENDBRANCH   1   2
BRANCH   1  30
ATOM     30  C   UNL     1      60.348 -17.321   1.872  1.00  0.00     0.028 C 
BRANCH  30  31
ATOM     31  C   UNL     1      60.489 -15.880   1.445  1.00  0.00    -0.028 C 
ATOM     32  C   UNL     1      60.828 -15.481   0.200  1.00  0.00    -0.080 C 
ATOM     33  C   UNL     1      61.158 -16.467  -0.896  1.00  0.00     0.039 C 
ATOM     34  C   UNL     1      60.897 -14.003  -0.087  1.00  0.00     0.039 C 
ENDBRANCH  30  31
ENDBRANCH   1  30
TORSDOF 6
ENDMDL
MODEL 2
REMARK VINA RESULT:    -5.674      2.072      7.760
REMARK INTER + INTRA:          -9.330
REMARK INTER:                  -7.574
REMARK INTRA:                  -1.756
REMARK UNBOUND:                -1.832
REMARK SMILES CC(C)=CCC[C@H](C(=O)[O-])[C@H]1CC[C@]2(C)C3=C(CC[C@]12C)[C@@]1(C)CC[C@H](O)C(C)(C)[C@@H]1CC3
REMARK SMILES IDX 6 1 7 2 8 3 9 4 10 5 11 6 12 7 20 8 13 9 14 10 19 11 21 12
REMARK SMILES IDX 15 13 16 14 18 15 17 16 33 17 22 18 32 19 31 20 24 21 23 22
REMARK SMILES IDX 28 23 25 24 26 25 29 26 30 27 27 28 5 30 4 31 2 32 1 33 3 34
REMARK H PARENT 27 29
REMARK Flexibility Score: inf
ROOT
ATOM      1  C   UNL     1      56.454 -15.616  -5.527  1.00  0.00     0.014 C 
ENDROOT
BRANCH   1   2
ATOM      2  C   UNL     1      55.317 -15.469  -4.477  1.00  0.00     0.039 C 
BRANCH   2   3
ATOM      3  C   UNL     1      54.645 -14.116  -4.544  1.00  0.00     0.045 C 
ATOM      4  O   UNL     1      55.309 -13.108  -4.905  1.00  0.00    -0.550 OA
ATOM      5  O   UNL     1      53.301 -13.957  -4.226  1.00  0.00    -0.550 OA
ENDBRANCH   2   3
BRANCH   2   6
ATOM      6  C   UNL     1      55.655 -15.864  -2.997  1.00  0.00     0.004 C 
ATOM      7  C   UNL     1      55.443 -14.727  -2.001  1.00  0.00     0.006 C 
ATOM      8  C   UNL     1      55.090 -17.174  -2.314  1.00  0.00    -0.020 C 
ATOM      9  C   UNL     1      55.547 -15.389  -0.641  1.00  0.00     0.012 C 
ATOM     10  C   UNL     1      54.850 -16.760  -0.784  1.00  0.00    -0.006 C 
ATOM     11  C   UNL     1      56.146 -18.314  -2.439  1.00  0.00     0.012 C 
ATOM     12  C   UNL     1      53.808 -17.724  -2.997  1.00  0.00     0.012 C 
ATOM     13  C   UNL     1      53.338 -16.519  -0.464  1.00  0.00     0.017 C 
ATOM     14  C   UNL     1      55.487 -17.742   0.247  1.00  0.00    -0.064 C 
ATOM     15  C   UNL     1      57.268 -18.188  -1.417  1.00  0.00     0.032 C 
ATOM     16  C   UNL     1      56.707 -18.314  -0.014  1.00  0.00    -0.064 C 
ATOM     17  C   UNL     1      54.823 -17.881   1.620  1.00  0.00     0.032 C 
ATOM     18  C   UNL     1      57.434 -19.224   1.007  1.00  0.00    -0.008 C 
ATOM     19  C   UNL     1      55.479 -18.870   2.584  1.00  0.00     0.009 C 
ATOM     20  C   UNL     1      57.007 -18.796   2.457  1.00  0.00     0.007 C 
ATOM     21  C   UNL     1      58.978 -19.040   0.896  1.00  0.00     0.014 C 
ATOM     22  C   UNL     1      57.051 -20.679   0.626  1.00  0.00     0.016 C 
ATOM     23  C   UNL     1      57.816 -19.415   3.673  1.00  0.00    -0.006 C 
ATOM     24  C   UNL     1      59.752 -19.758   2.005  1.00  0.00     0.033 C 
ATOM     25  C   UNL     1      59.346 -19.261   3.396  1.00  0.00     0.120 C 
ATOM     26  C   UNL     1      57.502 -18.599   4.960  1.00  0.00     0.014 C 
ATOM     27  C   UNL     1      57.455 -20.897   3.977  1.00  0.00     0.014 C 
BRANCH  25  28
ATOM     28  O   UNL     1      60.102 -19.961   4.356  1.00  0.00    -0.393 OA
ATOM     29  H   UNL     1      59.643 -20.826   4.525  1.00  0.00     0.210 HD
ENDBRANCH  25  28
ENDBRANCH   2   6
ENDBRANCH   1   2
BRANCH   1  30
ATOM     30  C   UNL     1      57.819 -15.833  -4.856  1.00  0.00     0.028 C 
BRANCH  30  31
ATOM     31  C   UNL     1      58.501 -14.516  -4.581  1.00  0.00    -0.028 C 
ATOM     32  C   UNL     1      59.149 -14.215  -3.435  1.00  0.00    -0.080 C 
ATOM     33  C   UNL     1      59.207 -15.176  -2.270  1.00  0.00     0.039 C 
ATOM     34  C   UNL     1      59.813 -12.867  -3.317  1.00  0.00     0.039 C 
ENDBRANCH  30  31
ENDBRANCH   1  30
TORSDOF 6
ENDMDL
MODEL 3
REMARK VINA RESULT:    -5.670      3.443      5.810
REMARK INTER + INTRA:          -9.325
REMARK INTER:                  -7.499
REMARK INTRA:                  -1.826
REMARK UNBOUND:                -1.832
REMARK SMILES CC(C)=CCC[C@H](C(=O)[O-])[C@H]1CC[C@]2(C)C3=C(CC[C@]12C)[C@@]1(C)CC[C@H](O)C(C)(C)[C@@H]1CC3
REMARK SMILES IDX 6 1 7 2 8 3 9 4 10 5 11 6 12 7 20 8 13 9 14 10 19 11 21 12
REMARK SMILES IDX 15 13 16 14 18 15 17 16 33 17 22 18 32 19 31 20 24 21 23 22
REMARK SMILES IDX 28 23 25 24 26 25 29 26 30 27 27 28 5 30 4 31 2 32 1 33 3 34
REMARK H PARENT 27 29
REMARK Flexibility Score: inf
ROOT
ATOM      1  C   UNL     1      55.728 -17.793  -1.591  1.00  0.00     0.014 C 
ENDROOT
BRANCH   1   2
ATOM      2  C   UNL     1      55.534 -16.548  -2.502  1.00  0.00     0.039 C 
BRANCH   2   3
ATOM      3  C   UNL     1      54.471 -16.768  -3.555  1.00  0.00     0.045 C 
ATOM      4  O   UNL     1      53.703 -15.822  -3.872  1.00  0.00    -0.550 OA
ATOM      5  O   UNL     1      54.327 -17.994  -4.196  1.00  0.00    -0.550 OA
ENDBRANCH   2   3
BRANCH   2   6
ATOM      6  C   UNL     1      56.826 -15.908  -3.123  1.00  0.00     0.004 C 
ATOM      7  C   UNL     1      56.989 -16.191  -4.613  1.00  0.00     0.006 C 
ATOM      8  C   UNL     1      57.212 -14.389  -2.906  1.00  0.00    -0.020 C 
ATOM      9  C   UNL     1      58.108 -15.269  -5.055  1.00  0.00     0.012 C 
ATOM     10  C   UNL     1      57.893 -13.946  -4.288  1.00  0.00    -0.006 C 
ATOM     11  C   UNL     1      58.211 -14.279  -1.715  1.00  0.00     0.012 C 
ATOM     12  C   UNL     1      56.005 -13.494  -2.515  1.00  0.00     0.012 C 
ATOM     13  C   UNL     1      56.936 -13.077  -5.169  1.00  0.00     0.017 C 
ATOM     14  C   UNL     1      59.277 -13.248  -4.118  1.00  0.00    -0.064 C 
ATOM     15  C   UNL     1      59.635 -14.652  -2.108  1.00  0.00     0.032 C 
ATOM     16  C   UNL     1      60.153 -13.686  -3.155  1.00  0.00    -0.064 C 
ATOM     17  C   UNL     1      59.705 -12.223  -5.172  1.00  0.00     0.032 C 
ATOM     18  C   UNL     1      61.577 -13.098  -2.997  1.00  0.00    -0.008 C 
ATOM     19  C   UNL     1      61.064 -11.557  -4.946  1.00  0.00     0.009 C 
ATOM     20  C   UNL     1      62.068 -12.581  -4.397  1.00  0.00     0.007 C 
ATOM     21  C   UNL     1      62.571 -14.201  -2.524  1.00  0.00     0.014 C 
ATOM     22  C   UNL     1      61.460 -11.997  -1.908  1.00  0.00     0.016 C 
ATOM     23  C   UNL     1      63.593 -12.170  -4.533  1.00  0.00    -0.006 C 
ATOM     24  C   UNL     1      64.031 -13.741  -2.535  1.00  0.00     0.033 C 
ATOM     25  C   UNL     1      64.481 -13.309  -3.934  1.00  0.00     0.120 C 
ATOM     26  C   UNL     1      63.956 -12.056  -6.042  1.00  0.00     0.014 C 
ATOM     27  C   UNL     1      63.935 -10.801  -3.880  1.00  0.00     0.014 C 
BRANCH  25  28
ATOM     28  O   UNL     1      65.830 -12.906  -3.864  1.00  0.00    -0.393 OA
ATOM     29  H   UNL     1      66.305 -13.318  -4.632  1.00  0.00     0.210 HD
ENDBRANCH  25  28
ENDBRANCH   2   6
ENDBRANCH   1   2
BRANCH   1  30
ATOM     30  C   UNL     1      56.970 -18.603  -1.996  1.00  0.00     0.028 C 
BRANCH  30  31
ATOM     31  C   UNL     1      58.084 -18.418  -0.996  1.00  0.00    -0.028 C 
ATOM     32  C   UNL     1      59.364 -18.132  -1.322  1.00  0.00    -0.080 C 
ATOM     33  C   UNL     1      59.820 -18.020  -2.758  1.00  0.00     0.039 C 
ATOM     34  C   UNL     1      60.363 -17.942  -0.209  1.00  0.00     0.039 C 
ENDBRANCH  30  31
ENDBRANCH   1  30
TORSDOF 6
ENDMDL
MODEL 4
REMARK VINA RESULT:    -5.658      3.838      8.932
REMARK INTER + INTRA:          -9.309
REMARK INTER:                  -7.829
REMARK INTRA:                  -1.480
REMARK UNBOUND:                -1.832
REMARK SMILES CC(C)=CCC[C@H](C(=O)[O-])[C@H]1CC[C@]2(C)C3=C(CC[C@]12C)[C@@]1(C)CC[C@H](O)C(C)(C)[C@@H]1CC3
REMARK SMILES IDX 6 1 7 2 8 3 9 4 10 5 11 6 12 7 20 8 13 9 14 10 19 11 21 12
REMARK SMILES IDX 15 13 16 14 18 15 17 16 33 17 22 18 32 19 31 20 24 21 23 22
REMARK SMILES IDX 28 23 25 24 26 25 29 26 30 27 27 28 5 30 4 31 2 32 1 33 3 34
REMARK H PARENT 27 29
REMARK Flexibility Score: inf
ROOT
ATOM      1  C   UNL     1      56.714 -18.526  -1.971  1.00  0.00     0.014 C 
ENDROOT
BRANCH   1   2
ATOM      2  C   UNL     1      55.809 -18.622  -0.711  1.00  0.00     0.039 C 
BRANCH   2   3
ATOM      3  C   UNL     1      54.650 -17.652  -0.761  1.00  0.00     0.045 C 
ATOM      4  O   UNL     1      53.469 -18.090  -0.749  1.00  0.00    -0.550 OA
ATOM      5  O   UNL     1      54.856 -16.277  -0.808  1.00  0.00    -0.550 OA
ENDBRANCH   2   3
BRANCH   2   6
ATOM      6  C   UNL     1      56.522 -18.585   0.687  1.00  0.00     0.004 C 
ATOM      7  C   UNL     1      55.617 -18.105   1.818  1.00  0.00     0.006 C 
ATOM      8  C   UNL     1      57.347 -19.809   1.256  1.00  0.00    -0.020 C 
ATOM      9  C   UNL     1      56.394 -18.413   3.083  1.00  0.00     0.012 C 
ATOM     10  C   UNL     1      57.080 -19.775   2.836  1.00  0.00    -0.006 C 
ATOM     11  C   UNL     1      58.856 -19.608   0.925  1.00  0.00     0.012 C 
ATOM     12  C   UNL     1      56.961 -21.168   0.609  1.00  0.00     0.012 C 
ATOM     13  C   UNL     1      56.060 -20.870   3.290  1.00  0.00     0.017 C 
ATOM     14  C   UNL     1      58.378 -19.832   3.699  1.00  0.00    -0.064 C 
ATOM     15  C   UNL     1      59.537 -18.627   1.870  1.00  0.00     0.032 C 
ATOM     16  C   UNL     1      59.507 -19.167   3.287  1.00  0.00    -0.064 C 
ATOM     17  C   UNL     1      58.294 -20.462   5.092  1.00  0.00     0.032 C 
ATOM     18  C   UNL     1      60.796 -19.107   4.142  1.00  0.00    -0.008 C 
ATOM     19  C   UNL     1      59.599 -20.507   5.888  1.00  0.00     0.009 C 
ATOM     20  C   UNL     1      60.401 -19.218   5.659  1.00  0.00     0.007 C 
ATOM     21  C   UNL     1      61.520 -17.742   3.940  1.00  0.00     0.014 C 
ATOM     22  C   UNL     1      61.699 -20.261   3.626  1.00  0.00     0.016 C 
ATOM     23  C   UNL     1      61.530 -18.926   6.734  1.00  0.00    -0.006 C 
ATOM     24  C   UNL     1      62.694 -17.535   4.901  1.00  0.00     0.033 C 
ATOM     25  C   UNL     1      62.247 -17.586   6.365  1.00  0.00     0.120 C 
ATOM     26  C   UNL     1      60.864 -18.716   8.125  1.00  0.00     0.014 C 
ATOM     27  C   UNL     1      62.559 -20.080   6.893  1.00  0.00     0.014 C 
BRANCH  25  28
ATOM     28  O   UNL     1      63.376 -17.383   7.183  1.00  0.00    -0.393 OA
ATOM     29  H   UNL     1      63.050 -17.163   8.094  1.00  0.00     0.210 HD
ENDBRANCH  25  28
ENDBRANCH   2   6
ENDBRANCH   1   2
BRANCH   1  30
ATOM     30  C   UNL     1      57.748 -17.396  -1.839  1.00  0.00     0.028 C 
BRANCH  30  31
ATOM     31  C   UNL     1      59.141 -17.905  -2.115  1.00  0.00    -0.028 C 
ATOM     32  C   UNL     1      60.268 -17.362  -1.608  1.00  0.00    -0.080 C 
ATOM     33  C   UNL     1      60.241 -16.129  -0.735  1.00  0.00     0.039 C 
ATOM     34  C   UNL     1      61.591 -18.002  -1.947  1.00  0.00     0.039 C 
ENDBRANCH  30  31
ENDBRANCH   1  30
TORSDOF 6
ENDMDL
MODEL 5
REMARK VINA RESULT:    -5.552      1.925      8.304
REMARK INTER + INTRA:          -9.169
REMARK INTER:                  -8.461
REMARK INTRA:                  -0.708
REMARK UNBOUND:                -1.832
REMARK SMILES CC(C)=CCC[C@H](C(=O)[O-])[C@H]1CC[C@]2(C)C3=C(CC[C@]12C)[C@@]1(C)CC[C@H](O)C(C)(C)[C@@H]1CC3
REMARK SMILES IDX 6 1 7 2 8 3 9 4 10 5 11 6 12 7 20 8 13 9 14 10 19 11 21 12
REMARK SMILES IDX 15 13 16 14 18 15 17 16 33 17 22 18 32 19 31 20 24 21 23 22
REMARK SMILES IDX 28 23 25 24 26 25 29 26 30 27 27 28 5 30 4 31 2 32 1 33 3 34
REMARK H PARENT 27 29
REMARK Flexibility Score: inf
ROOT
ATOM      1  C   UNL     1      58.153 -15.616  -5.560  1.00  0.00     0.014 C 
ENDROOT
BRANCH   1   2
ATOM      2  C   UNL     1      57.902 -14.566  -4.441  1.00  0.00     0.039 C 
BRANCH   2   3
ATOM      3  C   UNL     1      58.886 -13.419  -4.499  1.00  0.00     0.045 C 
ATOM      4  O   UNL     1      58.574 -12.360  -5.104  1.00  0.00    -0.550 OA
ATOM      5  O   UNL     1      60.131 -13.501  -3.885  1.00  0.00    -0.550 OA
ENDBRANCH   2   3
BRANCH   2   6
ATOM      6  C   UNL     1      57.742 -15.106  -2.976  1.00  0.00     0.004 C 
ATOM      7  C   UNL     1      57.324 -14.033  -1.975  1.00  0.00     0.006 C 
ATOM      8  C   UNL     1      56.898 -16.399  -2.632  1.00  0.00    -0.020 C 
ATOM      9  C   UNL     1      56.959 -14.804  -0.722  1.00  0.00     0.012 C 
ATOM     10  C   UNL     1      56.236 -16.080  -1.207  1.00  0.00    -0.006 C 
ATOM     11  C   UNL     1      57.853 -17.629  -2.557  1.00  0.00     0.012 C 
ATOM     12  C   UNL     1      55.848 -16.759  -3.718  1.00  0.00     0.012 C 
ATOM     13  C   UNL     1      54.721 -15.710  -1.327  1.00  0.00     0.017 C 
ATOM     14  C   UNL     1      56.453 -17.199  -0.142  1.00  0.00    -0.064 C 
ATOM     15  C   UNL     1      58.617 -17.698  -1.241  1.00  0.00     0.032 C 
ATOM     16  C   UNL     1      57.648 -17.873  -0.088  1.00  0.00    -0.064 C 
ATOM     17  C   UNL     1      55.394 -17.373   0.950  1.00  0.00     0.032 C 
ATOM     18  C   UNL     1      57.959 -18.928   1.002  1.00  0.00    -0.008 C 
ATOM     19  C   UNL     1      55.648 -18.496   1.957  1.00  0.00     0.009 C 
ATOM     20  C   UNL     1      57.144 -18.571   2.297  1.00  0.00     0.007 C 
ATOM     21  C   UNL     1      59.472 -18.897   1.373  1.00  0.00     0.014 C 
ATOM     22  C   UNL     1      57.601 -20.302   0.375  1.00  0.00     0.016 C 
ATOM     23  C   UNL     1      57.495 -19.361   3.626  1.00  0.00    -0.006 C 
ATOM     24  C   UNL     1      59.815 -19.774   2.580  1.00  0.00     0.033 C 
ATOM     25  C   UNL     1      59.044 -19.345   3.833  1.00  0.00     0.120 C 
ATOM     26  C   UNL     1      56.867 -18.617   4.841  1.00  0.00     0.014 C 
ATOM     27  C   UNL     1      56.948 -20.817   3.654  1.00  0.00     0.014 C 
BRANCH  25  28
ATOM     28  O   UNL     1      59.416 -20.191   4.895  1.00  0.00    -0.393 OA
ATOM     29  H   UNL     1      59.083 -19.780   5.736  1.00  0.00     0.210 HD
ENDBRANCH  25  28
ENDBRANCH   2   6
ENDBRANCH   1   2
BRANCH   1  30
ATOM     30  C   UNL     1      57.412 -15.250  -6.855  1.00  0.00     0.028 C 
BRANCH  30  31
ATOM     31  C   UNL     1      56.246 -14.335  -6.571  1.00  0.00    -0.028 C 
ATOM     32  C   UNL     1      55.743 -13.441  -7.449  1.00  0.00    -0.080 C 
ATOM     33  C   UNL     1      56.350 -13.232  -8.817  1.00  0.00     0.039 C 
ATOM     34  C   UNL     1      54.551 -12.617  -7.033  1.00  0.00     0.039 C 
ENDBRANCH  30  31
ENDBRANCH   1  30
TORSDOF 6
ENDMDL
MODEL 6
REMARK VINA RESULT:    -5.426      1.806      8.281
REMARK INTER + INTRA:          -9.002
REMARK INTER:                  -7.262
REMARK INTRA:                  -1.740
REMARK UNBOUND:                -1.832
REMARK SMILES CC(C)=CCC[C@H](C(=O)[O-])[C@H]1CC[C@]2(C)C3=C(CC[C@]12C)[C@@]1(C)CC[C@H](O)C(C)(C)[C@@H]1CC3
REMARK SMILES IDX 6 1 7 2 8 3 9 4 10 5 11 6 12 7 20 8 13 9 14 10 19 11 21 12
REMARK SMILES IDX 15 13 16 14 18 15 17 16 33 17 22 18 32 19 31 20 24 21 23 22
REMARK SMILES IDX 28 23 25 24 26 25 29 26 30 27 27 28 5 30 4 31 2 32 1 33 3 34
REMARK H PARENT 27 29
REMARK Flexibility Score: inf
ROOT
ATOM      1  C   UNL     1      55.512 -15.831  -4.640  1.00  0.00     0.014 C 
ENDROOT
BRANCH   1   2
ATOM      2  C   UNL     1      56.874 -15.319  -4.093  1.00  0.00     0.039 C 
BRANCH   2   3
ATOM      3  C   UNL     1      57.884 -15.087  -5.195  1.00  0.00     0.045 C 
ATOM      4  O   UNL     1      58.607 -14.056  -5.171  1.00  0.00    -0.550 OA
ATOM      5  O   UNL     1      58.043 -15.996  -6.236  1.00  0.00    -0.550 OA
ENDBRANCH   2   3
BRANCH   2   6
ATOM      6  C   UNL     1      57.509 -16.112  -2.897  1.00  0.00     0.004 C 
ATOM      7  C   UNL     1      58.669 -17.013  -3.313  1.00  0.00     0.006 C 
ATOM      8  C   UNL     1      57.941 -15.414  -1.545  1.00  0.00    -0.020 C 
ATOM      9  C   UNL     1      59.299 -17.448  -2.005  1.00  0.00     0.012 C 
ATOM     10  C   UNL     1      59.252 -16.211  -1.081  1.00  0.00    -0.006 C 
ATOM     11  C   UNL     1      56.788 -15.553  -0.505  1.00  0.00     0.012 C 
ATOM     12  C   UNL     1      58.184 -13.886  -1.688  1.00  0.00     0.012 C 
ATOM     13  C   UNL     1      60.564 -15.406  -1.355  1.00  0.00     0.017 C 
ATOM     14  C   UNL     1      59.202 -16.708   0.397  1.00  0.00    -0.064 C 
ATOM     15  C   UNL     1      56.747 -16.931   0.143  1.00  0.00     0.032 C 
ATOM     16  C   UNL     1      58.023 -17.172   0.926  1.00  0.00    -0.064 C 
ATOM     17  C   UNL     1      60.524 -16.854   1.156  1.00  0.00     0.032 C 
ATOM     18  C   UNL     1      57.929 -17.764   2.354  1.00  0.00    -0.008 C 
ATOM     19  C   UNL     1      60.415 -17.327   2.606  1.00  0.00     0.009 C 
ATOM     20  C   UNL     1      59.317 -18.394   2.732  1.00  0.00     0.007 C 
ATOM     21  C   UNL     1      56.865 -18.902   2.402  1.00  0.00     0.014 C 
ATOM     22  C   UNL     1      57.483 -16.591   3.269  1.00  0.00     0.016 C 
ATOM     23  C   UNL     1      59.387 -19.281   4.044  1.00  0.00    -0.006 C 
ATOM     24  C   UNL     1      56.857 -19.663   3.730  1.00  0.00     0.033 C 
ATOM     25  C   UNL     1      58.213 -20.313   4.022  1.00  0.00     0.120 C 
ATOM     26  C   UNL     1      60.711 -20.100   4.034  1.00  0.00     0.014 C 
ATOM     27  C   UNL     1      59.375 -18.457   5.362  1.00  0.00     0.014 C 
BRANCH  25  28
ATOM     28  O   UNL     1      58.124 -20.995   5.251  1.00  0.00    -0.393 OA
ATOM     29  H   UNL     1      58.487 -20.395   5.954  1.00  0.00     0.210 HD
ENDBRANCH  25  28
ENDBRANCH   2   6
ENDBRANCH   1   2
BRANCH   1  30
ATOM     30  C   UNL     1      55.260 -17.295  -4.248  1.00  0.00     0.028 C 
BRANCH  30  31
ATOM     31  C   UNL     1      54.292 -17.387  -3.094  1.00  0.00    -0.028 C 
ATOM     32  C   UNL     1      54.368 -18.302  -2.104  1.00  0.00    -0.080 C 
ATOM     33  C   UNL     1      55.427 -19.380  -2.087  1.00  0.00     0.039 C 
ATOM     34  C   UNL     1      53.347 -18.249  -0.996  1.00  0.00     0.039 C 
ENDBRANCH  30  31
ENDBRANCH   1  30
TORSDOF 6
ENDMDL
MODEL 7
REMARK VINA RESULT:    -5.395      1.814      2.949
REMARK INTER + INTRA:          -8.961
REMARK INTER:                  -7.523
REMARK INTRA:                  -1.438
REMARK UNBOUND:                -1.832
REMARK SMILES CC(C)=CCC[C@H](C(=O)[O-])[C@H]1CC[C@]2(C)C3=C(CC[C@]12C)[C@@]1(C)CC[C@H](O)C(C)(C)[C@@H]1CC3
REMARK SMILES IDX 6 1 7 2 8 3 9 4 10 5 11 6 12 7 20 8 13 9 14 10 19 11 21 12
REMARK SMILES IDX 15 13 16 14 18 15 17 16 33 17 22 18 32 19 31 20 24 21 23 22
REMARK SMILES IDX 28 23 25 24 26 25 29 26 30 27 27 28 5 30 4 31 2 32 1 33 3 34
REMARK H PARENT 27 29
REMARK Flexibility Score: inf
ROOT
ATOM      1  C   UNL     1      57.099 -17.649   3.479  1.00  0.00     0.014 C 
ENDROOT
BRANCH   1   2
ATOM      2  C   UNL     1      56.714 -18.648   2.352  1.00  0.00     0.039 C 
BRANCH   2   3
ATOM      3  C   UNL     1      57.326 -20.015   2.563  1.00  0.00     0.045 C 
ATOM      4  O   UNL     1      58.551 -20.113   2.841  1.00  0.00    -0.550 OA
ATOM      5  O   UNL     1      56.563 -21.174   2.470  1.00  0.00    -0.550 OA
ENDBRANCH   2   3
BRANCH   2   6
ATOM      6  C   UNL     1      56.902 -18.163   0.872  1.00  0.00     0.004 C 
ATOM      7  C   UNL     1      57.621 -19.177  -0.013  1.00  0.00     0.006 C 
ATOM      8  C   UNL     1      55.712 -17.574   0.010  1.00  0.00    -0.020 C 
ATOM      9  C   UNL     1      57.443 -18.645  -1.422  1.00  0.00     0.012 C 
ATOM     10  C   UNL     1      56.007 -18.080  -1.482  1.00  0.00    -0.006 C 
ATOM     11  C   UNL     1      55.734 -16.019   0.103  1.00  0.00     0.012 C 
ATOM     12  C   UNL     1      54.309 -17.998   0.524  1.00  0.00     0.012 C 
ATOM     13  C   UNL     1      55.082 -19.270  -1.899  1.00  0.00     0.017 C 
ATOM     14  C   UNL     1      55.973 -16.947  -2.553  1.00  0.00    -0.064 C 
ATOM     15  C   UNL     1      56.786 -15.393  -0.803  1.00  0.00     0.032 C 
ATOM     16  C   UNL     1      56.471 -15.703  -2.253  1.00  0.00    -0.064 C 
ATOM     17  C   UNL     1      55.569 -17.316  -3.984  1.00  0.00     0.032 C 
ATOM     18  C   UNL     1      56.550 -14.564  -3.300  1.00  0.00    -0.008 C 
ATOM     19  C   UNL     1      55.535 -16.163  -4.989  1.00  0.00     0.009 C 
ATOM     20  C   UNL     1      56.704 -15.202  -4.728  1.00  0.00     0.007 C 
ATOM     21  C   UNL     1      57.804 -13.675  -3.043  1.00  0.00     0.014 C 
ATOM     22  C   UNL     1      55.260 -13.721  -3.107  1.00  0.00     0.016 C 
ATOM     23  C   UNL     1      57.059 -14.231  -5.931  1.00  0.00    -0.006 C 
ATOM     24  C   UNL     1      58.054 -12.650  -4.153  1.00  0.00     0.033 C 
ATOM     25  C   UNL     1      58.262 -13.324  -5.513  1.00  0.00     0.120 C 
ATOM     26  C   UNL     1      57.531 -15.080  -7.147  1.00  0.00     0.014 C 
ATOM     27  C   UNL     1      55.860 -13.369  -6.417  1.00  0.00     0.014 C 
BRANCH  25  28
ATOM     28  O   UNL     1      58.491 -12.322  -6.475  1.00  0.00    -0.393 OA
ATOM     29  H   UNL     1      58.981 -11.583  -6.028  1.00  0.00     0.210 HD
ENDBRANCH  25  28
ENDBRANCH   2   6
ENDBRANCH   1   2
BRANCH   1  30
ATOM     30  C   UNL     1      56.003 -17.558   4.553  1.00  0.00     0.028 C 
BRANCH  30  31
ATOM     31  C   UNL     1      54.678 -17.176   3.940  1.00  0.00    -0.028 C 
ATOM     32  C   UNL     1      54.289 -15.907   3.691  1.00  0.00    -0.080 C 
ATOM     33  C   UNL     1      55.145 -14.718   4.060  1.00  0.00     0.039 C 
ATOM     34  C   UNL     1      52.946 -15.682   3.043  1.00  0.00     0.039 C 
ENDBRANCH  30  31
ENDBRANCH   1  30
TORSDOF 6
ENDMDL
MODEL 8
REMARK VINA RESULT:    -5.346      2.058      3.462
REMARK INTER + INTRA:          -8.897
REMARK INTER:                  -8.219
REMARK INTRA:                  -0.678
REMARK UNBOUND:                -1.832
REMARK SMILES CC(C)=CCC[C@H](C(=O)[O-])[C@H]1CC[C@]2(C)C3=C(CC[C@]12C)[C@@]1(C)CC[C@H](O)C(C)(C)[C@@H]1CC3
REMARK SMILES IDX 6 1 7 2 8 3 9 4 10 5 11 6 12 7 20 8 13 9 14 10 19 11 21 12
REMARK SMILES IDX 15 13 16 14 18 15 17 16 33 17 22 18 32 19 31 20 24 21 23 22
REMARK SMILES IDX 28 23 25 24 26 25 29 26 30 27 27 28 5 30 4 31 2 32 1 33 3 34
REMARK H PARENT 27 29
REMARK Flexibility Score: inf
ROOT
ATOM      1  C   UNL     1      56.962 -19.720   3.066  1.00  0.00     0.014 C 
ENDROOT
BRANCH   1   2
ATOM      2  C   UNL     1      56.354 -18.295   2.938  1.00  0.00     0.039 C 
BRANCH   2   3
ATOM      3  C   UNL     1      54.874 -18.272   3.248  1.00  0.00     0.045 C 
ATOM      4  O   UNL     1      54.111 -19.114   2.705  1.00  0.00    -0.550 OA
ATOM      5  O   UNL     1      54.333 -17.346   4.134  1.00  0.00    -0.550 OA
ENDBRANCH   2   3
BRANCH   2   6
ATOM      6  C   UNL     1      56.673 -17.496   1.625  1.00  0.00     0.004 C 
ATOM      7  C   UNL     1      57.909 -16.609   1.738  1.00  0.00     0.006 C 
ATOM      8  C   UNL     1      56.740 -18.187   0.203  1.00  0.00    -0.020 C 
ATOM      9  C   UNL     1      58.191 -16.168   0.315  1.00  0.00     0.012 C 
ATOM     10  C   UNL     1      57.898 -17.396  -0.574  1.00  0.00    -0.006 C 
ATOM     11  C   UNL     1      55.362 -18.029  -0.509  1.00  0.00     0.012 C 
ATOM     12  C   UNL     1      56.996 -19.717   0.270  1.00  0.00     0.012 C 
ATOM     13  C   UNL     1      59.229 -18.215  -0.647  1.00  0.00     0.017 C 
ATOM     14  C   UNL     1      57.480 -16.887  -1.988  1.00  0.00    -0.064 C 
ATOM     15  C   UNL     1      55.172 -16.646  -1.118  1.00  0.00     0.032 C 
ATOM     16  C   UNL     1      56.210 -16.408  -2.197  1.00  0.00    -0.064 C 
ATOM     17  C   UNL     1      58.567 -16.745  -3.057  1.00  0.00     0.032 C 
ATOM     18  C   UNL     1      55.762 -15.804  -3.551  1.00  0.00    -0.008 C 
ATOM     19  C   UNL     1      58.099 -16.259  -4.429  1.00  0.00     0.009 C 
ATOM     20  C   UNL     1      57.016 -15.182  -4.266  1.00  0.00     0.007 C 
ATOM     21  C   UNL     1      54.733 -14.657  -3.320  1.00  0.00     0.014 C 
ATOM     22  C   UNL     1      55.087 -16.965  -4.329  1.00  0.00     0.016 C 
ATOM     23  C   UNL     1      56.759 -14.284  -5.547  1.00  0.00    -0.006 C 
ATOM     24  C   UNL     1      54.395 -13.884  -4.598  1.00  0.00     0.033 C 
ATOM     25  C   UNL     1      55.639 -13.243  -5.221  1.00  0.00     0.120 C 
ATOM     26  C   UNL     1      58.050 -13.477  -5.868  1.00  0.00     0.014 C 
ATOM     27  C   UNL     1      56.404 -15.098  -6.823  1.00  0.00     0.014 C 
BRANCH  25  28
ATOM     28  O   UNL     1      55.248 -12.549  -6.383  1.00  0.00    -0.393 OA
ATOM     29  H   UNL     1      55.857 -12.826  -7.116  1.00  0.00     0.210 HD
ENDBRANCH  25  28
ENDBRANCH   2   6
ENDBRANCH   1   2
BRANCH   1  30
ATOM     30  C   UNL     1      58.288 -19.701   3.842  1.00  0.00     0.028 C 
BRANCH  30  31
ATOM     31  C   UNL     1      59.466 -19.757   2.901  1.00  0.00    -0.028 C 
ATOM     32  C   UNL     1      60.720 -20.101   3.265  1.00  0.00    -0.080 C 
ATOM     33  C   UNL     1      61.080 -20.420   4.697  1.00  0.00     0.039 C 
ATOM     34  C   UNL     1      61.790 -20.144   2.203  1.00  0.00     0.039 C 
ENDBRANCH  30  31
ENDBRANCH   1  30
TORSDOF 6
ENDMDL
MODEL 9
REMARK VINA RESULT:    -5.223      1.506      2.130
REMARK INTER + INTRA:          -8.734
REMARK INTER:                  -7.144
REMARK INTRA:                  -1.590
REMARK UNBOUND:                -1.832
REMARK SMILES CC(C)=CCC[C@H](C(=O)[O-])[C@H]1CC[C@]2(C)C3=C(CC[C@]12C)[C@@]1(C)CC[C@H](O)C(C)(C)[C@@H]1CC3
REMARK SMILES IDX 6 1 7 2 8 3 9 4 10 5 11 6 12 7 20 8 13 9 14 10 19 11 21 12
REMARK SMILES IDX 15 13 16 14 18 15 17 16 33 17 22 18 32 19 31 20 24 21 23 22
REMARK SMILES IDX 28 23 25 24 26 25 29 26 30 27 27 28 5 30 4 31 2 32 1 33 3 34
REMARK H PARENT 27 29
REMARK Flexibility Score: inf
ROOT
ATOM      1  C   UNL     1      55.989 -17.830   3.825  1.00  0.00     0.014 C 
ENDROOT
BRANCH   1   2
ATOM      2  C   UNL     1      55.983 -18.899   2.696  1.00  0.00     0.039 C 
BRANCH   2   3
ATOM      3  C   UNL     1      56.793 -20.123   3.060  1.00  0.00     0.045 C 
ATOM      4  O   UNL     1      56.237 -21.252   3.089  1.00  0.00    -0.550 OA
ATOM      5  O   UNL     1      58.150 -20.033   3.353  1.00  0.00    -0.550 OA
ENDBRANCH   2   3
BRANCH   2   6
ATOM      6  C   UNL     1      56.316 -18.407   1.243  1.00  0.00     0.004 C 
ATOM      7  C   UNL     1      57.098 -19.427   0.421  1.00  0.00     0.006 C 
ATOM      8  C   UNL     1      55.222 -17.793   0.280  1.00  0.00    -0.020 C 
ATOM      9  C   UNL     1      57.062 -18.882  -0.993  1.00  0.00     0.012 C 
ATOM     10  C   UNL     1      55.647 -18.293  -1.183  1.00  0.00    -0.006 C 
ATOM     11  C   UNL     1      55.259 -16.238   0.386  1.00  0.00     0.012 C 
ATOM     12  C   UNL     1      53.770 -18.196   0.656  1.00  0.00     0.012 C 
ATOM     13  C   UNL     1      54.746 -19.465  -1.694  1.00  0.00     0.017 C 
ATOM     14  C   UNL     1      55.730 -17.153  -2.243  1.00  0.00    -0.064 C 
ATOM     15  C   UNL     1      56.401 -15.623  -0.412  1.00  0.00     0.032 C 
ATOM     16  C   UNL     1      56.218 -15.919  -1.888  1.00  0.00    -0.064 C 
ATOM     17  C   UNL     1      55.457 -17.505  -3.708  1.00  0.00     0.032 C 
ATOM     18  C   UNL     1      56.413 -14.775  -2.914  1.00  0.00    -0.008 C 
ATOM     19  C   UNL     1      55.535 -16.346  -4.703  1.00  0.00     0.009 C 
ATOM     20  C   UNL     1      56.689 -15.405  -4.326  1.00  0.00     0.007 C 
ATOM     21  C   UNL     1      57.650 -13.908  -2.533  1.00  0.00     0.014 C 
ATOM     22  C   UNL     1      55.124 -13.912  -2.834  1.00  0.00     0.016 C 
ATOM     23  C   UNL     1      57.170 -14.432  -5.482  1.00  0.00    -0.006 C 
ATOM     24  C   UNL     1      58.020 -12.880  -3.606  1.00  0.00     0.033 C 
ATOM     25  C   UNL     1      58.343 -13.548  -4.946  1.00  0.00     0.120 C 
ATOM     26  C   UNL     1      57.741 -15.281  -6.656  1.00  0.00     0.014 C 
ATOM     27  C   UNL     1      56.036 -13.547  -6.072  1.00  0.00     0.014 C 
BRANCH  25  28
ATOM     28  O   UNL     1      58.677 -12.543  -5.875  1.00  0.00    -0.393 OA
ATOM     29  H   UNL     1      58.771 -12.976  -6.764  1.00  0.00     0.210 HD
ENDBRANCH  25  28
ENDBRANCH   2   6
ENDBRANCH   1   2
BRANCH   1  30
ATOM     30  C   UNL     1      56.827 -16.602   3.436  1.00  0.00     0.028 C 
BRANCH  30  31
ATOM     31  C   UNL     1      58.218 -16.693   4.014  1.00  0.00    -0.028 C 
ATOM     32  C   UNL     1      59.352 -16.706   3.280  1.00  0.00    -0.080 C 
ATOM     33  C   UNL     1      59.329 -16.682   1.769  1.00  0.00     0.039 C 
ATOM     34  C   UNL     1      60.675 -16.767   4.001  1.00  0.00     0.039 C 
ENDBRANCH  30  31
ENDBRANCH   1  30
TORSDOF 6
ENDMDL
