MODEL 1
REMARK VINA RESULT:    -3.318      0.000      0.000
REMARK INTER + INTRA:          -4.324
REMARK INTER:                  -4.870
REMARK INTRA:                   0.547
REMARK UNBOUND:                 0.547
REMARK SMILES C=C1CC=CC(C)(C)CC=C(C)CCC1
REMARK SMILES IDX 2 1 1 2 15 3 14 4 13 5 11 6 12 7 10 8 3 10 4 11 5 12 6 13
REMARK SMILES IDX 7 14 8 15 9 16
REMARK H PARENT
REMARK Flexibility Score: 60.00
ROOT
ATOM      1  C   UNL     1      15.124   4.180  16.976  1.00  0.00    -0.074 C 
ATOM      2  C   UNL     1      16.436   4.417  16.822  1.00  0.00     0.008 C 
ENDROOT
BRANCH   1   3
ATOM      3  C   UNL     1      14.647   3.148  17.971  1.00  0.00     0.031 C 
BRANCH   3   4
ATOM      4  C   UNL     1      14.726   3.696  19.411  1.00  0.00     0.009 C 
BRANCH   4   5
ATOM      5  C   UNL     1      13.358   3.731  20.125  1.00  0.00     0.030 C 
BRANCH   5   6
ATOM      6  C   UNL     1      12.951   5.156  20.449  1.00  0.00    -0.077 C 
ATOM      7  C   UNL     1      13.396   5.758  21.758  1.00  0.00     0.039 C 
ATOM      8  C   UNL     1      12.185   5.912  19.625  1.00  0.00    -0.027 CG0
ATOM      9  G   UNL     1      11.720   5.513  18.232  1.00  0.00     0.000 G0
ENDBRANCH   5   6
ENDBRANCH   4   5
ENDBRANCH   3   4
ENDBRANCH   1   3
BRANCH   1  10
ATOM     10  C   UNL     1      14.116   4.849  16.069  1.00  0.00     0.057 C 
BRANCH  10  11
ATOM     11  C   UNL     1      14.102   6.339  16.314  1.00  0.00    -0.026 C 
ATOM     12  C   UNL     1      13.079   7.108  16.757  1.00  0.00    -0.024 C 
BRANCH  12  13
ATOM     13  C   UNL     1      11.666   6.697  17.193  1.00  0.00    -0.014 C 
ATOM     14  C   UNL     1      10.890   6.251  15.925  1.00  0.00     0.016 C 
ATOM     15  C   UNL     1      10.888   7.908  17.767  1.00  0.00     0.016 C 
BRANCH  13  16
ATOM     16  C   UNL     1      11.690   5.534  18.235  1.00  0.00     0.038 CG0
ATOM     17  G   UNL     1      12.194   5.933  19.614  1.00  0.00     0.000 G0
ENDBRANCH  13  16
ENDBRANCH  12  13
ENDBRANCH  10  11
ENDBRANCH   1  10
TORSDOF 0
ENDMDL
MODEL 2
REMARK VINA RESULT:    -3.313      1.632      3.303
REMARK INTER + INTRA:          -4.316
REMARK INTER:                  -4.939
REMARK INTRA:                   0.623
REMARK UNBOUND:                 0.547
REMARK SMILES C=C1CC=CC(C)(C)CC=C(C)CCC1
REMARK SMILES IDX 2 1 1 2 15 3 14 4 13 5 11 6 12 7 10 8 3 10 4 11 5 12 6 13
REMARK SMILES IDX 7 14 8 15 9 16
REMARK H PARENT
REMARK Flexibility Score: 60.00
ROOT
ATOM      1  C   UNL     1      13.688   3.788  18.761  1.00  0.00    -0.074 C 
ATOM      2  C   UNL     1      14.023   3.749  20.060  1.00  0.00     0.008 C 
ENDROOT
BRANCH   1   3
ATOM      3  C   UNL     1      14.645   3.275  17.710  1.00  0.00     0.031 C 
BRANCH   3   4
ATOM      4  C   UNL     1      14.531   4.103  16.413  1.00  0.00     0.009 C 
BRANCH   4   5
ATOM      5  C   UNL     1      15.758   5.004  16.157  1.00  0.00     0.030 C 
BRANCH   5   6
ATOM      6  C   UNL     1      15.761   6.197  17.094  1.00  0.00    -0.077 C 
ATOM      7  C   UNL     1      16.929   6.385  18.028  1.00  0.00     0.039 C 
ATOM      8  C   UNL     1      14.749   7.098  17.146  1.00  0.00    -0.027 CG0
ATOM      9  G   UNL     1      13.538   7.127  16.224  1.00  0.00     0.000 G0
ENDBRANCH   5   6
ENDBRANCH   4   5
ENDBRANCH   3   4
ENDBRANCH   1   3
BRANCH   1  10
ATOM     10  C   UNL     1      12.407   4.462  18.323  1.00  0.00     0.057 C 
BRANCH  10  11
ATOM     11  C   UNL     1      12.268   5.806  18.999  1.00  0.00    -0.026 C 
ATOM     12  C   UNL     1      12.185   7.031  18.427  1.00  0.00    -0.024 C 
BRANCH  12  13
ATOM     13  C   UNL     1      12.147   7.412  16.940  1.00  0.00    -0.014 C 
ATOM     14  C   UNL     1      11.790   8.920  16.847  1.00  0.00     0.016 C 
ATOM     15  C   UNL     1      11.012   6.658  16.203  1.00  0.00     0.016 C 
BRANCH  13  16
ATOM     16  C   UNL     1      13.513   7.149  16.232  1.00  0.00     0.038 CG0
ATOM     17  G   UNL     1      14.708   7.088  17.173  1.00  0.00     0.000 G0
ENDBRANCH  13  16
ENDBRANCH  12  13
ENDBRANCH  10  11
ENDBRANCH   1  10
TORSDOF 0
ENDMDL
MODEL 3
REMARK VINA RESULT:    -2.829      1.177      3.983
REMARK INTER + INTRA:          -3.605
REMARK INTER:                  -3.998
REMARK INTRA:                   0.393
REMARK UNBOUND:                 0.547
REMARK SMILES C=C1CC=CC(C)(C)CC=C(C)CCC1
REMARK SMILES IDX 2 1 1 2 15 3 14 4 13 5 11 6 12 7 10 8 3 10 4 11 5 12 6 13
REMARK SMILES IDX 7 14 8 15 9 16
REMARK H PARENT
REMARK Flexibility Score: 60.00
ROOT
ATOM      1  C   UNL     1      15.974   4.771  16.979  1.00  0.00    -0.074 C 
ATOM      2  C   UNL     1      16.913   5.416  16.269  1.00  0.00     0.008 C 
ENDROOT
BRANCH   1   3
ATOM      3  C   UNL     1      14.565   4.651  16.448  1.00  0.00     0.031 C 
BRANCH   3   4
ATOM      4  C   UNL     1      13.964   6.043  16.166  1.00  0.00     0.009 C 
BRANCH   4   5
ATOM      5  C   UNL     1      13.350   6.706  17.417  1.00  0.00     0.030 C 
BRANCH   5   6
ATOM      6  C   UNL     1      12.286   5.819  18.035  1.00  0.00    -0.077 C 
ATOM      7  C   UNL     1      11.014   5.567  17.266  1.00  0.00     0.039 C 
ATOM      8  C   UNL     1      12.415   5.255  19.261  1.00  0.00    -0.027 CG0
ATOM      9  G   UNL     1      13.654   5.318  20.141  1.00  0.00     0.000 G0
ENDBRANCH   5   6
ENDBRANCH   4   5
ENDBRANCH   3   4
ENDBRANCH   1   3
BRANCH   1  10
ATOM     10  C   UNL     1      16.281   4.270  18.372  1.00  0.00     0.057 C 
BRANCH  10  11
ATOM     11  C   UNL     1      15.419   3.073  18.697  1.00  0.00    -0.026 C 
ATOM     12  C   UNL     1      14.531   2.926  19.709  1.00  0.00    -0.024 C 
BRANCH  12  13
ATOM     13  C   UNL     1      14.096   3.936  20.780  1.00  0.00    -0.014 C 
ATOM     14  C   UNL     1      15.291   4.145  21.748  1.00  0.00     0.016 C 
ATOM     15  C   UNL     1      12.941   3.367  21.642  1.00  0.00     0.016 C 
BRANCH  13  16
ATOM     16  C   UNL     1      13.676   5.305  20.157  1.00  0.00     0.038 CG0
ATOM     17  G   UNL     1      12.444   5.240  19.266  1.00  0.00     0.000 G0
ENDBRANCH  13  16
ENDBRANCH  12  13
ENDBRANCH  10  11
ENDBRANCH   1  10
TORSDOF 0
ENDMDL
MODEL 4
REMARK VINA RESULT:    -2.718      1.865      3.351
REMARK INTER + INTRA:          -3.443
REMARK INTER:                  -3.788
REMARK INTRA:                   0.345
REMARK UNBOUND:                 0.547
REMARK SMILES C=C1CC=CC(C)(C)CC=C(C)CCC1
REMARK SMILES IDX 2 1 1 2 15 3 14 4 13 5 11 6 12 7 10 8 3 10 4 11 5 12 6 13
REMARK SMILES IDX 7 14 8 15 9 16
REMARK H PARENT
REMARK Flexibility Score: 60.00
ROOT
ATOM      1  C   UNL     1      14.822   2.694  20.347  1.00  0.00    -0.074 C 
ATOM      2  C   UNL     1      15.532   1.947  21.208  1.00  0.00     0.008 C 
ENDROOT
BRANCH   1   3
ATOM      3  C   UNL     1      13.422   3.140  20.699  1.00  0.00     0.031 C 
BRANCH   3   4
ATOM      4  C   UNL     1      13.451   4.224  21.797  1.00  0.00     0.009 C 
BRANCH   4   5
ATOM      5  C   UNL     1      14.200   5.503  21.369  1.00  0.00     0.030 C 
BRANCH   5   6
ATOM      6  C   UNL     1      13.330   6.372  20.481  1.00  0.00    -0.077 C 
ATOM      7  C   UNL     1      12.000   6.848  21.009  1.00  0.00     0.039 C 
ATOM      8  C   UNL     1      13.683   6.728  19.221  1.00  0.00    -0.027 CG0
ATOM      9  G   UNL     1      15.016   6.424  18.554  1.00  0.00     0.000 G0
ENDBRANCH   5   6
ENDBRANCH   4   5
ENDBRANCH   3   4
ENDBRANCH   1   3
BRANCH   1  10
ATOM     10  C   UNL     1      15.364   2.991  18.967  1.00  0.00     0.057 C 
BRANCH  10  11
ATOM     11  C   UNL     1      14.231   3.302  18.018  1.00  0.00    -0.026 C 
ATOM     12  C   UNL     1      14.024   4.428  17.296  1.00  0.00    -0.024 C 
BRANCH  12  13
ATOM     13  C   UNL     1      14.896   5.687  17.179  1.00  0.00    -0.014 C 
ATOM     14  C   UNL     1      14.257   6.607  16.106  1.00  0.00     0.016 C 
ATOM     15  C   UNL     1      16.310   5.335  16.654  1.00  0.00     0.016 C 
BRANCH  13  16
ATOM     16  C   UNL     1      15.003   6.452  18.536  1.00  0.00     0.038 CG0
ATOM     17  G   UNL     1      13.668   6.713  19.220  1.00  0.00     0.000 G0
ENDBRANCH  13  16
ENDBRANCH  12  13
ENDBRANCH  10  11
ENDBRANCH   1  10
TORSDOF 0
ENDMDL
MODEL 5
REMARK VINA RESULT:    -2.711      1.919      4.322
REMARK INTER + INTRA:          -3.432
REMARK INTER:                  -3.958
REMARK INTRA:                   0.525
REMARK UNBOUND:                 0.547
REMARK SMILES C=C1CC=CC(C)(C)CC=C(C)CCC1
REMARK SMILES IDX 2 1 1 2 15 3 14 4 13 5 11 6 12 7 10 8 3 10 4 11 5 12 6 13
REMARK SMILES IDX 7 14 8 15 9 16
REMARK H PARENT
REMARK Flexibility Score: 60.00
ROOT
ATOM      1  C   UNL     1      13.108   4.472  19.140  1.00  0.00    -0.074 C 
ATOM      2  C   UNL     1      12.847   4.551  20.455  1.00  0.00     0.008 C 
ENDROOT
BRANCH   1   3
ATOM      3  C   UNL     1      11.976   4.391  18.142  1.00  0.00     0.031 C 
BRANCH   3   4
ATOM      4  C   UNL     1      11.288   5.762  17.980  1.00  0.00     0.009 C 
BRANCH   4   5
ATOM      5  C   UNL     1      11.674   6.487  16.673  1.00  0.00     0.030 C 
BRANCH   5   6
ATOM      6  C   UNL     1      12.500   7.726  16.963  1.00  0.00    -0.077 C 
ATOM      7  C   UNL     1      11.802   8.961  17.474  1.00  0.00     0.039 C 
ATOM      8  C   UNL     1      13.840   7.785  16.764  1.00  0.00    -0.027 CG0
ATOM      9  G   UNL     1      14.726   6.621  16.345  1.00  0.00     0.000 G0
ENDBRANCH   5   6
ENDBRANCH   4   5
ENDBRANCH   3   4
ENDBRANCH   1   3
BRANCH   1  10
ATOM     10  C   UNL     1      14.532   4.333  18.652  1.00  0.00     0.057 C 
BRANCH  10  11
ATOM     11  C   UNL     1      15.383   5.451  19.205  1.00  0.00    -0.026 C 
ATOM     12  C   UNL     1      16.080   6.393  18.526  1.00  0.00    -0.024 C 
BRANCH  12  13
ATOM     13  C   UNL     1      16.166   6.642  17.014  1.00  0.00    -0.014 C 
ATOM     14  C   UNL     1      17.054   5.526  16.400  1.00  0.00     0.016 C 
ATOM     15  C   UNL     1      16.890   7.978  16.712  1.00  0.00     0.016 C 
BRANCH  13  16
ATOM     16  C   UNL     1      14.759   6.630  16.337  1.00  0.00     0.038 CG0
ATOM     17  G   UNL     1      13.843   7.767  16.767  1.00  0.00     0.000 G0
ENDBRANCH  13  16
ENDBRANCH  12  13
ENDBRANCH  10  11
ENDBRANCH   1  10
TORSDOF 0
ENDMDL
MODEL 6
REMARK VINA RESULT:    -2.538      1.710      4.777
REMARK INTER + INTRA:          -3.179
REMARK INTER:                  -3.956
REMARK INTRA:                   0.777
REMARK UNBOUND:                 0.547
REMARK SMILES C=C1CC=CC(C)(C)CC=C(C)CCC1
REMARK SMILES IDX 2 1 1 2 15 3 14 4 13 5 11 6 12 7 10 8 3 10 4 11 5 12 6 13
REMARK SMILES IDX 7 14 8 15 9 16
REMARK H PARENT
REMARK Flexibility Score: 60.00
ROOT
ATOM      1  C   UNL     1      12.183   6.794  17.207  1.00  0.00    -0.074 C 
ATOM      2  C   UNL     1      11.073   7.540  17.319  1.00  0.00     0.008 C 
ENDROOT
BRANCH   1   3
ATOM      3  C   UNL     1      13.346   7.277  16.371  1.00  0.00     0.031 C 
BRANCH   3   4
ATOM      4  C   UNL     1      14.400   6.164  16.203  1.00  0.00     0.009 C 
BRANCH   4   5
ATOM      5  C   UNL     1      15.816   6.596  16.640  1.00  0.00     0.030 C 
BRANCH   5   6
ATOM      6  C   UNL     1      16.555   5.446  17.299  1.00  0.00    -0.077 C 
ATOM      7  C   UNL     1      17.656   4.757  16.532  1.00  0.00     0.039 C 
ATOM      8  C   UNL     1      16.261   4.993  18.542  1.00  0.00    -0.027 CG0
ATOM      9  G   UNL     1      15.253   5.616  19.497  1.00  0.00     0.000 G0
ENDBRANCH   5   6
ENDBRANCH   4   5
ENDBRANCH   3   4
ENDBRANCH   1   3
BRANCH   1  10
ATOM     10  C   UNL     1      12.236   5.409  17.810  1.00  0.00     0.057 C 
BRANCH  10  11
ATOM     11  C   UNL     1      12.018   5.481  19.303  1.00  0.00    -0.026 C 
ATOM     12  C   UNL     1      12.865   5.117  20.295  1.00  0.00    -0.024 C 
BRANCH  12  13
ATOM     13  C   UNL     1      14.302   4.584  20.205  1.00  0.00    -0.014 C 
ATOM     14  C   UNL     1      14.267   3.266  19.386  1.00  0.00     0.016 C 
ATOM     15  C   UNL     1      14.841   4.202  21.607  1.00  0.00     0.016 C 
BRANCH  13  16
ATOM     16  C   UNL     1      15.264   5.606  19.521  1.00  0.00     0.038 CG0
ATOM     17  G   UNL     1      16.250   4.985  18.542  1.00  0.00     0.000 G0
ENDBRANCH  13  16
ENDBRANCH  12  13
ENDBRANCH  10  11
ENDBRANCH   1  10
TORSDOF 0
ENDMDL
MODEL 7
REMARK VINA RESULT:    -2.532      1.539      3.876
REMARK INTER + INTRA:          -3.169
REMARK INTER:                  -3.751
REMARK INTRA:                   0.582
REMARK UNBOUND:                 0.547
REMARK SMILES C=C1CC=CC(C)(C)CC=C(C)CCC1
REMARK SMILES IDX 2 1 1 2 15 3 14 4 13 5 11 6 12 7 10 8 3 10 4 11 5 12 6 13
REMARK SMILES IDX 7 14 8 15 9 16
REMARK H PARENT
REMARK Flexibility Score: 60.00
ROOT
ATOM      1  C   UNL     1      14.033   5.539  16.532  1.00  0.00    -0.074 C 
ATOM      2  C   UNL     1      15.146   5.950  15.904  1.00  0.00     0.008 C 
ENDROOT
BRANCH   1   3
ATOM      3  C   UNL     1      12.859   6.476  16.696  1.00  0.00     0.031 C 
BRANCH   3   4
ATOM      4  C   UNL     1      13.329   7.945  16.711  1.00  0.00     0.009 C 
BRANCH   4   5
ATOM      5  C   UNL     1      13.803   8.419  18.102  1.00  0.00     0.030 C 
BRANCH   5   6
ATOM      6  C   UNL     1      12.765   8.109  19.164  1.00  0.00    -0.077 C 
ATOM      7  C   UNL     1      11.474   8.887  19.167  1.00  0.00     0.039 C 
ATOM      8  C   UNL     1      12.951   7.174  20.128  1.00  0.00    -0.027 CG0
ATOM      9  G   UNL     1      14.141   6.231  20.232  1.00  0.00     0.000 G0
ENDBRANCH   5   6
ENDBRANCH   4   5
ENDBRANCH   3   4
ENDBRANCH   1   3
BRANCH   1  10
ATOM     10  C   UNL     1      13.987   4.180  17.194  1.00  0.00     0.057 C 
BRANCH  10  11
ATOM     11  C   UNL     1      12.771   4.074  18.083  1.00  0.00    -0.026 C 
ATOM     12  C   UNL     1      12.686   4.273  19.420  1.00  0.00    -0.024 C 
BRANCH  12  13
ATOM     13  C   UNL     1      13.771   4.717  20.411  1.00  0.00    -0.014 C 
ATOM     14  C   UNL     1      15.022   3.829  20.172  1.00  0.00     0.016 C 
ATOM     15  C   UNL     1      13.330   4.450  21.872  1.00  0.00     0.016 C 
BRANCH  13  16
ATOM     16  C   UNL     1      14.148   6.221  20.231  1.00  0.00     0.038 CG0
ATOM     17  G   UNL     1      12.957   7.165  20.153  1.00  0.00     0.000 G0
ENDBRANCH  13  16
ENDBRANCH  12  13
ENDBRANCH  10  11
ENDBRANCH   1  10
TORSDOF 0
ENDMDL
MODEL 8
REMARK VINA RESULT:    -2.454      2.019      4.158
REMARK INTER + INTRA:          -3.056
REMARK INTER:                  -3.441
REMARK INTRA:                   0.385
REMARK UNBOUND:                 0.547
REMARK SMILES C=C1CC=CC(C)(C)CC=C(C)CCC1
REMARK SMILES IDX 2 1 1 2 15 3 14 4 13 5 11 6 12 7 10 8 3 10 4 11 5 12 6 13
REMARK SMILES IDX 7 14 8 15 9 16
REMARK H PARENT
REMARK Flexibility Score: 60.00
ROOT
ATOM      1  C   UNL     1      12.685   5.256  21.400  1.00  0.00    -0.074 C 
ATOM      2  C   UNL     1      12.367   5.959  22.499  1.00  0.00     0.008 C 
ENDROOT
BRANCH   1   3
ATOM      3  C   UNL     1      13.246   3.858  21.525  1.00  0.00     0.031 C 
BRANCH   3   4
ATOM      4  C   UNL     1      14.655   3.887  22.151  1.00  0.00     0.009 C 
BRANCH   4   5
ATOM      5  C   UNL     1      15.748   4.357  21.167  1.00  0.00     0.030 C 
BRANCH   5   6
ATOM      6  C   UNL     1      15.878   3.398  19.999  1.00  0.00    -0.077 C 
ATOM      7  C   UNL     1      16.147   1.941  20.283  1.00  0.00     0.039 C 
ATOM      8  C   UNL     1      15.784   3.791  18.706  1.00  0.00    -0.027 CG0
ATOM      9  G   UNL     1      15.427   5.191  18.228  1.00  0.00     0.000 G0
ENDBRANCH   5   6
ENDBRANCH   4   5
ENDBRANCH   3   4
ENDBRANCH   1   3
BRANCH   1  10
ATOM     10  C   UNL     1      12.607   5.899  20.034  1.00  0.00     0.057 C 
BRANCH  10  11
ATOM     11  C   UNL     1      12.307   4.855  18.984  1.00  0.00    -0.026 C 
ATOM     12  C   UNL     1      12.960   4.619  17.822  1.00  0.00    -0.024 C 
BRANCH  12  13
ATOM     13  C   UNL     1      14.220   5.291  17.257  1.00  0.00    -0.014 C 
ATOM     14  C   UNL     1      13.875   6.777  16.967  1.00  0.00     0.016 C 
ATOM     15  C   UNL     1      14.615   4.670  15.893  1.00  0.00     0.016 C 
BRANCH  13  16
ATOM     16  C   UNL     1      15.422   5.212  18.250  1.00  0.00     0.038 CG0
ATOM     17  G   UNL     1      15.784   3.801  18.690  1.00  0.00     0.000 G0
ENDBRANCH  13  16
ENDBRANCH  12  13
ENDBRANCH  10  11
ENDBRANCH   1  10
TORSDOF 0
ENDMDL
MODEL 9
REMARK VINA RESULT:    -2.427      1.889      3.725
REMARK INTER + INTRA:          -3.015
REMARK INTER:                  -3.480
REMARK INTRA:                   0.465
REMARK UNBOUND:                 0.547
REMARK SMILES C=C1CC=CC(C)(C)CC=C(C)CCC1
REMARK SMILES IDX 2 1 1 2 15 3 14 4 13 5 11 6 12 7 10 8 3 10 4 11 5 12 6 13
REMARK SMILES IDX 7 14 8 15 9 16
REMARK H PARENT
REMARK Flexibility Score: 60.00
ROOT
ATOM      1  C   UNL     1      15.194   4.257  17.456  1.00  0.00    -0.074 C 
ATOM      2  C   UNL     1      14.802   3.756  16.274  1.00  0.00     0.008 C 
ENDROOT
BRANCH   1   3
ATOM      3  C   UNL     1      16.544   4.921  17.592  1.00  0.00     0.031 C 
BRANCH   3   4
ATOM      4  C   UNL     1      16.587   6.244  16.798  1.00  0.00     0.009 C 
BRANCH   4   5
ATOM      5  C   UNL     1      16.339   7.489  17.676  1.00  0.00     0.030 C 
BRANCH   5   6
ATOM      6  C   UNL     1      14.948   8.049  17.444  1.00  0.00    -0.077 C 
ATOM      7  C   UNL     1      14.656   8.750  16.141  1.00  0.00     0.039 C 
ATOM      8  C   UNL     1      13.955   7.968  18.364  1.00  0.00    -0.027 CG0
ATOM      9  G   UNL     1      14.032   7.224  19.689  1.00  0.00     0.000 G0
ENDBRANCH   5   6
ENDBRANCH   4   5
ENDBRANCH   3   4
ENDBRANCH   1   3
BRANCH   1  10
ATOM     10  C   UNL     1      14.348   4.049  18.691  1.00  0.00     0.057 C 
BRANCH  10  11
ATOM     11  C   UNL     1      12.930   4.504  18.435  1.00  0.00    -0.026 C 
ATOM     12  C   UNL     1      12.245   5.501  19.042  1.00  0.00    -0.024 C 
BRANCH  12  13
ATOM     13  C   UNL     1      12.712   6.494  20.116  1.00  0.00    -0.014 C 
ATOM     14  C   UNL     1      12.940   5.697  21.429  1.00  0.00     0.016 C 
ATOM     15  C   UNL     1      11.606   7.531  20.432  1.00  0.00     0.016 C 
BRANCH  13  16
ATOM     16  C   UNL     1      14.030   7.223  19.706  1.00  0.00     0.038 CG0
ATOM     17  G   UNL     1      13.954   7.963  18.378  1.00  0.00     0.000 G0
ENDBRANCH  13  16
ENDBRANCH  12  13
ENDBRANCH  10  11
ENDBRANCH   1  10
TORSDOF 0
ENDMDL
