MODEL 1
REMARK VINA RESULT:    -1.360      0.000      0.000
REMARK INTER + INTRA:          -1.667
REMARK INTER:                  -1.837
REMARK INTRA:                   0.170
REMARK UNBOUND:                 0.170
REMARK SMILES CC(=O)CCC=C(C)CCC=C(C)C
REMARK SMILES IDX 7 1 6 2 8 3 9 4 10 5 11 6 13 7 12 8 14 9 5 10 4 11 2 12 3 13
REMARK SMILES IDX 1 14
REMARK H PARENT
REMARK Flexibility Score: inf
ROOT
ATOM      1  C   UNL     1      35.639  24.604  32.800  1.00  0.00    -0.077 C 
ATOM      2  C   UNL     1      35.793  24.806  31.472  1.00  0.00    -0.028 C 
ATOM      3  C   UNL     1      36.815  24.608  33.749  1.00  0.00     0.039 C 
ENDROOT
BRANCH   1   4
ATOM      4  C   UNL     1      34.252  24.343  33.347  1.00  0.00     0.034 C 
BRANCH   4   5
ATOM      5  C   UNL     1      33.198  25.125  32.555  1.00  0.00     0.032 C 
BRANCH   5   6
ATOM      6  C   UNL     1      33.128  24.655  31.122  1.00  0.00    -0.028 C 
ATOM      7  C   UNL     1      32.010  23.958  29.046  1.00  0.00     0.039 C 
ATOM      8  C   UNL     1      31.965  24.425  30.478  1.00  0.00    -0.080 C 
ATOM      9  C   UNL     1      30.632  24.628  31.158  1.00  0.00     0.039 C 
ENDBRANCH   5   6
ENDBRANCH   4   5
ENDBRANCH   1   4
BRANCH   2  10
ATOM     10  C   UNL     1      37.106  25.125  30.802  1.00  0.00     0.035 C 
BRANCH  10  11
ATOM     11  C   UNL     1      36.952  25.102  29.274  1.00  0.00     0.079 C 
BRANCH  11  12
ATOM     12  C   UNL     1      36.325  23.839  28.727  1.00  0.00     0.130 C 
ATOM     13  O   UNL     1      35.335  23.943  28.019  1.00  0.00    -0.300 OA
ATOM     14  C   UNL     1      36.868  22.466  29.010  1.00  0.00     0.087 C 
ENDBRANCH  11  12
ENDBRANCH  10  11
ENDBRANCH   2  10
TORSDOF 6
ENDMDL
MODEL 2
REMARK VINA RESULT:     1.264     17.669     19.833
REMARK INTER + INTRA:           1.877
REMARK INTER:                   2.437
REMARK INTRA:                  -0.561
REMARK UNBOUND:                 0.170
REMARK SMILES CC(=O)CCC=C(C)CCC=C(C)C
REMARK SMILES IDX 7 1 6 2 8 3 9 4 10 5 11 6 13 7 12 8 14 9 5 10 4 11 2 12 3 13
REMARK SMILES IDX 1 14
REMARK H PARENT
REMARK Flexibility Score: inf
ROOT
ATOM      1  C   UNL     1      22.555  22.736  46.160  1.00  0.00    -0.077 C 
ATOM      2  C   UNL     1      23.843  22.820  46.563  1.00  0.00    -0.028 C 
ATOM      3  C   UNL     1      22.100  23.272  44.822  1.00  0.00     0.039 C 
ENDROOT
BRANCH   1   4
ATOM      4  C   UNL     1      21.536  22.108  47.087  1.00  0.00     0.034 C 
BRANCH   4   5
ATOM      5  C   UNL     1      20.112  22.342  46.569  1.00  0.00     0.032 C 
BRANCH   5   6
ATOM      6  C   UNL     1      19.324  23.223  47.509  1.00  0.00    -0.028 C 
ATOM      7  C   UNL     1      17.892  25.124  48.124  1.00  0.00     0.039 C 
ATOM      8  C   UNL     1      18.646  24.316  47.101  1.00  0.00    -0.080 C 
ATOM      9  C   UNL     1      18.628  24.738  45.651  1.00  0.00     0.039 C 
ENDBRANCH   5   6
ENDBRANCH   4   5
ENDBRANCH   1   4
BRANCH   2  10
ATOM     10  C   UNL     1      24.966  23.376  45.722  1.00  0.00     0.035 C 
BRANCH  10  11
ATOM     11  C   UNL     1      26.325  23.083  46.377  1.00  0.00     0.079 C 
BRANCH  11  12
ATOM     12  C   UNL     1      27.463  23.936  45.861  1.00  0.00     0.130 C 
ATOM     13  O   UNL     1      27.211  25.066  45.473  1.00  0.00    -0.300 OA
ATOM     14  C   UNL     1      28.888  23.456  45.811  1.00  0.00     0.087 C 
ENDBRANCH  11  12
ENDBRANCH  10  11
ENDBRANCH   2  10
TORSDOF 6
ENDMDL
