MODEL 1
REMARK VINA RESULT:    -3.942      0.000      0.000
REMARK INTER + INTRA:          -5.844
REMARK INTER:                  -5.325
REMARK INTRA:                  -0.519
REMARK UNBOUND:                -0.519
REMARK SMILES [NH3+]CCCC[C@H]([NH3+])C(=O)[O-]
REMARK SMILES IDX 4 1 3 2 2 3 1 4 5 8 6 9 7 10 8 14 9 15 10 16
REMARK H PARENT 1 5 1 6 1 7 7 11 7 12 7 13
REMARK Flexibility Score: inf
ROOT
ATOM      1  C   UNL     1      10.226   7.137 -35.449  1.00  0.00     0.012 C 
ENDROOT
BRANCH   1   2
ATOM      2  C   UNL     1      10.712   6.373 -36.693  1.00  0.00     0.061 C 
BRANCH   2   3
ATOM      3  C   UNL     1      12.157   5.845 -36.608  1.00  0.00     0.258 C 
BRANCH   3   4
ATOM      4  N   UNL     1      12.304   4.777 -35.619  1.00  0.00    -0.358 N 
ATOM      5  H   UNL     1      11.451   4.717 -35.016  1.00  0.00     0.344 HD
ATOM      6  H   UNL     1      12.471   3.862 -36.096  1.00  0.00     0.344 HD
ATOM      7  H   UNL     1      13.129   4.986 -35.013  1.00  0.00     0.344 HD
ENDBRANCH   3   4
ENDBRANCH   2   3
ENDBRANCH   1   2
BRANCH   1   8
ATOM      8  C   UNL     1       8.896   6.590 -34.895  1.00  0.00     0.072 C 
BRANCH   8   9
ATOM      9  C   UNL     1       8.601   5.123 -35.284  1.00  0.00     0.227 C 
BRANCH   9  10
ATOM     10  N   UNL     1       7.203   4.925 -35.693  1.00  0.00    -0.350 N 
ATOM     11  H   UNL     1       7.168   4.701 -36.714  1.00  0.00     0.345 HD
ATOM     12  H   UNL     1       6.657   5.804 -35.534  1.00  0.00     0.345 HD
ATOM     13  H   UNL     1       6.754   4.142 -35.166  1.00  0.00     0.345 HD
ENDBRANCH   9  10
BRANCH   9  14
ATOM     14  C   UNL     1       8.998   4.167 -34.187  1.00  0.00     0.099 C 
ATOM     15  O   UNL     1       8.469   4.236 -33.045  1.00  0.00    -0.544 OA
ATOM     16  O   UNL     1       9.998   3.230 -34.419  1.00  0.00    -0.544 OA
ENDBRANCH   9  14
ENDBRANCH   8   9
ENDBRANCH   1   8
TORSDOF 7
ENDMDL
MODEL 2
REMARK VINA RESULT:    -3.717      3.123      3.866
REMARK INTER + INTRA:          -5.539
REMARK INTER:                  -5.474
REMARK INTRA:                  -0.065
REMARK UNBOUND:                -0.519
REMARK SMILES [NH3+]CCCC[C@H]([NH3+])C(=O)[O-]
REMARK SMILES IDX 4 1 3 2 2 3 1 4 5 8 6 9 7 10 8 14 9 15 10 16
REMARK H PARENT 1 5 1 6 1 7 7 11 7 12 7 13
REMARK Flexibility Score: inf
ROOT
ATOM      1  C   UNL     1      11.042   3.504 -35.158  1.00  0.00     0.012 C 
ENDROOT
BRANCH   1   2
ATOM      2  C   UNL     1      10.933   2.098 -34.541  1.00  0.00     0.061 C 
BRANCH   2   3
ATOM      3  C   UNL     1      12.119   1.162 -34.844  1.00  0.00     0.258 C 
BRANCH   3   4
ATOM      4  N   UNL     1      12.399   0.240 -33.742  1.00  0.00    -0.358 N 
ATOM      5  H   UNL     1      12.051  -0.720 -33.972  1.00  0.00     0.344 HD
ATOM      6  H   UNL     1      13.425   0.212 -33.544  1.00  0.00     0.344 HD
ATOM      7  H   UNL     1      11.909   0.578 -32.883  1.00  0.00     0.344 HD
ENDBRANCH   3   4
ENDBRANCH   2   3
ENDBRANCH   1   2
BRANCH   1   8
ATOM      8  C   UNL     1       9.775   4.352 -34.937  1.00  0.00     0.072 C 
BRANCH   8   9
ATOM      9  C   UNL     1       9.794   5.723 -35.652  1.00  0.00     0.227 C 
BRANCH   9  10
ATOM     10  N   UNL     1      10.694   6.682 -34.993  1.00  0.00    -0.350 N 
ATOM     11  H   UNL     1      10.808   7.526 -35.600  1.00  0.00     0.345 HD
ATOM     12  H   UNL     1      11.636   6.250 -34.855  1.00  0.00     0.345 HD
ATOM     13  H   UNL     1      10.317   6.989 -34.067  1.00  0.00     0.345 HD
ENDBRANCH   9  10
BRANCH   9  14
ATOM     14  C   UNL     1       8.405   6.286 -35.812  1.00  0.00     0.099 C 
ATOM     15  O   UNL     1       8.188   7.520 -35.684  1.00  0.00    -0.544 OA
ATOM     16  O   UNL     1       7.338   5.427 -36.051  1.00  0.00    -0.544 OA
ENDBRANCH   9  14
ENDBRANCH   8   9
ENDBRANCH   1   8
TORSDOF 7
ENDMDL
MODEL 3
REMARK VINA RESULT:    -3.714      2.971      4.834
REMARK INTER + INTRA:          -5.536
REMARK INTER:                  -5.442
REMARK INTRA:                  -0.093
REMARK UNBOUND:                -0.519
REMARK SMILES [NH3+]CCCC[C@H]([NH3+])C(=O)[O-]
REMARK SMILES IDX 4 1 3 2 2 3 1 4 5 8 6 9 7 10 8 14 9 15 10 16
REMARK H PARENT 1 5 1 6 1 7 7 11 7 12 7 13
REMARK Flexibility Score: inf
ROOT
ATOM      1  C   UNL     1       9.811   4.670 -35.154  1.00  0.00     0.012 C 
ENDROOT
BRANCH   1   2
ATOM      2  C   UNL     1       8.392   5.098 -34.740  1.00  0.00     0.061 C 
BRANCH   2   3
ATOM      3  C   UNL     1       7.547   5.721 -35.868  1.00  0.00     0.258 C 
BRANCH   3   4
ATOM      4  N   UNL     1       6.877   4.709 -36.687  1.00  0.00    -0.358 N 
ATOM      5  H   UNL     1       7.316   4.655 -37.635  1.00  0.00     0.344 HD
ATOM      6  H   UNL     1       6.921   3.776 -36.218  1.00  0.00     0.344 HD
ATOM      7  H   UNL     1       5.872   4.972 -36.797  1.00  0.00     0.344 HD
ENDBRANCH   3   4
ENDBRANCH   2   3
ENDBRANCH   1   2
BRANCH   1   8
ATOM      8  C   UNL     1      10.555   5.759 -35.950  1.00  0.00     0.072 C 
BRANCH   8   9
ATOM      9  C   UNL     1      11.936   5.321 -36.491  1.00  0.00     0.227 C 
BRANCH   9  10
ATOM     10  N   UNL     1      13.004   5.489 -35.494  1.00  0.00    -0.350 N 
ATOM     11  H   UNL     1      13.704   4.719 -35.601  1.00  0.00     0.345 HD
ATOM     12  H   UNL     1      12.603   5.431 -34.529  1.00  0.00     0.345 HD
ATOM     13  H   UNL     1      13.496   6.404 -35.607  1.00  0.00     0.345 HD
ENDBRANCH   9  10
BRANCH   9  14
ATOM     14  C   UNL     1      12.273   6.017 -37.786  1.00  0.00     0.099 C 
ATOM     15  O   UNL     1      12.562   5.357 -38.819  1.00  0.00    -0.544 OA
ATOM     16  O   UNL     1      12.317   7.405 -37.828  1.00  0.00    -0.544 OA
ENDBRANCH   9  14
ENDBRANCH   8   9
ENDBRANCH   1   8
TORSDOF 7
ENDMDL
MODEL 4
REMARK VINA RESULT:    -3.673      6.942      8.123
REMARK INTER + INTRA:          -5.480
REMARK INTER:                  -5.399
REMARK INTRA:                  -0.081
REMARK UNBOUND:                -0.519
REMARK SMILES [NH3+]CCCC[C@H]([NH3+])C(=O)[O-]
REMARK SMILES IDX 4 1 3 2 2 3 1 4 5 8 6 9 7 10 8 14 9 15 10 16
REMARK H PARENT 1 5 1 6 1 7 7 11 7 12 7 13
REMARK Flexibility Score: inf
ROOT
ATOM      1  C   UNL     1      12.502  -0.553 -34.839  1.00  0.00     0.012 C 
ENDROOT
BRANCH   1   2
ATOM      2  C   UNL     1      11.926   0.656 -34.082  1.00  0.00     0.061 C 
BRANCH   2   3
ATOM      3  C   UNL     1      11.439   1.811 -34.979  1.00  0.00     0.258 C 
BRANCH   3   4
ATOM      4  N   UNL     1      10.261   2.485 -34.430  1.00  0.00    -0.358 N 
ATOM      5  H   UNL     1      10.203   2.338 -33.396  1.00  0.00     0.344 HD
ATOM      6  H   UNL     1      10.294   3.507 -34.646  1.00  0.00     0.344 HD
ATOM      7  H   UNL     1       9.403   2.085 -34.874  1.00  0.00     0.344 HD
ENDBRANCH   3   4
ENDBRANCH   2   3
ENDBRANCH   1   2
BRANCH   1   8
ATOM      8  C   UNL     1      12.254  -1.887 -34.109  1.00  0.00     0.072 C 
BRANCH   8   9
ATOM      9  C   UNL     1      13.076  -3.076 -34.659  1.00  0.00     0.227 C 
BRANCH   9  10
ATOM     10  N   UNL     1      13.677  -2.779 -35.968  1.00  0.00    -0.350 N 
ATOM     11  H   UNL     1      14.593  -2.294 -35.828  1.00  0.00     0.345 HD
ATOM     12  H   UNL     1      13.051  -2.141 -36.511  1.00  0.00     0.345 HD
ATOM     13  H   UNL     1      13.844  -3.650 -36.521  1.00  0.00     0.345 HD
ENDBRANCH   9  10
BRANCH   9  14
ATOM     14  C   UNL     1      12.261  -4.345 -34.698  1.00  0.00     0.099 C 
ATOM     15  O   UNL     1      11.013  -4.318 -34.527  1.00  0.00    -0.544 OA
ATOM     16  O   UNL     1      12.900  -5.567 -34.871  1.00  0.00    -0.544 OA
ENDBRANCH   9  14
ENDBRANCH   8   9
ENDBRANCH   1   8
TORSDOF 7
ENDMDL
MODEL 5
REMARK VINA RESULT:    -3.606      2.957      4.241
REMARK INTER + INTRA:          -5.390
REMARK INTER:                  -5.178
REMARK INTRA:                  -0.212
REMARK UNBOUND:                -0.519
REMARK SMILES [NH3+]CCCC[C@H]([NH3+])C(=O)[O-]
REMARK SMILES IDX 4 1 3 2 2 3 1 4 5 8 6 9 7 10 8 14 9 15 10 16
REMARK H PARENT 1 5 1 6 1 7 7 11 7 12 7 13
REMARK Flexibility Score: inf
ROOT
ATOM      1  C   UNL     1       9.227   6.637 -34.873  1.00  0.00     0.012 C 
ENDROOT
BRANCH   1   2
ATOM      2  C   UNL     1       8.777   5.190 -35.145  1.00  0.00     0.061 C 
BRANCH   2   3
ATOM      3  C   UNL     1       8.860   4.246 -33.930  1.00  0.00     0.258 C 
BRANCH   3   4
ATOM      4  N   UNL     1       9.529   2.984 -34.248  1.00  0.00    -0.358 N 
ATOM      5  H   UNL     1      10.564   3.121 -34.301  1.00  0.00     0.344 HD
ATOM      6  H   UNL     1       9.298   2.260 -33.529  1.00  0.00     0.344 HD
ATOM      7  H   UNL     1       9.188   2.643 -35.176  1.00  0.00     0.344 HD
ENDBRANCH   3   4
ENDBRANCH   2   3
ENDBRANCH   1   2
BRANCH   1   8
ATOM      8  C   UNL     1      10.655   6.922 -35.379  1.00  0.00     0.072 C 
BRANCH   8   9
ATOM      9  C   UNL     1      11.205   5.861 -36.360  1.00  0.00     0.227 C 
BRANCH   9  10
ATOM     10  N   UNL     1      12.238   5.014 -35.743  1.00  0.00    -0.350 N 
ATOM     11  H   UNL     1      11.975   4.007 -35.856  1.00  0.00     0.345 HD
ATOM     12  H   UNL     1      12.303   5.220 -34.720  1.00  0.00     0.345 HD
ATOM     13  H   UNL     1      13.173   5.164 -36.185  1.00  0.00     0.345 HD
ENDBRANCH   9  10
BRANCH   9  14
ATOM     14  C   UNL     1      11.696   6.489 -37.640  1.00  0.00     0.099 C 
ATOM     15  O   UNL     1      12.244   7.624 -37.635  1.00  0.00    -0.544 OA
ATOM     16  O   UNL     1      11.495   5.834 -38.849  1.00  0.00    -0.544 OA
ENDBRANCH   9  14
ENDBRANCH   8   9
ENDBRANCH   1   8
TORSDOF 7
ENDMDL
MODEL 6
REMARK VINA RESULT:    -3.565      2.181      3.520
REMARK INTER + INTRA:          -5.334
REMARK INTER:                  -4.818
REMARK INTRA:                  -0.516
REMARK UNBOUND:                -0.519
REMARK SMILES [NH3+]CCCC[C@H]([NH3+])C(=O)[O-]
REMARK SMILES IDX 4 1 3 2 2 3 1 4 5 8 6 9 7 10 8 14 9 15 10 16
REMARK H PARENT 1 5 1 6 1 7 7 11 7 12 7 13
REMARK Flexibility Score: inf
ROOT
ATOM      1  C   UNL     1       8.266   6.440 -35.631  1.00  0.00     0.012 C 
ENDROOT
BRANCH   1   2
ATOM      2  C   UNL     1       7.815   5.075 -35.081  1.00  0.00     0.061 C 
BRANCH   2   3
ATOM      3  C   UNL     1       8.624   4.562 -33.874  1.00  0.00     0.258 C 
BRANCH   3   4
ATOM      4  N   UNL     1       9.179   3.227 -34.101  1.00  0.00    -0.358 N 
ATOM      5  H   UNL     1       8.566   2.681 -34.749  1.00  0.00     0.344 HD
ATOM      6  H   UNL     1      10.145   3.298 -34.495  1.00  0.00     0.344 HD
ATOM      7  H   UNL     1       9.235   2.722 -33.188  1.00  0.00     0.344 HD
ENDBRANCH   3   4
ENDBRANCH   2   3
ENDBRANCH   1   2
BRANCH   1   8
ATOM      8  C   UNL     1       9.715   6.790 -35.242  1.00  0.00     0.072 C 
BRANCH   8   9
ATOM      9  C   UNL     1      10.749   6.565 -36.370  1.00  0.00     0.227 C 
BRANCH   9  10
ATOM     10  N   UNL     1      10.111   6.231 -37.652  1.00  0.00    -0.350 N 
ATOM     11  H   UNL     1       9.837   7.113 -38.144  1.00  0.00     0.345 HD
ATOM     12  H   UNL     1       9.244   5.670 -37.484  1.00  0.00     0.345 HD
ATOM     13  H   UNL     1      10.754   5.691 -38.273  1.00  0.00     0.345 HD
ENDBRANCH   9  10
BRANCH   9  14
ATOM     14  C   UNL     1      11.781   5.536 -35.980  1.00  0.00     0.099 C 
ATOM     15  O   UNL     1      11.460   4.331 -35.805  1.00  0.00    -0.544 OA
ATOM     16  O   UNL     1      13.095   5.930 -35.760  1.00  0.00    -0.544 OA
ENDBRANCH   9  14
ENDBRANCH   8   9
ENDBRANCH   1   8
TORSDOF 7
ENDMDL
MODEL 7
REMARK VINA RESULT:    -3.542      2.919      3.176
REMARK INTER + INTRA:          -5.303
REMARK INTER:                  -5.128
REMARK INTRA:                  -0.176
REMARK UNBOUND:                -0.519
REMARK SMILES [NH3+]CCCC[C@H]([NH3+])C(=O)[O-]
REMARK SMILES IDX 4 1 3 2 2 3 1 4 5 8 6 9 7 10 8 14 9 15 10 16
REMARK H PARENT 1 5 1 6 1 7 7 11 7 12 7 13
REMARK Flexibility Score: inf
ROOT
ATOM      1  C   UNL     1      10.105   5.749 -35.474  1.00  0.00     0.012 C 
ENDROOT
BRANCH   1   2
ATOM      2  C   UNL     1      10.999   6.977 -35.718  1.00  0.00     0.061 C 
BRANCH   2   3
ATOM      3  C   UNL     1      12.443   6.654 -36.147  1.00  0.00     0.258 C 
BRANCH   3   4
ATOM      4  N   UNL     1      12.971   5.463 -35.478  1.00  0.00    -0.358 N 
ATOM      5  H   UNL     1      13.924   5.654 -35.089  1.00  0.00     0.344 HD
ATOM      6  H   UNL     1      12.325   5.161 -34.714  1.00  0.00     0.344 HD
ATOM      7  H   UNL     1      13.042   4.686 -36.173  1.00  0.00     0.344 HD
ENDBRANCH   3   4
ENDBRANCH   2   3
ENDBRANCH   1   2
BRANCH   1   8
ATOM      8  C   UNL     1       9.105   5.502 -36.620  1.00  0.00     0.072 C 
BRANCH   8   9
ATOM      9  C   UNL     1       7.648   5.904 -36.291  1.00  0.00     0.227 C 
BRANCH   9  10
ATOM     10  N   UNL     1       6.693   4.824 -36.580  1.00  0.00    -0.350 N 
ATOM     11  H   UNL     1       7.217   3.939 -36.771  1.00  0.00     0.345 HD
ATOM     12  H   UNL     1       6.133   5.061 -37.431  1.00  0.00     0.345 HD
ATOM     13  H   UNL     1       6.045   4.658 -35.777  1.00  0.00     0.345 HD
ENDBRANCH   9  10
BRANCH   9  14
ATOM     14  C   UNL     1       7.257   7.188 -36.978  1.00  0.00     0.099 C 
ATOM     15  O   UNL     1       6.091   7.653 -36.866  1.00  0.00    -0.544 OA
ATOM     16  O   UNL     1       8.176   7.841 -37.790  1.00  0.00    -0.544 OA
ENDBRANCH   9  14
ENDBRANCH   8   9
ENDBRANCH   1   8
TORSDOF 7
ENDMDL
MODEL 8
REMARK VINA RESULT:    -3.457     14.776     15.749
REMARK INTER + INTRA:          -5.189
REMARK INTER:                  -4.765
REMARK INTRA:                  -0.423
REMARK UNBOUND:                -0.519
REMARK SMILES [NH3+]CCCC[C@H]([NH3+])C(=O)[O-]
REMARK SMILES IDX 4 1 3 2 2 3 1 4 5 8 6 9 7 10 8 14 9 15 10 16
REMARK H PARENT 1 5 1 6 1 7 7 11 7 12 7 13
REMARK Flexibility Score: inf
ROOT
ATOM      1  C   UNL     1      15.399  -8.298 -37.823  1.00  0.00     0.012 C 
ENDROOT
BRANCH   1   2
ATOM      2  C   UNL     1      15.201  -9.527 -38.728  1.00  0.00     0.061 C 
BRANCH   2   3
ATOM      3  C   UNL     1      15.896 -10.812 -38.238  1.00  0.00     0.258 C 
BRANCH   3   4
ATOM      4  N   UNL     1      15.021 -11.638 -37.404  1.00  0.00    -0.358 N 
ATOM      5  H   UNL     1      14.853 -12.566 -37.857  1.00  0.00     0.344 HD
ATOM      6  H   UNL     1      15.443 -11.771 -36.457  1.00  0.00     0.344 HD
ATOM      7  H   UNL     1      14.104 -11.151 -37.288  1.00  0.00     0.344 HD
ENDBRANCH   3   4
ENDBRANCH   2   3
ENDBRANCH   1   2
BRANCH   1   8
ATOM      8  C   UNL     1      16.482  -8.516 -36.749  1.00  0.00     0.072 C 
BRANCH   8   9
ATOM      9  C   UNL     1      16.006  -8.249 -35.302  1.00  0.00     0.227 C 
BRANCH   9  10
ATOM     10  N   UNL     1      16.781  -9.009 -34.311  1.00  0.00    -0.350 N 
ATOM     11  H   UNL     1      17.769  -9.106 -34.642  1.00  0.00     0.345 HD
ATOM     12  H   UNL     1      16.379  -9.969 -34.203  1.00  0.00     0.345 HD
ATOM     13  H   UNL     1      16.788  -8.533 -33.380  1.00  0.00     0.345 HD
ENDBRANCH   9  10
BRANCH   9  14
ATOM     14  C   UNL     1      14.525  -8.490 -35.151  1.00  0.00     0.099 C 
ATOM     15  O   UNL     1      13.731  -7.534 -34.944  1.00  0.00    -0.544 OA
ATOM     16  O   UNL     1      14.033  -9.789 -35.187  1.00  0.00    -0.544 OA
ENDBRANCH   9  14
ENDBRANCH   8   9
ENDBRANCH   1   8
TORSDOF 7
ENDMDL
MODEL 9
REMARK VINA RESULT:    -3.432      2.299      2.717
REMARK INTER + INTRA:          -5.155
REMARK INTER:                  -4.608
REMARK INTRA:                  -0.547
REMARK UNBOUND:                -0.519
REMARK SMILES [NH3+]CCCC[C@H]([NH3+])C(=O)[O-]
REMARK SMILES IDX 4 1 3 2 2 3 1 4 5 8 6 9 7 10 8 14 9 15 10 16
REMARK H PARENT 1 5 1 6 1 7 7 11 7 12 7 13
REMARK Flexibility Score: inf
ROOT
ATOM      1  C   UNL     1      11.338   7.628 -35.965  1.00  0.00     0.012 C 
ENDROOT
BRANCH   1   2
ATOM      2  C   UNL     1      11.779   7.319 -37.407  1.00  0.00     0.061 C 
BRANCH   2   3
ATOM      3  C   UNL     1      12.229   5.866 -37.650  1.00  0.00     0.258 C 
BRANCH   3   4
ATOM      4  N   UNL     1      11.963   4.999 -36.501  1.00  0.00    -0.358 N 
ATOM      5  H   UNL     1      11.035   4.528 -36.605  1.00  0.00     0.344 HD
ATOM      6  H   UNL     1      12.720   4.283 -36.404  1.00  0.00     0.344 HD
ATOM      7  H   UNL     1      11.950   5.580 -35.633  1.00  0.00     0.344 HD
ENDBRANCH   3   4
ENDBRANCH   2   3
ENDBRANCH   1   2
BRANCH   1   8
ATOM      8  C   UNL     1       9.875   8.105 -35.878  1.00  0.00     0.072 C 
BRANCH   8   9
ATOM      9  C   UNL     1       8.914   7.089 -35.218  1.00  0.00     0.227 C 
BRANCH   9  10
ATOM     10  N   UNL     1       9.584   6.270 -34.197  1.00  0.00    -0.350 N 
ATOM     11  H   UNL     1       9.722   6.840 -33.330  1.00  0.00     0.345 HD
ATOM     12  H   UNL     1      10.525   5.970 -34.541  1.00  0.00     0.345 HD
ATOM     13  H   UNL     1       9.022   5.424 -33.951  1.00  0.00     0.345 HD
ENDBRANCH   9  10
BRANCH   9  14
ATOM     14  C   UNL     1       8.219   6.232 -36.247  1.00  0.00     0.099 C 
ATOM     15  O   UNL     1       8.791   5.225 -36.743  1.00  0.00    -0.544 OA
ATOM     16  O   UNL     1       6.952   6.586 -36.694  1.00  0.00    -0.544 OA
ENDBRANCH   9  14
ENDBRANCH   8   9
ENDBRANCH   1   8
TORSDOF 7
ENDMDL
