MODEL 1
REMARK VINA RESULT:    -3.894      0.000      0.000
REMARK INTER + INTRA:          -9.645
REMARK INTER:                  -7.081
REMARK INTRA:                  -2.564
REMARK UNBOUND:                -2.564
REMARK SMILES CCCCCCCCCCCCCCCC(=O)[O-]
REMARK SMILES IDX 9 1 10 2 11 3 12 4 13 5 14 6 15 7 16 8 17 9 18 10 8 11 7 12
REMARK SMILES IDX 6 13 5 14 4 15 3 16 2 17 1 18
REMARK H PARENT
REMARK Flexibility Score: inf
ROOT
ATOM      1  C   UNL     1     107.937 100.159  90.240  1.00  0.00     0.000 C 
ENDROOT
BRANCH   1   2
ATOM      2  C   UNL     1     106.516  99.996  89.667  1.00  0.00     0.000 C 
BRANCH   2   3
ATOM      3  C   UNL     1     106.427  99.223  88.337  1.00  0.00     0.000 C 
BRANCH   3   4
ATOM      4  C   UNL     1     105.305  98.170  88.272  1.00  0.00     0.000 C 
BRANCH   4   5
ATOM      5  C   UNL     1     105.815  96.742  88.529  1.00  0.00     0.000 C 
BRANCH   5   6
ATOM      6  C   UNL     1     104.708  95.801  89.048  1.00  0.00     0.006 C 
BRANCH   6   7
ATOM      7  C   UNL     1     105.164  94.883  90.194  1.00  0.00     0.053 C 
BRANCH   7   8
ATOM      8  C   UNL     1     104.023  94.436  91.054  1.00  0.00     0.041 C 
ATOM      9  O   UNL     1     103.055  93.812  90.548  1.00  0.00    -0.550 OA
ATOM     10  O   UNL     1     104.037  94.695  92.419  1.00  0.00    -0.550 OA
ENDBRANCH   7   8
ENDBRANCH   6   7
ENDBRANCH   5   6
ENDBRANCH   4   5
ENDBRANCH   3   4
ENDBRANCH   2   3
ENDBRANCH   1   2
BRANCH   1  11
ATOM     11  C   UNL     1     108.183  99.465  91.592  1.00  0.00     0.000 C 
BRANCH  11  12
ATOM     12  C   UNL     1     108.008  97.939  91.521  1.00  0.00    -0.000 C 
BRANCH  12  13
ATOM     13  C   UNL     1     106.835  97.438  92.379  1.00  0.00    -0.000 C 
BRANCH  13  14
ATOM     14  C   UNL     1     106.181  98.555  93.206  1.00  0.00    -0.000 C 
BRANCH  14  15
ATOM     15  C   UNL     1     104.652  98.435  93.177  1.00  0.00    -0.000 C 
BRANCH  15  16
ATOM     16  C   UNL     1     104.146  98.199  91.746  1.00  0.00    -0.000 C 
BRANCH  16  17
ATOM     17  C   UNL     1     102.654  97.835  91.701  1.00  0.00    -0.003 C 
ATOM     18  C   UNL     1     102.046  98.006  90.309  1.00  0.00     0.004 C 
ENDBRANCH  16  17
ENDBRANCH  15  16
ENDBRANCH  14  15
ENDBRANCH  13  14
ENDBRANCH  12  13
ENDBRANCH  11  12
ENDBRANCH   1  11
TORSDOF 14
ENDMDL
MODEL 2
REMARK VINA RESULT:    -3.791      9.583     12.178
REMARK INTER + INTRA:          -9.458
REMARK INTER:                  -7.571
REMARK INTRA:                  -1.887
REMARK UNBOUND:                -2.564
REMARK SMILES CCCCCCCCCCCCCCCC(=O)[O-]
REMARK SMILES IDX 9 1 10 2 11 3 12 4 13 5 14 6 15 7 16 8 17 9 18 10 8 11 7 12
REMARK SMILES IDX 6 13 5 14 4 15 3 16 2 17 1 18
REMARK H PARENT
REMARK Flexibility Score: inf
ROOT
ATOM      1  C   UNL     1      96.039 105.246  89.470  1.00  0.00     0.000 C 
ENDROOT
BRANCH   1   2
ATOM      2  C   UNL     1      94.653 104.614  89.704  1.00  0.00     0.000 C 
BRANCH   2   3
ATOM      3  C   UNL     1      94.509 103.152  89.239  1.00  0.00     0.000 C 
BRANCH   3   4
ATOM      4  C   UNL     1      93.080 102.585  89.312  1.00  0.00     0.000 C 
BRANCH   4   5
ATOM      5  C   UNL     1      92.394 102.874  90.658  1.00  0.00     0.000 C 
BRANCH   5   6
ATOM      6  C   UNL     1      92.344 101.636  91.577  1.00  0.00     0.006 C 
BRANCH   6   7
ATOM      7  C   UNL     1      91.419 100.521  91.063  1.00  0.00     0.053 C 
BRANCH   7   8
ATOM      8  C   UNL     1      90.400 100.112  92.079  1.00  0.00     0.041 C 
ATOM      9  O   UNL     1      89.798 100.983  92.759  1.00  0.00    -0.550 OA
ATOM     10  O   UNL     1      90.101  98.768  92.264  1.00  0.00    -0.550 OA
ENDBRANCH   7   8
ENDBRANCH   6   7
ENDBRANCH   5   6
ENDBRANCH   4   5
ENDBRANCH   3   4
ENDBRANCH   2   3
ENDBRANCH   1   2
BRANCH   1  11
ATOM     11  C   UNL     1      97.039 104.366  88.698  1.00  0.00     0.000 C 
BRANCH  11  12
ATOM     12  C   UNL     1      98.497 104.601  89.126  1.00  0.00    -0.000 C 
BRANCH  12  13
ATOM     13  C   UNL     1      99.071 103.428  89.936  1.00  0.00    -0.000 C 
BRANCH  13  14
ATOM     14  C   UNL     1      98.230 102.147  89.810  1.00  0.00    -0.000 C 
BRANCH  14  15
ATOM     15  C   UNL     1      98.038 101.482  91.178  1.00  0.00    -0.000 C 
BRANCH  15  16
ATOM     16  C   UNL     1      96.583 101.613  91.654  1.00  0.00    -0.000 C 
BRANCH  16  17
ATOM     17  C   UNL     1      95.847 100.264  91.677  1.00  0.00    -0.003 C 
ATOM     18  C   UNL     1      95.420  99.799  90.284  1.00  0.00     0.004 C 
ENDBRANCH  16  17
ENDBRANCH  15  16
ENDBRANCH  14  15
ENDBRANCH  13  14
ENDBRANCH  12  13
ENDBRANCH  11  12
ENDBRANCH   1  11
TORSDOF 14
ENDMDL
MODEL 3
REMARK VINA RESULT:    -3.766     10.866     13.750
REMARK INTER + INTRA:          -9.413
REMARK INTER:                  -7.170
REMARK INTRA:                  -2.243
REMARK UNBOUND:                -2.564
REMARK SMILES CCCCCCCCCCCCCCCC(=O)[O-]
REMARK SMILES IDX 9 1 10 2 11 3 12 4 13 5 14 6 15 7 16 8 17 9 18 10 8 11 7 12
REMARK SMILES IDX 6 13 5 14 4 15 3 16 2 17 1 18
REMARK H PARENT
REMARK Flexibility Score: inf
ROOT
ATOM      1  C   UNL     1      93.477  99.067  89.286  1.00  0.00     0.000 C 
ENDROOT
BRANCH   1   2
ATOM      2  C   UNL     1      92.923  99.867  88.091  1.00  0.00     0.000 C 
BRANCH   2   3
ATOM      3  C   UNL     1      92.346 101.253  88.436  1.00  0.00     0.000 C 
BRANCH   3   4
ATOM      4  C   UNL     1      92.287 101.576  89.941  1.00  0.00     0.000 C 
BRANCH   4   5
ATOM      5  C   UNL     1      92.415 103.081  90.232  1.00  0.00     0.000 C 
BRANCH   5   6
ATOM      6  C   UNL     1      93.874 103.576  90.169  1.00  0.00     0.006 C 
BRANCH   6   7
ATOM      7  C   UNL     1      94.744 103.085  91.338  1.00  0.00     0.053 C 
BRANCH   7   8
ATOM      8  C   UNL     1      95.986 102.392  90.873  1.00  0.00     0.041 C 
ATOM      9  O   UNL     1      96.613 102.822  89.870  1.00  0.00    -0.550 OA
ATOM     10  O   UNL     1      96.462 101.282  91.558  1.00  0.00    -0.550 OA
ENDBRANCH   7   8
ENDBRANCH   6   7
ENDBRANCH   5   6
ENDBRANCH   4   5
ENDBRANCH   3   4
ENDBRANCH   2   3
ENDBRANCH   1   2
BRANCH   1  11
ATOM     11  C   UNL     1      92.621  97.864  89.724  1.00  0.00     0.000 C 
BRANCH  11  12
ATOM     12  C   UNL     1      91.261  97.808  89.009  1.00  0.00    -0.000 C 
BRANCH  12  13
ATOM     13  C   UNL     1      90.080  97.757  89.991  1.00  0.00    -0.000 C 
BRANCH  13  14
ATOM     14  C   UNL     1      89.866  99.083  90.738  1.00  0.00    -0.000 C 
BRANCH  14  15
ATOM     15  C   UNL     1      89.869  98.863  92.256  1.00  0.00    -0.000 C 
BRANCH  15  16
ATOM     16  C   UNL     1      90.936  99.734  92.936  1.00  0.00    -0.000 C 
BRANCH  16  17
ATOM     17  C   UNL     1      92.245  98.971  93.193  1.00  0.00    -0.003 C 
ATOM     18  C   UNL     1      93.487  99.812  92.900  1.00  0.00     0.004 C 
ENDBRANCH  16  17
ENDBRANCH  15  16
ENDBRANCH  14  15
ENDBRANCH  13  14
ENDBRANCH  12  13
ENDBRANCH  11  12
ENDBRANCH   1  11
TORSDOF 14
ENDMDL
MODEL 4
REMARK VINA RESULT:    -3.748      9.104     11.911
REMARK INTER + INTRA:          -9.379
REMARK INTER:                  -7.367
REMARK INTRA:                  -2.013
REMARK UNBOUND:                -2.564
REMARK SMILES CCCCCCCCCCCCCCCC(=O)[O-]
REMARK SMILES IDX 9 1 10 2 11 3 12 4 13 5 14 6 15 7 16 8 17 9 18 10 8 11 7 12
REMARK SMILES IDX 6 13 5 14 4 15 3 16 2 17 1 18
REMARK H PARENT
REMARK Flexibility Score: inf
ROOT
ATOM      1  C   UNL     1      94.640 103.718  89.794  1.00  0.00     0.000 C 
ENDROOT
BRANCH   1   2
ATOM      2  C   UNL     1      94.098 103.631  91.234  1.00  0.00     0.000 C 
BRANCH   2   3
ATOM      3  C   UNL     1      93.427 102.294  91.606  1.00  0.00     0.000 C 
BRANCH   3   4
ATOM      4  C   UNL     1      93.563 101.184  90.548  1.00  0.00     0.000 C 
BRANCH   4   5
ATOM      5  C   UNL     1      93.599  99.776  91.166  1.00  0.00     0.000 C 
BRANCH   5   6
ATOM      6  C   UNL     1      93.539  99.803  92.707  1.00  0.00     0.006 C 
BRANCH   6   7
ATOM      7  C   UNL     1      92.375  98.987  93.294  1.00  0.00     0.053 C 
BRANCH   7   8
ATOM      8  C   UNL     1      91.052  99.391  92.725  1.00  0.00     0.041 C 
ATOM      9  O   UNL     1      90.583 100.535  92.961  1.00  0.00    -0.550 OA
ATOM     10  O   UNL     1      90.342  98.510  91.919  1.00  0.00    -0.550 OA
ENDBRANCH   7   8
ENDBRANCH   6   7
ENDBRANCH   5   6
ENDBRANCH   4   5
ENDBRANCH   3   4
ENDBRANCH   2   3
ENDBRANCH   1   2
BRANCH   1  11
ATOM     11  C   UNL     1      95.640 104.861  89.537  1.00  0.00     0.000 C 
BRANCH  11  12
ATOM     12  C   UNL     1      97.009 104.359  89.051  1.00  0.00    -0.000 C 
BRANCH  12  13
ATOM     13  C   UNL     1      97.232 102.868  89.351  1.00  0.00    -0.000 C 
BRANCH  13  14
ATOM     14  C   UNL     1      98.614 102.580  89.958  1.00  0.00    -0.000 C 
BRANCH  14  15
ATOM     15  C   UNL     1      98.485 102.073  91.399  1.00  0.00    -0.000 C 
BRANCH  15  16
ATOM     16  C   UNL     1      97.106 101.438  91.638  1.00  0.00    -0.000 C 
BRANCH  16  17
ATOM     17  C   UNL     1      97.196  99.939  91.961  1.00  0.00    -0.003 C 
ATOM     18  C   UNL     1      98.632  99.415  91.947  1.00  0.00     0.004 C 
ENDBRANCH  16  17
ENDBRANCH  15  16
ENDBRANCH  14  15
ENDBRANCH  13  14
ENDBRANCH  12  13
ENDBRANCH  11  12
ENDBRANCH   1  11
TORSDOF 14
ENDMDL
MODEL 5
REMARK VINA RESULT:    -3.747      2.377      4.442
REMARK INTER + INTRA:          -9.377
REMARK INTER:                  -7.315
REMARK INTRA:                  -2.062
REMARK UNBOUND:                -2.564
REMARK SMILES CCCCCCCCCCCCCCCC(=O)[O-]
REMARK SMILES IDX 9 1 10 2 11 3 12 4 13 5 14 6 15 7 16 8 17 9 18 10 8 11 7 12
REMARK SMILES IDX 6 13 5 14 4 15 3 16 2 17 1 18
REMARK H PARENT
REMARK Flexibility Score: inf
ROOT
ATOM      1  C   UNL     1     105.197  97.437  89.709  1.00  0.00     0.000 C 
ENDROOT
BRANCH   1   2
ATOM      2  C   UNL     1     104.422  98.735  90.008  1.00  0.00     0.000 C 
BRANCH   2   3
ATOM      3  C   UNL     1     105.260 100.028  89.964  1.00  0.00     0.000 C 
BRANCH   3   4
ATOM      4  C   UNL     1     106.389 100.034  88.916  1.00  0.00     0.000 C 
BRANCH   4   5
ATOM      5  C   UNL     1     107.760 100.378  89.521  1.00  0.00     0.000 C 
BRANCH   5   6
ATOM      6  C   UNL     1     108.369  99.204  90.315  1.00  0.00     0.006 C 
BRANCH   6   7
ATOM      7  C   UNL     1     108.483  99.471  91.825  1.00  0.00     0.053 C 
BRANCH   7   8
ATOM      8  C   UNL     1     107.672  98.510  92.636  1.00  0.00     0.041 C 
ATOM      9  O   UNL     1     106.530  98.837  93.050  1.00  0.00    -0.550 OA
ATOM     10  O   UNL     1     108.172  97.246  92.921  1.00  0.00    -0.550 OA
ENDBRANCH   7   8
ENDBRANCH   6   7
ENDBRANCH   5   6
ENDBRANCH   4   5
ENDBRANCH   3   4
ENDBRANCH   2   3
ENDBRANCH   1   2
BRANCH   1  11
ATOM     11  C   UNL     1     105.286  96.442  90.881  1.00  0.00     0.000 C 
BRANCH  11  12
ATOM     12  C   UNL     1     105.669  95.022  90.431  1.00  0.00    -0.000 C 
BRANCH  12  13
ATOM     13  C   UNL     1     104.506  94.286  89.747  1.00  0.00    -0.000 C 
BRANCH  13  14
ATOM     14  C   UNL     1     103.199  94.354  90.552  1.00  0.00    -0.000 C 
BRANCH  14  15
ATOM     15  C   UNL     1     102.007  94.659  89.638  1.00  0.00    -0.000 C 
BRANCH  15  16
ATOM     16  C   UNL     1     101.276  95.932  90.091  1.00  0.00    -0.000 C 
BRANCH  16  17
ATOM     17  C   UNL     1     101.622  96.328  91.535  1.00  0.00    -0.003 C 
ATOM     18  C   UNL     1     101.436  97.822  91.800  1.00  0.00     0.004 C 
ENDBRANCH  16  17
ENDBRANCH  15  16
ENDBRANCH  14  15
ENDBRANCH  13  14
ENDBRANCH  12  13
ENDBRANCH  11  12
ENDBRANCH   1  11
TORSDOF 14
ENDMDL
MODEL 6
REMARK VINA RESULT:    -3.745      1.499      2.721
REMARK INTER + INTRA:          -9.375
REMARK INTER:                  -7.104
REMARK INTRA:                  -2.271
REMARK UNBOUND:                -2.564
REMARK SMILES CCCCCCCCCCCCCCCC(=O)[O-]
REMARK SMILES IDX 9 1 10 2 11 3 12 4 13 5 14 6 15 7 16 8 17 9 18 10 8 11 7 12
REMARK SMILES IDX 6 13 5 14 4 15 3 16 2 17 1 18
REMARK H PARENT
REMARK Flexibility Score: inf
ROOT
ATOM      1  C   UNL     1     105.807  99.863  89.080  1.00  0.00     0.000 C 
ENDROOT
BRANCH   1   2
ATOM      2  C   UNL     1     105.211  98.590  88.446  1.00  0.00     0.000 C 
BRANCH   2   3
ATOM      3  C   UNL     1     105.885  97.268  88.865  1.00  0.00     0.000 C 
BRANCH   3   4
ATOM      4  C   UNL     1     104.958  96.039  88.863  1.00  0.00     0.000 C 
BRANCH   4   5
ATOM      5  C   UNL     1     105.308  95.029  89.969  1.00  0.00     0.000 C 
BRANCH   5   6
ATOM      6  C   UNL     1     104.185  93.997  90.207  1.00  0.00     0.006 C 
BRANCH   6   7
ATOM      7  C   UNL     1     102.865  94.347  89.502  1.00  0.00     0.053 C 
BRANCH   7   8
ATOM      8  C   UNL     1     102.073  93.130  89.139  1.00  0.00     0.041 C 
ATOM      9  O   UNL     1     100.923  93.248  88.642  1.00  0.00    -0.550 OA
ATOM     10  O   UNL     1     102.611  91.865  89.335  1.00  0.00    -0.550 OA
ENDBRANCH   7   8
ENDBRANCH   6   7
ENDBRANCH   5   6
ENDBRANCH   4   5
ENDBRANCH   3   4
ENDBRANCH   2   3
ENDBRANCH   1   2
BRANCH   1  11
ATOM     11  C   UNL     1     107.319 100.057  88.862  1.00  0.00     0.000 C 
BRANCH  11  12
ATOM     12  C   UNL     1     108.098 100.203  90.179  1.00  0.00    -0.000 C 
BRANCH  12  13
ATOM     13  C   UNL     1     109.033  99.012  90.447  1.00  0.00    -0.000 C 
BRANCH  13  14
ATOM     14  C   UNL     1     108.498  98.065  91.532  1.00  0.00    -0.000 C 
BRANCH  14  15
ATOM     15  C   UNL     1     107.397  98.743  92.357  1.00  0.00    -0.000 C 
BRANCH  15  16
ATOM     16  C   UNL     1     106.164  97.835  92.482  1.00  0.00    -0.000 C 
BRANCH  16  17
ATOM     17  C   UNL     1     104.844  98.614  92.375  1.00  0.00    -0.003 C 
ATOM     18  C   UNL     1     103.667  97.729  91.963  1.00  0.00     0.004 C 
ENDBRANCH  16  17
ENDBRANCH  15  16
ENDBRANCH  14  15
ENDBRANCH  13  14
ENDBRANCH  12  13
ENDBRANCH  11  12
ENDBRANCH   1  11
TORSDOF 14
ENDMDL
MODEL 7
REMARK VINA RESULT:    -3.727      2.873      5.948
REMARK INTER + INTRA:          -9.342
REMARK INTER:                  -7.259
REMARK INTRA:                  -2.083
REMARK UNBOUND:                -2.564
REMARK SMILES CCCCCCCCCCCCCCCC(=O)[O-]
REMARK SMILES IDX 9 1 10 2 11 3 12 4 13 5 14 6 15 7 16 8 17 9 18 10 8 11 7 12
REMARK SMILES IDX 6 13 5 14 4 15 3 16 2 17 1 18
REMARK H PARENT
REMARK Flexibility Score: inf
ROOT
ATOM      1  C   UNL     1     103.153  94.164  89.768  1.00  0.00     0.000 C 
ENDROOT
BRANCH   1   2
ATOM      2  C   UNL     1     103.548  94.272  91.255  1.00  0.00     0.000 C 
BRANCH   2   3
ATOM      3  C   UNL     1     104.745  95.196  91.553  1.00  0.00     0.000 C 
BRANCH   3   4
ATOM      4  C   UNL     1     105.680  95.454  90.357  1.00  0.00     0.000 C 
BRANCH   4   5
ATOM      5  C   UNL     1     105.772  96.943  89.985  1.00  0.00     0.000 C 
BRANCH   5   6
ATOM      6  C   UNL     1     105.713  97.868  91.218  1.00  0.00     0.006 C 
BRANCH   6   7
ATOM      7  C   UNL     1     106.877  98.871  91.295  1.00  0.00     0.053 C 
BRANCH   7   8
ATOM      8  C   UNL     1     107.873  98.509  92.351  1.00  0.00     0.041 C 
ATOM      9  O   UNL     1     107.677  97.509  93.090  1.00  0.00    -0.550 OA
ATOM     10  O   UNL     1     109.027  99.265  92.507  1.00  0.00    -0.550 OA
ENDBRANCH   7   8
ENDBRANCH   6   7
ENDBRANCH   5   6
ENDBRANCH   4   5
ENDBRANCH   3   4
ENDBRANCH   2   3
ENDBRANCH   1   2
BRANCH   1  11
ATOM     11  C   UNL     1     102.370  92.895  89.389  1.00  0.00     0.000 C 
BRANCH  11  12
ATOM     12  C   UNL     1     100.864  93.151  89.216  1.00  0.00    -0.000 C 
BRANCH  12  13
ATOM     13  C   UNL     1     100.536  94.642  89.036  1.00  0.00    -0.000 C 
BRANCH  13  14
ATOM     14  C   UNL     1      99.397  95.118  89.952  1.00  0.00    -0.000 C 
BRANCH  14  15
ATOM     15  C   UNL     1      99.687  96.519  90.504  1.00  0.00    -0.000 C 
BRANCH  15  16
ATOM     16  C   UNL     1     100.648  96.450  91.701  1.00  0.00    -0.000 C 
BRANCH  16  17
ATOM     17  C   UNL     1     101.744  97.525  91.640  1.00  0.00    -0.003 C 
ATOM     18  C   UNL     1     102.151  97.874  90.209  1.00  0.00     0.004 C 
ENDBRANCH  16  17
ENDBRANCH  15  16
ENDBRANCH  14  15
ENDBRANCH  13  14
ENDBRANCH  12  13
ENDBRANCH  11  12
ENDBRANCH   1  11
TORSDOF 14
ENDMDL
MODEL 8
REMARK VINA RESULT:    -3.718      9.854     12.711
REMARK INTER + INTRA:          -9.325
REMARK INTER:                  -7.628
REMARK INTRA:                  -1.697
REMARK UNBOUND:                -2.564
REMARK SMILES CCCCCCCCCCCCCCCC(=O)[O-]
REMARK SMILES IDX 9 1 10 2 11 3 12 4 13 5 14 6 15 7 16 8 17 9 18 10 8 11 7 12
REMARK SMILES IDX 6 13 5 14 4 15 3 16 2 17 1 18
REMARK H PARENT
REMARK Flexibility Score: inf
ROOT
ATOM      1  C   UNL     1      94.660 103.010  89.005  1.00  0.00     0.000 C 
ENDROOT
BRANCH   1   2
ATOM      2  C   UNL     1      93.537 102.081  89.508  1.00  0.00     0.000 C 
BRANCH   2   3
ATOM      3  C   UNL     1      92.475 102.755  90.399  1.00  0.00     0.000 C 
BRANCH   3   4
ATOM      4  C   UNL     1      92.255 102.084  91.767  1.00  0.00     0.000 C 
BRANCH   4   5
ATOM      5  C   UNL     1      92.972 100.729  91.886  1.00  0.00     0.000 C 
BRANCH   5   6
ATOM      6  C   UNL     1      92.193  99.719  92.755  1.00  0.00     0.006 C 
BRANCH   6   7
ATOM      7  C   UNL     1      90.679  99.981  92.798  1.00  0.00     0.053 C 
BRANCH   7   8
ATOM      8  C   UNL     1      89.919  99.086  91.869  1.00  0.00     0.041 C 
ATOM      9  O   UNL     1      89.946  99.292  90.628  1.00  0.00    -0.550 OA
ATOM     10  O   UNL     1      89.195  98.013  92.373  1.00  0.00    -0.550 OA
ENDBRANCH   7   8
ENDBRANCH   6   7
ENDBRANCH   5   6
ENDBRANCH   4   5
ENDBRANCH   3   4
ENDBRANCH   2   3
ENDBRANCH   1   2
BRANCH   1  11
ATOM     11  C   UNL     1      94.896 104.272  89.854  1.00  0.00     0.000 C 
BRANCH  11  12
ATOM     12  C   UNL     1      96.100 105.099  89.373  1.00  0.00    -0.000 C 
BRANCH  12  13
ATOM     13  C   UNL     1      97.128 104.254  88.606  1.00  0.00    -0.000 C 
BRANCH  13  14
ATOM     14  C   UNL     1      98.580 104.609  88.964  1.00  0.00    -0.000 C 
BRANCH  14  15
ATOM     15  C   UNL     1      99.125 103.667  90.044  1.00  0.00    -0.000 C 
BRANCH  15  16
ATOM     16  C   UNL     1      98.409 102.309  90.002  1.00  0.00    -0.000 C 
BRANCH  16  17
ATOM     17  C   UNL     1      98.140 101.740  91.403  1.00  0.00    -0.003 C 
ATOM     18  C   UNL     1      96.680 101.334  91.607  1.00  0.00     0.004 C 
ENDBRANCH  16  17
ENDBRANCH  15  16
ENDBRANCH  14  15
ENDBRANCH  13  14
ENDBRANCH  12  13
ENDBRANCH  11  12
ENDBRANCH   1  11
TORSDOF 14
ENDMDL
MODEL 9
REMARK VINA RESULT:    -3.696      9.945     12.970
REMARK INTER + INTRA:          -9.284
REMARK INTER:                  -6.970
REMARK INTRA:                  -2.314
REMARK UNBOUND:                -2.564
REMARK SMILES CCCCCCCCCCCCCCCC(=O)[O-]
REMARK SMILES IDX 9 1 10 2 11 3 12 4 13 5 14 6 15 7 16 8 17 9 18 10 8 11 7 12
REMARK SMILES IDX 6 13 5 14 4 15 3 16 2 17 1 18
REMARK H PARENT
REMARK Flexibility Score: inf
ROOT
ATOM      1  C   UNL     1      93.347 102.597  91.700  1.00  0.00     0.000 C 
ENDROOT
BRANCH   1   2
ATOM      2  C   UNL     1      92.297 102.547  90.573  1.00  0.00     0.000 C 
BRANCH   2   3
ATOM      3  C   UNL     1      92.328 101.277  89.700  1.00  0.00     0.000 C 
BRANCH   3   4
ATOM      4  C   UNL     1      93.221 100.143  90.237  1.00  0.00     0.000 C 
BRANCH   4   5
ATOM      5  C   UNL     1      92.411  98.990  90.854  1.00  0.00     0.000 C 
BRANCH   5   6
ATOM      6  C   UNL     1      92.454  98.994  92.396  1.00  0.00     0.006 C 
BRANCH   6   7
ATOM      7  C   UNL     1      91.270  99.730  93.046  1.00  0.00     0.053 C 
BRANCH   7   8
ATOM      8  C   UNL     1      89.973  99.442  92.357  1.00  0.00     0.041 C 
ATOM      9  O   UNL     1      89.475  98.288  92.402  1.00  0.00    -0.550 OA
ATOM     10  O   UNL     1      89.306 100.454  91.679  1.00  0.00    -0.550 OA
ENDBRANCH   7   8
ENDBRANCH   6   7
ENDBRANCH   5   6
ENDBRANCH   4   5
ENDBRANCH   3   4
ENDBRANCH   2   3
ENDBRANCH   1   2
BRANCH   1  11
ATOM     11  C   UNL     1      94.471 103.631  91.503  1.00  0.00     0.000 C 
BRANCH  11  12
ATOM     12  C   UNL     1      94.470 104.254  90.098  1.00  0.00    -0.000 C 
BRANCH  12  13
ATOM     13  C   UNL     1      95.727 103.893  89.290  1.00  0.00    -0.000 C 
BRANCH  13  14
ATOM     14  C   UNL     1      95.715 102.443  88.783  1.00  0.00    -0.000 C 
BRANCH  14  15
ATOM     15  C   UNL     1      97.079 101.776  88.999  1.00  0.00    -0.000 C 
BRANCH  15  16
ATOM     16  C   UNL     1      96.963 100.583  89.961  1.00  0.00    -0.000 C 
BRANCH  16  17
ATOM     17  C   UNL     1      96.867 101.019  91.431  1.00  0.00    -0.003 C 
ATOM     18  C   UNL     1      98.186 101.571  91.972  1.00  0.00     0.004 C 
ENDBRANCH  16  17
ENDBRANCH  15  16
ENDBRANCH  14  15
ENDBRANCH  13  14
ENDBRANCH  12  13
ENDBRANCH  11  12
ENDBRANCH   1  11
TORSDOF 14
ENDMDL
