MODEL 1
REMARK VINA RESULT:    -4.914      0.000      0.000
REMARK INTER + INTRA:          -6.176
REMARK INTER:                  -5.919
REMARK INTRA:                  -0.257
REMARK UNBOUND:                -0.257
REMARK SMILES [NH3+][C@H](Cc1c[nH]c2ccccc12)C(=O)[O-]
REMARK SMILES IDX 3 1 2 2 1 3 13 7 14 8 15 9 4 10 12 11 5 12 7 13 11 14 6 15
REMARK SMILES IDX 8 16 10 17 9 19
REMARK H PARENT 1 4 1 5 1 6 6 18
REMARK Flexibility Score: inf
ROOT
ATOM      1  C   UNL     1      -0.251 -30.951 -12.124  1.00  0.00     0.109 C 
ENDROOT
BRANCH   1   2
ATOM      2  C   UNL     1      -0.799 -29.905 -11.132  1.00  0.00     0.232 C 
BRANCH   2   3
ATOM      3  N   UNL     1      -2.121 -30.308 -10.637  1.00  0.00    -0.350 N 
ATOM      4  H   UNL     1      -2.401 -31.218 -11.070  1.00  0.00     0.345 HD
ATOM      5  H   UNL     1      -2.840 -29.581 -10.864  1.00  0.00     0.345 HD
ATOM      6  H   UNL     1      -2.084 -30.438  -9.599  1.00  0.00     0.345 HD
ENDBRANCH   2   3
BRANCH   2   7
ATOM      7  C   UNL     1       0.151 -29.702  -9.979  1.00  0.00     0.099 C 
ATOM      8  O   UNL     1       1.278 -29.172 -10.165  1.00  0.00    -0.544 OA
ATOM      9  O   UNL     1      -0.226 -30.081  -8.697  1.00  0.00    -0.544 OA
ENDBRANCH   2   7
ENDBRANCH   1   2
BRANCH   1  10
ATOM     10  C   UNL     1      -0.087 -30.376 -13.502  1.00  0.00    -0.016 A 
ATOM     11  C   UNL     1      -0.172 -31.044 -14.708  1.00  0.00     0.003 A 
ATOM     12  C   UNL     1       0.093 -29.035 -13.826  1.00  0.00     0.087 A 
ATOM     13  C   UNL     1      -0.030 -30.102 -15.694  1.00  0.00     0.046 A 
ATOM     14  C   UNL     1      -0.375 -32.392 -15.003  1.00  0.00     0.010 A 
ATOM     15  N   UNL     1       0.133 -28.875 -15.168  1.00  0.00    -0.361 N 
ATOM     16  C   UNL     1      -0.076 -30.444 -17.045  1.00  0.00     0.026 A 
ATOM     17  C   UNL     1      -0.425 -32.767 -16.358  1.00  0.00     0.001 A 
ATOM     18  H   UNL     1       0.254 -27.977 -15.688  1.00  0.00     0.166 HD
ATOM     19  C   UNL     1      -0.276 -31.797 -17.373  1.00  0.00     0.002 A 
ENDBRANCH   1  10
TORSDOF 4
ENDMDL
MODEL 2
REMARK VINA RESULT:    -4.824      1.473      2.380
REMARK INTER + INTRA:          -6.068
REMARK INTER:                  -6.085
REMARK INTRA:                   0.017
REMARK UNBOUND:                -0.257
REMARK SMILES [NH3+][C@H](Cc1c[nH]c2ccccc12)C(=O)[O-]
REMARK SMILES IDX 3 1 2 2 1 3 13 7 14 8 15 9 4 10 12 11 5 12 7 13 11 14 6 15
REMARK SMILES IDX 8 16 10 17 9 19
REMARK H PARENT 1 4 1 5 1 6 6 18
REMARK Flexibility Score: inf
ROOT
ATOM      1  C   UNL     1       0.689 -30.023 -11.215  1.00  0.00     0.109 C 
ENDROOT
BRANCH   1   2
ATOM      2  C   UNL     1      -0.537 -29.477 -10.456  1.00  0.00     0.232 C 
BRANCH   2   3
ATOM      3  N   UNL     1      -1.777 -30.028 -11.017  1.00  0.00    -0.350 N 
ATOM      4  H   UNL     1      -1.567 -30.901 -11.554  1.00  0.00     0.345 HD
ATOM      5  H   UNL     1      -2.237 -29.334 -11.652  1.00  0.00     0.345 HD
ATOM      6  H   UNL     1      -2.437 -30.272 -10.242  1.00  0.00     0.345 HD
ENDBRANCH   2   3
BRANCH   2   7
ATOM      7  C   UNL     1      -0.446 -29.789  -8.984  1.00  0.00     0.099 C 
ATOM      8  O   UNL     1      -1.313 -29.352  -8.183  1.00  0.00    -0.544 OA
ATOM      9  O   UNL     1       0.589 -30.584  -8.508  1.00  0.00    -0.544 OA
ENDBRANCH   2   7
ENDBRANCH   1   2
BRANCH   1  10
ATOM     10  C   UNL     1       0.285 -30.818 -12.424  1.00  0.00    -0.016 A 
ATOM     11  C   UNL     1       0.003 -30.340 -13.689  1.00  0.00     0.003 A 
ATOM     12  C   UNL     1       0.206 -32.204 -12.519  1.00  0.00     0.087 A 
ATOM     13  C   UNL     1      -0.243 -31.432 -14.480  1.00  0.00     0.046 A 
ATOM     14  C   UNL     1      -0.041 -29.040 -14.195  1.00  0.00     0.010 A 
ATOM     15  N   UNL     1      -0.123 -32.573 -13.777  1.00  0.00    -0.361 N 
ATOM     16  C   UNL     1      -0.555 -31.301 -15.833  1.00  0.00     0.026 A 
ATOM     17  C   UNL     1      -0.355 -28.878 -15.557  1.00  0.00     0.001 A 
ATOM     18  H   UNL     1      -0.245 -33.547 -14.132  1.00  0.00     0.166 HD
ATOM     19  C   UNL     1      -0.611 -30.003 -16.371  1.00  0.00     0.002 A 
ENDBRANCH   1  10
TORSDOF 4
ENDMDL
MODEL 3
REMARK VINA RESULT:    -4.731      4.056      5.066
REMARK INTER + INTRA:          -5.956
REMARK INTER:                  -5.719
REMARK INTRA:                  -0.236
REMARK UNBOUND:                -0.257
REMARK SMILES [NH3+][C@H](Cc1c[nH]c2ccccc12)C(=O)[O-]
REMARK SMILES IDX 3 1 2 2 1 3 13 7 14 8 15 9 4 10 12 11 5 12 7 13 11 14 6 15
REMARK SMILES IDX 8 16 10 17 9 19
REMARK H PARENT 1 4 1 5 1 6 6 18
REMARK Flexibility Score: inf
ROOT
ATOM      1  C   UNL     1      -0.302 -34.037 -13.304  1.00  0.00     0.109 C 
ENDROOT
BRANCH   1   2
ATOM      2  C   UNL     1       0.516 -35.305 -13.623  1.00  0.00     0.232 C 
BRANCH   2   3
ATOM      3  N   UNL     1       1.716 -35.368 -12.779  1.00  0.00    -0.350 N 
ATOM      4  H   UNL     1       2.329 -36.156 -13.092  1.00  0.00     0.345 HD
ATOM      5  H   UNL     1       1.455 -35.511 -11.775  1.00  0.00     0.345 HD
ATOM      6  H   UNL     1       2.257 -34.477 -12.868  1.00  0.00     0.345 HD
ENDBRANCH   2   3
BRANCH   2   7
ATOM      7  C   UNL     1      -0.318 -36.548 -13.439  1.00  0.00     0.099 C 
ATOM      8  O   UNL     1      -0.776 -37.163 -14.437  1.00  0.00    -0.544 OA
ATOM      9  O   UNL     1      -0.564 -37.033 -12.161  1.00  0.00    -0.544 OA
ENDBRANCH   2   7
ENDBRANCH   1   2
BRANCH   1  10
ATOM     10  C   UNL     1      -0.424 -33.140 -14.503  1.00  0.00    -0.016 A 
ATOM     11  C   UNL     1      -0.337 -31.762 -14.534  1.00  0.00     0.003 A 
ATOM     12  C   UNL     1      -0.557 -33.540 -15.829  1.00  0.00     0.087 A 
ATOM     13  C   UNL     1      -0.433 -31.388 -15.850  1.00  0.00     0.046 A 
ATOM     14  C   UNL     1      -0.170 -30.825 -13.514  1.00  0.00     0.010 A 
ATOM     15  N   UNL     1      -0.568 -32.463 -16.647  1.00  0.00    -0.361 N 
ATOM     16  C   UNL     1      -0.372 -30.050 -16.237  1.00  0.00     0.026 A 
ATOM     17  C   UNL     1      -0.107 -29.467 -13.875  1.00  0.00     0.001 A 
ATOM     18  H   UNL     1      -0.651 -32.469 -17.688  1.00  0.00     0.166 HD
ATOM     19  C   UNL     1      -0.208 -29.082 -15.230  1.00  0.00     0.002 A 
ENDBRANCH   1  10
TORSDOF 4
ENDMDL
MODEL 4
REMARK VINA RESULT:    -4.528     12.340     12.863
REMARK INTER + INTRA:          -5.711
REMARK INTER:                  -5.380
REMARK INTRA:                  -0.331
REMARK UNBOUND:                -0.257
REMARK SMILES [NH3+][C@H](Cc1c[nH]c2ccccc12)C(=O)[O-]
REMARK SMILES IDX 3 1 2 2 1 3 13 7 14 8 15 9 4 10 12 11 5 12 7 13 11 14 6 15
REMARK SMILES IDX 8 16 10 17 9 19
REMARK H PARENT 1 4 1 5 1 6 6 18
REMARK Flexibility Score: inf
ROOT
ATOM      1  C   UNL     1      13.077 -29.907 -13.948  1.00  0.00     0.109 C 
ENDROOT
BRANCH   1   2
ATOM      2  C   UNL     1      13.119 -31.382 -13.500  1.00  0.00     0.232 C 
BRANCH   2   3
ATOM      3  N   UNL     1      13.958 -31.533 -12.304  1.00  0.00    -0.350 N 
ATOM      4  H   UNL     1      13.362 -31.497 -11.446  1.00  0.00     0.345 HD
ATOM      5  H   UNL     1      14.677 -30.774 -12.258  1.00  0.00     0.345 HD
ATOM      6  H   UNL     1      14.442 -32.461 -12.328  1.00  0.00     0.345 HD
ENDBRANCH   2   3
BRANCH   2   7
ATOM      7  C   UNL     1      11.731 -31.907 -13.234  1.00  0.00     0.099 C 
ATOM      8  O   UNL     1      10.832 -31.144 -12.794  1.00  0.00    -0.544 OA
ATOM      9  O   UNL     1      11.433 -33.239 -13.496  1.00  0.00    -0.544 OA
ENDBRANCH   2   7
ENDBRANCH   1   2
BRANCH   1  10
ATOM     10  C   UNL     1      13.139 -29.780 -15.443  1.00  0.00    -0.016 A 
ATOM     11  C   UNL     1      12.079 -29.708 -16.326  1.00  0.00     0.003 A 
ATOM     12  C   UNL     1      14.285 -29.616 -16.216  1.00  0.00     0.087 A 
ATOM     13  C   UNL     1      12.615 -29.522 -17.575  1.00  0.00     0.046 A 
ATOM     14  C   UNL     1      10.701 -29.780 -16.120  1.00  0.00     0.010 A 
ATOM     15  N   UNL     1      13.957 -29.465 -17.519  1.00  0.00    -0.361 N 
ATOM     16  C   UNL     1      11.809 -29.399 -18.706  1.00  0.00     0.026 A 
ATOM     17  C   UNL     1       9.863 -29.660 -17.244  1.00  0.00     0.001 A 
ATOM     18  H   UNL     1      14.616 -29.321 -18.316  1.00  0.00     0.166 HD
ATOM     19  C   UNL     1      10.415 -29.471 -18.530  1.00  0.00     0.002 A 
ENDBRANCH   1  10
TORSDOF 4
ENDMDL
MODEL 5
REMARK VINA RESULT:    -4.510     18.187     19.791
REMARK INTER + INTRA:          -5.690
REMARK INTER:                  -5.388
REMARK INTRA:                  -0.302
REMARK UNBOUND:                -0.257
REMARK SMILES [NH3+][C@H](Cc1c[nH]c2ccccc12)C(=O)[O-]
REMARK SMILES IDX 3 1 2 2 1 3 13 7 14 8 15 9 4 10 12 11 5 12 7 13 11 14 6 15
REMARK SMILES IDX 8 16 10 17 9 19
REMARK H PARENT 1 4 1 5 1 6 6 18
REMARK Flexibility Score: inf
ROOT
ATOM      1  C   UNL     1       8.415 -46.983 -18.900  1.00  0.00     0.109 C 
ENDROOT
BRANCH   1   2
ATOM      2  C   UNL     1       8.137 -45.650 -18.177  1.00  0.00     0.232 C 
BRANCH   2   3
ATOM      3  N   UNL     1       8.351 -45.793 -16.732  1.00  0.00    -0.350 N 
ATOM      4  H   UNL     1       7.470 -46.119 -16.272  1.00  0.00     0.345 HD
ATOM      5  H   UNL     1       8.646 -44.882 -16.309  1.00  0.00     0.345 HD
ATOM      6  H   UNL     1       9.096 -46.507 -16.555  1.00  0.00     0.345 HD
ENDBRANCH   2   3
BRANCH   2   7
ATOM      7  C   UNL     1       9.004 -44.545 -18.726  1.00  0.00     0.099 C 
ATOM      8  O   UNL     1      10.249 -44.557 -18.541  1.00  0.00    -0.544 OA
ATOM      9  O   UNL     1       8.430 -43.516 -19.462  1.00  0.00    -0.544 OA
ENDBRANCH   2   7
ENDBRANCH   1   2
BRANCH   1  10
ATOM     10  C   UNL     1       8.072 -46.903 -20.361  1.00  0.00    -0.016 A 
ATOM     11  C   UNL     1       8.848 -47.305 -21.430  1.00  0.00     0.003 A 
ATOM     12  C   UNL     1       6.860 -46.491 -20.908  1.00  0.00     0.087 A 
ATOM     13  C   UNL     1       8.097 -47.111 -22.561  1.00  0.00     0.046 A 
ATOM     14  C   UNL     1      10.139 -47.832 -21.487  1.00  0.00     0.010 A 
ATOM     15  N   UNL     1       6.885 -46.615 -22.254  1.00  0.00    -0.361 N 
ATOM     16  C   UNL     1       8.586 -47.426 -23.828  1.00  0.00     0.026 A 
ATOM     17  C   UNL     1      10.659 -48.158 -22.752  1.00  0.00     0.001 A 
ATOM     18  H   UNL     1       6.112 -46.384 -22.918  1.00  0.00     0.166 HD
ATOM     19  C   UNL     1       9.886 -47.956 -23.917  1.00  0.00     0.002 A 
ENDBRANCH   1  10
TORSDOF 4
ENDMDL
MODEL 6
REMARK VINA RESULT:    -4.505      3.194      3.653
REMARK INTER + INTRA:          -5.683
REMARK INTER:                  -5.420
REMARK INTRA:                  -0.263
REMARK UNBOUND:                -0.257
REMARK SMILES [NH3+][C@H](Cc1c[nH]c2ccccc12)C(=O)[O-]
REMARK SMILES IDX 3 1 2 2 1 3 13 7 14 8 15 9 4 10 12 11 5 12 7 13 11 14 6 15
REMARK SMILES IDX 8 16 10 17 9 19
REMARK H PARENT 1 4 1 5 1 6 6 18
REMARK Flexibility Score: inf
ROOT
ATOM      1  C   UNL     1      -0.057 -32.460 -12.060  1.00  0.00     0.109 C 
ENDROOT
BRANCH   1   2
ATOM      2  C   UNL     1       1.242 -33.236 -12.359  1.00  0.00     0.232 C 
BRANCH   2   3
ATOM      3  N   UNL     1       2.111 -33.261 -11.176  1.00  0.00    -0.350 N 
ATOM      4  H   UNL     1       2.927 -32.624 -11.321  1.00  0.00     0.345 HD
ATOM      5  H   UNL     1       2.459 -34.232 -10.992  1.00  0.00     0.345 HD
ATOM      6  H   UNL     1       1.578 -32.926 -10.340  1.00  0.00     0.345 HD
ENDBRANCH   2   3
BRANCH   2   7
ATOM      7  C   UNL     1       0.940 -34.642 -12.814  1.00  0.00     0.099 C 
ATOM      8  O   UNL     1      -0.048 -34.874 -13.560  1.00  0.00    -0.544 OA
ATOM      9  O   UNL     1       1.769 -35.688 -12.428  1.00  0.00    -0.544 OA
ENDBRANCH   2   7
ENDBRANCH   1   2
BRANCH   1  10
ATOM     10  C   UNL     1      -0.066 -31.116 -12.729  1.00  0.00    -0.016 A 
ATOM     11  C   UNL     1      -0.173 -30.849 -14.080  1.00  0.00     0.003 A 
ATOM     12  C   UNL     1      -0.059 -29.875 -12.100  1.00  0.00     0.087 A 
ATOM     13  C   UNL     1      -0.213 -29.485 -14.214  1.00  0.00     0.046 A 
ATOM     14  C   UNL     1      -0.252 -31.699 -15.185  1.00  0.00     0.010 A 
ATOM     15  N   UNL     1      -0.143 -28.882 -13.014  1.00  0.00    -0.361 N 
ATOM     16  C   UNL     1      -0.329 -28.875 -15.462  1.00  0.00     0.026 A 
ATOM     17  C   UNL     1      -0.368 -31.111 -16.457  1.00  0.00     0.001 A 
ATOM     18  H   UNL     1      -0.163 -27.855 -12.823  1.00  0.00     0.166 HD
ATOM     19  C   UNL     1      -0.406 -29.706 -16.595  1.00  0.00     0.002 A 
ENDBRANCH   1  10
TORSDOF 4
ENDMDL
MODEL 7
REMARK VINA RESULT:    -4.499      7.712      9.482
REMARK INTER + INTRA:          -5.677
REMARK INTER:                  -5.461
REMARK INTRA:                  -0.215
REMARK UNBOUND:                -0.257
REMARK SMILES [NH3+][C@H](Cc1c[nH]c2ccccc12)C(=O)[O-]
REMARK SMILES IDX 3 1 2 2 1 3 13 7 14 8 15 9 4 10 12 11 5 12 7 13 11 14 6 15
REMARK SMILES IDX 8 16 10 17 9 19
REMARK H PARENT 1 4 1 5 1 6 6 18
REMARK Flexibility Score: inf
ROOT
ATOM      1  C   UNL     1       2.071 -38.031 -15.781  1.00  0.00     0.109 C 
ENDROOT
BRANCH   1   2
ATOM      2  C   UNL     1       2.265 -39.444 -16.368  1.00  0.00     0.232 C 
BRANCH   2   3
ATOM      3  N   UNL     1       1.366 -39.655 -17.508  1.00  0.00    -0.350 N 
ATOM      4  H   UNL     1       1.826 -40.274 -18.215  1.00  0.00     0.345 HD
ATOM      5  H   UNL     1       1.117 -38.743 -17.958  1.00  0.00     0.345 HD
ATOM      6  H   UNL     1       0.489 -40.126 -17.184  1.00  0.00     0.345 HD
ENDBRANCH   2   3
BRANCH   2   7
ATOM      7  C   UNL     1       3.698 -39.665 -16.785  1.00  0.00     0.099 C 
ATOM      8  O   UNL     1       4.136 -40.829 -16.976  1.00  0.00    -0.544 OA
ATOM      9  O   UNL     1       4.536 -38.575 -16.983  1.00  0.00    -0.544 OA
ENDBRANCH   2   7
ENDBRANCH   1   2
BRANCH   1  10
ATOM     10  C   UNL     1       1.207 -38.056 -14.552  1.00  0.00    -0.016 A 
ATOM     11  C   UNL     1       0.377 -37.054 -14.087  1.00  0.00     0.003 A 
ATOM     12  C   UNL     1       1.012 -39.135 -13.696  1.00  0.00     0.087 A 
ATOM     13  C   UNL     1      -0.265 -37.552 -12.983  1.00  0.00     0.046 A 
ATOM     14  C   UNL     1       0.136 -35.764 -14.559  1.00  0.00     0.010 A 
ATOM     15  N   UNL     1       0.114 -38.818 -12.735  1.00  0.00    -0.361 N 
ATOM     16  C   UNL     1      -1.191 -36.792 -12.270  1.00  0.00     0.026 A 
ATOM     17  C   UNL     1      -0.793 -34.973 -13.859  1.00  0.00     0.001 A 
ATOM     18  H   UNL     1      -0.223 -39.438 -11.965  1.00  0.00     0.166 HD
ATOM     19  C   UNL     1      -1.453 -35.485 -12.720  1.00  0.00     0.002 A 
ENDBRANCH   1  10
TORSDOF 4
ENDMDL
MODEL 8
REMARK VINA RESULT:    -4.450      2.832      5.915
REMARK INTER + INTRA:          -5.617
REMARK INTER:                  -5.398
REMARK INTRA:                  -0.220
REMARK UNBOUND:                -0.257
REMARK SMILES [NH3+][C@H](Cc1c[nH]c2ccccc12)C(=O)[O-]
REMARK SMILES IDX 3 1 2 2 1 3 13 7 14 8 15 9 4 10 12 11 5 12 7 13 11 14 6 15
REMARK SMILES IDX 8 16 10 17 9 19
REMARK H PARENT 1 4 1 5 1 6 6 18
REMARK Flexibility Score: inf
ROOT
ATOM      1  C   UNL     1       0.123 -30.925 -13.008  1.00  0.00     0.109 C 
ENDROOT
BRANCH   1   2
ATOM      2  C   UNL     1      -0.258 -30.026 -14.201  1.00  0.00     0.232 C 
BRANCH   2   3
ATOM      3  N   UNL     1       0.676 -28.900 -14.317  1.00  0.00    -0.350 N 
ATOM      4  H   UNL     1       0.455 -28.179 -13.592  1.00  0.00     0.345 HD
ATOM      5  H   UNL     1       0.616 -28.464 -15.267  1.00  0.00     0.345 HD
ATOM      6  H   UNL     1       1.655 -29.235 -14.157  1.00  0.00     0.345 HD
ENDBRANCH   2   3
BRANCH   2   7
ATOM      7  C   UNL     1      -0.285 -30.816 -15.486  1.00  0.00     0.099 C 
ATOM      8  O   UNL     1      -0.669 -32.015 -15.492  1.00  0.00    -0.544 OA
ATOM      9  O   UNL     1       0.096 -30.212 -16.678  1.00  0.00    -0.544 OA
ENDBRANCH   2   7
ENDBRANCH   1   2
BRANCH   1  10
ATOM     10  C   UNL     1      -0.003 -30.194 -11.701  1.00  0.00    -0.016 A 
ATOM     11  C   UNL     1       0.963 -30.041 -10.726  1.00  0.00     0.003 A 
ATOM     12  C   UNL     1      -1.097 -29.451 -11.268  1.00  0.00     0.087 A 
ATOM     13  C   UNL     1       0.422 -29.240  -9.753  1.00  0.00     0.046 A 
ATOM     14  C   UNL     1       2.265 -30.533 -10.632  1.00  0.00     0.010 A 
ATOM     15  N   UNL     1      -0.833 -28.875 -10.073  1.00  0.00    -0.361 N 
ATOM     16  C   UNL     1       1.144 -28.878  -8.617  1.00  0.00     0.026 A 
ATOM     17  C   UNL     1       3.017 -30.185  -9.496  1.00  0.00     0.001 A 
ATOM     18  H   UNL     1      -1.471 -28.261  -9.520  1.00  0.00     0.166 HD
ATOM     19  C   UNL     1       2.459 -29.362  -8.493  1.00  0.00     0.002 A 
ENDBRANCH   1  10
TORSDOF 4
ENDMDL
MODEL 9
REMARK VINA RESULT:    -4.381     17.317     18.542
REMARK INTER + INTRA:          -5.534
REMARK INTER:                  -5.319
REMARK INTRA:                  -0.215
REMARK UNBOUND:                -0.257
REMARK SMILES [NH3+][C@H](Cc1c[nH]c2ccccc12)C(=O)[O-]
REMARK SMILES IDX 3 1 2 2 1 3 13 7 14 8 15 9 4 10 12 11 5 12 7 13 11 14 6 15
REMARK SMILES IDX 8 16 10 17 9 19
REMARK H PARENT 1 4 1 5 1 6 6 18
REMARK Flexibility Score: inf
ROOT
ATOM      1  C   UNL     1       8.603 -45.756 -19.793  1.00  0.00     0.109 C 
ENDROOT
BRANCH   1   2
ATOM      2  C   UNL     1       7.967 -46.425 -18.557  1.00  0.00     0.232 C 
BRANCH   2   3
ATOM      3  N   UNL     1       8.747 -47.600 -18.149  1.00  0.00    -0.350 N 
ATOM      4  H   UNL     1       8.113 -48.423 -18.028  1.00  0.00     0.345 HD
ATOM      5  H   UNL     1       9.250 -47.416 -17.249  1.00  0.00     0.345 HD
ATOM      6  H   UNL     1       9.448 -47.833 -18.890  1.00  0.00     0.345 HD
ENDBRANCH   2   3
BRANCH   2   7
ATOM      7  C   UNL     1       7.853 -45.450 -17.412  1.00  0.00     0.099 C 
ATOM      8  O   UNL     1       6.895 -45.527 -16.600  1.00  0.00    -0.544 OA
ATOM      9  O   UNL     1       8.825 -44.473 -17.237  1.00  0.00    -0.544 OA
ENDBRANCH   2   7
ENDBRANCH   1   2
BRANCH   1  10
ATOM     10  C   UNL     1       7.566 -45.360 -20.805  1.00  0.00    -0.016 A 
ATOM     11  C   UNL     1       6.754 -46.195 -21.548  1.00  0.00     0.003 A 
ATOM     12  C   UNL     1       7.164 -44.066 -21.118  1.00  0.00     0.087 A 
ATOM     13  C   UNL     1       5.918 -45.389 -22.277  1.00  0.00     0.046 A 
ATOM     14  C   UNL     1       6.684 -47.586 -21.622  1.00  0.00     0.010 A 
ATOM     15  N   UNL     1       6.159 -44.090 -22.023  1.00  0.00    -0.361 N 
ATOM     16  C   UNL     1       4.956 -45.918 -23.136  1.00  0.00     0.026 A 
ATOM     17  C   UNL     1       5.723 -48.149 -22.482  1.00  0.00     0.001 A 
ATOM     18  H   UNL     1       5.665 -43.266 -22.431  1.00  0.00     0.166 HD
ATOM     19  C   UNL     1       4.864 -47.319 -23.236  1.00  0.00     0.002 A 
ENDBRANCH   1  10
TORSDOF 4
ENDMDL
