MODEL 1
REMARK VINA RESULT:    -5.646      0.000      0.000
REMARK INTER + INTRA:          -5.973
REMARK INTER:                  -6.141
REMARK INTRA:                   0.168
REMARK UNBOUND:                 0.168
REMARK SMILES C[C@H]1[C@H](C)CC[C@]2(C(=O)[O-])CC[C@]3(C)C(=CC[C@H]4[C@]5(C)CC[C@@H](O)C(C)(C)[C@@H]5CC[C@]43C)[C@@H]12
REMARK SMILES IDX 7 1 6 2 11 3 33 4 5 5 12 6 15 7 2 8 3 9 13 10 16 11 1 12
REMARK SMILES IDX 4 13 14 14 31 15 17 16 18 17 30 18 32 19 19 20 29 21 28 22
REMARK SMILES IDX 21 23 20 24 25 25 22 26 23 27 26 28 27 29 8 30 9 31 10 32
REMARK SMILES IDX 24 33
REMARK H PARENT 24 34
REMARK Flexibility Score: inf
ROOT
ATOM      1  C   UNL     1     -55.759  18.306  -9.771  1.00  0.00     0.017 C 
ATOM      2  C   UNL     1     -56.564  19.161  -8.743  1.00  0.00     0.014 C 
ATOM      3  C   UNL     1     -56.676  17.147 -10.300  1.00  0.00     0.014 C 
ATOM      4  C   UNL     1     -54.504  17.750  -9.018  1.00  0.00     0.030 C 
ATOM      5  C   UNL     1     -55.732  20.280  -8.089  1.00  0.00     0.004 C 
ATOM      6  C   UNL     1     -56.230  15.721  -9.907  1.00  0.00     0.013 C 
ATOM      7  C   UNL     1     -53.846  16.594  -9.777  1.00  0.00    -0.063 C 
ATOM      8  C   UNL     1     -53.597  18.869  -8.393  1.00  0.00    -0.003 C 
ATOM      9  C   UNL     1     -54.426  19.773  -7.431  1.00  0.00    -0.011 C 
ATOM     10  C   UNL     1     -54.701  15.373 -10.118  1.00  0.00    -0.006 C 
ATOM     11  C   UNL     1     -52.517  16.493  -9.951  1.00  0.00    -0.027 C 
ATOM     12  C   UNL     1     -52.828  19.758  -9.401  1.00  0.00     0.008 C 
ATOM     13  C   UNL     1     -54.706  19.092  -6.079  1.00  0.00     0.008 C 
ATOM     14  C   UNL     1     -54.411  14.337  -8.975  1.00  0.00     0.017 C 
ATOM     15  C   UNL     1     -54.321  14.802 -11.610  1.00  0.00    -0.020 C 
ATOM     16  C   UNL     1     -51.926  15.394 -10.785  1.00  0.00     0.032 C 
ATOM     17  C   UNL     1     -52.802  15.116 -12.046  1.00  0.00     0.006 C 
ATOM     18  C   UNL     1     -54.562  13.271 -11.649  1.00  0.00     0.008 C 
ATOM     19  C   UNL     1     -55.269  15.455 -12.663  1.00  0.00     0.012 C 
ATOM     20  C   UNL     1     -52.095  14.166 -13.171  1.00  0.00    -0.025 C 
ATOM     21  C   UNL     1     -54.132  12.596 -12.937  1.00  0.00     0.005 C 
ATOM     22  C   UNL     1     -52.596  12.655 -13.137  1.00  0.00     0.003 C 
ATOM     23  C   UNL     1     -52.347  14.771 -14.594  1.00  0.00     0.010 C 
ATOM     24  C   UNL     1     -50.548  14.210 -12.960  1.00  0.00     0.012 C 
ATOM     25  C   UNL     1     -52.137  11.746 -14.381  1.00  0.00    -0.006 C 
ATOM     26  C   UNL     1     -51.832  13.918 -15.761  1.00  0.00     0.033 C 
ATOM     27  C   UNL     1     -52.419  12.498 -15.722  1.00  0.00     0.120 C 
ATOM     28  C   UNL     1     -52.932  10.405 -14.429  1.00  0.00     0.014 C 
ATOM     29  C   UNL     1     -50.636  11.324 -14.261  1.00  0.00     0.014 C 
ENDROOT
BRANCH   1  30
ATOM     30  C   UNL     1     -55.371  19.151 -10.981  1.00  0.00     0.048 C 
ATOM     31  O   UNL     1     -55.858  20.302 -11.146  1.00  0.00    -0.550 OA
ATOM     32  O   UNL     1     -54.570  18.619 -11.983  1.00  0.00    -0.550 OA
ENDBRANCH   1  30
BRANCH  27  33
ATOM     33  O   UNL     1     -52.002  11.749 -16.841  1.00  0.00    -0.393 OA
ATOM     34  H   UNL     1     -51.844  10.814 -16.550  1.00  0.00     0.210 HD
ENDBRANCH  27  33
TORSDOF 2
ENDMDL
MODEL 2
REMARK VINA RESULT:    -5.573      9.408     11.281
REMARK INTER + INTRA:          -5.895
REMARK INTER:                  -6.075
REMARK INTRA:                   0.181
REMARK UNBOUND:                 0.168
REMARK SMILES C[C@H]1[C@H](C)CC[C@]2(C(=O)[O-])CC[C@]3(C)C(=CC[C@H]4[C@]5(C)CC[C@@H](O)C(C)(C)[C@@H]5CC[C@]43C)[C@@H]12
REMARK SMILES IDX 7 1 6 2 11 3 33 4 5 5 12 6 15 7 2 8 3 9 13 10 16 11 1 12
REMARK SMILES IDX 4 13 14 14 31 15 17 16 18 17 30 18 32 19 19 20 29 21 28 22
REMARK SMILES IDX 21 23 20 24 25 25 22 26 23 27 26 28 27 29 8 30 9 31 10 32
REMARK SMILES IDX 24 33
REMARK H PARENT 24 34
REMARK Flexibility Score: inf
ROOT
ATOM      1  C   UNL     1     -57.524  25.764 -14.289  1.00  0.00     0.017 C 
ATOM      2  C   UNL     1     -59.073  25.737 -14.101  1.00  0.00     0.014 C 
ATOM      3  C   UNL     1     -56.941  24.350 -13.937  1.00  0.00     0.014 C 
ATOM      4  C   UNL     1     -56.967  26.871 -13.332  1.00  0.00     0.030 C 
ATOM      5  C   UNL     1     -59.744  27.103 -14.334  1.00  0.00     0.004 C 
ATOM      6  C   UNL     1     -56.030  24.303 -12.690  1.00  0.00     0.013 C 
ATOM      7  C   UNL     1     -55.455  26.741 -13.123  1.00  0.00    -0.063 C 
ATOM      8  C   UNL     1     -57.584  28.293 -13.586  1.00  0.00    -0.003 C 
ATOM      9  C   UNL     1     -59.138  28.242 -13.480  1.00  0.00    -0.011 C 
ATOM     10  C   UNL     1     -54.911  25.416 -12.588  1.00  0.00    -0.006 C 
ATOM     11  C   UNL     1     -54.617  27.791 -13.161  1.00  0.00    -0.027 C 
ATOM     12  C   UNL     1     -57.180  28.978 -14.915  1.00  0.00     0.008 C 
ATOM     13  C   UNL     1     -59.627  28.171 -12.021  1.00  0.00     0.008 C 
ATOM     14  C   UNL     1     -54.762  25.629 -11.040  1.00  0.00     0.017 C 
ATOM     15  C   UNL     1     -53.490  25.038 -13.321  1.00  0.00    -0.020 C 
ATOM     16  C   UNL     1     -53.132  27.600 -13.047  1.00  0.00     0.032 C 
ATOM     17  C   UNL     1     -52.669  26.330 -13.826  1.00  0.00     0.006 C 
ATOM     18  C   UNL     1     -52.611  24.219 -12.342  1.00  0.00     0.008 C 
ATOM     19  C   UNL     1     -53.781  24.138 -14.561  1.00  0.00     0.012 C 
ATOM     20  C   UNL     1     -51.053  26.204 -14.026  1.00  0.00    -0.025 C 
ATOM     21  C   UNL     1     -51.217  23.910 -12.853  1.00  0.00     0.005 C 
ATOM     22  C   UNL     1     -50.361  25.192 -13.011  1.00  0.00     0.003 C 
ATOM     23  C   UNL     1     -50.745  25.764 -15.498  1.00  0.00     0.010 C 
ATOM     24  C   UNL     1     -50.419  27.623 -13.867  1.00  0.00     0.012 C 
ATOM     25  C   UNL     1     -48.828  24.830 -13.333  1.00  0.00    -0.006 C 
ATOM     26  C   UNL     1     -49.265  25.498 -15.798  1.00  0.00     0.033 C 
ATOM     27  C   UNL     1     -48.676  24.449 -14.841  1.00  0.00     0.120 C 
ATOM     28  C   UNL     1     -48.346  23.605 -12.497  1.00  0.00     0.014 C 
ATOM     29  C   UNL     1     -47.866  25.997 -12.934  1.00  0.00     0.014 C 
ENDROOT
BRANCH   1  30
ATOM     30  C   UNL     1     -57.168  26.039 -15.747  1.00  0.00     0.048 C 
ATOM     31  O   UNL     1     -58.067  26.104 -16.629  1.00  0.00    -0.550 OA
ATOM     32  O   UNL     1     -55.840  26.101 -16.149  1.00  0.00    -0.550 OA
ENDBRANCH   1  30
BRANCH  27  33
ATOM     33  O   UNL     1     -47.340  24.154 -15.176  1.00  0.00    -0.393 OA
ATOM     34  H   UNL     1     -47.309  23.876 -16.127  1.00  0.00     0.210 HD
ENDBRANCH  27  33
TORSDOF 2
ENDMDL
MODEL 3
REMARK VINA RESULT:    -5.173     10.633     12.376
REMARK INTER + INTRA:          -5.459
REMARK INTER:                  -5.627
REMARK INTRA:                   0.168
REMARK UNBOUND:                 0.168
REMARK SMILES C[C@H]1[C@H](C)CC[C@]2(C(=O)[O-])CC[C@]3(C)C(=CC[C@H]4[C@]5(C)CC[C@@H](O)C(C)(C)[C@@H]5CC[C@]43C)[C@@H]12
REMARK SMILES IDX 7 1 6 2 11 3 33 4 5 5 12 6 15 7 2 8 3 9 13 10 16 11 1 12
REMARK SMILES IDX 4 13 14 14 31 15 17 16 18 17 30 18 32 19 19 20 29 21 28 22
REMARK SMILES IDX 21 23 20 24 25 25 22 26 23 27 26 28 27 29 8 30 9 31 10 32
REMARK SMILES IDX 24 33
REMARK H PARENT 24 34
REMARK Flexibility Score: inf
ROOT
ATOM      1  C   UNL     1     -52.349  23.911  -3.691  1.00  0.00     0.017 C 
ATOM      2  C   UNL     1     -53.641  23.567  -2.886  1.00  0.00     0.014 C 
ATOM      3  C   UNL     1     -51.817  22.608  -4.385  1.00  0.00     0.014 C 
ATOM      4  C   UNL     1     -51.311  24.482  -2.667  1.00  0.00     0.030 C 
ATOM      5  C   UNL     1     -54.202  24.759  -2.088  1.00  0.00     0.004 C 
ATOM      6  C   UNL     1     -50.453  22.096  -3.873  1.00  0.00     0.013 C 
ATOM      7  C   UNL     1     -49.889  24.492  -3.237  1.00  0.00    -0.063 C 
ATOM      8  C   UNL     1     -51.828  25.739  -1.881  1.00  0.00    -0.003 C 
ATOM      9  C   UNL     1     -53.164  25.414  -1.146  1.00  0.00    -0.011 C 
ATOM     10  C   UNL     1     -49.300  23.170  -3.733  1.00  0.00    -0.006 C 
ATOM     11  C   UNL     1     -49.055  25.538  -3.110  1.00  0.00    -0.027 C 
ATOM     12  C   UNL     1     -51.998  27.035  -2.712  1.00  0.00     0.008 C 
ATOM     13  C   UNL     1     -52.948  24.573   0.125  1.00  0.00     0.008 C 
ATOM     14  C   UNL     1     -48.450  22.624  -2.532  1.00  0.00     0.017 C 
ATOM     15  C   UNL     1     -48.409  23.411  -5.091  1.00  0.00    -0.020 C 
ATOM     16  C   UNL     1     -47.707  25.538  -3.769  1.00  0.00     0.032 C 
ATOM     17  C   UNL     1     -47.777  24.890  -5.186  1.00  0.00     0.006 C 
ATOM     18  C   UNL     1     -47.272  22.360  -5.150  1.00  0.00     0.008 C 
ATOM     19  C   UNL     1     -49.317  23.194  -6.341  1.00  0.00     0.012 C 
ATOM     20  C   UNL     1     -46.446  25.117  -6.106  1.00  0.00    -0.025 C 
ATOM     21  C   UNL     1     -46.297  22.547  -6.296  1.00  0.00     0.005 C 
ATOM     22  C   UNL     1     -45.478  23.855  -6.152  1.00  0.00     0.003 C 
ATOM     23  C   UNL     1     -46.881  25.499  -7.563  1.00  0.00     0.010 C 
ATOM     24  C   UNL     1     -45.668  26.356  -5.559  1.00  0.00     0.012 C 
ATOM     25  C   UNL     1     -44.300  23.926  -7.243  1.00  0.00    -0.006 C 
ATOM     26  C   UNL     1     -45.730  25.634  -8.567  1.00  0.00     0.033 C 
ATOM     27  C   UNL     1     -44.884  24.352  -8.630  1.00  0.00     0.120 C 
ATOM     28  C   UNL     1     -43.621  22.535  -7.438  1.00  0.00     0.014 C 
ATOM     29  C   UNL     1     -43.148  24.880  -6.785  1.00  0.00     0.014 C 
ENDROOT
BRANCH   1  30
ATOM     30  C   UNL     1     -52.662  24.909  -4.802  1.00  0.00     0.048 C 
ATOM     31  O   UNL     1     -53.854  25.192  -5.097  1.00  0.00    -0.550 OA
ATOM     32  O   UNL     1     -51.643  25.428  -5.590  1.00  0.00    -0.550 OA
ENDBRANCH   1  30
BRANCH  27  33
ATOM     33  O   UNL     1     -43.879  24.457  -9.612  1.00  0.00    -0.393 OA
ATOM     34  H   UNL     1     -44.267  24.899 -10.411  1.00  0.00     0.210 HD
ENDBRANCH  27  33
TORSDOF 2
ENDMDL
MODEL 4
REMARK VINA RESULT:    -5.079      6.594     10.465
REMARK INTER + INTRA:          -5.356
REMARK INTER:                  -5.524
REMARK INTRA:                   0.167
REMARK UNBOUND:                 0.168
REMARK SMILES C[C@H]1[C@H](C)CC[C@]2(C(=O)[O-])CC[C@]3(C)C(=CC[C@H]4[C@]5(C)CC[C@@H](O)C(C)(C)[C@@H]5CC[C@]43C)[C@@H]12
REMARK SMILES IDX 7 1 6 2 11 3 33 4 5 5 12 6 15 7 2 8 3 9 13 10 16 11 1 12
REMARK SMILES IDX 4 13 14 14 31 15 17 16 18 17 30 18 32 19 19 20 29 21 28 22
REMARK SMILES IDX 21 23 20 24 25 25 22 26 23 27 26 28 27 29 8 30 9 31 10 32
REMARK SMILES IDX 24 33
REMARK H PARENT 24 34
REMARK Flexibility Score: inf
ROOT
ATOM      1  C   UNL     1     -56.736  27.501 -13.704  1.00  0.00     0.017 C 
ATOM      2  C   UNL     1     -56.788  28.703 -14.698  1.00  0.00     0.014 C 
ATOM      3  C   UNL     1     -55.237  27.102 -13.464  1.00  0.00     0.014 C 
ATOM      4  C   UNL     1     -57.545  26.332 -14.359  1.00  0.00     0.030 C 
ATOM      5  C   UNL     1     -58.221  29.125 -15.077  1.00  0.00     0.004 C 
ATOM      6  C   UNL     1     -54.832  25.708 -13.990  1.00  0.00     0.013 C 
ATOM      7  C   UNL     1     -57.251  24.986 -13.689  1.00  0.00    -0.063 C 
ATOM      8  C   UNL     1     -59.031  26.708 -14.700  1.00  0.00    -0.003 C 
ATOM      9  C   UNL     1     -59.080  27.961 -15.626  1.00  0.00    -0.011 C 
ATOM     10  C   UNL     1     -55.800  24.507 -13.635  1.00  0.00    -0.006 C 
ATOM     11  C   UNL     1     -58.212  24.105 -13.362  1.00  0.00    -0.027 C 
ATOM     12  C   UNL     1     -59.970  26.925 -13.488  1.00  0.00     0.008 C 
ATOM     13  C   UNL     1     -58.714  27.631 -17.085  1.00  0.00     0.008 C 
ATOM     14  C   UNL     1     -55.639  23.545 -14.864  1.00  0.00     0.017 C 
ATOM     15  C   UNL     1     -55.490  23.771 -12.200  1.00  0.00    -0.020 C 
ATOM     16  C   UNL     1     -57.883  22.843 -12.620  1.00  0.00     0.032 C 
ATOM     17  C   UNL     1     -56.794  23.099 -11.533  1.00  0.00     0.006 C 
ATOM     18  C   UNL     1     -54.401  22.688 -12.406  1.00  0.00     0.008 C 
ATOM     19  C   UNL     1     -54.925  24.824 -11.198  1.00  0.00     0.012 C 
ATOM     20  C   UNL     1     -56.590  21.876 -10.470  1.00  0.00    -0.025 C 
ATOM     21  C   UNL     1     -54.108  21.845 -11.179  1.00  0.00     0.005 C 
ATOM     22  C   UNL     1     -55.320  20.967 -10.777  1.00  0.00     0.003 C 
ATOM     23  C   UNL     1     -56.478  22.462  -9.020  1.00  0.00     0.010 C 
ATOM     24  C   UNL     1     -57.879  20.994 -10.471  1.00  0.00     0.012 C 
ATOM     25  C   UNL     1     -54.922  19.921  -9.623  1.00  0.00    -0.006 C 
ATOM     26  C   UNL     1     -56.171  21.430  -7.927  1.00  0.00     0.033 C 
ATOM     27  C   UNL     1     -54.887  20.645  -8.238  1.00  0.00     0.120 C 
ATOM     28  C   UNL     1     -53.503  19.321  -9.865  1.00  0.00     0.014 C 
ATOM     29  C   UNL     1     -55.886  18.690  -9.606  1.00  0.00     0.014 C 
ENDROOT
BRANCH   1  30
ATOM     30  C   UNL     1     -57.310  27.903 -12.349  1.00  0.00     0.048 C 
ATOM     31  O   UNL     1     -57.553  29.112 -12.084  1.00  0.00    -0.550 OA
ATOM     32  O   UNL     1     -57.459  26.961 -11.340  1.00  0.00    -0.550 OA
ENDBRANCH   1  30
BRANCH  27  33
ATOM     33  O   UNL     1     -54.572  19.757  -7.190  1.00  0.00    -0.393 OA
ATOM     34  H   UNL     1     -55.397  19.583  -6.668  1.00  0.00     0.210 HD
ENDBRANCH  27  33
TORSDOF 2
ENDMDL
MODEL 5
REMARK VINA RESULT:    -5.007      6.948     10.239
REMARK INTER + INTRA:          -5.279
REMARK INTER:                  -5.450
REMARK INTRA:                   0.171
REMARK UNBOUND:                 0.168
REMARK SMILES C[C@H]1[C@H](C)CC[C@]2(C(=O)[O-])CC[C@]3(C)C(=CC[C@H]4[C@]5(C)CC[C@@H](O)C(C)(C)[C@@H]5CC[C@]43C)[C@@H]12
REMARK SMILES IDX 7 1 6 2 11 3 33 4 5 5 12 6 15 7 2 8 3 9 13 10 16 11 1 12
REMARK SMILES IDX 4 13 14 14 31 15 17 16 18 17 30 18 32 19 19 20 29 21 28 22
REMARK SMILES IDX 21 23 20 24 25 25 22 26 23 27 26 28 27 29 8 30 9 31 10 32
REMARK SMILES IDX 24 33
REMARK H PARENT 24 34
REMARK Flexibility Score: inf
ROOT
ATOM      1  C   UNL     1     -57.080  20.914  -9.176  1.00  0.00     0.017 C 
ATOM      2  C   UNL     1     -56.733  19.786  -8.155  1.00  0.00     0.014 C 
ATOM      3  C   UNL     1     -56.734  20.416 -10.624  1.00  0.00     0.014 C 
ATOM      4  C   UNL     1     -56.230  22.166  -8.779  1.00  0.00     0.030 C 
ATOM      5  C   UNL     1     -56.951  20.199  -6.687  1.00  0.00     0.004 C 
ATOM      6  C   UNL     1     -55.586  21.174 -11.326  1.00  0.00     0.013 C 
ATOM      7  C   UNL     1     -56.172  23.201  -9.908  1.00  0.00    -0.063 C 
ATOM      8  C   UNL     1     -56.476  22.654  -7.307  1.00  0.00    -0.003 C 
ATOM      9  C   UNL     1     -56.208  21.499  -6.295  1.00  0.00    -0.011 C 
ATOM     10  C   UNL     1     -55.643  22.754 -11.272  1.00  0.00    -0.006 C 
ATOM     11  C   UNL     1     -56.337  24.519  -9.703  1.00  0.00    -0.027 C 
ATOM     12  C   UNL     1     -57.865  23.277  -7.023  1.00  0.00     0.008 C 
ATOM     13  C   UNL     1     -54.706  21.243  -6.076  1.00  0.00     0.008 C 
ATOM     14  C   UNL     1     -54.128  23.165 -11.278  1.00  0.00     0.017 C 
ATOM     15  C   UNL     1     -56.503  23.458 -12.481  1.00  0.00    -0.020 C 
ATOM     16  C   UNL     1     -56.368  25.483 -10.853  1.00  0.00     0.032 C 
ATOM     17  C   UNL     1     -57.139  24.880 -12.068  1.00  0.00     0.006 C 
ATOM     18  C   UNL     1     -55.587  23.643 -13.718  1.00  0.00     0.008 C 
ATOM     19  C   UNL     1     -57.670  22.510 -12.896  1.00  0.00     0.012 C 
ATOM     20  C   UNL     1     -57.499  25.951 -13.247  1.00  0.00    -0.025 C 
ATOM     21  C   UNL     1     -56.226  24.397 -14.869  1.00  0.00     0.005 C 
ATOM     22  C   UNL     1     -56.521  25.874 -14.501  1.00  0.00     0.003 C 
ATOM     23  C   UNL     1     -58.977  25.727 -13.719  1.00  0.00     0.010 C 
ATOM     24  C   UNL     1     -57.462  27.390 -12.641  1.00  0.00     0.012 C 
ATOM     25  C   UNL     1     -56.984  26.712 -15.792  1.00  0.00    -0.006 C 
ATOM     26  C   UNL     1     -59.416  26.595 -14.906  1.00  0.00     0.033 C 
ATOM     27  C   UNL     1     -58.484  26.410 -16.114  1.00  0.00     0.120 C 
ATOM     28  C   UNL     1     -56.154  26.318 -17.053  1.00  0.00     0.014 C 
ATOM     29  C   UNL     1     -56.732  28.244 -15.603  1.00  0.00     0.014 C 
ENDROOT
BRANCH   1  30
ATOM     30  C   UNL     1     -58.577  21.210  -9.156  1.00  0.00     0.048 C 
ATOM     31  O   UNL     1     -59.369  20.484  -8.497  1.00  0.00    -0.550 OA
ATOM     32  O   UNL     1     -59.108  22.210  -9.961  1.00  0.00    -0.550 OA
ENDBRANCH   1  30
BRANCH  27  33
ATOM     33  O   UNL     1     -58.942  27.149 -17.223  1.00  0.00    -0.393 OA
ATOM     34  H   UNL     1     -58.629  26.700 -18.049  1.00  0.00     0.210 HD
ENDBRANCH  27  33
TORSDOF 2
ENDMDL
MODEL 6
REMARK VINA RESULT:    -4.915      3.769      8.347
REMARK INTER + INTRA:          -5.178
REMARK INTER:                  -5.346
REMARK INTRA:                   0.168
REMARK UNBOUND:                 0.168
REMARK SMILES C[C@H]1[C@H](C)CC[C@]2(C(=O)[O-])CC[C@]3(C)C(=CC[C@H]4[C@]5(C)CC[C@@H](O)C(C)(C)[C@@H]5CC[C@]43C)[C@@H]12
REMARK SMILES IDX 7 1 6 2 11 3 33 4 5 5 12 6 15 7 2 8 3 9 13 10 16 11 1 12
REMARK SMILES IDX 4 13 14 14 31 15 17 16 18 17 30 18 32 19 19 20 29 21 28 22
REMARK SMILES IDX 21 23 20 24 25 25 22 26 23 27 26 28 27 29 8 30 9 31 10 32
REMARK SMILES IDX 24 33
REMARK H PARENT 24 34
REMARK Flexibility Score: inf
ROOT
ATOM      1  C   UNL     1     -53.517  16.962 -10.730  1.00  0.00     0.017 C 
ATOM      2  C   UNL     1     -53.012  15.679 -10.000  1.00  0.00     0.014 C 
ATOM      3  C   UNL     1     -52.305  17.935 -10.950  1.00  0.00     0.014 C 
ATOM      4  C   UNL     1     -54.614  17.606  -9.817  1.00  0.00     0.030 C 
ATOM      5  C   UNL     1     -54.139  14.687  -9.652  1.00  0.00     0.004 C 
ATOM      6  C   UNL     1     -52.376  19.266 -10.169  1.00  0.00     0.013 C 
ATOM      7  C   UNL     1     -54.910  19.056 -10.212  1.00  0.00    -0.063 C 
ATOM      8  C   UNL     1     -55.811  16.642  -9.495  1.00  0.00    -0.003 C 
ATOM      9  C   UNL     1     -55.293  15.325  -8.842  1.00  0.00    -0.011 C 
ATOM     10  C   UNL     1     -53.748  20.051 -10.232  1.00  0.00    -0.006 C 
ATOM     11  C   UNL     1     -56.156  19.549 -10.311  1.00  0.00    -0.027 C 
ATOM     12  C   UNL     1     -56.741  16.297 -10.684  1.00  0.00     0.008 C 
ATOM     13  C   UNL     1     -54.904  15.513  -7.364  1.00  0.00     0.008 C 
ATOM     14  C   UNL     1     -53.806  20.776  -8.840  1.00  0.00     0.017 C 
ATOM     15  C   UNL     1     -53.897  21.085 -11.499  1.00  0.00    -0.020 C 
ATOM     16  C   UNL     1     -56.398  20.949 -10.796  1.00  0.00     0.032 C 
ATOM     17  C   UNL     1     -55.425  21.316 -11.958  1.00  0.00     0.006 C 
ATOM     18  C   UNL     1     -53.261  22.448 -11.125  1.00  0.00     0.008 C 
ATOM     19  C   UNL     1     -53.109  20.514 -12.718  1.00  0.00     0.012 C 
ATOM     20  C   UNL     1     -55.805  22.688 -12.759  1.00  0.00    -0.025 C 
ATOM     21  C   UNL     1     -53.439  23.536 -12.167  1.00  0.00     0.005 C 
ATOM     22  C   UNL     1     -54.926  23.943 -12.329  1.00  0.00     0.003 C 
ATOM     23  C   UNL     1     -55.658  22.447 -14.301  1.00  0.00     0.010 C 
ATOM     24  C   UNL     1     -57.317  23.000 -12.522  1.00  0.00     0.012 C 
ATOM     25  C   UNL     1     -55.073  25.243 -13.262  1.00  0.00    -0.006 C 
ATOM     26  C   UNL     1     -55.877  23.689 -15.174  1.00  0.00     0.033 C 
ATOM     27  C   UNL     1     -54.939  24.836 -14.766  1.00  0.00     0.120 C 
ATOM     28  C   UNL     1     -53.951  26.286 -12.966  1.00  0.00     0.014 C 
ATOM     29  C   UNL     1     -56.414  26.000 -12.988  1.00  0.00     0.014 C 
ENDROOT
BRANCH   1  30
ATOM     30  C   UNL     1     -54.060  16.612 -12.113  1.00  0.00     0.048 C 
ATOM     31  O   UNL     1     -53.920  15.451 -12.585  1.00  0.00    -0.550 OA
ATOM     32  O   UNL     1     -54.607  17.597 -12.925  1.00  0.00    -0.550 OA
ENDBRANCH   1  30
BRANCH  27  33
ATOM     33  O   UNL     1     -55.093  25.943 -15.625  1.00  0.00    -0.393 OA
ATOM     34  H   UNL     1     -54.196  26.217 -15.946  1.00  0.00     0.210 HD
ENDBRANCH  27  33
TORSDOF 2
ENDMDL
MODEL 7
REMARK VINA RESULT:    -4.868      3.183      8.221
REMARK INTER + INTRA:          -5.127
REMARK INTER:                  -5.293
REMARK INTRA:                   0.166
REMARK UNBOUND:                 0.168
REMARK SMILES C[C@H]1[C@H](C)CC[C@]2(C(=O)[O-])CC[C@]3(C)C(=CC[C@H]4[C@]5(C)CC[C@@H](O)C(C)(C)[C@@H]5CC[C@]43C)[C@@H]12
REMARK SMILES IDX 7 1 6 2 11 3 33 4 5 5 12 6 15 7 2 8 3 9 13 10 16 11 1 12
REMARK SMILES IDX 4 13 14 14 31 15 17 16 18 17 30 18 32 19 19 20 29 21 28 22
REMARK SMILES IDX 21 23 20 24 25 25 22 26 23 27 26 28 27 29 8 30 9 31 10 32
REMARK SMILES IDX 24 33
REMARK H PARENT 24 34
REMARK Flexibility Score: inf
ROOT
ATOM      1  C   UNL     1     -54.926  16.153 -11.394  1.00  0.00     0.017 C 
ATOM      2  C   UNL     1     -55.433  15.988 -12.861  1.00  0.00     0.014 C 
ATOM      3  C   UNL     1     -56.141  15.993 -10.413  1.00  0.00     0.014 C 
ATOM      4  C   UNL     1     -54.287  17.578 -11.290  1.00  0.00     0.030 C 
ATOM      5  C   UNL     1     -54.337  16.215 -13.919  1.00  0.00     0.004 C 
ATOM      6  C   UNL     1     -56.524  17.263  -9.623  1.00  0.00     0.013 C 
ATOM      7  C   UNL     1     -54.106  18.021  -9.835  1.00  0.00    -0.063 C 
ATOM      8  C   UNL     1     -53.120  17.822 -12.313  1.00  0.00    -0.003 C 
ATOM      9  C   UNL     1     -53.611  17.573 -13.772  1.00  0.00    -0.011 C 
ATOM     10  C   UNL     1     -55.340  18.052  -8.931  1.00  0.00    -0.006 C 
ATOM     11  C   UNL     1     -52.983  18.602  -9.379  1.00  0.00    -0.027 C 
ATOM     12  C   UNL     1     -51.821  17.018 -12.062  1.00  0.00     0.008 C 
ATOM     13  C   UNL     1     -54.470  18.732 -14.310  1.00  0.00     0.008 C 
ATOM     14  C   UNL     1     -55.836  19.541  -8.966  1.00  0.00     0.017 C 
ATOM     15  C   UNL     1     -54.957  17.540  -7.418  1.00  0.00    -0.020 C 
ATOM     16  C   UNL     1     -52.818  18.930  -7.924  1.00  0.00     0.032 C 
ATOM     17  C   UNL     1     -53.417  17.805  -7.025  1.00  0.00     0.006 C 
ATOM     18  C   UNL     1     -55.880  18.244  -6.391  1.00  0.00     0.008 C 
ATOM     19  C   UNL     1     -55.223  16.006  -7.317  1.00  0.00     0.012 C 
ATOM     20  C   UNL     1     -53.018  17.910  -5.444  1.00  0.00    -0.025 C 
ATOM     21  C   UNL     1     -55.550  17.951  -4.940  1.00  0.00     0.005 C 
ATOM     22  C   UNL     1     -54.169  18.526  -4.534  1.00  0.00     0.003 C 
ATOM     23  C   UNL     1     -52.632  16.487  -4.911  1.00  0.00     0.010 C 
ATOM     24  C   UNL     1     -51.725  18.776  -5.313  1.00  0.00     0.012 C 
ATOM     25  C   UNL     1     -53.935  18.407  -2.948  1.00  0.00    -0.006 C 
ATOM     26  C   UNL     1     -52.340  16.417  -3.407  1.00  0.00     0.033 C 
ATOM     27  C   UNL     1     -53.522  16.945  -2.579  1.00  0.00     0.120 C 
ATOM     28  C   UNL     1     -55.238  18.732  -2.155  1.00  0.00     0.014 C 
ATOM     29  C   UNL     1     -52.882  19.448  -2.443  1.00  0.00     0.014 C 
ENDROOT
BRANCH   1  30
ATOM     30  C   UNL     1     -53.927  15.053 -11.047  1.00  0.00     0.048 C 
ATOM     31  O   UNL     1     -53.753  14.073 -11.821  1.00  0.00    -0.550 OA
ATOM     32  O   UNL     1     -53.284  15.049  -9.816  1.00  0.00    -0.550 OA
ENDBRANCH   1  30
BRANCH  27  33
ATOM     33  O   UNL     1     -53.276  16.802  -1.198  1.00  0.00    -0.393 OA
ATOM     34  H   UNL     1     -52.372  17.160  -1.003  1.00  0.00     0.210 HD
ENDBRANCH  27  33
TORSDOF 2
ENDMDL
MODEL 8
REMARK VINA RESULT:    -4.828      5.269      8.859
REMARK INTER + INTRA:          -5.083
REMARK INTER:                  -5.248
REMARK INTRA:                   0.165
REMARK UNBOUND:                 0.168
REMARK SMILES C[C@H]1[C@H](C)CC[C@]2(C(=O)[O-])CC[C@]3(C)C(=CC[C@H]4[C@]5(C)CC[C@@H](O)C(C)(C)[C@@H]5CC[C@]43C)[C@@H]12
REMARK SMILES IDX 7 1 6 2 11 3 33 4 5 5 12 6 15 7 2 8 3 9 13 10 16 11 1 12
REMARK SMILES IDX 4 13 14 14 31 15 17 16 18 17 30 18 32 19 19 20 29 21 28 22
REMARK SMILES IDX 21 23 20 24 25 25 22 26 23 27 26 28 27 29 8 30 9 31 10 32
REMARK SMILES IDX 24 33
REMARK H PARENT 24 34
REMARK Flexibility Score: inf
ROOT
ATOM      1  C   UNL     1     -55.854  25.738 -13.451  1.00  0.00     0.017 C 
ATOM      2  C   UNL     1     -55.833  26.949 -14.434  1.00  0.00     0.014 C 
ATOM      3  C   UNL     1     -54.485  24.976 -13.548  1.00  0.00     0.014 C 
ATOM      4  C   UNL     1     -57.052  24.825 -13.877  1.00  0.00     0.030 C 
ATOM      5  C   UNL     1     -57.165  27.721 -14.487  1.00  0.00     0.004 C 
ATOM      6  C   UNL     1     -54.565  23.544 -14.120  1.00  0.00     0.013 C 
ATOM      7  C   UNL     1     -56.955  23.426 -13.261  1.00  0.00    -0.063 C 
ATOM      8  C   UNL     1     -58.438  25.564 -13.880  1.00  0.00    -0.003 C 
ATOM      9  C   UNL     1     -58.386  26.822 -14.799  1.00  0.00    -0.011 C 
ATOM     10  C   UNL     1     -55.692  22.605 -13.526  1.00  0.00    -0.006 C 
ATOM     11  C   UNL     1     -58.003  22.796 -12.703  1.00  0.00    -0.027 C 
ATOM     12  C   UNL     1     -58.995  25.962 -12.491  1.00  0.00     0.008 C 
ATOM     13  C   UNL     1     -58.451  26.462 -16.295  1.00  0.00     0.008 C 
ATOM     14  C   UNL     1     -56.054  21.675 -14.737  1.00  0.00     0.017 C 
ATOM     15  C   UNL     1     -55.256  21.767 -12.183  1.00  0.00    -0.020 C 
ATOM     16  C   UNL     1     -57.835  21.467 -12.025  1.00  0.00     0.032 C 
ATOM     17  C   UNL     1     -56.500  21.412 -11.221  1.00  0.00     0.006 C 
ATOM     18  C   UNL     1     -54.542  20.458 -12.606  1.00  0.00     0.008 C 
ATOM     19  C   UNL     1     -54.238  22.615 -11.360  1.00  0.00     0.012 C 
ATOM     20  C   UNL     1     -56.368  20.141 -10.204  1.00  0.00    -0.025 C 
ATOM     21  C   UNL     1     -54.196  19.528 -11.458  1.00  0.00     0.005 C 
ATOM     22  C   UNL     1     -55.464  18.960 -10.771  1.00  0.00     0.003 C 
ATOM     23  C   UNL     1     -55.791  20.632  -8.832  1.00  0.00     0.010 C 
ATOM     24  C   UNL     1     -57.800  19.602  -9.892  1.00  0.00     0.012 C 
ATOM     25  C   UNL     1     -55.084  17.810  -9.714  1.00  0.00    -0.006 C 
ATOM     26  C   UNL     1     -55.508  19.520  -7.813  1.00  0.00     0.033 C 
ATOM     27  C   UNL     1     -54.561  18.456  -8.390  1.00  0.00     0.120 C 
ATOM     28  C   UNL     1     -53.949  16.890 -10.258  1.00  0.00     0.014 C 
ATOM     29  C   UNL     1     -56.292  16.852  -9.449  1.00  0.00     0.014 C 
ENDROOT
BRANCH   1  30
ATOM     30  C   UNL     1     -55.990  26.222 -12.010  1.00  0.00     0.048 C 
ATOM     31  O   UNL     1     -55.876  27.445 -11.727  1.00  0.00    -0.550 OA
ATOM     32  O   UNL     1     -56.119  25.310 -10.970  1.00  0.00    -0.550 OA
ENDBRANCH   1  30
BRANCH  27  33
ATOM     33  O   UNL     1     -54.245  17.483  -7.421  1.00  0.00    -0.393 OA
ATOM     34  H   UNL     1     -54.751  17.688  -6.594  1.00  0.00     0.210 HD
ENDBRANCH  27  33
TORSDOF 2
ENDMDL
MODEL 9
REMARK VINA RESULT:    -4.789      8.837     10.564
REMARK INTER + INTRA:          -5.041
REMARK INTER:                  -5.347
REMARK INTRA:                   0.305
REMARK UNBOUND:                 0.168
REMARK SMILES C[C@H]1[C@H](C)CC[C@]2(C(=O)[O-])CC[C@]3(C)C(=CC[C@H]4[C@]5(C)CC[C@@H](O)C(C)(C)[C@@H]5CC[C@]43C)[C@@H]12
REMARK SMILES IDX 7 1 6 2 11 3 33 4 5 5 12 6 15 7 2 8 3 9 13 10 16 11 1 12
REMARK SMILES IDX 4 13 14 14 31 15 17 16 18 17 30 18 32 19 19 20 29 21 28 22
REMARK SMILES IDX 21 23 20 24 25 25 22 26 23 27 26 28 27 29 8 30 9 31 10 32
REMARK SMILES IDX 24 33
REMARK H PARENT 24 34
REMARK Flexibility Score: inf
ROOT
ATOM      1  C   UNL     1     -56.164  25.107 -13.167  1.00  0.00     0.017 C 
ATOM      2  C   UNL     1     -57.552  25.087 -12.453  1.00  0.00     0.014 C 
ATOM      3  C   UNL     1     -55.481  23.704 -12.993  1.00  0.00     0.014 C 
ATOM      4  C   UNL     1     -55.323  26.244 -12.497  1.00  0.00     0.030 C 
ATOM      5  C   UNL     1     -58.277  26.446 -12.483  1.00  0.00     0.004 C 
ATOM      6  C   UNL     1     -54.195  23.697 -12.138  1.00  0.00     0.013 C 
ATOM      7  C   UNL     1     -53.831  26.119 -12.820  1.00  0.00    -0.063 C 
ATOM      8  C   UNL     1     -56.004  27.657 -12.566  1.00  0.00    -0.003 C 
ATOM      9  C   UNL     1     -57.426  27.611 -11.927  1.00  0.00    -0.011 C 
ATOM     10  C   UNL     1     -53.121  24.812 -12.464  1.00  0.00    -0.006 C 
ATOM     11  C   UNL     1     -53.068  27.166 -13.178  1.00  0.00    -0.027 C 
ATOM     12  C   UNL     1     -56.092  28.297 -13.974  1.00  0.00     0.008 C 
ATOM     13  C   UNL     1     -57.379  27.589 -10.388  1.00  0.00     0.008 C 
ATOM     14  C   UNL     1     -52.449  25.076 -11.071  1.00  0.00     0.017 C 
ATOM     15  C   UNL     1     -52.038  24.409 -13.631  1.00  0.00    -0.020 C 
ATOM     16  C   UNL     1     -51.634  26.978 -13.579  1.00  0.00     0.032 C 
ATOM     17  C   UNL     1     -51.456  25.682 -14.429  1.00  0.00     0.006 C 
ATOM     18  C   UNL     1     -50.866  23.622 -12.991  1.00  0.00     0.008 C 
ATOM     19  C   UNL     1     -52.729  23.468 -14.665  1.00  0.00     0.012 C 
ATOM     20  C   UNL     1     -50.007  25.548 -15.172  1.00  0.00    -0.025 C 
ATOM     21  C   UNL     1     -49.731  23.294 -13.943  1.00  0.00     0.005 C 
ATOM     22  C   UNL     1     -48.995  24.569 -14.428  1.00  0.00     0.003 C 
ATOM     23  C   UNL     1     -50.223  25.059 -16.645  1.00  0.00     0.010 C 
ATOM     24  C   UNL     1     -49.372  26.970 -15.287  1.00  0.00     0.012 C 
ATOM     25  C   UNL     1     -47.665  24.196 -15.248  1.00  0.00    -0.006 C 
ATOM     26  C   UNL     1     -48.934  24.781 -17.430  1.00  0.00     0.033 C 
ATOM     27  C   UNL     1     -48.040  23.764 -16.704  1.00  0.00     0.120 C 
ATOM     28  C   UNL     1     -46.911  22.998 -14.593  1.00  0.00     0.014 C 
ATOM     29  C   UNL     1     -46.637  25.374 -15.244  1.00  0.00     0.014 C 
ENDROOT
BRANCH   1  30
ATOM     30  C   UNL     1     -56.338  25.333 -14.666  1.00  0.00     0.048 C 
ATOM     31  O   UNL     1     -55.335  25.485 -15.415  1.00  0.00    -0.550 OA
ATOM     32  O   UNL     1     -57.604  25.497 -15.212  1.00  0.00    -0.550 OA
ENDBRANCH   1  30
BRANCH  27  33
ATOM     33  O   UNL     1     -46.899  23.456 -17.471  1.00  0.00    -0.393 OA
ATOM     34  H   UNL     1     -46.476  24.306 -17.758  1.00  0.00     0.210 HD
ENDBRANCH  27  33
TORSDOF 2
ENDMDL
