MODEL 1
REMARK VINA RESULT:    -3.161      0.000      0.000
REMARK INTER + INTRA:          -3.254
REMARK INTER:                  -3.254
REMARK INTRA:                   0.000
REMARK UNBOUND:                 0.000
REMARK SMILES C=C1[C@H](O)C[C@]23C[C@H]1C(C)(C)[C@H]2CC[C@H]3C
REMARK SMILES IDX 16 1 15 2 14 3 13 4 12 5 6 6 7 7 8 8 9 9 10 10 11 11 2 12
REMARK SMILES IDX 1 13 3 14 5 15 4 16
REMARK H PARENT 4 17
REMARK Flexibility Score: inf
ROOT
ATOM      1  C   UNL     1      15.759  14.361  27.749  1.00  0.00     0.008 C 
ATOM      2  C   UNL     1      15.405  15.858  27.757  1.00  0.00    -0.008 C 
ATOM      3  C   UNL     1      14.752  16.268  29.082  1.00  0.00     0.004 C 
ATOM      4  C   UNL     1      13.267  16.374  28.794  1.00  0.00     0.005 C 
ATOM      5  C   UNL     1      13.186  16.907  27.357  1.00  0.00     0.002 C 
ATOM      6  C   UNL     1      14.421  16.326  26.636  1.00  0.00    -0.020 C 
ATOM      7  C   UNL     1      13.835  15.240  25.722  1.00  0.00     0.016 C 
ATOM      8  C   UNL     1      12.580  15.923  25.202  1.00  0.00     0.023 C 
ATOM      9  C   UNL     1      11.936  16.521  26.488  1.00  0.00    -0.025 C 
ATOM     10  C   UNL     1      11.053  17.765  26.210  1.00  0.00     0.012 C 
ATOM     11  C   UNL     1      11.008  15.456  27.133  1.00  0.00     0.012 C 
ATOM     12  C   UNL     1      13.022  17.001  24.217  1.00  0.00    -0.045 C 
ATOM     13  C   UNL     1      12.283  17.240  23.120  1.00  0.00     0.011 C 
ATOM     14  C   UNL     1      14.192  17.920  24.563  1.00  0.00     0.140 C 
ATOM     15  C   UNL     1      15.094  17.386  25.716  1.00  0.00     0.044 C 
ENDROOT
BRANCH  14  16
ATOM     16  O   UNL     1      14.978  18.125  23.416  1.00  0.00    -0.389 OA
ATOM     17  H   UNL     1      14.368  18.059  22.634  1.00  0.00     0.211 HD
ENDBRANCH  14  16
TORSDOF 1
ENDMDL
MODEL 2
REMARK VINA RESULT:    -0.335      1.897      4.097
REMARK INTER + INTRA:          -0.345
REMARK INTER:                  -0.345
REMARK INTRA:                   0.000
REMARK UNBOUND:                 0.000
REMARK SMILES C=C1[C@H](O)C[C@]23C[C@H]1C(C)(C)[C@H]2CC[C@H]3C
REMARK SMILES IDX 16 1 15 2 14 3 13 4 12 5 6 6 7 7 8 8 9 9 10 10 11 11 2 12
REMARK SMILES IDX 1 13 3 14 5 15 4 16
REMARK H PARENT 4 17
REMARK Flexibility Score: inf
ROOT
ATOM      1  C   UNL     1      15.175  18.125  24.222  1.00  0.00     0.008 C 
ATOM      2  C   UNL     1      14.482  16.763  24.404  1.00  0.00    -0.008 C 
ATOM      3  C   UNL     1      13.217  16.664  23.542  1.00  0.00     0.004 C 
ATOM      4  C   UNL     1      12.055  16.882  24.492  1.00  0.00     0.005 C 
ATOM      5  C   UNL     1      12.500  16.233  25.808  1.00  0.00     0.002 C 
ATOM      6  C   UNL     1      14.031  16.424  25.862  1.00  0.00    -0.020 C 
ATOM      7  C   UNL     1      14.227  17.513  26.926  1.00  0.00     0.016 C 
ATOM      8  C   UNL     1      13.216  17.095  27.982  1.00  0.00     0.023 C 
ATOM      9  C   UNL     1      11.928  16.807  27.153  1.00  0.00    -0.025 C 
ATOM     10  C   UNL     1      10.980  15.785  27.831  1.00  0.00     0.012 C 
ATOM     11  C   UNL     1      11.120  18.124  26.999  1.00  0.00     0.012 C 
ATOM     12  C   UNL     1      13.761  15.843  28.664  1.00  0.00    -0.045 C 
ATOM     13  C   UNL     1      13.567  15.669  29.982  1.00  0.00     0.011 C 
ATOM     14  C   UNL     1      14.362  14.716  27.827  1.00  0.00     0.140 C 
ATOM     15  C   UNL     1      14.747  15.142  26.378  1.00  0.00     0.044 C 
ENDROOT
BRANCH  14  16
ATOM     16  O   UNL     1      15.500  14.209  28.478  1.00  0.00    -0.389 OA
ATOM     17  H   UNL     1      15.766  13.385  27.992  1.00  0.00     0.211 HD
ENDBRANCH  14  16
TORSDOF 1
ENDMDL
MODEL 3
REMARK VINA RESULT:    -0.215      2.192      4.704
REMARK INTER + INTRA:          -0.221
REMARK INTER:                  -0.221
REMARK INTRA:                   0.000
REMARK UNBOUND:                 0.000
REMARK SMILES C=C1[C@H](O)C[C@]23C[C@H]1C(C)(C)[C@H]2CC[C@H]3C
REMARK SMILES IDX 16 1 15 2 14 3 13 4 12 5 6 6 7 7 8 8 9 9 10 10 11 11 2 12
REMARK SMILES IDX 1 13 3 14 5 15 4 16
REMARK H PARENT 4 17
REMARK Flexibility Score: inf
ROOT
ATOM      1  C   UNL     1      10.625  16.995  24.927  1.00  0.00     0.008 C 
ATOM      2  C   UNL     1      11.812  17.735  25.566  1.00  0.00    -0.008 C 
ATOM      3  C   UNL     1      12.856  18.125  24.512  1.00  0.00     0.004 C 
ATOM      4  C   UNL     1      13.980  17.117  24.654  1.00  0.00     0.005 C 
ATOM      5  C   UNL     1      14.046  16.816  26.157  1.00  0.00     0.002 C 
ATOM      6  C   UNL     1      12.593  16.940  26.663  1.00  0.00    -0.020 C 
ATOM      7  C   UNL     1      12.166  15.486  26.910  1.00  0.00     0.016 C 
ATOM      8  C   UNL     1      13.418  14.903  27.545  1.00  0.00     0.023 C 
ATOM      9  C   UNL     1      14.562  15.405  26.613  1.00  0.00    -0.025 C 
ATOM     10  C   UNL     1      15.930  15.523  27.331  1.00  0.00     0.012 C 
ATOM     11  C   UNL     1      14.756  14.386  25.457  1.00  0.00     0.012 C 
ATOM     12  C   UNL     1      13.523  15.477  28.955  1.00  0.00    -0.045 C 
ATOM     13  C   UNL     1      13.983  14.703  29.953  1.00  0.00     0.011 C 
ATOM     14  C   UNL     1      13.279  16.965  29.196  1.00  0.00     0.140 C 
ATOM     15  C   UNL     1      12.527  17.678  28.032  1.00  0.00     0.044 C 
ENDROOT
BRANCH  14  16
ATOM     16  O   UNL     1      12.551  17.131  30.387  1.00  0.00    -0.389 OA
ATOM     17  H   UNL     1      12.033  16.294  30.526  1.00  0.00     0.211 HD
ENDBRANCH  14  16
TORSDOF 1
ENDMDL
