MODEL 1
REMARK VINA RESULT:    -3.401      0.000      0.000
REMARK INTER + INTRA:          -4.104
REMARK INTER:                  -3.997
REMARK INTRA:                  -0.107
REMARK UNBOUND:                -0.107
REMARK SMILES O=C([O-])CCC(=O)[O-]
REMARK SMILES IDX 4 1 2 2 1 3 3 4 5 5 6 6 7 7 8 8
REMARK H PARENT
REMARK Flexibility Score: inf
ROOT
ATOM      1  C   UNL     1      27.067  37.970  -0.260  1.00  0.00     0.059 C 
ENDROOT
BRANCH   1   2
ATOM      2  C   UNL     1      27.570  38.209   1.131  1.00  0.00     0.042 C 
ATOM      3  O   UNL     1      28.073  39.321   1.441  1.00  0.00    -0.550 OA
ATOM      4  O   UNL     1      27.446  37.218   2.096  1.00  0.00    -0.550 OA
ENDBRANCH   1   2
BRANCH   1   5
ATOM      5  C   UNL     1      28.125  37.287  -1.133  1.00  0.00     0.059 C 
BRANCH   5   6
ATOM      6  C   UNL     1      27.772  35.857  -1.408  1.00  0.00     0.042 C 
ATOM      7  O   UNL     1      27.808  35.411  -2.585  1.00  0.00    -0.550 OA
ATOM      8  O   UNL     1      27.441  35.009  -0.360  1.00  0.00    -0.550 OA
ENDBRANCH   5   6
ENDBRANCH   1   5
TORSDOF 3
ENDMDL
MODEL 2
REMARK VINA RESULT:    -3.331      0.541      3.830
REMARK INTER + INTRA:          -4.022
REMARK INTER:                  -3.922
REMARK INTRA:                  -0.101
REMARK UNBOUND:                -0.107
REMARK SMILES O=C([O-])CCC(=O)[O-]
REMARK SMILES IDX 4 1 2 2 1 3 3 4 5 5 6 6 7 7 8 8
REMARK H PARENT
REMARK Flexibility Score: inf
ROOT
ATOM      1  C   UNL     1      26.631  36.873  -0.747  1.00  0.00     0.059 C 
ENDROOT
BRANCH   1   2
ATOM      2  C   UNL     1      27.494  35.743  -1.222  1.00  0.00     0.042 C 
ATOM      3  O   UNL     1      27.747  34.774  -0.459  1.00  0.00    -0.550 OA
ATOM      4  O   UNL     1      27.983  35.742  -2.522  1.00  0.00    -0.550 OA
ENDBRANCH   1   2
BRANCH   1   5
ATOM      5  C   UNL     1      27.464  38.115  -0.412  1.00  0.00     0.059 C 
BRANCH   5   6
ATOM      6  C   UNL     1      27.684  38.249   1.063  1.00  0.00     0.042 C 
ATOM      7  O   UNL     1      28.125  39.327   1.543  1.00  0.00    -0.550 OA
ATOM      8  O   UNL     1      27.367  37.196   1.913  1.00  0.00    -0.550 OA
ENDBRANCH   5   6
ENDBRANCH   1   5
TORSDOF 3
ENDMDL
MODEL 3
REMARK VINA RESULT:    -3.106     18.766     19.209
REMARK INTER + INTRA:          -3.758
REMARK INTER:                  -3.653
REMARK INTRA:                  -0.105
REMARK UNBOUND:                -0.107
REMARK SMILES O=C([O-])CCC(=O)[O-]
REMARK SMILES IDX 4 1 2 2 1 3 3 4 5 5 6 6 7 7 8 8
REMARK H PARENT
REMARK Flexibility Score: inf
ROOT
ATOM      1  C   UNL     1      10.070  32.666   4.548  1.00  0.00     0.059 C 
ENDROOT
BRANCH   1   2
ATOM      2  C   UNL     1       9.137  31.864   5.404  1.00  0.00     0.042 C 
ATOM      3  O   UNL     1       7.894  32.059   5.340  1.00  0.00    -0.550 OA
ATOM      4  O   UNL     1       9.636  30.875   6.241  1.00  0.00    -0.550 OA
ENDBRANCH   1   2
BRANCH   1   5
ATOM      5  C   UNL     1      10.806  31.781   3.536  1.00  0.00     0.059 C 
BRANCH   5   6
ATOM      6  C   UNL     1      10.186  31.870   2.175  1.00  0.00     0.042 C 
ATOM      7  O   UNL     1      10.794  32.452   1.238  1.00  0.00    -0.550 OA
ATOM      8  O   UNL     1       8.953  31.276   1.932  1.00  0.00    -0.550 OA
ENDBRANCH   5   6
ENDBRANCH   1   5
TORSDOF 3
ENDMDL
MODEL 4
REMARK VINA RESULT:    -3.035     18.691     19.397
REMARK INTER + INTRA:          -3.674
REMARK INTER:                  -3.583
REMARK INTRA:                  -0.091
REMARK UNBOUND:                -0.107
REMARK SMILES O=C([O-])CCC(=O)[O-]
REMARK SMILES IDX 4 1 2 2 1 3 3 4 5 5 6 6 7 7 8 8
REMARK H PARENT
REMARK Flexibility Score: inf
ROOT
ATOM      1  C   UNL     1      10.815  31.591   3.400  1.00  0.00     0.059 C 
ENDROOT
BRANCH   1   2
ATOM      2  C   UNL     1      10.243  31.765   2.025  1.00  0.00     0.042 C 
ATOM      3  O   UNL     1       9.081  31.355   1.766  1.00  0.00    -0.550 OA
ATOM      4  O   UNL     1      10.977  32.418   1.044  1.00  0.00    -0.550 OA
ENDBRANCH   1   2
BRANCH   1   5
ATOM      5  C   UNL     1      10.153  32.535   4.410  1.00  0.00     0.059 C 
BRANCH   5   6
ATOM      6  C   UNL     1       9.238  31.795   5.337  1.00  0.00     0.042 C 
ATOM      7  O   UNL     1       9.705  30.955   6.151  1.00  0.00    -0.550 OA
ATOM      8  O   UNL     1       7.875  32.061   5.327  1.00  0.00    -0.550 OA
ENDBRANCH   5   6
ENDBRANCH   1   5
TORSDOF 3
ENDMDL
MODEL 5
REMARK VINA RESULT:    -2.925     11.717     13.077
REMARK INTER + INTRA:          -3.544
REMARK INTER:                  -3.507
REMARK INTRA:                  -0.038
REMARK UNBOUND:                -0.107
REMARK SMILES O=C([O-])CCC(=O)[O-]
REMARK SMILES IDX 4 1 2 2 1 3 3 4 5 5 6 6 7 7 8 8
REMARK H PARENT
REMARK Flexibility Score: inf
ROOT
ATOM      1  C   UNL     1      24.503  33.069  10.490  1.00  0.00     0.059 C 
ENDROOT
BRANCH   1   2
ATOM      2  C   UNL     1      24.892  31.647  10.220  1.00  0.00     0.042 C 
ATOM      3  O   UNL     1      24.749  31.158   9.069  1.00  0.00    -0.550 OA
ATOM      4  O   UNL     1      25.452  30.875  11.230  1.00  0.00    -0.550 OA
ENDBRANCH   1   2
BRANCH   1   5
ATOM      5  C   UNL     1      23.920  33.236  11.898  1.00  0.00     0.059 C 
BRANCH   5   6
ATOM      6  C   UNL     1      23.020  34.430  11.982  1.00  0.00     0.042 C 
ATOM      7  O   UNL     1      22.691  35.052  10.938  1.00  0.00    -0.550 OA
ATOM      8  O   UNL     1      22.513  34.833  13.212  1.00  0.00    -0.550 OA
ENDBRANCH   5   6
ENDBRANCH   1   5
TORSDOF 3
ENDMDL
MODEL 6
REMARK VINA RESULT:    -2.904     11.665     12.585
REMARK INTER + INTRA:          -3.520
REMARK INTER:                  -3.480
REMARK INTRA:                  -0.041
REMARK UNBOUND:                -0.107
REMARK SMILES O=C([O-])CCC(=O)[O-]
REMARK SMILES IDX 4 1 2 2 1 3 3 4 5 5 6 6 7 7 8 8
REMARK H PARENT
REMARK Flexibility Score: inf
ROOT
ATOM      1  C   UNL     1      23.984  33.271  11.909  1.00  0.00     0.059 C 
ENDROOT
BRANCH   1   2
ATOM      2  C   UNL     1      22.996  34.395  11.981  1.00  0.00     0.042 C 
ATOM      3  O   UNL     1      22.596  34.957  10.927  1.00  0.00    -0.550 OA
ATOM      4  O   UNL     1      22.485  34.795  13.209  1.00  0.00    -0.550 OA
ENDBRANCH   1   2
BRANCH   1   5
ATOM      5  C   UNL     1      24.569  33.124  10.500  1.00  0.00     0.059 C 
BRANCH   5   6
ATOM      6  C   UNL     1      24.906  31.697  10.191  1.00  0.00     0.042 C 
ATOM      7  O   UNL     1      24.752  31.247   9.025  1.00  0.00    -0.550 OA
ATOM      8  O   UNL     1      25.427  30.875  11.183  1.00  0.00    -0.550 OA
ENDBRANCH   5   6
ENDBRANCH   1   5
TORSDOF 3
ENDMDL
MODEL 7
REMARK VINA RESULT:    -2.886     11.959     13.467
REMARK INTER + INTRA:          -3.499
REMARK INTER:                  -3.382
REMARK INTRA:                  -0.117
REMARK UNBOUND:                -0.107
REMARK SMILES O=C([O-])CCC(=O)[O-]
REMARK SMILES IDX 4 1 2 2 1 3 3 4 5 5 6 6 7 7 8 8
REMARK H PARENT
REMARK Flexibility Score: inf
ROOT
ATOM      1  C   UNL     1      25.863  32.476  11.971  1.00  0.00     0.059 C 
ENDROOT
BRANCH   1   2
ATOM      2  C   UNL     1      25.016  32.570  10.739  1.00  0.00     0.042 C 
ATOM      3  O   UNL     1      24.268  33.567  10.558  1.00  0.00    -0.550 OA
ATOM      4  O   UNL     1      25.084  31.577   9.770  1.00  0.00    -0.550 OA
ENDBRANCH   1   2
BRANCH   1   5
ATOM      5  C   UNL     1      26.615  33.783  12.240  1.00  0.00     0.059 C 
BRANCH   5   6
ATOM      6  C   UNL     1      26.119  34.459  13.481  1.00  0.00     0.042 C 
ATOM      7  O   UNL     1      26.894  34.642  14.457  1.00  0.00    -0.550 OA
ATOM      8  O   UNL     1      24.810  34.922  13.545  1.00  0.00    -0.550 OA
ENDBRANCH   5   6
ENDBRANCH   1   5
TORSDOF 3
ENDMDL
MODEL 8
REMARK VINA RESULT:    -2.879     11.972     13.017
REMARK INTER + INTRA:          -3.491
REMARK INTER:                  -3.370
REMARK INTRA:                  -0.121
REMARK UNBOUND:                -0.107
REMARK SMILES O=C([O-])CCC(=O)[O-]
REMARK SMILES IDX 4 1 2 2 1 3 3 4 5 5 6 6 7 7 8 8
REMARK H PARENT
REMARK Flexibility Score: inf
ROOT
ATOM      1  C   UNL     1      26.599  33.847  12.227  1.00  0.00     0.059 C 
ENDROOT
BRANCH   1   2
ATOM      2  C   UNL     1      26.104  34.507  13.478  1.00  0.00     0.042 C 
ATOM      3  O   UNL     1      24.917  34.920  13.550  1.00  0.00    -0.550 OA
ATOM      4  O   UNL     1      26.941  34.627  14.579  1.00  0.00    -0.550 OA
ENDBRANCH   1   2
BRANCH   1   5
ATOM      5  C   UNL     1      25.888  32.513  11.974  1.00  0.00     0.059 C 
BRANCH   5   6
ATOM      6  C   UNL     1      25.026  32.573  10.750  1.00  0.00     0.042 C 
ATOM      7  O   UNL     1      24.237  33.539  10.577  1.00  0.00    -0.550 OA
ATOM      8  O   UNL     1      25.121  31.579   9.783  1.00  0.00    -0.550 OA
ENDBRANCH   5   6
ENDBRANCH   1   5
TORSDOF 3
ENDMDL
MODEL 9
REMARK VINA RESULT:    -2.808     12.154     13.974
REMARK INTER + INTRA:          -3.408
REMARK INTER:                  -3.298
REMARK INTRA:                  -0.110
REMARK UNBOUND:                -0.107
REMARK SMILES O=C([O-])CCC(=O)[O-]
REMARK SMILES IDX 4 1 2 2 1 3 3 4 5 5 6 6 7 7 8 8
REMARK H PARENT
REMARK Flexibility Score: inf
ROOT
ATOM      1  C   UNL     1      23.158  34.281  11.446  1.00  0.00     0.059 C 
ENDROOT
BRANCH   1   2
ATOM      2  C   UNL     1      24.387  33.506  11.076  1.00  0.00     0.042 C 
ATOM      3  O   UNL     1      24.366  32.713  10.099  1.00  0.00    -0.550 OA
ATOM      4  O   UNL     1      25.565  33.693  11.787  1.00  0.00    -0.550 OA
ENDBRANCH   1   2
BRANCH   1   5
ATOM      5  C   UNL     1      22.765  34.051  12.909  1.00  0.00     0.059 C 
BRANCH   5   6
ATOM      6  C   UNL     1      22.701  35.339  13.671  1.00  0.00     0.042 C 
ATOM      7  O   UNL     1      23.552  36.244  13.461  1.00  0.00    -0.550 OA
ATOM      8  O   UNL     1      21.678  35.556  14.586  1.00  0.00    -0.550 OA
ENDBRANCH   5   6
ENDBRANCH   1   5
TORSDOF 3
ENDMDL
