MODEL 1
REMARK VINA RESULT:    -3.812      0.000      0.000
REMARK INTER + INTRA:          -4.874
REMARK INTER:                  -4.703
REMARK INTRA:                  -0.171
REMARK UNBOUND:                -0.171
REMARK SMILES CCCCCC(=O)[O-]
REMARK SMILES IDX 4 1 5 2 6 3 7 4 8 5 3 6 2 7 1 8
REMARK H PARENT
REMARK Flexibility Score: inf
ROOT
ATOM      1  C   UNL     1     -39.217  21.033 -29.590  1.00  0.00     0.006 C 
ENDROOT
BRANCH   1   2
ATOM      2  C   UNL     1     -40.120  20.476 -30.699  1.00  0.00     0.053 C 
BRANCH   2   3
ATOM      3  C   UNL     1     -40.293  19.000 -30.538  1.00  0.00     0.041 C 
ATOM      4  O   UNL     1     -41.253  18.409 -31.098  1.00  0.00    -0.550 OA
ATOM      5  O   UNL     1     -39.365  18.266 -29.810  1.00  0.00    -0.550 OA
ENDBRANCH   2   3
ENDBRANCH   1   2
BRANCH   1   6
ATOM      6  C   UNL     1     -40.010  21.484 -28.354  1.00  0.00     0.000 C 
BRANCH   6   7
ATOM      7  C   UNL     1     -41.433  21.949 -28.701  1.00  0.00    -0.003 C 
ATOM      8  C   UNL     1     -42.474  21.182 -27.890  1.00  0.00     0.004 C 
ENDBRANCH   6   7
ENDBRANCH   1   6
TORSDOF 4
ENDMDL
MODEL 2
REMARK VINA RESULT:    -3.673      2.495      3.581
REMARK INTER + INTRA:          -4.703
REMARK INTER:                  -4.611
REMARK INTRA:                  -0.092
REMARK UNBOUND:                -0.171
REMARK SMILES CCCCCC(=O)[O-]
REMARK SMILES IDX 4 1 5 2 6 3 7 4 8 5 3 6 2 7 1 8
REMARK H PARENT
REMARK Flexibility Score: inf
ROOT
ATOM      1  C   UNL     1     -39.485  21.170 -28.617  1.00  0.00     0.006 C 
ENDROOT
BRANCH   1   2
ATOM      2  C   UNL     1     -40.685  20.677 -27.797  1.00  0.00     0.053 C 
BRANCH   2   3
ATOM      3  C   UNL     1     -41.914  21.447 -28.159  1.00  0.00     0.041 C 
ATOM      4  O   UNL     1     -43.045  21.054 -27.770  1.00  0.00    -0.550 OA
ATOM      5  O   UNL     1     -41.808  22.628 -28.884  1.00  0.00    -0.550 OA
ENDBRANCH   2   3
ENDBRANCH   1   2
BRANCH   1   6
ATOM      6  C   UNL     1     -39.111  20.207 -29.755  1.00  0.00     0.000 C 
BRANCH   6   7
ATOM      7  C   UNL     1     -40.174  20.159 -30.862  1.00  0.00    -0.003 C 
ATOM      8  C   UNL     1     -40.850  18.792 -30.915  1.00  0.00     0.004 C 
ENDBRANCH   6   7
ENDBRANCH   1   6
TORSDOF 4
ENDMDL
MODEL 3
REMARK VINA RESULT:    -3.636      2.665      4.044
REMARK INTER + INTRA:          -4.657
REMARK INTER:                  -4.543
REMARK INTRA:                  -0.114
REMARK UNBOUND:                -0.171
REMARK SMILES CCCCCC(=O)[O-]
REMARK SMILES IDX 4 1 5 2 6 3 7 4 8 5 3 6 2 7 1 8
REMARK H PARENT
REMARK Flexibility Score: inf
ROOT
ATOM      1  C   UNL     1     -40.213  20.635 -29.989  1.00  0.00     0.006 C 
ENDROOT
BRANCH   1   2
ATOM      2  C   UNL     1     -40.577  20.871 -28.517  1.00  0.00     0.053 C 
BRANCH   2   3
ATOM      3  C   UNL     1     -41.882  21.593 -28.413  1.00  0.00     0.041 C 
ATOM      4  O   UNL     1     -42.847  21.073 -27.794  1.00  0.00    -0.550 OA
ATOM      5  O   UNL     1     -42.020  22.864 -28.957  1.00  0.00    -0.550 OA
ENDBRANCH   2   3
ENDBRANCH   1   2
BRANCH   1   6
ATOM      6  C   UNL     1     -40.209  19.146 -30.366  1.00  0.00     0.000 C 
BRANCH   6   7
ATOM      7  C   UNL     1     -39.111  18.354 -29.638  1.00  0.00    -0.003 C 
ATOM      8  C   UNL     1     -37.724  18.869 -30.011  1.00  0.00     0.004 C 
ENDBRANCH   6   7
ENDBRANCH   1   6
TORSDOF 4
ENDMDL
MODEL 4
REMARK VINA RESULT:    -3.634      1.273      1.823
REMARK INTER + INTRA:          -4.655
REMARK INTER:                  -4.414
REMARK INTRA:                  -0.241
REMARK UNBOUND:                -0.171
REMARK SMILES CCCCCC(=O)[O-]
REMARK SMILES IDX 4 1 5 2 6 3 7 4 8 5 3 6 2 7 1 8
REMARK H PARENT
REMARK Flexibility Score: inf
ROOT
ATOM      1  C   UNL     1     -39.894  20.807 -28.509  1.00  0.00     0.006 C 
ENDROOT
BRANCH   1   2
ATOM      2  C   UNL     1     -39.670  19.519 -29.312  1.00  0.00     0.053 C 
BRANCH   2   3
ATOM      3  C   UNL     1     -40.371  19.598 -30.630  1.00  0.00     0.041 C 
ATOM      4  O   UNL     1     -40.272  20.633 -31.340  1.00  0.00    -0.550 OA
ATOM      5  O   UNL     1     -41.094  18.508 -31.100  1.00  0.00    -0.550 OA
ENDBRANCH   2   3
ENDBRANCH   1   2
BRANCH   1   6
ATOM      6  C   UNL     1     -41.360  20.994 -28.087  1.00  0.00     0.000 C 
BRANCH   6   7
ATOM      7  C   UNL     1     -41.967  22.301 -28.620  1.00  0.00    -0.003 C 
ATOM      8  C   UNL     1     -40.877  23.298 -29.000  1.00  0.00     0.004 C 
ENDBRANCH   6   7
ENDBRANCH   1   6
TORSDOF 4
ENDMDL
MODEL 5
REMARK VINA RESULT:    -3.626      2.481      3.632
REMARK INTER + INTRA:          -4.645
REMARK INTER:                  -4.544
REMARK INTRA:                  -0.101
REMARK UNBOUND:                -0.171
REMARK SMILES CCCCCC(=O)[O-]
REMARK SMILES IDX 4 1 5 2 6 3 7 4 8 5 3 6 2 7 1 8
REMARK H PARENT
REMARK Flexibility Score: inf
ROOT
ATOM      1  C   UNL     1     -39.390  21.135 -29.405  1.00  0.00     0.006 C 
ENDROOT
BRANCH   1   2
ATOM      2  C   UNL     1     -40.302  20.834 -28.208  1.00  0.00     0.053 C 
BRANCH   2   3
ATOM      3  C   UNL     1     -41.602  21.559 -28.349  1.00  0.00     0.041 C 
ATOM      4  O   UNL     1     -41.674  22.600 -29.052  1.00  0.00    -0.550 OA
ATOM      5  O   UNL     1     -42.748  21.058 -27.744  1.00  0.00    -0.550 OA
ENDBRANCH   2   3
ENDBRANCH   1   2
BRANCH   1   6
ATOM      6  C   UNL     1     -38.772  19.865 -30.011  1.00  0.00     0.000 C 
BRANCH   6   7
ATOM      7  C   UNL     1     -39.732  18.666 -29.976  1.00  0.00    -0.003 C 
ATOM      8  C   UNL     1     -40.813  18.795 -31.044  1.00  0.00     0.004 C 
ENDBRANCH   6   7
ENDBRANCH   1   6
TORSDOF 4
ENDMDL
MODEL 6
REMARK VINA RESULT:    -3.543      1.169      1.424
REMARK INTER + INTRA:          -4.543
REMARK INTER:                  -4.405
REMARK INTRA:                  -0.139
REMARK UNBOUND:                -0.171
REMARK SMILES CCCCCC(=O)[O-]
REMARK SMILES IDX 4 1 5 2 6 3 7 4 8 5 3 6 2 7 1 8
REMARK H PARENT
REMARK Flexibility Score: inf
ROOT
ATOM      1  C   UNL     1     -39.836  21.069 -30.218  1.00  0.00     0.006 C 
ENDROOT
BRANCH   1   2
ATOM      2  C   UNL     1     -40.140  19.570 -30.337  1.00  0.00     0.053 C 
BRANCH   2   3
ATOM      3  C   UNL     1     -38.982  18.763 -29.842  1.00  0.00     0.041 C 
ATOM      4  O   UNL     1     -39.174  17.632 -29.323  1.00  0.00    -0.550 OA
ATOM      5  O   UNL     1     -37.686  19.237 -29.998  1.00  0.00    -0.550 OA
ENDBRANCH   2   3
ENDBRANCH   1   2
BRANCH   1   6
ATOM      6  C   UNL     1     -40.190  21.636 -28.834  1.00  0.00     0.000 C 
BRANCH   6   7
ATOM      7  C   UNL     1     -41.649  22.111 -28.744  1.00  0.00    -0.003 C 
ATOM      8  C   UNL     1     -42.488  21.151 -27.907  1.00  0.00     0.004 C 
ENDBRANCH   6   7
ENDBRANCH   1   6
TORSDOF 4
ENDMDL
MODEL 7
REMARK VINA RESULT:    -3.455      2.568      3.562
REMARK INTER + INTRA:          -4.434
REMARK INTER:                  -4.164
REMARK INTRA:                  -0.270
REMARK UNBOUND:                -0.171
REMARK SMILES CCCCCC(=O)[O-]
REMARK SMILES IDX 4 1 5 2 6 3 7 4 8 5 3 6 2 7 1 8
REMARK H PARENT
REMARK Flexibility Score: inf
ROOT
ATOM      1  C   UNL     1     -41.041  20.780 -29.134  1.00  0.00     0.006 C 
ENDROOT
BRANCH   1   2
ATOM      2  C   UNL     1     -40.932  22.306 -29.247  1.00  0.00     0.053 C 
BRANCH   2   3
ATOM      3  C   UNL     1     -40.152  22.685 -30.465  1.00  0.00     0.041 C 
ATOM      4  O   UNL     1     -40.583  22.389 -31.610  1.00  0.00    -0.550 OA
ATOM      5  O   UNL     1     -38.973  23.409 -30.339  1.00  0.00    -0.550 OA
ENDBRANCH   2   3
ENDBRANCH   1   2
BRANCH   1   6
ATOM      6  C   UNL     1     -39.668  20.091 -29.090  1.00  0.00     0.000 C 
BRANCH   6   7
ATOM      7  C   UNL     1     -39.567  18.910 -30.067  1.00  0.00    -0.003 C 
ATOM      8  C   UNL     1     -40.828  18.791 -30.916  1.00  0.00     0.004 C 
ENDBRANCH   6   7
ENDBRANCH   1   6
TORSDOF 4
ENDMDL
MODEL 8
REMARK VINA RESULT:    -3.281      2.861      4.013
REMARK INTER + INTRA:          -4.220
REMARK INTER:                  -4.093
REMARK INTRA:                  -0.126
REMARK UNBOUND:                -0.171
REMARK SMILES CCCCCC(=O)[O-]
REMARK SMILES IDX 4 1 5 2 6 3 7 4 8 5 3 6 2 7 1 8
REMARK H PARENT
REMARK Flexibility Score: inf
ROOT
ATOM      1  C   UNL     1     -39.723  20.559 -27.717  1.00  0.00     0.006 C 
ENDROOT
BRANCH   1   2
ATOM      2  C   UNL     1     -40.756  20.699 -28.844  1.00  0.00     0.053 C 
BRANCH   2   3
ATOM      3  C   UNL     1     -41.873  21.597 -28.418  1.00  0.00     0.041 C 
ATOM      4  O   UNL     1     -41.855  22.819 -28.721  1.00  0.00    -0.550 OA
ATOM      5  O   UNL     1     -42.961  21.076 -27.729  1.00  0.00    -0.550 OA
ENDBRANCH   2   3
ENDBRANCH   1   2
BRANCH   1   6
ATOM      6  C   UNL     1     -38.419  21.316 -28.013  1.00  0.00     0.000 C 
BRANCH   6   7
ATOM      7  C   UNL     1     -37.202  20.384 -28.105  1.00  0.00    -0.003 C 
ATOM      8  C   UNL     1     -37.133  19.702 -29.468  1.00  0.00     0.004 C 
ENDBRANCH   6   7
ENDBRANCH   1   6
TORSDOF 4
ENDMDL
MODEL 9
REMARK VINA RESULT:    -3.210     14.736     15.922
REMARK INTER + INTRA:          -4.132
REMARK INTER:                  -3.972
REMARK INTRA:                  -0.160
REMARK UNBOUND:                -0.171
REMARK SMILES CCCCCC(=O)[O-]
REMARK SMILES IDX 4 1 5 2 6 3 7 4 8 5 3 6 2 7 1 8
REMARK H PARENT
REMARK Flexibility Score: inf
ROOT
ATOM      1  C   UNL     1     -51.622  10.201 -32.529  1.00  0.00     0.006 C 
ENDROOT
BRANCH   1   2
ATOM      2  C   UNL     1     -50.269   9.677 -33.028  1.00  0.00     0.053 C 
BRANCH   2   3
ATOM      3  C   UNL     1     -49.418   9.250 -31.875  1.00  0.00     0.041 C 
ATOM      4  O   UNL     1     -49.353   8.035 -31.552  1.00  0.00    -0.550 OA
ATOM      5  O   UNL     1     -48.657  10.186 -31.187  1.00  0.00    -0.550 OA
ENDBRANCH   2   3
ENDBRANCH   1   2
BRANCH   1   6
ATOM      6  C   UNL     1     -52.646   9.076 -32.309  1.00  0.00     0.000 C 
BRANCH   6   7
ATOM      7  C   UNL     1     -52.763   8.137 -33.519  1.00  0.00    -0.003 C 
ATOM      8  C   UNL     1     -54.166   8.183 -34.116  1.00  0.00     0.004 C 
ENDBRANCH   6   7
ENDBRANCH   1   6
TORSDOF 4
ENDMDL
