MODEL 1
REMARK VINA RESULT:    -4.846      0.000      0.000
REMARK INTER + INTRA:          -7.156
REMARK INTER:                  -6.546
REMARK INTRA:                  -0.610
REMARK UNBOUND:                -0.610
REMARK SMILES CC(=O)CCC=C(C)CCC=C(C)C
REMARK SMILES IDX 7 1 6 2 8 3 9 4 10 5 11 6 13 7 12 8 14 9 5 10 4 11 2 12 3 13
REMARK SMILES IDX 1 14
REMARK H PARENT
REMARK Flexibility Score: inf
ROOT
ATOM      1  C   UNL     1      -2.998   5.508  10.896  1.00  0.00    -0.077 C 
ATOM      2  C   UNL     1      -2.329   6.017  11.956  1.00  0.00    -0.028 C 
ATOM      3  C   UNL     1      -4.053   6.360  10.240  1.00  0.00     0.039 C 
ENDROOT
BRANCH   1   4
ATOM      4  C   UNL     1      -2.784   4.096  10.385  1.00  0.00     0.034 C 
BRANCH   4   5
ATOM      5  C   UNL     1      -4.128   3.412  10.114  1.00  0.00     0.032 C 
BRANCH   5   6
ATOM      6  C   UNL     1      -4.262   3.057   8.653  1.00  0.00    -0.028 C 
ATOM      7  C   UNL     1      -5.332   3.017   6.423  1.00  0.00     0.039 C 
ATOM      8  C   UNL     1      -5.318   3.399   7.880  1.00  0.00    -0.080 C 
ATOM      9  C   UNL     1      -6.520   4.122   8.436  1.00  0.00     0.039 C 
ENDBRANCH   5   6
ENDBRANCH   4   5
ENDBRANCH   1   4
BRANCH   2  10
ATOM     10  C   UNL     1      -1.243   5.296  12.715  1.00  0.00     0.035 C 
BRANCH  10  11
ATOM     11  C   UNL     1      -1.321   5.614  14.212  1.00  0.00     0.079 C 
BRANCH  11  12
ATOM     12  C   UNL     1      -0.780   4.469  15.026  1.00  0.00     0.130 C 
ATOM     13  O   UNL     1      -0.971   3.322  14.652  1.00  0.00    -0.300 OA
ATOM     14  C   UNL     1      -0.013   4.706  16.293  1.00  0.00     0.087 C 
ENDBRANCH  11  12
ENDBRANCH  10  11
ENDBRANCH   2  10
TORSDOF 6
ENDMDL
MODEL 2
REMARK VINA RESULT:    -4.793      4.183      8.936
REMARK INTER + INTRA:          -7.084
REMARK INTER:                  -6.579
REMARK INTRA:                  -0.504
REMARK UNBOUND:                -0.610
REMARK SMILES CC(=O)CCC=C(C)CCC=C(C)C
REMARK SMILES IDX 7 1 6 2 8 3 9 4 10 5 11 6 13 7 12 8 14 9 5 10 4 11 2 12 3 13
REMARK SMILES IDX 1 14
REMARK H PARENT
REMARK Flexibility Score: inf
ROOT
ATOM      1  C   UNL     1      -0.069   4.642  18.626  1.00  0.00    -0.077 C 
ATOM      2  C   UNL     1       0.006   5.594  17.668  1.00  0.00    -0.028 C 
ATOM      3  C   UNL     1      -0.427   5.063  20.027  1.00  0.00     0.039 C 
ENDROOT
BRANCH   1   4
ATOM      4  C   UNL     1       0.258   3.183  18.368  1.00  0.00     0.034 C 
BRANCH   4   5
ATOM      5  C   UNL     1      -0.214   2.311  19.536  1.00  0.00     0.032 C 
BRANCH   5   6
ATOM      6  C   UNL     1      -0.967   1.105  19.032  1.00  0.00    -0.028 C 
ATOM      7  C   UNL     1      -1.577  -1.290  18.900  1.00  0.00     0.039 C 
ATOM      8  C   UNL     1      -0.743  -0.162  19.450  1.00  0.00    -0.080 C 
ATOM      9  C   UNL     1       0.355  -0.503  20.427  1.00  0.00     0.039 C 
ENDBRANCH   5   6
ENDBRANCH   4   5
ENDBRANCH   1   4
BRANCH   2  10
ATOM     10  C   UNL     1       0.344   5.334  16.222  1.00  0.00     0.035 C 
BRANCH  10  11
ATOM     11  C   UNL     1      -0.851   5.651  15.316  1.00  0.00     0.079 C 
BRANCH  11  12
ATOM     12  C   UNL     1      -1.039   4.567  14.289  1.00  0.00     0.130 C 
ATOM     13  O   UNL     1      -1.119   3.403  14.649  1.00  0.00    -0.300 OA
ATOM     14  C   UNL     1      -1.125   4.886  12.826  1.00  0.00     0.087 C 
ENDBRANCH  11  12
ENDBRANCH  10  11
ENDBRANCH   2  10
TORSDOF 6
ENDMDL
MODEL 3
REMARK VINA RESULT:    -4.730      1.251      1.810
REMARK INTER + INTRA:          -6.999
REMARK INTER:                  -6.322
REMARK INTRA:                  -0.678
REMARK UNBOUND:                -0.610
REMARK SMILES CC(=O)CCC=C(C)CCC=C(C)C
REMARK SMILES IDX 7 1 6 2 8 3 9 4 10 5 11 6 13 7 12 8 14 9 5 10 4 11 2 12 3 13
REMARK SMILES IDX 1 14
REMARK H PARENT
REMARK Flexibility Score: inf
ROOT
ATOM      1  C   UNL     1      -4.277   4.557  10.424  1.00  0.00    -0.077 C 
ATOM      2  C   UNL     1      -3.291   5.012  11.230  1.00  0.00    -0.028 C 
ATOM      3  C   UNL     1      -5.628   5.221  10.502  1.00  0.00     0.039 C 
ENDROOT
BRANCH   1   4
ATOM      4  C   UNL     1      -4.107   3.366   9.500  1.00  0.00     0.034 C 
BRANCH   4   5
ATOM      5  C   UNL     1      -4.479   3.742   8.062  1.00  0.00     0.032 C 
BRANCH   5   6
ATOM      6  C   UNL     1      -5.305   2.655   7.422  1.00  0.00    -0.028 C 
ATOM      7  C   UNL     1      -7.336   1.636   6.441  1.00  0.00     0.039 C 
ATOM      8  C   UNL     1      -6.615   2.779   7.107  1.00  0.00    -0.080 C 
ATOM      9  C   UNL     1      -7.407   4.019   7.441  1.00  0.00     0.039 C 
ENDBRANCH   5   6
ENDBRANCH   4   5
ENDBRANCH   1   4
BRANCH   2  10
ATOM     10  C   UNL     1      -1.888   4.461  11.267  1.00  0.00     0.035 C 
BRANCH  10  11
ATOM     11  C   UNL     1      -0.990   5.312  12.171  1.00  0.00     0.079 C 
BRANCH  11  12
ATOM     12  C   UNL     1      -1.090   4.852  13.601  1.00  0.00     0.130 C 
ATOM     13  O   UNL     1      -0.951   3.667  13.863  1.00  0.00    -0.300 OA
ATOM     14  C   UNL     1      -1.361   5.819  14.715  1.00  0.00     0.087 C 
ENDBRANCH  11  12
ENDBRANCH  10  11
ENDBRANCH   2  10
TORSDOF 6
ENDMDL
MODEL 4
REMARK VINA RESULT:    -4.729     15.151     17.967
REMARK INTER + INTRA:          -6.998
REMARK INTER:                  -5.443
REMARK INTRA:                  -1.555
REMARK UNBOUND:                -0.610
REMARK SMILES CC(=O)CCC=C(C)CCC=C(C)C
REMARK SMILES IDX 7 1 6 2 8 3 9 4 10 5 11 6 13 7 12 8 14 9 5 10 4 11 2 12 3 13
REMARK SMILES IDX 1 14
REMARK H PARENT
REMARK Flexibility Score: inf
ROOT
ATOM      1  C   UNL     1     -16.007  -8.312   7.636  1.00  0.00    -0.077 C 
ATOM      2  C   UNL     1     -15.032  -7.506   8.113  1.00  0.00    -0.028 C 
ATOM      3  C   UNL     1     -16.321  -9.578   8.391  1.00  0.00     0.039 C 
ENDROOT
BRANCH   1   4
ATOM      4  C   UNL     1     -16.748  -8.038   6.342  1.00  0.00     0.034 C 
BRANCH   4   5
ATOM      5  C   UNL     1     -18.229  -7.760   6.617  1.00  0.00     0.032 C 
BRANCH   5   6
ATOM      6  C   UNL     1     -18.504  -6.276   6.615  1.00  0.00    -0.028 C 
ATOM      7  C   UNL     1     -18.888  -4.044   7.612  1.00  0.00     0.039 C 
ATOM      8  C   UNL     1     -18.645  -5.526   7.732  1.00  0.00    -0.080 C 
ATOM      9  C   UNL     1     -18.612  -6.131   9.114  1.00  0.00     0.039 C 
ENDBRANCH   5   6
ENDBRANCH   4   5
ENDBRANCH   1   4
BRANCH   2  10
ATOM     10  C   UNL     1     -14.606  -6.205   7.480  1.00  0.00     0.035 C 
BRANCH  10  11
ATOM     11  C   UNL     1     -15.079  -5.010   8.314  1.00  0.00     0.079 C 
BRANCH  11  12
ATOM     12  C   UNL     1     -14.788  -3.717   7.601  1.00  0.00     0.130 C 
ATOM     13  O   UNL     1     -13.975  -2.938   8.075  1.00  0.00    -0.300 OA
ATOM     14  C   UNL     1     -15.480  -3.360   6.319  1.00  0.00     0.087 C 
ENDBRANCH  11  12
ENDBRANCH  10  11
ENDBRANCH   2  10
TORSDOF 6
ENDMDL
MODEL 5
REMARK VINA RESULT:    -4.712      1.973      4.119
REMARK INTER + INTRA:          -6.974
REMARK INTER:                  -6.353
REMARK INTRA:                  -0.621
REMARK UNBOUND:                -0.610
REMARK SMILES CC(=O)CCC=C(C)CCC=C(C)C
REMARK SMILES IDX 7 1 6 2 8 3 9 4 10 5 11 6 13 7 12 8 14 9 5 10 4 11 2 12 3 13
REMARK SMILES IDX 1 14
REMARK H PARENT
REMARK Flexibility Score: inf
ROOT
ATOM      1  C   UNL     1      -1.127   6.025  14.832  1.00  0.00    -0.077 C 
ATOM      2  C   UNL     1      -0.532   5.976  16.046  1.00  0.00    -0.028 C 
ATOM      3  C   UNL     1      -1.917   7.257  14.472  1.00  0.00     0.039 C 
ENDROOT
BRANCH   1   4
ATOM      4  C   UNL     1      -1.096   4.871  13.849  1.00  0.00     0.034 C 
BRANCH   4   5
ATOM      5  C   UNL     1      -1.037   5.391  12.409  1.00  0.00     0.032 C 
BRANCH   5   6
ATOM      6  C   UNL     1      -1.771   4.461  11.475  1.00  0.00    -0.028 C 
ATOM      7  C   UNL     1      -3.634   3.714  10.027  1.00  0.00     0.039 C 
ATOM      8  C   UNL     1      -3.007   4.699  10.979  1.00  0.00    -0.080 C 
ATOM      9  C   UNL     1      -3.814   5.909  11.381  1.00  0.00     0.039 C 
ENDBRANCH   5   6
ENDBRANCH   4   5
ENDBRANCH   1   4
BRANCH   2  10
ATOM     10  C   UNL     1       0.296   4.821  16.552  1.00  0.00     0.035 C 
BRANCH  10  11
ATOM     11  C   UNL     1      -0.019   4.527  18.022  1.00  0.00     0.079 C 
BRANCH  11  12
ATOM     12  C   UNL     1      -0.102   3.044  18.260  1.00  0.00     0.130 C 
ATOM     13  O   UNL     1      -0.224   2.287  17.309  1.00  0.00    -0.300 OA
ATOM     14  C   UNL     1      -0.043   2.471  19.646  1.00  0.00     0.087 C 
ENDBRANCH  11  12
ENDBRANCH  10  11
ENDBRANCH   2  10
TORSDOF 6
ENDMDL
MODEL 6
REMARK VINA RESULT:    -4.630     12.431     14.650
REMARK INTER + INTRA:          -6.864
REMARK INTER:                  -5.673
REMARK INTRA:                  -1.191
REMARK UNBOUND:                -0.610
REMARK SMILES CC(=O)CCC=C(C)CCC=C(C)C
REMARK SMILES IDX 7 1 6 2 8 3 9 4 10 5 11 6 13 7 12 8 14 9 5 10 4 11 2 12 3 13
REMARK SMILES IDX 1 14
REMARK H PARENT
REMARK Flexibility Score: inf
ROOT
ATOM      1  C   UNL     1     -12.217  -1.486   5.557  1.00  0.00    -0.077 C 
ATOM      2  C   UNL     1     -12.937  -2.476   6.132  1.00  0.00    -0.028 C 
ATOM      3  C   UNL     1     -10.801  -1.782   5.139  1.00  0.00     0.039 C 
ENDROOT
BRANCH   1   4
ATOM      4  C   UNL     1     -12.746  -0.076   5.380  1.00  0.00     0.034 C 
BRANCH   4   5
ATOM      5  C   UNL     1     -13.237   0.139   3.945  1.00  0.00     0.032 C 
BRANCH   5   6
ATOM      6  C   UNL     1     -14.724  -0.097   3.847  1.00  0.00    -0.028 C 
ATOM      7  C   UNL     1     -16.785  -1.349   3.293  1.00  0.00     0.039 C 
ATOM      8  C   UNL     1     -15.286  -1.205   3.310  1.00  0.00    -0.080 C 
ATOM      9  C   UNL     1     -14.459  -2.298   2.679  1.00  0.00     0.039 C 
ENDBRANCH   5   6
ENDBRANCH   4   5
ENDBRANCH   1   4
BRANCH   2  10
ATOM     10  C   UNL     1     -14.365  -2.342   6.598  1.00  0.00     0.035 C 
BRANCH  10  11
ATOM     11  C   UNL     1     -15.076  -3.700   6.577  1.00  0.00     0.079 C 
BRANCH  11  12
ATOM     12  C   UNL     1     -15.239  -4.234   7.974  1.00  0.00     0.130 C 
ATOM     13  O   UNL     1     -14.282  -4.237   8.734  1.00  0.00    -0.300 OA
ATOM     14  C   UNL     1     -16.555  -4.771   8.456  1.00  0.00     0.087 C 
ENDBRANCH  11  12
ENDBRANCH  10  11
ENDBRANCH   2  10
TORSDOF 6
ENDMDL
MODEL 7
REMARK VINA RESULT:    -4.617      3.829      8.303
REMARK INTER + INTRA:          -6.847
REMARK INTER:                  -6.071
REMARK INTRA:                  -0.775
REMARK UNBOUND:                -0.610
REMARK SMILES CC(=O)CCC=C(C)CCC=C(C)C
REMARK SMILES IDX 7 1 6 2 8 3 9 4 10 5 11 6 13 7 12 8 14 9 5 10 4 11 2 12 3 13
REMARK SMILES IDX 1 14
REMARK H PARENT
REMARK Flexibility Score: inf
ROOT
ATOM      1  C   UNL     1      -0.366   6.108  17.500  1.00  0.00    -0.077 C 
ATOM      2  C   UNL     1      -0.643   6.935  16.466  1.00  0.00    -0.028 C 
ATOM      3  C   UNL     1      -0.723   6.559  18.893  1.00  0.00     0.039 C 
ENDROOT
BRANCH   1   4
ATOM      4  C   UNL     1       0.351   4.783  17.329  1.00  0.00     0.034 C 
BRANCH   4   5
ATOM      5  C   UNL     1       0.682   4.169  18.693  1.00  0.00     0.032 C 
BRANCH   5   6
ATOM      6  C   UNL     1       0.334   2.701  18.718  1.00  0.00    -0.028 C 
ATOM      7  C   UNL     1      -1.056   0.713  19.205  1.00  0.00     0.039 C 
ATOM      8  C   UNL     1      -0.796   2.195  19.264  1.00  0.00    -0.080 C 
ATOM      9  C   UNL     1      -1.800   3.064  19.980  1.00  0.00     0.039 C 
ENDBRANCH   5   6
ENDBRANCH   4   5
ENDBRANCH   1   4
BRANCH   2  10
ATOM     10  C   UNL     1      -0.355   6.628  15.018  1.00  0.00     0.035 C 
BRANCH  10  11
ATOM     11  C   UNL     1      -1.547   5.924  14.361  1.00  0.00     0.079 C 
BRANCH  11  12
ATOM     12  C   UNL     1      -1.079   4.781  13.501  1.00  0.00     0.130 C 
ATOM     13  O   UNL     1      -0.673   3.757  14.029  1.00  0.00    -0.300 OA
ATOM     14  C   UNL     1      -1.095   4.875  12.004  1.00  0.00     0.087 C 
ENDBRANCH  11  12
ENDBRANCH  10  11
ENDBRANCH   2  10
TORSDOF 6
ENDMDL
MODEL 8
REMARK VINA RESULT:    -4.590      1.821      3.132
REMARK INTER + INTRA:          -6.810
REMARK INTER:                  -5.977
REMARK INTRA:                  -0.833
REMARK UNBOUND:                -0.610
REMARK SMILES CC(=O)CCC=C(C)CCC=C(C)C
REMARK SMILES IDX 7 1 6 2 8 3 9 4 10 5 11 6 13 7 12 8 14 9 5 10 4 11 2 12 3 13
REMARK SMILES IDX 1 14
REMARK H PARENT
REMARK Flexibility Score: inf
ROOT
ATOM      1  C   UNL     1      -2.036   7.254  13.466  1.00  0.00    -0.077 C 
ATOM      2  C   UNL     1      -1.131   7.830  14.290  1.00  0.00    -0.028 C 
ATOM      3  C   UNL     1      -3.124   8.117  12.883  1.00  0.00     0.039 C 
ENDROOT
BRANCH   1   4
ATOM      4  C   UNL     1      -2.047   5.768  13.161  1.00  0.00     0.034 C 
BRANCH   4   5
ATOM      5  C   UNL     1      -1.579   5.510  11.725  1.00  0.00     0.032 C 
BRANCH   5   6
ATOM      6  C   UNL     1      -2.388   4.406  11.089  1.00  0.00    -0.028 C 
ATOM      7  C   UNL     1      -4.128   3.429   9.625  1.00  0.00     0.039 C 
ATOM      8  C   UNL     1      -3.407   4.609  10.224  1.00  0.00    -0.080 C 
ATOM      9  C   UNL     1      -3.888   5.993   9.861  1.00  0.00     0.039 C 
ENDBRANCH   5   6
ENDBRANCH   4   5
ENDBRANCH   1   4
BRANCH   2  10
ATOM     10  C   UNL     1       0.018   7.106  14.946  1.00  0.00     0.035 C 
BRANCH  10  11
ATOM     11  C   UNL     1      -0.371   6.622  16.347  1.00  0.00     0.079 C 
BRANCH  11  12
ATOM     12  C   UNL     1       0.092   5.206  16.565  1.00  0.00     0.130 C 
ATOM     13  O   UNL     1       0.833   4.953  17.502  1.00  0.00    -0.300 OA
ATOM     14  C   UNL     1      -0.333   4.096  15.649  1.00  0.00     0.087 C 
ENDBRANCH  11  12
ENDBRANCH  10  11
ENDBRANCH   2  10
TORSDOF 6
ENDMDL
MODEL 9
REMARK VINA RESULT:    -4.565      4.614      7.661
REMARK INTER + INTRA:          -6.776
REMARK INTER:                  -5.436
REMARK INTRA:                  -1.340
REMARK UNBOUND:                -0.610
REMARK SMILES CC(=O)CCC=C(C)CCC=C(C)C
REMARK SMILES IDX 7 1 6 2 8 3 9 4 10 5 11 6 13 7 12 8 14 9 5 10 4 11 2 12 3 13
REMARK SMILES IDX 1 14
REMARK H PARENT
REMARK Flexibility Score: inf
ROOT
ATOM      1  C   UNL     1      -0.932   6.271  14.604  1.00  0.00    -0.077 C 
ATOM      2  C   UNL     1      -0.756   5.272  15.499  1.00  0.00    -0.028 C 
ATOM      3  C   UNL     1      -2.119   6.201  13.679  1.00  0.00     0.039 C 
ENDROOT
BRANCH   1   4
ATOM      4  C   UNL     1       0.048   7.417  14.441  1.00  0.00     0.034 C 
BRANCH   4   5
ATOM      5  C   UNL     1      -0.512   8.698  15.067  1.00  0.00     0.032 C 
BRANCH   5   6
ATOM      6  C   UNL     1       0.098   8.940  16.426  1.00  0.00    -0.028 C 
ATOM      7  C   UNL     1       0.198   8.920  18.898  1.00  0.00     0.039 C 
ATOM      8  C   UNL     1      -0.519   8.665  17.598  1.00  0.00    -0.080 C 
ATOM      9  C   UNL     1      -1.935   8.146  17.657  1.00  0.00     0.039 C 
ENDBRANCH   5   6
ENDBRANCH   4   5
ENDBRANCH   1   4
BRANCH   2  10
ATOM     10  C   UNL     1       0.375   5.199  16.495  1.00  0.00     0.035 C 
BRANCH  10  11
ATOM     11  C   UNL     1      -0.147   4.831  17.888  1.00  0.00     0.079 C 
BRANCH  11  12
ATOM     12  C   UNL     1       0.248   3.425  18.247  1.00  0.00     0.130 C 
ATOM     13  O   UNL     1      -0.125   2.496  17.547  1.00  0.00    -0.300 OA
ATOM     14  C   UNL     1       1.090   3.136  19.455  1.00  0.00     0.087 C 
ENDBRANCH  11  12
ENDBRANCH  10  11
ENDBRANCH   2  10
TORSDOF 6
ENDMDL
