MODEL 1
REMARK VINA RESULT:     2.355      0.000      0.000
REMARK INTER + INTRA:           3.792
REMARK INTER:                   4.421
REMARK INTRA:                  -0.629
REMARK UNBOUND:                -0.629
REMARK SMILES O=C([O-])CCCCCCCCCCCCCCC(=O)[O-]
REMARK SMILES IDX 10 1 9 2 8 3 7 4 6 5 5 6 4 7 2 8 1 9 3 10 11 11 12 12 13 13
REMARK SMILES IDX 14 14 15 15 16 16 17 17 18 18 19 19 20 20
REMARK H PARENT
REMARK Flexibility Score: inf
ROOT
ATOM      1  C   UNL     1       9.502  28.836   9.392  1.00  0.00     0.000 C 
ENDROOT
BRANCH   1   2
ATOM      2  C   UNL     1       8.737  29.633   8.321  1.00  0.00     0.000 C 
BRANCH   2   3
ATOM      3  C   UNL     1       7.436  28.940   7.876  1.00  0.00     0.000 C 
BRANCH   3   4
ATOM      4  C   UNL     1       6.489  28.536   9.021  1.00  0.00     0.000 C 
BRANCH   4   5
ATOM      5  C   UNL     1       5.616  27.318   8.673  1.00  0.00     0.000 C 
BRANCH   5   6
ATOM      6  C   UNL     1       4.112  27.622   8.781  1.00  0.00     0.006 C 
BRANCH   6   7
ATOM      7  C   UNL     1       3.678  28.784   7.879  1.00  0.00     0.053 C 
BRANCH   7   8
ATOM      8  C   UNL     1       2.981  29.836   8.682  1.00  0.00     0.041 C 
ATOM      9  O   UNL     1       3.619  30.835   9.107  1.00  0.00    -0.550 OA
ATOM     10  O   UNL     1       1.638  29.688   9.006  1.00  0.00    -0.550 OA
ENDBRANCH   7   8
ENDBRANCH   6   7
ENDBRANCH   5   6
ENDBRANCH   4   5
ENDBRANCH   3   4
ENDBRANCH   2   3
ENDBRANCH   1   2
BRANCH   1  11
ATOM     11  C   UNL     1      10.928  29.364   9.618  1.00  0.00     0.000 C 
BRANCH  11  12
ATOM     12  C   UNL     1      11.098  30.819   9.146  1.00  0.00     0.000 C 
BRANCH  12  13
ATOM     13  C   UNL     1      11.957  30.929   7.875  1.00  0.00     0.000 C 
BRANCH  13  14
ATOM     14  C   UNL     1      13.438  30.603   8.134  1.00  0.00     0.000 C 
BRANCH  14  15
ATOM     15  C   UNL     1      13.807  30.688   9.625  1.00  0.00     0.000 C 
BRANCH  15  16
ATOM     16  C   UNL     1      14.328  29.352  10.184  1.00  0.00     0.006 C 
BRANCH  16  17
ATOM     17  C   UNL     1      14.911  28.453   9.085  1.00  0.00     0.053 C 
BRANCH  17  18
ATOM     18  C   UNL     1      14.294  27.089   9.098  1.00  0.00     0.041 C 
ATOM     19  O   UNL     1      13.296  26.853   9.829  1.00  0.00    -0.550 OA
ATOM     20  O   UNL     1      14.796  26.089   8.274  1.00  0.00    -0.550 OA
ENDBRANCH  17  18
ENDBRANCH  16  17
ENDBRANCH  15  16
ENDBRANCH  14  15
ENDBRANCH  13  14
ENDBRANCH  12  13
ENDBRANCH  11  12
ENDBRANCH   1  11
TORSDOF 15
ENDMDL
MODEL 2
REMARK VINA RESULT:     2.715      2.117      2.797
REMARK INTER + INTRA:           4.466
REMARK INTER:                   3.957
REMARK INTRA:                   0.509
REMARK UNBOUND:                -0.629
REMARK SMILES O=C([O-])CCCCCCCCCCCCCCC(=O)[O-]
REMARK SMILES IDX 10 1 9 2 8 3 7 4 6 5 5 6 4 7 2 8 1 9 3 10 11 11 12 12 13 13
REMARK SMILES IDX 14 14 15 15 16 16 17 17 18 18 19 19 20 20
REMARK H PARENT
REMARK Flexibility Score: inf
ROOT
ATOM      1  C   UNL     1       9.550  28.928   9.299  1.00  0.00     0.000 C 
ENDROOT
BRANCH   1   2
ATOM      2  C   UNL     1       8.708  29.352   8.083  1.00  0.00     0.000 C 
BRANCH   2   3
ATOM      3  C   UNL     1       7.467  28.464   7.876  1.00  0.00     0.000 C 
BRANCH   3   4
ATOM      4  C   UNL     1       6.489  28.424   9.065  1.00  0.00     0.000 C 
BRANCH   4   5
ATOM      5  C   UNL     1       5.551  27.206   9.027  1.00  0.00     0.000 C 
BRANCH   5   6
ATOM      6  C   UNL     1       4.074  27.606   8.872  1.00  0.00     0.006 C 
BRANCH   6   7
ATOM      7  C   UNL     1       3.900  29.065   8.433  1.00  0.00     0.053 C 
BRANCH   7   8
ATOM      8  C   UNL     1       2.455  29.366   8.186  1.00  0.00     0.041 C 
ATOM      9  O   UNL     1       2.027  30.546   8.290  1.00  0.00    -0.550 OA
ATOM     10  O   UNL     1       1.570  28.336   7.891  1.00  0.00    -0.550 OA
ENDBRANCH   7   8
ENDBRANCH   6   7
ENDBRANCH   5   6
ENDBRANCH   4   5
ENDBRANCH   3   4
ENDBRANCH   2   3
ENDBRANCH   1   2
BRANCH   1  11
ATOM     11  C   UNL     1      10.944  29.575   9.310  1.00  0.00     0.000 C 
BRANCH  11  12
ATOM     12  C   UNL     1      11.860  29.016   8.206  1.00  0.00     0.000 C 
BRANCH  12  13
ATOM     13  C   UNL     1      12.849  27.965   8.738  1.00  0.00     0.000 C 
BRANCH  13  14
ATOM     14  C   UNL     1      14.003  28.594   9.539  1.00  0.00     0.000 C 
BRANCH  14  15
ATOM     15  C   UNL     1      14.366  30.003   9.040  1.00  0.00     0.000 C 
BRANCH  15  16
ATOM     16  C   UNL     1      13.639  31.114   9.818  1.00  0.00     0.006 C 
BRANCH  16  17
ATOM     17  C   UNL     1      13.825  30.973  11.335  1.00  0.00     0.053 C 
BRANCH  17  18
ATOM     18  C   UNL     1      12.523  31.085  12.067  1.00  0.00     0.041 C 
ATOM     19  O   UNL     1      11.439  31.121  11.427  1.00  0.00    -0.550 OA
ATOM     20  O   UNL     1      12.504  31.113  13.456  1.00  0.00    -0.550 OA
ENDBRANCH  17  18
ENDBRANCH  16  17
ENDBRANCH  15  16
ENDBRANCH  14  15
ENDBRANCH  13  14
ENDBRANCH  12  13
ENDBRANCH  11  12
ENDBRANCH   1  11
TORSDOF 15
ENDMDL
MODEL 3
REMARK VINA RESULT:     2.968     21.589     24.923
REMARK INTER + INTRA:           4.941
REMARK INTER:                   5.393
REMARK INTRA:                  -0.453
REMARK UNBOUND:                -0.629
REMARK SMILES O=C([O-])CCCCCCCCCCCCCCC(=O)[O-]
REMARK SMILES IDX 10 1 9 2 8 3 7 4 6 5 5 6 4 7 2 8 1 9 3 10 11 11 12 12 13 13
REMARK SMILES IDX 14 14 15 15 16 16 17 17 18 18 19 19 20 20
REMARK H PARENT
REMARK Flexibility Score: inf
ROOT
ATOM      1  C   UNL     1      -3.790  21.072  27.493  1.00  0.00     0.000 C 
ENDROOT
BRANCH   1   2
ATOM      2  C   UNL     1      -2.771  20.014  27.035  1.00  0.00     0.000 C 
BRANCH   2   3
ATOM      3  C   UNL     1      -3.198  18.579  27.391  1.00  0.00     0.000 C 
BRANCH   3   4
ATOM      4  C   UNL     1      -4.697  18.403  27.698  1.00  0.00     0.000 C 
BRANCH   4   5
ATOM      5  C   UNL     1      -5.074  16.947  28.025  1.00  0.00     0.000 C 
BRANCH   5   6
ATOM      6  C   UNL     1      -3.952  15.956  27.671  1.00  0.00     0.006 C 
BRANCH   6   7
ATOM      7  C   UNL     1      -4.144  15.314  26.291  1.00  0.00     0.053 C 
BRANCH   7   8
ATOM      8  C   UNL     1      -4.131  13.822  26.404  1.00  0.00     0.041 C 
ATOM      9  O   UNL     1      -3.663  13.268  27.434  1.00  0.00    -0.550 OA
ATOM     10  O   UNL     1      -4.589  13.040  25.351  1.00  0.00    -0.550 OA
ENDBRANCH   7   8
ENDBRANCH   6   7
ENDBRANCH   5   6
ENDBRANCH   4   5
ENDBRANCH   3   4
ENDBRANCH   2   3
ENDBRANCH   1   2
BRANCH   1  11
ATOM     11  C   UNL     1      -4.906  21.307  26.463  1.00  0.00     0.000 C 
BRANCH  11  12
ATOM     12  C   UNL     1      -5.120  22.800  26.156  1.00  0.00     0.000 C 
BRANCH  12  13
ATOM     13  C   UNL     1      -4.276  23.714  27.060  1.00  0.00     0.000 C 
BRANCH  13  14
ATOM     14  C   UNL     1      -5.124  24.443  28.118  1.00  0.00     0.000 C 
BRANCH  14  15
ATOM     15  C   UNL     1      -5.025  25.973  28.000  1.00  0.00     0.000 C 
BRANCH  15  16
ATOM     16  C   UNL     1      -5.104  26.461  26.543  1.00  0.00     0.006 C 
BRANCH  16  17
ATOM     17  C   UNL     1      -4.752  27.949  26.412  1.00  0.00     0.053 C 
BRANCH  17  18
ATOM     18  C   UNL     1      -3.340  28.148  25.956  1.00  0.00     0.041 C 
ATOM     19  O   UNL     1      -3.100  28.471  24.763  1.00  0.00    -0.550 OA
ATOM     20  O   UNL     1      -2.290  28.013  26.857  1.00  0.00    -0.550 OA
ENDBRANCH  17  18
ENDBRANCH  16  17
ENDBRANCH  15  16
ENDBRANCH  14  15
ENDBRANCH  13  14
ENDBRANCH  12  13
ENDBRANCH  11  12
ENDBRANCH   1  11
TORSDOF 15
ENDMDL
MODEL 4
REMARK VINA RESULT:     3.049     22.577     25.320
REMARK INTER + INTRA:           5.094
REMARK INTER:                   4.804
REMARK INTRA:                   0.290
REMARK UNBOUND:                -0.629
REMARK SMILES O=C([O-])CCCCCCCCCCCCCCC(=O)[O-]
REMARK SMILES IDX 10 1 9 2 8 3 7 4 6 5 5 6 4 7 2 8 1 9 3 10 11 11 12 12 13 13
REMARK SMILES IDX 14 14 15 15 16 16 17 17 18 18 19 19 20 20
REMARK H PARENT
REMARK Flexibility Score: inf
ROOT
ATOM      1  C   UNL     1      -3.917  19.455  27.780  1.00  0.00     0.000 C 
ENDROOT
BRANCH   1   2
ATOM      2  C   UNL     1      -2.656  18.645  27.432  1.00  0.00     0.000 C 
BRANCH   2   3
ATOM      3  C   UNL     1      -2.781  17.156  27.802  1.00  0.00     0.000 C 
BRANCH   3   4
ATOM      4  C   UNL     1      -4.221  16.609  27.827  1.00  0.00     0.000 C 
BRANCH   4   5
ATOM      5  C   UNL     1      -4.656  16.010  26.478  1.00  0.00     0.000 C 
BRANCH   5   6
ATOM      6  C   UNL     1      -3.922  14.699  26.152  1.00  0.00     0.006 C 
BRANCH   6   7
ATOM      7  C   UNL     1      -4.599  13.906  25.027  1.00  0.00     0.053 C 
BRANCH   7   8
ATOM      8  C   UNL     1      -4.111  12.492  25.019  1.00  0.00     0.041 C 
ATOM      9  O   UNL     1      -4.134  11.819  23.955  1.00  0.00    -0.550 OA
ATOM     10  O   UNL     1      -3.678  11.899  26.199  1.00  0.00    -0.550 OA
ENDBRANCH   7   8
ENDBRANCH   6   7
ENDBRANCH   5   6
ENDBRANCH   4   5
ENDBRANCH   3   4
ENDBRANCH   2   3
ENDBRANCH   1   2
BRANCH   1  11
ATOM     11  C   UNL     1      -4.952  19.458  26.643  1.00  0.00     0.000 C 
BRANCH  11  12
ATOM     12  C   UNL     1      -5.108  20.844  25.993  1.00  0.00     0.000 C 
BRANCH  12  13
ATOM     13  C   UNL     1      -4.047  21.846  26.479  1.00  0.00     0.000 C 
BRANCH  13  14
ATOM     14  C   UNL     1      -4.250  22.253  27.949  1.00  0.00     0.000 C 
BRANCH  14  15
ATOM     15  C   UNL     1      -5.124  23.510  28.096  1.00  0.00     0.000 C 
BRANCH  15  16
ATOM     16  C   UNL     1      -5.063  24.422  26.858  1.00  0.00     0.006 C 
BRANCH  16  17
ATOM     17  C   UNL     1      -4.963  25.906  27.238  1.00  0.00     0.053 C 
BRANCH  17  18
ATOM     18  C   UNL     1      -4.611  26.758  26.059  1.00  0.00     0.041 C 
ATOM     19  O   UNL     1      -4.087  27.890  26.230  1.00  0.00    -0.550 OA
ATOM     20  O   UNL     1      -4.827  26.288  24.769  1.00  0.00    -0.550 OA
ENDBRANCH  17  18
ENDBRANCH  16  17
ENDBRANCH  15  16
ENDBRANCH  14  15
ENDBRANCH  13  14
ENDBRANCH  12  13
ENDBRANCH  11  12
ENDBRANCH   1  11
TORSDOF 15
ENDMDL
MODEL 5
REMARK VINA RESULT:     3.092      1.134      9.683
REMARK INTER + INTRA:           5.175
REMARK INTER:                   5.140
REMARK INTRA:                   0.034
REMARK UNBOUND:                -0.629
REMARK SMILES O=C([O-])CCCCCCCCCCCCCCC(=O)[O-]
REMARK SMILES IDX 10 1 9 2 8 3 7 4 6 5 5 6 4 7 2 8 1 9 3 10 11 11 12 12 13 13
REMARK SMILES IDX 14 14 15 15 16 16 17 17 18 18 19 19 20 20
REMARK H PARENT
REMARK Flexibility Score: inf
ROOT
ATOM      1  C   UNL     1       9.101  29.079   9.135  1.00  0.00     0.000 C 
ENDROOT
BRANCH   1   2
ATOM      2  C   UNL     1      10.130  29.871   8.310  1.00  0.00     0.000 C 
BRANCH   2   3
ATOM      3  C   UNL     1      11.489  29.156   8.204  1.00  0.00     0.000 C 
BRANCH   3   4
ATOM      4  C   UNL     1      12.645  29.841   8.958  1.00  0.00     0.000 C 
BRANCH   4   5
ATOM      5  C   UNL     1      13.916  29.985   8.102  1.00  0.00     0.000 C 
BRANCH   5   6
ATOM      6  C   UNL     1      14.913  28.837   8.333  1.00  0.00     0.006 C 
BRANCH   6   7
ATOM      7  C   UNL     1      14.556  27.980   9.554  1.00  0.00     0.053 C 
BRANCH   7   8
ATOM      8  C   UNL     1      14.121  26.615   9.123  1.00  0.00     0.041 C 
ATOM      9  O   UNL     1      12.898  26.314   9.110  1.00  0.00    -0.550 OA
ATOM     10  O   UNL     1      15.068  25.658   8.783  1.00  0.00    -0.550 OA
ENDBRANCH   7   8
ENDBRANCH   6   7
ENDBRANCH   5   6
ENDBRANCH   4   5
ENDBRANCH   3   4
ENDBRANCH   2   3
ENDBRANCH   1   2
BRANCH   1  11
ATOM     11  C   UNL     1       7.773  28.874   8.389  1.00  0.00     0.000 C 
BRANCH  11  12
ATOM     12  C   UNL     1       6.722  28.146   9.247  1.00  0.00     0.000 C 
BRANCH  12  13
ATOM     13  C   UNL     1       5.806  27.236   8.411  1.00  0.00     0.000 C 
BRANCH  13  14
ATOM     14  C   UNL     1       4.356  27.226   8.927  1.00  0.00     0.000 C 
BRANCH  14  15
ATOM     15  C   UNL     1       3.446  28.188   8.144  1.00  0.00     0.000 C 
BRANCH  15  16
ATOM     16  C   UNL     1       4.113  29.549   7.875  1.00  0.00     0.006 C 
BRANCH  16  17
ATOM     17  C   UNL     1       3.328  30.710   8.499  1.00  0.00     0.053 C 
BRANCH  17  18
ATOM     18  C   UNL     1       1.972  30.278   8.963  1.00  0.00     0.041 C 
ATOM     19  O   UNL     1       1.641  30.419  10.170  1.00  0.00    -0.550 OA
ATOM     20  O   UNL     1       1.059  29.754   8.056  1.00  0.00    -0.550 OA
ENDBRANCH  17  18
ENDBRANCH  16  17
ENDBRANCH  15  16
ENDBRANCH  14  15
ENDBRANCH  13  14
ENDBRANCH  12  13
ENDBRANCH  11  12
ENDBRANCH   1  11
TORSDOF 15
ENDMDL
MODEL 6
REMARK VINA RESULT:     3.228      2.256      9.061
REMARK INTER + INTRA:           5.429
REMARK INTER:                   5.481
REMARK INTRA:                  -0.052
REMARK UNBOUND:                -0.629
REMARK SMILES O=C([O-])CCCCCCCCCCCCCCC(=O)[O-]
REMARK SMILES IDX 10 1 9 2 8 3 7 4 6 5 5 6 4 7 2 8 1 9 3 10 11 11 12 12 13 13
REMARK SMILES IDX 14 14 15 15 16 16 17 17 18 18 19 19 20 20
REMARK H PARENT
REMARK Flexibility Score: inf
ROOT
ATOM      1  C   UNL     1       9.159  29.090   9.069  1.00  0.00     0.000 C 
ENDROOT
BRANCH   1   2
ATOM      2  C   UNL     1      10.132  29.766   8.087  1.00  0.00     0.000 C 
BRANCH   2   3
ATOM      3  C   UNL     1      11.443  28.979   7.907  1.00  0.00     0.000 C 
BRANCH   3   4
ATOM      4  C   UNL     1      12.727  29.773   8.214  1.00  0.00     0.000 C 
BRANCH   4   5
ATOM      5  C   UNL     1      13.681  29.025   9.161  1.00  0.00     0.000 C 
BRANCH   5   6
ATOM      6  C   UNL     1      13.699  29.628  10.576  1.00  0.00     0.006 C 
BRANCH   6   7
ATOM      7  C   UNL     1      13.128  31.051  10.619  1.00  0.00     0.053 C 
BRANCH   7   8
ATOM      8  C   UNL     1      11.849  31.076  11.396  1.00  0.00     0.041 C 
ATOM      9  O   UNL     1      10.743  31.124  10.795  1.00  0.00    -0.550 OA
ATOM     10  O   UNL     1      11.879  31.096  12.785  1.00  0.00    -0.550 OA
ENDBRANCH   7   8
ENDBRANCH   6   7
ENDBRANCH   5   6
ENDBRANCH   4   5
ENDBRANCH   3   4
ENDBRANCH   2   3
ENDBRANCH   1   2
BRANCH   1  11
ATOM     11  C   UNL     1       7.781  28.818   8.445  1.00  0.00     0.000 C 
BRANCH  11  12
ATOM     12  C   UNL     1       6.779  28.239   9.460  1.00  0.00     0.000 C 
BRANCH  12  13
ATOM     13  C   UNL     1       5.856  27.178   8.838  1.00  0.00     0.000 C 
BRANCH  13  14
ATOM     14  C   UNL     1       4.407  27.289   9.343  1.00  0.00     0.000 C 
BRANCH  14  15
ATOM     15  C   UNL     1       3.515  28.108   8.396  1.00  0.00     0.000 C 
BRANCH  15  16
ATOM     16  C   UNL     1       4.211  29.378   7.875  1.00  0.00     0.006 C 
BRANCH  16  17
ATOM     17  C   UNL     1       3.442  30.653   8.246  1.00  0.00     0.053 C 
BRANCH  17  18
ATOM     18  C   UNL     1       2.069  30.344   8.758  1.00  0.00     0.041 C 
ATOM     19  O   UNL     1       1.806  30.476   9.982  1.00  0.00    -0.550 OA
ATOM     20  O   UNL     1       1.070  29.947   7.877  1.00  0.00    -0.550 OA
ENDBRANCH  17  18
ENDBRANCH  16  17
ENDBRANCH  15  16
ENDBRANCH  14  15
ENDBRANCH  13  14
ENDBRANCH  12  13
ENDBRANCH  11  12
ENDBRANCH   1  11
TORSDOF 15
ENDMDL
