MODEL 1
REMARK VINA RESULT:    -3.011      0.000      0.000
REMARK INTER + INTRA:          -3.858
REMARK INTER:                  -3.715
REMARK INTRA:                  -0.143
REMARK UNBOUND:                -0.143
REMARK SMILES CCCCCC(=O)[O-]
REMARK SMILES IDX 4 1 5 2 6 3 7 4 8 5 3 6 2 7 1 8
REMARK H PARENT
REMARK Flexibility Score: inf
ROOT
ATOM      1  C   UNL     1      25.511   8.643  28.561  1.00  0.00     0.006 C 
ENDROOT
BRANCH   1   2
ATOM      2  C   UNL     1      25.213   8.040  29.936  1.00  0.00     0.053 C 
BRANCH   2   3
ATOM      3  C   UNL     1      24.015   7.145  29.869  1.00  0.00     0.041 C 
ATOM      4  O   UNL     1      23.196   7.111  30.824  1.00  0.00    -0.550 OA
ATOM      5  O   UNL     1      23.778   6.386  28.730  1.00  0.00    -0.550 OA
ENDBRANCH   2   3
ENDBRANCH   1   2
BRANCH   1   6
ATOM      6  C   UNL     1      24.728   9.948  28.351  1.00  0.00     0.000 C 
BRANCH   6   7
ATOM      7  C   UNL     1      24.110  10.047  26.949  1.00  0.00    -0.003 C 
ATOM      8  C   UNL     1      25.092   9.665  25.841  1.00  0.00     0.004 C 
ENDBRANCH   6   7
ENDBRANCH   1   6
TORSDOF 4
ENDMDL
MODEL 2
REMARK VINA RESULT:    -2.996      2.165      3.834
REMARK INTER + INTRA:          -3.840
REMARK INTER:                  -3.630
REMARK INTRA:                  -0.211
REMARK UNBOUND:                -0.143
REMARK SMILES CCCCCC(=O)[O-]
REMARK SMILES IDX 4 1 5 2 6 3 7 4 8 5 3 6 2 7 1 8
REMARK H PARENT
REMARK Flexibility Score: inf
ROOT
ATOM      1  C   UNL     1      25.170   9.872  28.837  1.00  0.00     0.006 C 
ENDROOT
BRANCH   1   2
ATOM      2  C   UNL     1      24.150  10.121  27.722  1.00  0.00     0.053 C 
BRANCH   2   3
ATOM      3  C   UNL     1      24.485   9.308  26.512  1.00  0.00     0.041 C 
ATOM      4  O   UNL     1      23.940   8.186  26.332  1.00  0.00    -0.550 OA
ATOM      5  O   UNL     1      25.361   9.809  25.558  1.00  0.00    -0.550 OA
ENDBRANCH   2   3
ENDBRANCH   1   2
BRANCH   1   6
ATOM      6  C   UNL     1      24.522   9.139  30.021  1.00  0.00     0.000 C 
BRANCH   6   7
ATOM      7  C   UNL     1      25.022   7.694  30.167  1.00  0.00    -0.003 C 
ATOM      8  C   UNL     1      24.118   6.682  29.465  1.00  0.00     0.004 C 
ENDBRANCH   6   7
ENDBRANCH   1   6
TORSDOF 4
ENDMDL
MODEL 3
REMARK VINA RESULT:    -2.954      2.335      4.181
REMARK INTER + INTRA:          -3.789
REMARK INTER:                  -3.675
REMARK INTRA:                  -0.114
REMARK UNBOUND:                -0.143
REMARK SMILES CCCCCC(=O)[O-]
REMARK SMILES IDX 4 1 5 2 6 3 7 4 8 5 3 6 2 7 1 8
REMARK H PARENT
REMARK Flexibility Score: inf
ROOT
ATOM      1  C   UNL     1      24.136   7.158  29.747  1.00  0.00     0.006 C 
ENDROOT
BRANCH   1   2
ATOM      2  C   UNL     1      25.503   7.690  29.304  1.00  0.00     0.053 C 
BRANCH   2   3
ATOM      3  C   UNL     1      25.356   9.017  28.629  1.00  0.00     0.041 C 
ATOM      4  O   UNL     1      25.310  10.074  29.313  1.00  0.00    -0.550 OA
ATOM      5  O   UNL     1      25.321   9.092  27.242  1.00  0.00    -0.550 OA
ENDBRANCH   2   3
ENDBRANCH   1   2
BRANCH   1   6
ATOM      6  C   UNL     1      23.631   6.072  28.787  1.00  0.00     0.000 C 
BRANCH   6   7
ATOM      7  C   UNL     1      22.548   5.184  29.417  1.00  0.00    -0.003 C 
ATOM      8  C   UNL     1      22.355   5.455  30.909  1.00  0.00     0.004 C 
ENDBRANCH   6   7
ENDBRANCH   1   6
TORSDOF 4
ENDMDL
MODEL 4
REMARK VINA RESULT:    -2.953      1.730      2.786
REMARK INTER + INTRA:          -3.787
REMARK INTER:                  -3.710
REMARK INTRA:                  -0.078
REMARK UNBOUND:                -0.143
REMARK SMILES CCCCCC(=O)[O-]
REMARK SMILES IDX 4 1 5 2 6 3 7 4 8 5 3 6 2 7 1 8
REMARK H PARENT
REMARK Flexibility Score: inf
ROOT
ATOM      1  C   UNL     1      24.143   9.422  26.977  1.00  0.00     0.006 C 
ENDROOT
BRANCH   1   2
ATOM      2  C   UNL     1      24.574  10.125  28.267  1.00  0.00     0.053 C 
BRANCH   2   3
ATOM      3  C   UNL     1      24.972   9.122  29.304  1.00  0.00     0.041 C 
ATOM      4  O   UNL     1      25.509   8.036  28.961  1.00  0.00    -0.550 OA
ATOM      5  O   UNL     1      24.795   9.408  30.652  1.00  0.00    -0.550 OA
ENDBRANCH   2   3
ENDBRANCH   1   2
BRANCH   1   6
ATOM      6  C   UNL     1      25.120   9.727  25.832  1.00  0.00     0.000 C 
BRANCH   6   7
ATOM      7  C   UNL     1      25.114   8.640  24.746  1.00  0.00    -0.003 C 
ATOM      8  C   UNL     1      25.800   9.089  23.457  1.00  0.00     0.004 C 
ENDBRANCH   6   7
ENDBRANCH   1   6
TORSDOF 4
ENDMDL
MODEL 5
REMARK VINA RESULT:    -2.923      2.319      4.333
REMARK INTER + INTRA:          -3.750
REMARK INTER:                  -3.636
REMARK INTRA:                  -0.114
REMARK UNBOUND:                -0.143
REMARK SMILES CCCCCC(=O)[O-]
REMARK SMILES IDX 4 1 5 2 6 3 7 4 8 5 3 6 2 7 1 8
REMARK H PARENT
REMARK Flexibility Score: inf
ROOT
ATOM      1  C   UNL     1      24.172   7.143  29.784  1.00  0.00     0.006 C 
ENDROOT
BRANCH   1   2
ATOM      2  C   UNL     1      25.539   7.634  29.300  1.00  0.00     0.053 C 
BRANCH   2   3
ATOM      3  C   UNL     1      25.408   8.954  28.608  1.00  0.00     0.041 C 
ATOM      4  O   UNL     1      25.400   9.011  27.349  1.00  0.00    -0.550 OA
ATOM      5  O   UNL     1      25.243  10.116  29.351  1.00  0.00    -0.550 OA
ENDBRANCH   2   3
ENDBRANCH   1   2
BRANCH   1   6
ATOM      6  C   UNL     1      23.612   6.065  28.844  1.00  0.00     0.000 C 
BRANCH   6   7
ATOM      7  C   UNL     1      22.488   5.242  29.493  1.00  0.00    -0.003 C 
ATOM      8  C   UNL     1      22.373   5.483  30.998  1.00  0.00     0.004 C 
ENDBRANCH   6   7
ENDBRANCH   1   6
TORSDOF 4
ENDMDL
MODEL 6
REMARK VINA RESULT:    -2.708     10.081     11.731
REMARK INTER + INTRA:          -3.485
REMARK INTER:                  -3.353
REMARK INTRA:                  -0.132
REMARK UNBOUND:                -0.143
REMARK SMILES CCCCCC(=O)[O-]
REMARK SMILES IDX 4 1 5 2 6 3 7 4 8 5 3 6 2 7 1 8
REMARK H PARENT
REMARK Flexibility Score: inf
ROOT
ATOM      1  C   UNL     1      18.292   8.601  38.015  1.00  0.00     0.006 C 
ENDROOT
BRANCH   1   2
ATOM      2  C   UNL     1      19.289   9.752  38.181  1.00  0.00     0.053 C 
BRANCH   2   3
ATOM      3  C   UNL     1      20.341   9.693  37.118  1.00  0.00     0.041 C 
ATOM      4  O   UNL     1      20.049   9.296  35.959  1.00  0.00    -0.550 OA
ATOM      5  O   UNL     1      21.632  10.124  37.393  1.00  0.00    -0.550 OA
ENDBRANCH   2   3
ENDBRANCH   1   2
BRANCH   1   6
ATOM      6  C   UNL     1      16.864   9.134  37.827  1.00  0.00     0.000 C 
BRANCH   6   7
ATOM      7  C   UNL     1      16.439  10.092  38.949  1.00  0.00    -0.003 C 
ATOM      8  C   UNL     1      15.721   9.380  40.094  1.00  0.00     0.004 C 
ENDBRANCH   6   7
ENDBRANCH   1   6
TORSDOF 4
ENDMDL
MODEL 7
REMARK VINA RESULT:    -2.689      1.919      2.868
REMARK INTER + INTRA:          -3.462
REMARK INTER:                  -3.363
REMARK INTRA:                  -0.099
REMARK UNBOUND:                -0.143
REMARK SMILES CCCCCC(=O)[O-]
REMARK SMILES IDX 4 1 5 2 6 3 7 4 8 5 3 6 2 7 1 8
REMARK H PARENT
REMARK Flexibility Score: inf
ROOT
ATOM      1  C   UNL     1      24.044   6.793  29.387  1.00  0.00     0.006 C 
ENDROOT
BRANCH   1   2
ATOM      2  C   UNL     1      23.324   6.746  30.737  1.00  0.00     0.053 C 
BRANCH   2   3
ATOM      3  C   UNL     1      22.198   5.761  30.698  1.00  0.00     0.041 C 
ATOM      4  O   UNL     1      22.314   4.693  30.041  1.00  0.00    -0.550 OA
ATOM      5  O   UNL     1      21.040   5.999  31.427  1.00  0.00    -0.550 OA
ENDBRANCH   2   3
ENDBRANCH   1   2
BRANCH   1   6
ATOM      6  C   UNL     1      25.388   7.527  29.506  1.00  0.00     0.000 C 
BRANCH   6   7
ATOM      7  C   UNL     1      25.487   8.736  28.564  1.00  0.00    -0.003 C 
ATOM      8  C   UNL     1      25.125  10.052  29.251  1.00  0.00     0.004 C 
ENDBRANCH   6   7
ENDBRANCH   1   6
TORSDOF 4
ENDMDL
MODEL 8
REMARK VINA RESULT:    -2.648      2.602      5.067
REMARK INTER + INTRA:          -3.411
REMARK INTER:                  -3.329
REMARK INTRA:                  -0.082
REMARK UNBOUND:                -0.143
REMARK SMILES CCCCCC(=O)[O-]
REMARK SMILES IDX 4 1 5 2 6 3 7 4 8 5 3 6 2 7 1 8
REMARK H PARENT
REMARK Flexibility Score: inf
ROOT
ATOM      1  C   UNL     1      23.241   6.443  30.536  1.00  0.00     0.006 C 
ENDROOT
BRANCH   1   2
ATOM      2  C   UNL     1      23.965   6.607  29.196  1.00  0.00     0.053 C 
BRANCH   2   3
ATOM      3  C   UNL     1      25.127   7.538  29.338  1.00  0.00     0.041 C 
ATOM      4  O   UNL     1      25.396   8.360  28.422  1.00  0.00    -0.550 OA
ATOM      5  O   UNL     1      25.884   7.533  30.503  1.00  0.00    -0.550 OA
ENDBRANCH   2   3
ENDBRANCH   1   2
BRANCH   1   6
ATOM      6  C   UNL     1      22.102   5.418  30.423  1.00  0.00     0.000 C 
BRANCH   6   7
ATOM      7  C   UNL     1      21.877   4.640  31.728  1.00  0.00    -0.003 C 
ATOM      8  C   UNL     1      22.542   5.303  32.934  1.00  0.00     0.004 C 
ENDBRANCH   6   7
ENDBRANCH   1   6
TORSDOF 4
ENDMDL
MODEL 9
REMARK VINA RESULT:    -2.643     14.929     15.933
REMARK INTER + INTRA:          -3.404
REMARK INTER:                  -3.161
REMARK INTRA:                  -0.243
REMARK UNBOUND:                -0.143
REMARK SMILES CCCCCC(=O)[O-]
REMARK SMILES IDX 4 1 5 2 6 3 7 4 8 5 3 6 2 7 1 8
REMARK H PARENT
REMARK Flexibility Score: inf
ROOT
ATOM      1  C   UNL     1       7.887   6.977  31.087  1.00  0.00     0.006 C 
ENDROOT
BRANCH   1   2
ATOM      2  C   UNL     1       8.540   8.321  31.422  1.00  0.00     0.053 C 
BRANCH   2   3
ATOM      3  C   UNL     1       9.847   8.110  32.119  1.00  0.00     0.041 C 
ATOM      4  O   UNL     1      10.842   7.674  31.482  1.00  0.00    -0.550 OA
ATOM      5  O   UNL     1       9.981   8.443  33.461  1.00  0.00    -0.550 OA
ENDBRANCH   2   3
ENDBRANCH   1   2
BRANCH   1   6
ATOM      6  C   UNL     1       8.023   6.659  29.590  1.00  0.00     0.000 C 
BRANCH   6   7
ATOM      7  C   UNL     1       8.802   5.361  29.331  1.00  0.00    -0.003 C 
ATOM      8  C   UNL     1       9.201   4.643  30.619  1.00  0.00     0.004 C 
ENDBRANCH   6   7
ENDBRANCH   1   6
TORSDOF 4
ENDMDL
