MODEL 1
REMARK VINA RESULT:    -5.892      0.000      0.000
REMARK INTER + INTRA:          -7.247
REMARK INTER:                  -7.098
REMARK INTRA:                  -0.149
REMARK UNBOUND:                -0.149
REMARK SMILES O=c1c(O)c(-c2ccc(O)c(O)c2)oc2cc(O)cc(O)c12
REMARK SMILES IDX 5 1 3 2 2 3 1 4 22 5 20 6 19 7 17 8 16 9 15 10 14 11 6 12
REMARK SMILES IDX 7 13 8 14 9 15 13 16 11 17 10 18 12 20 4 22 21 24 18 26
REMARK H PARENT 10 19 12 21 4 23 21 25 18 27
REMARK Flexibility Score: inf
ROOT
ATOM      1  C   UNL     1      -4.784 -36.724 -31.375  1.00  0.00     0.180 A 
ATOM      2  C   UNL     1      -6.096 -37.221 -31.263  1.00  0.00     0.208 A 
ATOM      3  C   UNL     1      -7.160 -36.439 -31.739  1.00  0.00     0.238 A 
ATOM      4  O   UNL     1      -8.339 -36.878 -31.655  1.00  0.00    -0.285 OA
ATOM      5  C   UNL     1      -6.898 -35.171 -32.297  1.00  0.00     0.111 A 
ATOM      6  C   UNL     1      -7.913 -34.319 -32.797  1.00  0.00     0.134 A 
ATOM      7  C   UNL     1      -7.571 -33.067 -33.329  1.00  0.00     0.093 A 
ATOM      8  C   UNL     1      -6.239 -32.650 -33.371  1.00  0.00     0.123 A 
ATOM      9  C   UNL     1      -5.232 -33.487 -32.881  1.00  0.00     0.094 A 
ATOM     10  C   UNL     1      -5.551 -34.740 -32.348  1.00  0.00     0.146 A 
ATOM     11  O   UNL     1      -4.576 -35.518 -31.893  1.00  0.00    -0.452 OA
ENDROOT
BRANCH   1  12
ATOM     12  C   UNL     1      -3.609 -37.497 -30.913  1.00  0.00     0.025 A 
ATOM     13  C   UNL     1      -3.459 -37.777 -29.547  1.00  0.00     0.016 A 
ATOM     14  C   UNL     1      -2.349 -38.486 -29.088  1.00  0.00     0.051 A 
ATOM     15  C   UNL     1      -1.359 -38.917 -29.977  1.00  0.00     0.157 A 
ATOM     16  C   UNL     1      -2.605 -37.908 -31.807  1.00  0.00     0.062 A 
ATOM     17  C   UNL     1      -1.485 -38.618 -31.354  1.00  0.00     0.158 A 
BRANCH  15  18
ATOM     18  O   UNL     1      -0.276 -39.628 -29.455  1.00  0.00    -0.504 OA
ATOM     19  H   UNL     1       0.114 -40.456 -29.881  1.00  0.00     0.293 HD
ENDBRANCH  15  18
BRANCH  17  20
ATOM     20  O   UNL     1      -0.528 -38.996 -32.299  1.00  0.00    -0.504 OA
ATOM     21  H   UNL     1       0.277 -39.569 -32.089  1.00  0.00     0.293 HD
ENDBRANCH  17  20
ENDBRANCH   1  12
BRANCH   2  22
ATOM     22  O   UNL     1      -6.335 -38.459 -30.661  1.00  0.00    -0.502 OA
ATOM     23  H   UNL     1      -6.047 -39.333 -31.084  1.00  0.00     0.293 HD
ENDBRANCH   2  22
BRANCH   6  24
ATOM     24  O   UNL     1      -9.254 -34.706 -32.767  1.00  0.00    -0.507 OA
ATOM     25  H   UNL     1      -9.901 -34.441 -33.500  1.00  0.00     0.293 HD
ENDBRANCH   6  24
BRANCH   8  26
ATOM     26  O   UNL     1      -5.927 -31.402 -33.904  1.00  0.00    -0.508 OA
ATOM     27  H   UNL     1      -6.593 -30.884 -34.465  1.00  0.00     0.293 HD
ENDBRANCH   8  26
TORSDOF 6
ENDMDL
MODEL 2
REMARK VINA RESULT:    -5.653      2.547      3.172
REMARK INTER + INTRA:          -6.959
REMARK INTER:                  -6.652
REMARK INTRA:                  -0.307
REMARK UNBOUND:                -0.149
REMARK SMILES O=c1c(O)c(-c2ccc(O)c(O)c2)oc2cc(O)cc(O)c12
REMARK SMILES IDX 5 1 3 2 2 3 1 4 22 5 20 6 19 7 17 8 16 9 15 10 14 11 6 12
REMARK SMILES IDX 7 13 8 14 9 15 13 16 11 17 10 18 12 20 4 22 21 24 18 26
REMARK H PARENT 10 19 12 21 4 23 21 25 18 27
REMARK Flexibility Score: inf
ROOT
ATOM      1  C   UNL     1      -6.081 -36.511 -31.649  1.00  0.00     0.180 A 
ATOM      2  C   UNL     1      -7.397 -36.098 -31.931  1.00  0.00     0.208 A 
ATOM      3  C   UNL     1      -7.606 -34.812 -32.454  1.00  0.00     0.238 A 
ATOM      4  O   UNL     1      -8.779 -34.435 -32.722  1.00  0.00    -0.285 OA
ATOM      5  C   UNL     1      -6.504 -33.958 -32.665  1.00  0.00     0.111 A 
ATOM      6  C   UNL     1      -6.629 -32.647 -33.185  1.00  0.00     0.134 A 
ATOM      7  C   UNL     1      -5.484 -31.855 -33.358  1.00  0.00     0.093 A 
ATOM      8  C   UNL     1      -4.220 -32.345 -33.020  1.00  0.00     0.123 A 
ATOM      9  C   UNL     1      -4.091 -33.640 -32.508  1.00  0.00     0.094 A 
ATOM     10  C   UNL     1      -5.220 -34.446 -32.330  1.00  0.00     0.146 A 
ATOM     11  O   UNL     1      -5.068 -35.674 -31.846  1.00  0.00    -0.452 OA
ENDROOT
BRANCH   1  12
ATOM     12  C   UNL     1      -5.779 -37.858 -31.113  1.00  0.00     0.025 A 
ATOM     13  C   UNL     1      -5.423 -38.889 -31.994  1.00  0.00     0.016 A 
ATOM     14  C   UNL     1      -5.154 -40.170 -31.512  1.00  0.00     0.051 A 
ATOM     15  C   UNL     1      -5.249 -40.453 -30.146  1.00  0.00     0.157 A 
ATOM     16  C   UNL     1      -5.898 -38.144 -29.741  1.00  0.00     0.062 A 
ATOM     17  C   UNL     1      -5.633 -39.429 -29.249  1.00  0.00     0.158 A 
BRANCH  15  18
ATOM     18  O   UNL     1      -4.960 -41.754 -29.727  1.00  0.00    -0.504 OA
ATOM     19  H   UNL     1      -5.633 -42.371 -29.296  1.00  0.00     0.293 HD
ENDBRANCH  15  18
BRANCH  17  20
ATOM     20  O   UNL     1      -5.769 -39.640 -27.875  1.00  0.00    -0.504 OA
ATOM     21  H   UNL     1      -5.351 -39.050 -27.169  1.00  0.00     0.293 HD
ENDBRANCH  17  20
ENDBRANCH   1  12
BRANCH   2  22
ATOM     22  O   UNL     1      -8.477 -36.945 -31.667  1.00  0.00    -0.502 OA
ATOM     23  H   UNL     1      -9.150 -37.204 -32.378  1.00  0.00     0.293 HD
ENDBRANCH   2  22
BRANCH   6  24
ATOM     24  O   UNL     1      -7.878 -32.127 -33.530  1.00  0.00    -0.507 OA
ATOM     25  H   UNL     1      -8.056 -31.733 -34.446  1.00  0.00     0.293 HD
ENDBRANCH   6  24
BRANCH   8  26
ATOM     26  O   UNL     1      -3.100 -31.538 -33.200  1.00  0.00    -0.508 OA
ATOM     27  H   UNL     1      -3.024 -30.630 -32.756  1.00  0.00     0.293 HD
ENDBRANCH   8  26
TORSDOF 6
ENDMDL
MODEL 3
REMARK VINA RESULT:    -5.579      1.964      7.279
REMARK INTER + INTRA:          -6.870
REMARK INTER:                  -7.127
REMARK INTRA:                   0.257
REMARK UNBOUND:                -0.149
REMARK SMILES O=c1c(O)c(-c2ccc(O)c(O)c2)oc2cc(O)cc(O)c12
REMARK SMILES IDX 5 1 3 2 2 3 1 4 22 5 20 6 19 7 17 8 16 9 15 10 14 11 6 12
REMARK SMILES IDX 7 13 8 14 9 15 13 16 11 17 10 18 12 20 4 22 21 24 18 26
REMARK H PARENT 10 19 12 21 4 23 21 25 18 27
REMARK Flexibility Score: inf
ROOT
ATOM      1  C   UNL     1      -4.936 -37.086 -31.380  1.00  0.00     0.180 A 
ATOM      2  C   UNL     1      -3.562 -37.212 -31.658  1.00  0.00     0.208 A 
ATOM      3  C   UNL     1      -2.860 -38.304 -31.125  1.00  0.00     0.238 A 
ATOM      4  O   UNL     1      -1.631 -38.434 -31.377  1.00  0.00    -0.285 OA
ATOM      5  C   UNL     1      -3.535 -39.235 -30.310  1.00  0.00     0.111 A 
ATOM      6  C   UNL     1      -2.900 -40.361 -29.731  1.00  0.00     0.134 A 
ATOM      7  C   UNL     1      -3.639 -41.238 -28.923  1.00  0.00     0.093 A 
ATOM      8  C   UNL     1      -4.996 -41.012 -28.682  1.00  0.00     0.123 A 
ATOM      9  C   UNL     1      -5.629 -39.903 -29.252  1.00  0.00     0.094 A 
ATOM     10  C   UNL     1      -4.910 -39.018 -30.062  1.00  0.00     0.146 A 
ATOM     11  O   UNL     1      -5.536 -37.975 -30.595  1.00  0.00    -0.452 OA
ENDROOT
BRANCH   1  12
ATOM     12  C   UNL     1      -5.749 -35.972 -31.921  1.00  0.00     0.025 A 
ATOM     13  C   UNL     1      -5.172 -34.702 -32.064  1.00  0.00     0.016 A 
ATOM     14  C   UNL     1      -5.925 -33.634 -32.552  1.00  0.00     0.051 A 
ATOM     15  C   UNL     1      -7.271 -33.806 -32.891  1.00  0.00     0.157 A 
ATOM     16  C   UNL     1      -7.107 -36.144 -32.239  1.00  0.00     0.062 A 
ATOM     17  C   UNL     1      -7.872 -35.076 -32.726  1.00  0.00     0.158 A 
BRANCH  15  18
ATOM     18  O   UNL     1      -7.968 -32.699 -33.381  1.00  0.00    -0.504 OA
ATOM     19  H   UNL     1      -7.525 -31.847 -33.695  1.00  0.00     0.293 HD
ENDBRANCH  15  18
BRANCH  17  20
ATOM     20  O   UNL     1      -9.215 -35.320 -33.024  1.00  0.00    -0.504 OA
ATOM     21  H   UNL     1      -9.527 -35.886 -33.801  1.00  0.00     0.293 HD
ENDBRANCH  17  20
ENDBRANCH   1  12
BRANCH   2  22
ATOM     22  O   UNL     1      -2.905 -36.249 -32.429  1.00  0.00    -0.502 OA
ATOM     23  H   UNL     1      -3.283 -35.902 -33.303  1.00  0.00     0.293 HD
ENDBRANCH   2  22
BRANCH   6  24
ATOM     24  O   UNL     1      -1.545 -40.614 -29.951  1.00  0.00    -0.507 OA
ATOM     25  H   UNL     1      -1.191 -41.556 -30.068  1.00  0.00     0.293 HD
ENDBRANCH   6  24
BRANCH   8  26
ATOM     26  O   UNL     1      -5.707 -41.897 -27.875  1.00  0.00    -0.508 OA
ATOM     27  H   UNL     1      -5.248 -42.443 -27.154  1.00  0.00     0.293 HD
ENDBRANCH   8  26
TORSDOF 6
ENDMDL
MODEL 4
REMARK VINA RESULT:    -5.560      1.668      3.316
REMARK INTER + INTRA:          -6.847
REMARK INTER:                  -6.524
REMARK INTRA:                  -0.323
REMARK UNBOUND:                -0.149
REMARK SMILES O=c1c(O)c(-c2ccc(O)c(O)c2)oc2cc(O)cc(O)c12
REMARK SMILES IDX 5 1 3 2 2 3 1 4 22 5 20 6 19 7 17 8 16 9 15 10 14 11 6 12
REMARK SMILES IDX 7 13 8 14 9 15 13 16 11 17 10 18 12 20 4 22 21 24 18 26
REMARK H PARENT 10 19 12 21 4 23 21 25 18 27
REMARK Flexibility Score: inf
ROOT
ATOM      1  C   UNL     1      -4.088 -36.234 -31.176  1.00  0.00     0.180 A 
ATOM      2  C   UNL     1      -4.325 -35.127 -32.012  1.00  0.00     0.208 A 
ATOM      3  C   UNL     1      -5.647 -34.697 -32.210  1.00  0.00     0.238 A 
ATOM      4  O   UNL     1      -5.871 -33.699 -32.947  1.00  0.00    -0.285 OA
ATOM      5  C   UNL     1      -6.705 -35.392 -31.588  1.00  0.00     0.111 A 
ATOM      6  C   UNL     1      -8.065 -35.026 -31.738  1.00  0.00     0.134 A 
ATOM      7  C   UNL     1      -9.061 -35.774 -31.094  1.00  0.00     0.093 A 
ATOM      8  C   UNL     1      -8.727 -36.877 -30.305  1.00  0.00     0.123 A 
ATOM      9  C   UNL     1      -7.386 -37.242 -30.152  1.00  0.00     0.094 A 
ATOM     10  C   UNL     1      -6.377 -36.508 -30.784  1.00  0.00     0.146 A 
ATOM     11  O   UNL     1      -5.111 -36.873 -30.619  1.00  0.00    -0.452 OA
ENDROOT
BRANCH   1  12
ATOM     12  C   UNL     1      -2.721 -36.735 -30.905  1.00  0.00     0.025 A 
ATOM     13  C   UNL     1      -2.003 -36.226 -29.813  1.00  0.00     0.016 A 
ATOM     14  C   UNL     1      -0.706 -36.669 -29.552  1.00  0.00     0.051 A 
ATOM     15  C   UNL     1      -0.094 -37.615 -30.380  1.00  0.00     0.157 A 
ATOM     16  C   UNL     1      -2.101 -37.669 -31.753  1.00  0.00     0.062 A 
ATOM     17  C   UNL     1      -0.798 -38.117 -31.500  1.00  0.00     0.158 A 
BRANCH  15  18
ATOM     18  O   UNL     1       1.203 -38.022 -30.060  1.00  0.00    -0.504 OA
ATOM     19  H   UNL     1       1.419 -38.850 -29.523  1.00  0.00     0.293 HD
ENDBRANCH  15  18
BRANCH  17  20
ATOM     20  O   UNL     1      -0.246 -39.047 -32.383  1.00  0.00    -0.504 OA
ATOM     21  H   UNL     1      -0.700 -39.359 -33.231  1.00  0.00     0.293 HD
ENDBRANCH  17  20
ENDBRANCH   1  12
BRANCH   2  22
ATOM     22  O   UNL     1      -3.263 -34.486 -32.656  1.00  0.00    -0.502 OA
ATOM     23  H   UNL     1      -3.205 -33.477 -32.735  1.00  0.00     0.293 HD
ENDBRANCH   2  22
BRANCH   6  24
ATOM     24  O   UNL     1      -8.432 -33.930 -32.521  1.00  0.00    -0.507 OA
ATOM     25  H   UNL     1      -9.396 -33.627 -32.595  1.00  0.00     0.293 HD
ENDBRANCH   6  24
BRANCH   8  26
ATOM     26  O   UNL     1      -9.736 -37.603 -29.677  1.00  0.00    -0.508 OA
ATOM     27  H   UNL     1      -9.525 -38.385 -29.067  1.00  0.00     0.293 HD
ENDBRANCH   8  26
TORSDOF 6
ENDMDL
MODEL 5
REMARK VINA RESULT:    -5.483     10.174     12.312
REMARK INTER + INTRA:          -6.753
REMARK INTER:                  -6.426
REMARK INTRA:                  -0.327
REMARK UNBOUND:                -0.149
REMARK SMILES O=c1c(O)c(-c2ccc(O)c(O)c2)oc2cc(O)cc(O)c12
REMARK SMILES IDX 5 1 3 2 2 3 1 4 22 5 20 6 19 7 17 8 16 9 15 10 14 11 6 12
REMARK SMILES IDX 7 13 8 14 9 15 13 16 11 17 10 18 12 20 4 22 21 24 18 26
REMARK H PARENT 10 19 12 21 4 23 21 25 18 27
REMARK Flexibility Score: inf
ROOT
ATOM      1  C   UNL     1       0.656 -33.884 -40.249  1.00  0.00     0.180 A 
ATOM      2  C   UNL     1       1.343 -35.111 -40.208  1.00  0.00     0.208 A 
ATOM      3  C   UNL     1       2.261 -35.409 -41.228  1.00  0.00     0.238 A 
ATOM      4  O   UNL     1       2.892 -36.500 -41.196  1.00  0.00    -0.285 OA
ATOM      5  C   UNL     1       2.459 -34.488 -42.277  1.00  0.00     0.111 A 
ATOM      6  C   UNL     1       3.363 -34.712 -43.344  1.00  0.00     0.134 A 
ATOM      7  C   UNL     1       3.497 -33.750 -44.355  1.00  0.00     0.093 A 
ATOM      8  C   UNL     1       2.748 -32.571 -44.323  1.00  0.00     0.123 A 
ATOM      9  C   UNL     1       1.856 -32.344 -43.271  1.00  0.00     0.094 A 
ATOM     10  C   UNL     1       1.708 -33.289 -42.251  1.00  0.00     0.146 A 
ATOM     11  O   UNL     1       0.857 -33.047 -41.261  1.00  0.00    -0.452 OA
ENDROOT
BRANCH   1  12
ATOM     12  C   UNL     1      -0.314 -33.491 -39.200  1.00  0.00     0.025 A 
ATOM     13  C   UNL     1      -1.664 -33.844 -39.340  1.00  0.00     0.016 A 
ATOM     14  C   UNL     1      -2.597 -33.466 -38.375  1.00  0.00     0.051 A 
ATOM     15  C   UNL     1      -2.207 -32.717 -37.260  1.00  0.00     0.157 A 
ATOM     16  C   UNL     1       0.077 -32.718 -38.094  1.00  0.00     0.062 A 
ATOM     17  C   UNL     1      -0.854 -32.331 -37.121  1.00  0.00     0.158 A 
BRANCH  15  18
ATOM     18  O   UNL     1      -3.189 -32.376 -36.327  1.00  0.00    -0.504 OA
ATOM     19  H   UNL     1      -3.365 -32.894 -35.477  1.00  0.00     0.293 HD
ENDBRANCH  15  18
BRANCH  17  20
ATOM     20  O   UNL     1      -0.394 -31.565 -36.047  1.00  0.00    -0.504 OA
ATOM     21  H   UNL     1      -0.375 -31.889 -35.090  1.00  0.00     0.293 HD
ENDBRANCH  17  20
ENDBRANCH   1  12
BRANCH   2  22
ATOM     22  O   UNL     1       1.093 -36.029 -39.184  1.00  0.00    -0.502 OA
ATOM     23  H   UNL     1       0.155 -36.261 -38.880  1.00  0.00     0.293 HD
ENDBRANCH   2  22
BRANCH   6  24
ATOM     24  O   UNL     1       4.125 -35.880 -43.407  1.00  0.00    -0.507 OA
ATOM     25  H   UNL     1       3.958 -36.659 -42.781  1.00  0.00     0.293 HD
ENDBRANCH   6  24
BRANCH   8  26
ATOM     26  O   UNL     1       2.899 -31.633 -45.340  1.00  0.00    -0.508 OA
ATOM     27  H   UNL     1       3.287 -31.887 -46.242  1.00  0.00     0.293 HD
ENDBRANCH   8  26
TORSDOF 6
ENDMDL
MODEL 6
REMARK VINA RESULT:    -5.427      1.877      2.140
REMARK INTER + INTRA:          -6.687
REMARK INTER:                  -6.654
REMARK INTRA:                  -0.033
REMARK UNBOUND:                -0.149
REMARK SMILES O=c1c(O)c(-c2ccc(O)c(O)c2)oc2cc(O)cc(O)c12
REMARK SMILES IDX 5 1 3 2 2 3 1 4 22 5 20 6 19 7 17 8 16 9 15 10 14 11 6 12
REMARK SMILES IDX 7 13 8 14 9 15 13 16 11 17 10 18 12 20 4 22 21 24 18 26
REMARK H PARENT 10 19 12 21 4 23 21 25 18 27
REMARK Flexibility Score: inf
ROOT
ATOM      1  C   UNL     1      -5.762 -37.302 -30.236  1.00  0.00     0.180 A 
ATOM      2  C   UNL     1      -7.136 -37.388 -29.943  1.00  0.00     0.208 A 
ATOM      3  C   UNL     1      -8.023 -36.509 -30.584  1.00  0.00     0.238 A 
ATOM      4  O   UNL     1      -9.257 -36.584 -30.338  1.00  0.00    -0.285 OA
ATOM      5  C   UNL     1      -7.521 -35.550 -31.487  1.00  0.00     0.111 A 
ATOM      6  C   UNL     1      -8.346 -34.625 -32.173  1.00  0.00     0.134 A 
ATOM      7  C   UNL     1      -7.769 -33.695 -33.049  1.00  0.00     0.093 A 
ATOM      8  C   UNL     1      -6.387 -33.669 -33.254  1.00  0.00     0.123 A 
ATOM      9  C   UNL     1      -5.568 -34.581 -32.582  1.00  0.00     0.094 A 
ATOM     10  C   UNL     1      -6.123 -35.518 -31.705  1.00  0.00     0.146 A 
ATOM     11  O   UNL     1      -5.323 -36.375 -31.082  1.00  0.00    -0.452 OA
ENDROOT
BRANCH   1  12
ATOM     12  C   UNL     1      -4.767 -38.206 -29.614  1.00  0.00     0.025 A 
ATOM     13  C   UNL     1      -3.600 -37.668 -29.055  1.00  0.00     0.016 A 
ATOM     14  C   UNL     1      -2.640 -38.504 -28.482  1.00  0.00     0.051 A 
ATOM     15  C   UNL     1      -2.818 -39.891 -28.470  1.00  0.00     0.157 A 
ATOM     16  C   UNL     1      -4.939 -39.601 -29.625  1.00  0.00     0.062 A 
ATOM     17  C   UNL     1      -3.979 -40.448 -29.055  1.00  0.00     0.158 A 
BRANCH  15  18
ATOM     18  O   UNL     1      -1.823 -40.671 -27.875  1.00  0.00    -0.504 OA
ATOM     19  H   UNL     1      -0.897 -40.334 -27.656  1.00  0.00     0.293 HD
ENDBRANCH  15  18
BRANCH  17  20
ATOM     20  O   UNL     1      -4.216 -41.824 -29.099  1.00  0.00    -0.504 OA
ATOM     21  H   UNL     1      -4.119 -42.387 -29.933  1.00  0.00     0.293 HD
ENDBRANCH  17  20
ENDBRANCH   1  12
BRANCH   2  22
ATOM     22  O   UNL     1      -7.603 -38.315 -29.006  1.00  0.00    -0.502 OA
ATOM     23  H   UNL     1      -7.497 -38.179 -28.008  1.00  0.00     0.293 HD
ENDBRANCH   2  22
BRANCH   6  24
ATOM     24  O   UNL     1      -9.730 -34.623 -31.989  1.00  0.00    -0.507 OA
ATOM     25  H   UNL     1     -10.149 -34.378 -31.099  1.00  0.00     0.293 HD
ENDBRANCH   6  24
BRANCH   8  26
ATOM     26  O   UNL     1      -5.840 -32.734 -34.130  1.00  0.00    -0.508 OA
ATOM     27  H   UNL     1      -5.086 -32.979 -34.762  1.00  0.00     0.293 HD
ENDBRANCH   8  26
TORSDOF 6
ENDMDL
MODEL 7
REMARK VINA RESULT:    -5.349      1.830      2.362
REMARK INTER + INTRA:          -6.592
REMARK INTER:                  -6.460
REMARK INTRA:                  -0.132
REMARK UNBOUND:                -0.149
REMARK SMILES O=c1c(O)c(-c2ccc(O)c(O)c2)oc2cc(O)cc(O)c12
REMARK SMILES IDX 5 1 3 2 2 3 1 4 22 5 20 6 19 7 17 8 16 9 15 10 14 11 6 12
REMARK SMILES IDX 7 13 8 14 9 15 13 16 11 17 10 18 12 20 4 22 21 24 18 26
REMARK H PARENT 10 19 12 21 4 23 21 25 18 27
REMARK Flexibility Score: inf
ROOT
ATOM      1  C   UNL     1      -3.571 -36.612 -31.223  1.00  0.00     0.180 A 
ATOM      2  C   UNL     1      -4.366 -37.669 -30.742  1.00  0.00     0.208 A 
ATOM      3  C   UNL     1      -5.757 -37.608 -30.921  1.00  0.00     0.238 A 
ATOM      4  O   UNL     1      -6.478 -38.554 -30.504  1.00  0.00    -0.285 OA
ATOM      5  C   UNL     1      -6.328 -36.487 -31.556  1.00  0.00     0.111 A 
ATOM      6  C   UNL     1      -7.721 -36.346 -31.773  1.00  0.00     0.134 A 
ATOM      7  C   UNL     1      -8.213 -35.195 -32.405  1.00  0.00     0.093 A 
ATOM      8  C   UNL     1      -7.345 -34.184 -32.823  1.00  0.00     0.123 A 
ATOM      9  C   UNL     1      -5.969 -34.318 -32.614  1.00  0.00     0.094 A 
ATOM     10  C   UNL     1      -5.457 -35.459 -31.987  1.00  0.00     0.146 A 
ATOM     11  O   UNL     1      -4.146 -35.564 -31.804  1.00  0.00    -0.452 OA
ENDROOT
BRANCH   1  12
ATOM     12  C   UNL     1      -2.096 -36.612 -31.088  1.00  0.00     0.025 A 
ATOM     13  C   UNL     1      -1.461 -35.543 -30.440  1.00  0.00     0.016 A 
ATOM     14  C   UNL     1      -0.072 -35.514 -30.321  1.00  0.00     0.051 A 
ATOM     15  C   UNL     1       0.713 -36.541 -30.857  1.00  0.00     0.157 A 
ATOM     16  C   UNL     1      -1.310 -37.634 -31.649  1.00  0.00     0.062 A 
ATOM     17  C   UNL     1       0.086 -37.611 -31.536  1.00  0.00     0.158 A 
BRANCH  15  18
ATOM     18  O   UNL     1       2.098 -36.455 -30.697  1.00  0.00    -0.504 OA
ATOM     19  H   UNL     1       2.726 -37.242 -30.780  1.00  0.00     0.293 HD
ENDBRANCH  15  18
BRANCH  17  20
ATOM     20  O   UNL     1       0.803 -38.661 -32.115  1.00  0.00    -0.504 OA
ATOM     21  H   UNL     1       1.237 -38.613 -33.027  1.00  0.00     0.293 HD
ENDBRANCH  17  20
ENDBRANCH   1  12
BRANCH   2  22
ATOM     22  O   UNL     1      -3.780 -38.746 -30.071  1.00  0.00    -0.502 OA
ATOM     23  H   UNL     1      -2.778 -38.896 -30.055  1.00  0.00     0.293 HD
ENDBRANCH   2  22
BRANCH   6  24
ATOM     24  O   UNL     1      -8.616 -37.337 -31.365  1.00  0.00    -0.507 OA
ATOM     25  H   UNL     1      -8.438 -38.319 -31.538  1.00  0.00     0.293 HD
ENDBRANCH   6  24
BRANCH   8  26
ATOM     26  O   UNL     1      -7.860 -33.051 -33.448  1.00  0.00    -0.508 OA
ATOM     27  H   UNL     1      -8.546 -32.460 -32.992  1.00  0.00     0.293 HD
ENDBRANCH   8  26
TORSDOF 6
ENDMDL
MODEL 8
REMARK VINA RESULT:    -5.342      2.172      6.642
REMARK INTER + INTRA:          -6.584
REMARK INTER:                  -6.376
REMARK INTRA:                  -0.208
REMARK UNBOUND:                -0.149
REMARK SMILES O=c1c(O)c(-c2ccc(O)c(O)c2)oc2cc(O)cc(O)c12
REMARK SMILES IDX 5 1 3 2 2 3 1 4 22 5 20 6 19 7 17 8 16 9 15 10 14 11 6 12
REMARK SMILES IDX 7 13 8 14 9 15 13 16 11 17 10 18 12 20 4 22 21 24 18 26
REMARK H PARENT 10 19 12 21 4 23 21 25 18 27
REMARK Flexibility Score: inf
ROOT
ATOM      1  C   UNL     1      -5.343 -37.300 -30.523  1.00  0.00     0.180 A 
ATOM      2  C   UNL     1      -5.301 -38.540 -29.859  1.00  0.00     0.208 A 
ATOM      3  C   UNL     1      -4.080 -39.230 -29.789  1.00  0.00     0.238 A 
ATOM      4  O   UNL     1      -4.027 -40.337 -29.187  1.00  0.00    -0.285 OA
ATOM      5  C   UNL     1      -2.934 -38.681 -30.399  1.00  0.00     0.111 A 
ATOM      6  C   UNL     1      -1.667 -39.314 -30.377  1.00  0.00     0.134 A 
ATOM      7  C   UNL     1      -0.575 -38.707 -31.016  1.00  0.00     0.093 A 
ATOM      8  C   UNL     1      -0.724 -37.484 -31.675  1.00  0.00     0.123 A 
ATOM      9  C   UNL     1      -1.972 -36.854 -31.698  1.00  0.00     0.094 A 
ATOM     10  C   UNL     1      -3.073 -37.441 -31.066  1.00  0.00     0.146 A 
ATOM     11  O   UNL     1      -4.246 -36.820 -31.099  1.00  0.00    -0.452 OA
ENDROOT
BRANCH   1  12
ATOM     12  C   UNL     1      -6.588 -36.504 -30.623  1.00  0.00     0.025 A 
ATOM     13  C   UNL     1      -7.132 -35.923 -29.468  1.00  0.00     0.016 A 
ATOM     14  C   UNL     1      -8.315 -35.187 -29.537  1.00  0.00     0.051 A 
ATOM     15  C   UNL     1      -8.988 -35.029 -30.753  1.00  0.00     0.157 A 
ATOM     16  C   UNL     1      -7.274 -36.367 -31.843  1.00  0.00     0.062 A 
ATOM     17  C   UNL     1      -8.464 -35.633 -31.920  1.00  0.00     0.158 A 
BRANCH  15  18
ATOM     18  O   UNL     1     -10.163 -34.275 -30.755  1.00  0.00    -0.504 OA
ATOM     19  H   UNL     1     -10.882 -34.351 -31.461  1.00  0.00     0.293 HD
ENDBRANCH  15  18
BRANCH  17  20
ATOM     20  O   UNL     1      -9.090 -35.536 -33.165  1.00  0.00    -0.504 OA
ATOM     21  H   UNL     1     -10.084 -35.403 -33.289  1.00  0.00     0.293 HD
ENDBRANCH  17  20
ENDBRANCH   1  12
BRANCH   2  22
ATOM     22  O   UNL     1      -6.462 -39.086 -29.305  1.00  0.00    -0.502 OA
ATOM     23  H   UNL     1      -7.388 -38.775 -29.570  1.00  0.00     0.293 HD
ENDBRANCH   2  22
BRANCH   6  24
ATOM     24  O   UNL     1      -1.485 -40.537 -29.729  1.00  0.00    -0.507 OA
ATOM     25  H   UNL     1      -1.688 -40.652 -28.743  1.00  0.00     0.293 HD
ENDBRANCH   6  24
BRANCH   8  26
ATOM     26  O   UNL     1       0.376 -36.903 -32.301  1.00  0.00    -0.508 OA
ATOM     27  H   UNL     1       1.233 -36.712 -31.796  1.00  0.00     0.293 HD
ENDBRANCH   8  26
TORSDOF 6
ENDMDL
MODEL 9
REMARK VINA RESULT:    -5.259      2.089      3.072
REMARK INTER + INTRA:          -6.484
REMARK INTER:                  -6.237
REMARK INTRA:                  -0.247
REMARK UNBOUND:                -0.149
REMARK SMILES O=c1c(O)c(-c2ccc(O)c(O)c2)oc2cc(O)cc(O)c12
REMARK SMILES IDX 5 1 3 2 2 3 1 4 22 5 20 6 19 7 17 8 16 9 15 10 14 11 6 12
REMARK SMILES IDX 7 13 8 14 9 15 13 16 11 17 10 18 12 20 4 22 21 24 18 26
REMARK H PARENT 10 19 12 21 4 23 21 25 18 27
REMARK Flexibility Score: inf
ROOT
ATOM      1  C   UNL     1      -4.643 -37.635 -30.612  1.00  0.00     0.180 A 
ATOM      2  C   UNL     1      -5.246 -38.230 -29.487  1.00  0.00     0.208 A 
ATOM      3  C   UNL     1      -6.603 -37.978 -29.232  1.00  0.00     0.238 A 
ATOM      4  O   UNL     1      -7.156 -38.514 -28.234  1.00  0.00    -0.285 OA
ATOM      5  C   UNL     1      -7.326 -37.123 -30.089  1.00  0.00     0.111 A 
ATOM      6  C   UNL     1      -8.695 -36.815 -29.901  1.00  0.00     0.134 A 
ATOM      7  C   UNL     1      -9.342 -35.948 -30.794  1.00  0.00     0.093 A 
ATOM      8  C   UNL     1      -8.649 -35.383 -31.867  1.00  0.00     0.123 A 
ATOM      9  C   UNL     1      -7.298 -35.685 -32.060  1.00  0.00     0.094 A 
ATOM     10  C   UNL     1      -6.635 -36.549 -31.182  1.00  0.00     0.146 A 
ATOM     11  O   UNL     1      -5.352 -36.823 -31.389  1.00  0.00    -0.452 OA
ENDROOT
BRANCH   1  12
ATOM     12  C   UNL     1      -3.222 -37.867 -30.957  1.00  0.00     0.025 A 
ATOM     13  C   UNL     1      -2.900 -38.728 -32.017  1.00  0.00     0.016 A 
ATOM     14  C   UNL     1      -1.567 -38.976 -32.345  1.00  0.00     0.051 A 
ATOM     15  C   UNL     1      -0.530 -38.386 -31.616  1.00  0.00     0.157 A 
ATOM     16  C   UNL     1      -2.182 -37.290 -30.207  1.00  0.00     0.062 A 
ATOM     17  C   UNL     1      -0.841 -37.537 -30.528  1.00  0.00     0.158 A 
BRANCH  15  18
ATOM     18  O   UNL     1       0.782 -38.670 -32.001  1.00  0.00    -0.504 OA
ATOM     19  H   UNL     1       1.213 -38.318 -32.844  1.00  0.00     0.293 HD
ENDBRANCH  15  18
BRANCH  17  20
ATOM     20  O   UNL     1       0.139 -36.928 -29.741  1.00  0.00    -0.504 OA
ATOM     21  H   UNL     1       1.129 -37.112 -29.830  1.00  0.00     0.293 HD
ENDBRANCH  17  20
ENDBRANCH   1  12
BRANCH   2  22
ATOM     22  O   UNL     1      -4.495 -39.034 -28.625  1.00  0.00    -0.502 OA
ATOM     23  H   UNL     1      -4.115 -38.688 -27.752  1.00  0.00     0.293 HD
ENDBRANCH   2  22
BRANCH   6  24
ATOM     24  O   UNL     1      -9.415 -37.361 -28.837  1.00  0.00    -0.507 OA
ATOM     25  H   UNL     1     -10.339 -37.755 -28.965  1.00  0.00     0.293 HD
ENDBRANCH   6  24
BRANCH   8  26
ATOM     26  O   UNL     1      -9.315 -34.524 -32.738  1.00  0.00    -0.508 OA
ATOM     27  H   UNL     1     -10.109 -34.836 -33.287  1.00  0.00     0.293 HD
ENDBRANCH   8  26
TORSDOF 6
ENDMDL
