MODEL 1
REMARK VINA RESULT:    -7.136      0.000      0.000
REMARK INTER + INTRA:          -9.155
REMARK INTER:                  -8.805
REMARK INTRA:                  -0.350
REMARK UNBOUND:                -0.350
REMARK SMILES O=c1c(O)c(-c2cc(O)c(O)c(O)c2)oc2cc(O)cc(O)c12
REMARK SMILES IDX 5 1 3 2 2 3 1 4 23 5 21 6 20 7 18 8 17 9 16 10 15 11 6 12
REMARK SMILES IDX 7 13 8 14 14 15 10 16 12 17 9 18 11 20 13 22 4 24 22 26
REMARK SMILES IDX 19 28
REMARK H PARENT 9 19 11 21 13 23 4 25 22 27 19 29
REMARK Flexibility Score: inf
ROOT
ATOM      1  C   UNL     1      10.206  69.829  53.449  1.00  0.00     0.180 A 
ATOM      2  C   UNL     1       9.235  69.089  54.147  1.00  0.00     0.208 A 
ATOM      3  C   UNL     1       7.934  69.606  54.257  1.00  0.00     0.238 A 
ATOM      4  O   UNL     1       7.084  68.966  54.930  1.00  0.00    -0.285 OA
ATOM      5  C   UNL     1       7.615  70.846  53.655  1.00  0.00     0.111 A 
ATOM      6  C   UNL     1       6.320  71.445  53.668  1.00  0.00     0.134 A 
ATOM      7  C   UNL     1       6.150  72.736  53.153  1.00  0.00     0.093 A 
ATOM      8  C   UNL     1       7.215  73.423  52.565  1.00  0.00     0.123 A 
ATOM      9  C   UNL     1       8.470  72.823  52.493  1.00  0.00     0.094 A 
ATOM     10  C   UNL     1       8.679  71.551  53.031  1.00  0.00     0.146 A 
ATOM     11  O   UNL     1       9.893  71.019  52.951  1.00  0.00    -0.452 OA
ENDROOT
BRANCH   1  12
ATOM     12  C   UNL     1      11.591  69.338  53.270  1.00  0.00     0.029 A 
ATOM     13  C   UNL     1      11.983  68.664  52.101  1.00  0.00     0.062 A 
ATOM     14  C   UNL     1      13.306  68.229  51.939  1.00  0.00     0.162 A 
ATOM     15  C   UNL     1      12.550  69.601  54.261  1.00  0.00     0.062 A 
ATOM     16  C   UNL     1      14.253  68.475  52.947  1.00  0.00     0.200 A 
ATOM     17  C   UNL     1      13.871  69.168  54.109  1.00  0.00     0.162 A 
BRANCH  14  18
ATOM     18  O   UNL     1      13.682  67.555  50.778  1.00  0.00    -0.504 OA
ATOM     19  H   UNL     1      14.167  68.027  50.023  1.00  0.00     0.293 HD
ENDBRANCH  14  18
BRANCH  16  20
ATOM     20  O   UNL     1      15.573  68.044  52.804  1.00  0.00    -0.502 OA
ATOM     21  H   UNL     1      16.332  68.441  53.344  1.00  0.00     0.293 HD
ENDBRANCH  16  20
BRANCH  17  22
ATOM     22  O   UNL     1      14.790  69.436  55.123  1.00  0.00    -0.504 OA
ATOM     23  H   UNL     1      14.686  69.061  56.058  1.00  0.00     0.293 HD
ENDBRANCH  17  22
ENDBRANCH   1  12
BRANCH   2  24
ATOM     24  O   UNL     1       9.577  67.877  54.754  1.00  0.00    -0.502 OA
ATOM     25  H   UNL     1       9.555  67.746  55.758  1.00  0.00     0.293 HD
ENDBRANCH   2  24
BRANCH   6  26
ATOM     26  O   UNL     1       5.171  70.809  54.148  1.00  0.00    -0.507 OA
ATOM     27  H   UNL     1       5.102  70.346  55.042  1.00  0.00     0.293 HD
ENDBRANCH   6  26
BRANCH   8  28
ATOM     28  O   UNL     1       7.034  74.700  52.040  1.00  0.00    -0.508 OA
ATOM     29  H   UNL     1       7.574  75.029  51.247  1.00  0.00     0.293 HD
ENDBRANCH   8  28
TORSDOF 7
ENDMDL
MODEL 2
REMARK VINA RESULT:    -6.522      2.807      7.855
REMARK INTER + INTRA:          -8.398
REMARK INTER:                  -8.134
REMARK INTRA:                  -0.264
REMARK UNBOUND:                -0.350
REMARK SMILES O=c1c(O)c(-c2cc(O)c(O)c(O)c2)oc2cc(O)cc(O)c12
REMARK SMILES IDX 5 1 3 2 2 3 1 4 23 5 21 6 20 7 18 8 17 9 16 10 15 11 6 12
REMARK SMILES IDX 7 13 8 14 14 15 10 16 12 17 9 18 11 20 13 22 4 24 22 26
REMARK SMILES IDX 19 28
REMARK H PARENT 9 19 11 21 13 23 4 25 22 27 19 29
REMARK Flexibility Score: inf
ROOT
ATOM      1  C   UNL     1       6.833  74.224  52.897  1.00  0.00     0.180 A 
ATOM      2  C   UNL     1       5.695  73.563  53.395  1.00  0.00     0.208 A 
ATOM      3  C   UNL     1       5.791  72.204  53.733  1.00  0.00     0.238 A 
ATOM      4  O   UNL     1       4.756  71.605  54.126  1.00  0.00    -0.285 OA
ATOM      5  C   UNL     1       7.024  71.526  53.584  1.00  0.00     0.111 A 
ATOM      6  C   UNL     1       7.246  70.160  53.934  1.00  0.00     0.134 A 
ATOM      7  C   UNL     1       8.470  69.557  53.622  1.00  0.00     0.093 A 
ATOM      8  C   UNL     1       9.504  70.289  53.033  1.00  0.00     0.123 A 
ATOM      9  C   UNL     1       9.319  71.638  52.743  1.00  0.00     0.094 A 
ATOM     10  C   UNL     1       8.096  72.258  53.009  1.00  0.00     0.146 A 
ATOM     11  O   UNL     1       7.957  73.544  52.707  1.00  0.00    -0.452 OA
ENDROOT
BRANCH   1  12
ATOM     12  C   UNL     1       6.816  75.661  52.543  1.00  0.00     0.029 A 
ATOM     13  C   UNL     1       6.133  76.126  51.405  1.00  0.00     0.062 A 
ATOM     14  C   UNL     1       6.108  77.494  51.100  1.00  0.00     0.162 A 
ATOM     15  C   UNL     1       7.443  76.588  53.389  1.00  0.00     0.062 A 
ATOM     16  C   UNL     1       6.759  78.412  51.940  1.00  0.00     0.200 A 
ATOM     17  C   UNL     1       7.425  77.954  53.090  1.00  0.00     0.162 A 
BRANCH  14  18
ATOM     18  O   UNL     1       5.433  77.943  49.965  1.00  0.00    -0.504 OA
ATOM     19  H   UNL     1       5.721  78.780  49.472  1.00  0.00     0.293 HD
ENDBRANCH  14  18
BRANCH  16  20
ATOM     20  O   UNL     1       6.748  79.777  51.647  1.00  0.00    -0.502 OA
ATOM     21  H   UNL     1       5.887  80.297  51.534  1.00  0.00     0.293 HD
ENDBRANCH  16  20
BRANCH  17  22
ATOM     22  O   UNL     1       8.073  78.842  53.948  1.00  0.00    -0.504 OA
ATOM     23  H   UNL     1       7.592  79.302  54.713  1.00  0.00     0.293 HD
ENDBRANCH  17  22
ENDBRANCH   1  12
BRANCH   2  24
ATOM     24  O   UNL     1       4.481  74.247  53.513  1.00  0.00    -0.502 OA
ATOM     25  H   UNL     1       4.122  74.566  54.405  1.00  0.00     0.293 HD
ENDBRANCH   2  24
BRANCH   6  26
ATOM     26  O   UNL     1       6.312  69.365  54.606  1.00  0.00    -0.507 OA
ATOM     27  H   UNL     1       6.353  69.138  55.588  1.00  0.00     0.293 HD
ENDBRANCH   6  26
BRANCH   8  28
ATOM     28  O   UNL     1      10.726  69.685  52.741  1.00  0.00    -0.508 OA
ATOM     29  H   UNL     1      11.409  70.134  52.142  1.00  0.00     0.293 HD
ENDBRANCH   8  28
TORSDOF 7
ENDMDL
MODEL 3
REMARK VINA RESULT:    -6.450     14.377     18.310
REMARK INTER + INTRA:          -8.308
REMARK INTER:                  -7.951
REMARK INTRA:                  -0.357
REMARK UNBOUND:                -0.350
REMARK SMILES O=c1c(O)c(-c2cc(O)c(O)c(O)c2)oc2cc(O)cc(O)c12
REMARK SMILES IDX 5 1 3 2 2 3 1 4 23 5 21 6 20 7 18 8 17 9 16 10 15 11 6 12
REMARK SMILES IDX 7 13 8 14 14 15 10 16 12 17 9 18 11 20 13 22 4 24 22 26
REMARK SMILES IDX 19 28
REMARK H PARENT 9 19 11 21 13 23 4 25 22 27 19 29
REMARK Flexibility Score: inf
ROOT
ATOM      1  C   UNL     1       2.264  76.190  39.295  1.00  0.00     0.180 A 
ATOM      2  C   UNL     1       3.096  77.114  38.637  1.00  0.00     0.208 A 
ATOM      3  C   UNL     1       4.430  77.245  39.053  1.00  0.00     0.238 A 
ATOM      4  O   UNL     1       5.154  78.112  38.498  1.00  0.00    -0.285 OA
ATOM      5  C   UNL     1       4.921  76.441  40.109  1.00  0.00     0.111 A 
ATOM      6  C   UNL     1       6.266  76.461  40.586  1.00  0.00     0.134 A 
ATOM      7  C   UNL     1       6.608  75.718  41.722  1.00  0.00     0.093 A 
ATOM      8  C   UNL     1       5.669  74.903  42.359  1.00  0.00     0.123 A 
ATOM      9  C   UNL     1       4.369  74.830  41.866  1.00  0.00     0.094 A 
ATOM     10  C   UNL     1       3.988  75.588  40.756  1.00  0.00     0.146 A 
ATOM     11  O   UNL     1       2.736  75.498  40.325  1.00  0.00    -0.452 OA
ENDROOT
BRANCH   1  12
ATOM     12  C   UNL     1       0.853  75.978  38.897  1.00  0.00     0.029 A 
ATOM     13  C   UNL     1      -0.187  76.736  39.461  1.00  0.00     0.062 A 
ATOM     14  C   UNL     1      -1.514  76.539  39.053  1.00  0.00     0.162 A 
ATOM     15  C   UNL     1       0.552  75.044  37.894  1.00  0.00     0.062 A 
ATOM     16  C   UNL     1      -1.809  75.584  38.066  1.00  0.00     0.200 A 
ATOM     17  C   UNL     1      -0.769  74.839  37.483  1.00  0.00     0.162 A 
BRANCH  14  18
ATOM     18  O   UNL     1      -2.539  77.291  39.624  1.00  0.00    -0.504 OA
ATOM     19  H   UNL     1      -2.489  77.618  40.582  1.00  0.00     0.293 HD
ENDBRANCH  14  18
BRANCH  16  20
ATOM     20  O   UNL     1      -3.125  75.371  37.652  1.00  0.00    -0.502 OA
ATOM     21  H   UNL     1      -3.736  76.133  37.385  1.00  0.00     0.293 HD
ENDBRANCH  16  20
BRANCH  17  22
ATOM     22  O   UNL     1      -1.029  73.890  36.494  1.00  0.00    -0.504 OA
ATOM     23  H   UNL     1      -0.333  73.217  36.197  1.00  0.00     0.293 HD
ENDBRANCH  17  22
ENDBRANCH   1  12
BRANCH   2  24
ATOM     24  O   UNL     1       2.584  77.914  37.611  1.00  0.00    -0.502 OA
ATOM     25  H   UNL     1       1.870  77.586  36.971  1.00  0.00     0.293 HD
ENDBRANCH   2  24
BRANCH   6  26
ATOM     26  O   UNL     1       7.302  77.169  39.968  1.00  0.00    -0.507 OA
ATOM     27  H   UNL     1       7.441  78.165  40.044  1.00  0.00     0.293 HD
ENDBRANCH   6  26
BRANCH   8  28
ATOM     28  O   UNL     1       6.021  74.154  43.479  1.00  0.00    -0.508 OA
ATOM     29  H   UNL     1       6.413  74.589  44.307  1.00  0.00     0.293 HD
ENDBRANCH   8  28
TORSDOF 7
ENDMDL
MODEL 4
REMARK VINA RESULT:    -6.367      2.681      5.689
REMARK INTER + INTRA:          -8.206
REMARK INTER:                  -7.939
REMARK INTRA:                  -0.267
REMARK UNBOUND:                -0.350
REMARK SMILES O=c1c(O)c(-c2cc(O)c(O)c(O)c2)oc2cc(O)cc(O)c12
REMARK SMILES IDX 5 1 3 2 2 3 1 4 23 5 21 6 20 7 18 8 17 9 16 10 15 11 6 12
REMARK SMILES IDX 7 13 8 14 14 15 10 16 12 17 9 18 11 20 13 22 4 24 22 26
REMARK SMILES IDX 19 28
REMARK H PARENT 9 19 11 21 13 23 4 25 22 27 19 29
REMARK Flexibility Score: inf
ROOT
ATOM      1  C   UNL     1       7.358  73.294  52.497  1.00  0.00     0.180 A 
ATOM      2  C   UNL     1       6.486  73.342  51.395  1.00  0.00     0.208 A 
ATOM      3  C   UNL     1       6.039  74.590  50.934  1.00  0.00     0.238 A 
ATOM      4  O   UNL     1       5.215  74.623  49.982  1.00  0.00    -0.285 OA
ATOM      5  C   UNL     1       6.480  75.775  51.569  1.00  0.00     0.111 A 
ATOM      6  C   UNL     1       6.123  77.095  51.160  1.00  0.00     0.134 A 
ATOM      7  C   UNL     1       6.512  78.189  51.942  1.00  0.00     0.093 A 
ATOM      8  C   UNL     1       7.303  78.016  53.080  1.00  0.00     0.123 A 
ATOM      9  C   UNL     1       7.707  76.737  53.454  1.00  0.00     0.094 A 
ATOM     10  C   UNL     1       7.303  75.623  52.715  1.00  0.00     0.146 A 
ATOM     11  O   UNL     1       7.702  74.420  53.112  1.00  0.00    -0.452 OA
ENDROOT
BRANCH   1  12
ATOM     12  C   UNL     1       7.891  72.018  53.025  1.00  0.00     0.029 A 
ATOM     13  C   UNL     1       7.073  71.120  53.730  1.00  0.00     0.062 A 
ATOM     14  C   UNL     1       7.590  69.904  54.201  1.00  0.00     0.162 A 
ATOM     15  C   UNL     1       9.226  71.667  52.766  1.00  0.00     0.062 A 
ATOM     16  C   UNL     1       8.933  69.573  53.957  1.00  0.00     0.200 A 
ATOM     17  C   UNL     1       9.750  70.458  53.233  1.00  0.00     0.162 A 
BRANCH  14  18
ATOM     18  O   UNL     1       6.771  69.023  54.905  1.00  0.00    -0.504 OA
ATOM     19  H   UNL     1       6.829  68.933  55.913  1.00  0.00     0.293 HD
ENDBRANCH  14  18
BRANCH  16  20
ATOM     20  O   UNL     1       9.465  68.369  54.423  1.00  0.00    -0.502 OA
ATOM     21  H   UNL     1       9.317  67.491  53.941  1.00  0.00     0.293 HD
ENDBRANCH  16  20
BRANCH  17  22
ATOM     22  O   UNL     1      11.085  70.154  52.968  1.00  0.00    -0.504 OA
ATOM     23  H   UNL     1      11.548  70.453  52.118  1.00  0.00     0.293 HD
ENDBRANCH  17  22
ENDBRANCH   1  12
BRANCH   2  24
ATOM     24  O   UNL     1       6.045  72.157  50.796  1.00  0.00    -0.502 OA
ATOM     25  H   UNL     1       6.605  71.647  50.124  1.00  0.00     0.293 HD
ENDBRANCH   2  24
BRANCH   6  26
ATOM     26  O   UNL     1       5.414  77.385  49.990  1.00  0.00    -0.507 OA
ATOM     27  H   UNL     1       4.512  77.835  49.963  1.00  0.00     0.293 HD
ENDBRANCH   6  26
BRANCH   8  28
ATOM     28  O   UNL     1       7.700  79.112  53.844  1.00  0.00    -0.508 OA
ATOM     29  H   UNL     1       8.151  78.995  54.744  1.00  0.00     0.293 HD
ENDBRANCH   8  28
TORSDOF 7
ENDMDL
MODEL 5
REMARK VINA RESULT:    -6.318      3.149      6.229
REMARK INTER + INTRA:          -8.145
REMARK INTER:                  -7.839
REMARK INTRA:                  -0.307
REMARK UNBOUND:                -0.350
REMARK SMILES O=c1c(O)c(-c2cc(O)c(O)c(O)c2)oc2cc(O)cc(O)c12
REMARK SMILES IDX 5 1 3 2 2 3 1 4 23 5 21 6 20 7 18 8 17 9 16 10 15 11 6 12
REMARK SMILES IDX 7 13 8 14 14 15 10 16 12 17 9 18 11 20 13 22 4 24 22 26
REMARK SMILES IDX 19 28
REMARK H PARENT 9 19 11 21 13 23 4 25 22 27 19 29
REMARK Flexibility Score: inf
ROOT
ATOM      1  C   UNL     1       6.680  72.894  51.877  1.00  0.00     0.180 A 
ATOM      2  C   UNL     1       6.687  74.223  52.337  1.00  0.00     0.208 A 
ATOM      3  C   UNL     1       6.222  75.239  51.488  1.00  0.00     0.238 A 
ATOM      4  O   UNL     1       6.282  76.433  51.884  1.00  0.00    -0.285 OA
ATOM      5  C   UNL     1       5.741  74.915  50.197  1.00  0.00     0.111 A 
ATOM      6  C   UNL     1       5.209  75.858  49.269  1.00  0.00     0.134 A 
ATOM      7  C   UNL     1       4.884  75.444  47.971  1.00  0.00     0.093 A 
ATOM      8  C   UNL     1       5.010  74.106  47.590  1.00  0.00     0.123 A 
ATOM      9  C   UNL     1       5.472  73.166  48.507  1.00  0.00     0.094 A 
ATOM     10  C   UNL     1       5.839  73.556  49.797  1.00  0.00     0.146 A 
ATOM     11  O   UNL     1       6.284  72.629  50.638  1.00  0.00    -0.452 OA
ENDROOT
BRANCH   1  12
ATOM     12  C   UNL     1       7.131  71.766  52.724  1.00  0.00     0.029 A 
ATOM     13  C   UNL     1       6.212  70.890  53.325  1.00  0.00     0.062 A 
ATOM     14  C   UNL     1       6.659  69.813  54.103  1.00  0.00     0.162 A 
ATOM     15  C   UNL     1       8.505  71.529  52.882  1.00  0.00     0.062 A 
ATOM     16  C   UNL     1       8.037  69.597  54.276  1.00  0.00     0.200 A 
ATOM     17  C   UNL     1       8.960  70.458  53.658  1.00  0.00     0.162 A 
BRANCH  14  18
ATOM     18  O   UNL     1       5.739  68.953  54.701  1.00  0.00    -0.504 OA
ATOM     19  H   UNL     1       4.839  69.284  55.032  1.00  0.00     0.293 HD
ENDBRANCH  14  18
BRANCH  16  20
ATOM     20  O   UNL     1       8.499  68.532  55.051  1.00  0.00    -0.502 OA
ATOM     21  H   UNL     1       8.087  68.297  55.946  1.00  0.00     0.293 HD
ENDBRANCH  16  20
BRANCH  17  22
ATOM     22  O   UNL     1      10.334  70.265  53.804  1.00  0.00    -0.504 OA
ATOM     23  H   UNL     1      10.781  69.384  53.582  1.00  0.00     0.293 HD
ENDBRANCH  17  22
ENDBRANCH   1  12
BRANCH   2  24
ATOM     24  O   UNL     1       7.187  74.525  53.608  1.00  0.00    -0.502 OA
ATOM     25  H   UNL     1       7.467  73.807  54.266  1.00  0.00     0.293 HD
ENDBRANCH   2  24
BRANCH   6  26
ATOM     26  O   UNL     1       4.958  77.200  49.576  1.00  0.00    -0.507 OA
ATOM     27  H   UNL     1       4.572  77.873  48.932  1.00  0.00     0.293 HD
ENDBRANCH   6  26
BRANCH   8  28
ATOM     28  O   UNL     1       4.669  73.699  46.302  1.00  0.00    -0.508 OA
ATOM     29  H   UNL     1       3.963  72.990  46.140  1.00  0.00     0.293 HD
ENDBRANCH   8  28
TORSDOF 7
ENDMDL
MODEL 6
REMARK VINA RESULT:    -6.199     13.818     16.063
REMARK INTER + INTRA:          -7.999
REMARK INTER:                  -7.657
REMARK INTRA:                  -0.341
REMARK UNBOUND:                -0.350
REMARK SMILES O=c1c(O)c(-c2cc(O)c(O)c(O)c2)oc2cc(O)cc(O)c12
REMARK SMILES IDX 5 1 3 2 2 3 1 4 23 5 21 6 20 7 18 8 17 9 16 10 15 11 6 12
REMARK SMILES IDX 7 13 8 14 14 15 10 16 12 17 9 18 11 20 13 22 4 24 22 26
REMARK SMILES IDX 19 28
REMARK H PARENT 9 19 11 21 13 23 4 25 22 27 19 29
REMARK Flexibility Score: inf
ROOT
ATOM      1  C   UNL     1       2.942  75.484  40.600  1.00  0.00     0.180 A 
ATOM      2  C   UNL     1       2.804  74.093  40.450  1.00  0.00     0.208 A 
ATOM      3  C   UNL     1       1.548  73.566  40.110  1.00  0.00     0.238 A 
ATOM      4  O   UNL     1       1.418  72.316  40.032  1.00  0.00    -0.285 OA
ATOM      5  C   UNL     1       0.450  74.435  39.909  1.00  0.00     0.111 A 
ATOM      6  C   UNL     1      -0.857  74.015  39.522  1.00  0.00     0.134 A 
ATOM      7  C   UNL     1      -1.900  74.948  39.479  1.00  0.00     0.093 A 
ATOM      8  C   UNL     1      -1.667  76.300  39.744  1.00  0.00     0.123 A 
ATOM      9  C   UNL     1      -0.382  76.731  40.064  1.00  0.00     0.094 A 
ATOM     10  C   UNL     1       0.671  75.817  40.151  1.00  0.00     0.146 A 
ATOM     11  O   UNL     1       1.878  76.268  40.469  1.00  0.00    -0.452 OA
ENDROOT
BRANCH   1  12
ATOM     12  C   UNL     1       4.239  76.116  40.934  1.00  0.00     0.029 A 
ATOM     13  C   UNL     1       5.222  76.327  39.953  1.00  0.00     0.062 A 
ATOM     14  C   UNL     1       6.435  76.949  40.282  1.00  0.00     0.162 A 
ATOM     15  C   UNL     1       4.472  76.567  42.242  1.00  0.00     0.062 A 
ATOM     16  C   UNL     1       6.669  77.375  41.600  1.00  0.00     0.200 A 
ATOM     17  C   UNL     1       5.679  77.186  42.580  1.00  0.00     0.162 A 
BRANCH  14  18
ATOM     18  O   UNL     1       7.406  77.148  39.302  1.00  0.00    -0.504 OA
ATOM     19  H   UNL     1       7.906  78.026  39.219  1.00  0.00     0.293 HD
ENDBRANCH  14  18
BRANCH  16  20
ATOM     20  O   UNL     1       7.872  77.992  41.946  1.00  0.00    -0.502 OA
ATOM     21  H   UNL     1       8.771  77.577  41.735  1.00  0.00     0.293 HD
ENDBRANCH  16  20
BRANCH  17  22
ATOM     22  O   UNL     1       5.877  77.606  43.895  1.00  0.00    -0.504 OA
ATOM     23  H   UNL     1       5.136  78.023  44.446  1.00  0.00     0.293 HD
ENDBRANCH  17  22
ENDBRANCH   1  12
BRANCH   2  24
ATOM     24  O   UNL     1       3.897  73.250  40.676  1.00  0.00    -0.502 OA
ATOM     25  H   UNL     1       4.817  73.604  40.908  1.00  0.00     0.293 HD
ENDBRANCH   2  24
BRANCH   6  26
ATOM     26  O   UNL     1      -1.177  72.705  39.148  1.00  0.00    -0.507 OA
ATOM     27  H   UNL     1      -0.503  72.004  38.880  1.00  0.00     0.293 HD
ENDBRANCH   6  26
BRANCH   8  28
ATOM     28  O   UNL     1      -2.706  77.226  39.683  1.00  0.00    -0.508 OA
ATOM     29  H   UNL     1      -2.560  78.203  39.909  1.00  0.00     0.293 HD
ENDBRANCH   8  28
TORSDOF 7
ENDMDL
MODEL 7
REMARK VINA RESULT:    -6.153     13.682     17.556
REMARK INTER + INTRA:          -7.942
REMARK INTER:                  -7.585
REMARK INTRA:                  -0.357
REMARK UNBOUND:                -0.350
REMARK SMILES O=c1c(O)c(-c2cc(O)c(O)c(O)c2)oc2cc(O)cc(O)c12
REMARK SMILES IDX 5 1 3 2 2 3 1 4 23 5 21 6 20 7 18 8 17 9 16 10 15 11 6 12
REMARK SMILES IDX 7 13 8 14 14 15 10 16 12 17 9 18 11 20 13 22 4 24 22 26
REMARK SMILES IDX 19 28
REMARK H PARENT 9 19 11 21 13 23 4 25 22 27 19 29
REMARK Flexibility Score: inf
ROOT
ATOM      1  C   UNL     1       2.902  76.745  39.978  1.00  0.00     0.180 A 
ATOM      2  C   UNL     1       4.109  76.762  39.256  1.00  0.00     0.208 A 
ATOM      3  C   UNL     1       5.290  77.141  39.914  1.00  0.00     0.238 A 
ATOM      4  O   UNL     1       6.357  77.207  39.250  1.00  0.00    -0.285 OA
ATOM      5  C   UNL     1       5.254  77.481  41.287  1.00  0.00     0.111 A 
ATOM      6  C   UNL     1       6.396  77.840  42.064  1.00  0.00     0.134 A 
ATOM      7  C   UNL     1       6.224  78.285  43.381  1.00  0.00     0.093 A 
ATOM      8  C   UNL     1       4.958  78.320  43.969  1.00  0.00     0.123 A 
ATOM      9  C   UNL     1       3.844  77.915  43.239  1.00  0.00     0.094 A 
ATOM     10  C   UNL     1       3.979  77.501  41.912  1.00  0.00     0.146 A 
ATOM     11  O   UNL     1       2.890  77.134  41.248  1.00  0.00    -0.452 OA
ENDROOT
BRANCH   1  12
ATOM     12  C   UNL     1       1.621  76.335  39.359  1.00  0.00     0.029 A 
ATOM     13  C   UNL     1       0.773  77.271  38.744  1.00  0.00     0.062 A 
ATOM     14  C   UNL     1      -0.424  76.859  38.142  1.00  0.00     0.162 A 
ATOM     15  C   UNL     1       1.271  74.976  39.334  1.00  0.00     0.062 A 
ATOM     16  C   UNL     1      -0.778  75.499  38.142  1.00  0.00     0.200 A 
ATOM     17  C   UNL     1       0.078  74.557  38.737  1.00  0.00     0.162 A 
BRANCH  14  18
ATOM     18  O   UNL     1      -1.262  77.797  37.540  1.00  0.00    -0.504 OA
ATOM     19  H   UNL     1      -2.065  78.182  38.024  1.00  0.00     0.293 HD
ENDBRANCH  14  18
BRANCH  16  20
ATOM     20  O   UNL     1      -1.968  75.073  37.551  1.00  0.00    -0.502 OA
ATOM     21  H   UNL     1      -2.036  74.864  36.563  1.00  0.00     0.293 HD
ENDBRANCH  16  20
BRANCH  17  22
ATOM     22  O   UNL     1      -0.241  73.199  38.745  1.00  0.00    -0.504 OA
ATOM     23  H   UNL     1       0.471  72.478  38.759  1.00  0.00     0.293 HD
ENDBRANCH  17  22
ENDBRANCH   1  12
BRANCH   2  24
ATOM     24  O   UNL     1       4.118  76.444  37.895  1.00  0.00    -0.502 OA
ATOM     25  H   UNL     1       4.884  76.699  37.282  1.00  0.00     0.293 HD
ENDBRANCH   2  24
BRANCH   6  26
ATOM     26  O   UNL     1       7.713  77.753  41.602  1.00  0.00    -0.507 OA
ATOM     27  H   UNL     1       7.996  77.268  40.765  1.00  0.00     0.293 HD
ENDBRANCH   6  26
BRANCH   8  28
ATOM     28  O   UNL     1       4.797  78.748  45.286  1.00  0.00    -0.508 OA
ATOM     29  H   UNL     1       3.879  78.916  45.680  1.00  0.00     0.293 HD
ENDBRANCH   8  28
TORSDOF 7
ENDMDL
MODEL 8
REMARK VINA RESULT:    -6.124     13.201     16.189
REMARK INTER + INTRA:          -7.907
REMARK INTER:                  -7.542
REMARK INTRA:                  -0.365
REMARK UNBOUND:                -0.350
REMARK SMILES O=c1c(O)c(-c2cc(O)c(O)c(O)c2)oc2cc(O)cc(O)c12
REMARK SMILES IDX 5 1 3 2 2 3 1 4 23 5 21 6 20 7 18 8 17 9 16 10 15 11 6 12
REMARK SMILES IDX 7 13 8 14 14 15 10 16 12 17 9 18 11 20 13 22 4 24 22 26
REMARK SMILES IDX 19 28
REMARK H PARENT 9 19 11 21 13 23 4 25 22 27 19 29
REMARK Flexibility Score: inf
ROOT
ATOM      1  C   UNL     1       2.957  76.259  40.605  1.00  0.00     0.180 A 
ATOM      2  C   UNL     1       2.764  76.058  39.226  1.00  0.00     0.208 A 
ATOM      3  C   UNL     1       1.463  75.837  38.746  1.00  0.00     0.238 A 
ATOM      4  O   UNL     1       1.304  75.604  37.520  1.00  0.00    -0.285 OA
ATOM      5  C   UNL     1       0.371  75.835  39.646  1.00  0.00     0.111 A 
ATOM      6  C   UNL     1      -0.993  75.663  39.264  1.00  0.00     0.134 A 
ATOM      7  C   UNL     1      -1.978  75.547  40.253  1.00  0.00     0.093 A 
ATOM      8  C   UNL     1      -1.657  75.665  41.607  1.00  0.00     0.123 A 
ATOM      9  C   UNL     1      -0.336  75.895  41.987  1.00  0.00     0.094 A 
ATOM     10  C   UNL     1       0.673  75.977  41.026  1.00  0.00     0.146 A 
ATOM     11  O   UNL     1       1.920  76.186  41.431  1.00  0.00    -0.452 OA
ENDROOT
BRANCH   1  12
ATOM     12  C   UNL     1       4.295  76.521  41.182  1.00  0.00     0.029 A 
ATOM     13  C   UNL     1       4.824  77.822  41.238  1.00  0.00     0.062 A 
ATOM     14  C   UNL     1       6.082  78.054  41.811  1.00  0.00     0.162 A 
ATOM     15  C   UNL     1       5.027  75.461  41.740  1.00  0.00     0.062 A 
ATOM     16  C   UNL     1       6.818  76.983  42.345  1.00  0.00     0.200 A 
ATOM     17  C   UNL     1       6.283  75.684  42.311  1.00  0.00     0.162 A 
BRANCH  14  18
ATOM     18  O   UNL     1       6.601  79.348  41.855  1.00  0.00    -0.504 OA
ATOM     19  H   UNL     1       6.103  80.105  42.309  1.00  0.00     0.293 HD
ENDBRANCH  14  18
BRANCH  16  20
ATOM     20  O   UNL     1       8.075  77.197  42.915  1.00  0.00    -0.502 OA
ATOM     21  H   UNL     1       8.633  76.440  43.289  1.00  0.00     0.293 HD
ENDBRANCH  16  20
BRANCH  17  22
ATOM     22  O   UNL     1       6.986  74.602  42.841  1.00  0.00    -0.504 OA
ATOM     23  H   UNL     1       6.856  74.290  43.796  1.00  0.00     0.293 HD
ENDBRANCH  17  22
ENDBRANCH   1  12
BRANCH   2  24
ATOM     24  O   UNL     1       3.860  76.042  38.358  1.00  0.00    -0.502 OA
ATOM     25  H   UNL     1       4.501  75.259  38.308  1.00  0.00     0.293 HD
ENDBRANCH   2  24
BRANCH   6  26
ATOM     26  O   UNL     1      -1.434  75.624  37.937  1.00  0.00    -0.507 OA
ATOM     27  H   UNL     1      -0.901  75.250  37.166  1.00  0.00     0.293 HD
ENDBRANCH   6  26
BRANCH   8  28
ATOM     28  O   UNL     1      -2.645  75.566  42.584  1.00  0.00    -0.508 OA
ATOM     29  H   UNL     1      -3.114  76.387  42.948  1.00  0.00     0.293 HD
ENDBRANCH   8  28
TORSDOF 7
ENDMDL
MODEL 9
REMARK VINA RESULT:    -6.113     13.823     17.527
REMARK INTER + INTRA:          -7.892
REMARK INTER:                  -7.523
REMARK INTRA:                  -0.369
REMARK UNBOUND:                -0.350
REMARK SMILES O=c1c(O)c(-c2cc(O)c(O)c(O)c2)oc2cc(O)cc(O)c12
REMARK SMILES IDX 5 1 3 2 2 3 1 4 23 5 21 6 20 7 18 8 17 9 16 10 15 11 6 12
REMARK SMILES IDX 7 13 8 14 14 15 10 16 12 17 9 18 11 20 13 22 4 24 22 26
REMARK SMILES IDX 19 28
REMARK H PARENT 9 19 11 21 13 23 4 25 22 27 19 29
REMARK Flexibility Score: inf
ROOT
ATOM      1  C   UNL     1       1.816  75.077  40.267  1.00  0.00     0.180 A 
ATOM      2  C   UNL     1       1.978  74.210  41.362  1.00  0.00     0.208 A 
ATOM      3  C   UNL     1       3.234  74.127  41.984  1.00  0.00     0.238 A 
ATOM      4  O   UNL     1       3.388  73.308  42.928  1.00  0.00    -0.285 OA
ATOM      5  C   UNL     1       4.307  74.921  41.515  1.00  0.00     0.111 A 
ATOM      6  C   UNL     1       5.611  74.947  42.094  1.00  0.00     0.134 A 
ATOM      7  C   UNL     1       6.631  75.672  41.467  1.00  0.00     0.093 A 
ATOM      8  C   UNL     1       6.378  76.426  40.319  1.00  0.00     0.123 A 
ATOM      9  C   UNL     1       5.095  76.455  39.779  1.00  0.00     0.094 A 
ATOM     10  C   UNL     1       4.065  75.713  40.361  1.00  0.00     0.146 A 
ATOM     11  O   UNL     1       2.858  75.760  39.809  1.00  0.00    -0.452 OA
ENDROOT
BRANCH   1  12
ATOM     12  C   UNL     1       0.516  75.237  39.575  1.00  0.00     0.029 A 
ATOM     13  C   UNL     1      -0.421  76.196  39.995  1.00  0.00     0.062 A 
ATOM     14  C   UNL     1      -1.636  76.350  39.312  1.00  0.00     0.162 A 
ATOM     15  C   UNL     1       0.236  74.458  38.442  1.00  0.00     0.062 A 
ATOM     16  C   UNL     1      -1.918  75.548  38.193  1.00  0.00     0.200 A 
ATOM     17  C   UNL     1      -0.974  74.603  37.757  1.00  0.00     0.162 A 
BRANCH  14  18
ATOM     18  O   UNL     1      -2.562  77.299  39.741  1.00  0.00    -0.504 OA
ATOM     19  H   UNL     1      -2.404  78.293  39.613  1.00  0.00     0.293 HD
ENDBRANCH  14  18
BRANCH  16  20
ATOM     20  O   UNL     1      -3.125  75.685  37.505  1.00  0.00    -0.502 OA
ATOM     21  H   UNL     1      -4.017  75.462  37.930  1.00  0.00     0.293 HD
ENDBRANCH  16  20
BRANCH  17  22
ATOM     22  O   UNL     1      -1.220  73.799  36.644  1.00  0.00    -0.504 OA
ATOM     23  H   UNL     1      -0.532  73.664  35.913  1.00  0.00     0.293 HD
ENDBRANCH  17  22
ENDBRANCH   1  12
BRANCH   2  24
ATOM     24  O   UNL     1       0.911  73.417  41.795  1.00  0.00    -0.502 OA
ATOM     25  H   UNL     1       0.483  72.713  41.206  1.00  0.00     0.293 HD
ENDBRANCH   2  24
BRANCH   6  26
ATOM     26  O   UNL     1       5.946  74.304  43.290  1.00  0.00    -0.507 OA
ATOM     27  H   UNL     1       6.207  74.776  44.142  1.00  0.00     0.293 HD
ENDBRANCH   6  26
BRANCH   8  28
ATOM     28  O   UNL     1       7.396  77.158  39.710  1.00  0.00    -0.508 OA
ATOM     29  H   UNL     1       8.366  77.045  39.982  1.00  0.00     0.293 HD
ENDBRANCH   8  28
TORSDOF 7
ENDMDL
