MODEL 1
REMARK VINA RESULT:    -5.059      0.000      0.000
REMARK INTER + INTRA:          -7.753
REMARK INTER:                  -6.242
REMARK INTRA:                  -1.511
REMARK UNBOUND:                -1.511
REMARK SMILES CC(C)=CCC[C@@H](C)c1ccc(C)cc1
REMARK SMILES IDX 6 1 7 2 8 3 9 4 13 5 12 6 11 7 14 8 10 9 15 10 5 11 4 12
REMARK SMILES IDX 2 13 1 14 3 15
REMARK H PARENT
REMARK Flexibility Score: inf
ROOT
ATOM      1  C   UNL     1      82.093  86.842  78.459  1.00  0.00     0.012 C 
ENDROOT
BRANCH   1   2
ATOM      2  C   UNL     1      80.765  86.129  78.797  1.00  0.00     0.016 C 
ATOM      3  C   UNL     1      79.742  86.229  77.654  1.00  0.00     0.013 C 
BRANCH   2   4
ATOM      4  C   UNL     1      81.019  84.675  79.153  1.00  0.00    -0.045 A 
ATOM      5  C   UNL     1      81.715  80.539  80.186  1.00  0.00     0.044 C 
ATOM      6  C   UNL     1      81.499  81.983  79.843  1.00  0.00    -0.051 A 
ATOM      7  C   UNL     1      82.051  82.521  78.672  1.00  0.00     0.004 A 
ATOM      8  C   UNL     1      80.687  82.788  80.654  1.00  0.00     0.004 A 
ATOM      9  C   UNL     1      81.820  83.858  78.333  1.00  0.00     0.004 A 
ATOM     10  C   UNL     1      80.454  84.124  80.316  1.00  0.00     0.004 A 
ENDBRANCH   2   4
ENDBRANCH   1   2
BRANCH   1  11
ATOM     11  C   UNL     1      82.988  87.040  79.691  1.00  0.00     0.028 C 
BRANCH  11  12
ATOM     12  C   UNL     1      84.291  86.297  79.529  1.00  0.00    -0.028 C 
ATOM     13  C   UNL     1      84.671  85.247  80.294  1.00  0.00    -0.080 C 
ATOM     14  C   UNL     1      85.983  84.559  80.025  1.00  0.00     0.039 C 
ATOM     15  C   UNL     1      83.837  84.759  81.454  1.00  0.00     0.039 C 
ENDBRANCH  11  12
ENDBRANCH   1  11
TORSDOF 4
ENDMDL
MODEL 2
REMARK VINA RESULT:    -5.007      1.524      4.240
REMARK INTER + INTRA:          -7.689
REMARK INTER:                  -6.139
REMARK INTRA:                  -1.551
REMARK UNBOUND:                -1.511
REMARK SMILES CC(C)=CCC[C@@H](C)c1ccc(C)cc1
REMARK SMILES IDX 6 1 7 2 8 3 9 4 13 5 12 6 11 7 14 8 10 9 15 10 5 11 4 12
REMARK SMILES IDX 2 13 1 14 3 15
REMARK H PARENT
REMARK Flexibility Score: inf
ROOT
ATOM      1  C   UNL     1      83.906  83.863  79.715  1.00  0.00     0.012 C 
ENDROOT
BRANCH   1   2
ATOM      2  C   UNL     1      82.723  83.414  78.827  1.00  0.00     0.016 C 
ATOM      3  C   UNL     1      81.806  82.408  79.541  1.00  0.00     0.013 C 
BRANCH   2   4
ATOM      4  C   UNL     1      81.924  84.618  78.360  1.00  0.00    -0.045 A 
ATOM      5  C   UNL     1      79.679  88.055  77.016  1.00  0.00     0.044 C 
ATOM      6  C   UNL     1      80.457  86.873  77.511  1.00  0.00    -0.051 A 
ATOM      7  C   UNL     1      79.790  85.717  77.942  1.00  0.00     0.004 A 
ATOM      8  C   UNL     1      81.859  86.888  77.485  1.00  0.00     0.004 A 
ATOM      9  C   UNL     1      80.516  84.601  78.370  1.00  0.00     0.004 A 
ATOM     10  C   UNL     1      82.586  85.774  77.912  1.00  0.00     0.004 A 
ENDBRANCH   2   4
ENDBRANCH   1   2
BRANCH   1  11
ATOM     11  C   UNL     1      83.495  84.088  81.178  1.00  0.00     0.028 C 
BRANCH  11  12
ATOM     12  C   UNL     1      83.505  85.558  81.514  1.00  0.00    -0.028 C 
ATOM     13  C   UNL     1      82.401  86.276  81.827  1.00  0.00    -0.080 C 
ATOM     14  C   UNL     1      82.529  87.735  82.177  1.00  0.00     0.039 C 
ATOM     15  C   UNL     1      81.018  85.673  81.796  1.00  0.00     0.039 C 
ENDBRANCH  11  12
ENDBRANCH   1  11
TORSDOF 4
ENDMDL
MODEL 3
REMARK VINA RESULT:    -4.832      1.351      4.062
REMARK INTER + INTRA:          -7.473
REMARK INTER:                  -6.408
REMARK INTRA:                  -1.065
REMARK UNBOUND:                -1.511
REMARK SMILES CC(C)=CCC[C@@H](C)c1ccc(C)cc1
REMARK SMILES IDX 6 1 7 2 8 3 9 4 13 5 12 6 11 7 14 8 10 9 15 10 5 11 4 12
REMARK SMILES IDX 2 13 1 14 3 15
REMARK H PARENT
REMARK Flexibility Score: inf
ROOT
ATOM      1  C   UNL     1      82.411  83.847  80.877  1.00  0.00     0.012 C 
ENDROOT
BRANCH   1   2
ATOM      2  C   UNL     1      82.609  83.745  79.348  1.00  0.00     0.016 C 
ATOM      3  C   UNL     1      82.160  82.386  78.789  1.00  0.00     0.013 C 
BRANCH   2   4
ATOM      4  C   UNL     1      81.876  84.873  78.642  1.00  0.00    -0.045 A 
ATOM      5  C   UNL     1      79.822  88.089  76.618  1.00  0.00     0.044 C 
ATOM      6  C   UNL     1      80.535  86.989  77.347  1.00  0.00    -0.051 A 
ATOM      7  C   UNL     1      79.806  85.968  77.972  1.00  0.00     0.004 A 
ATOM      8  C   UNL     1      81.936  86.936  77.351  1.00  0.00     0.004 A 
ATOM      9  C   UNL     1      80.470  84.922  78.621  1.00  0.00     0.004 A 
ATOM     10  C   UNL     1      82.601  85.891  77.999  1.00  0.00     0.004 A 
ENDBRANCH   2   4
ENDBRANCH   1   2
BRANCH   1  11
ATOM     11  C   UNL     1      83.717  84.153  81.624  1.00  0.00     0.028 C 
BRANCH  11  12
ATOM     12  C   UNL     1      84.232  85.524  81.259  1.00  0.00    -0.028 C 
ATOM     13  C   UNL     1      85.299  85.749  80.459  1.00  0.00    -0.080 C 
ATOM     14  C   UNL     1      85.709  87.162  80.135  1.00  0.00     0.039 C 
ATOM     15  C   UNL     1      86.137  84.623  79.904  1.00  0.00     0.039 C 
ENDBRANCH  11  12
ENDBRANCH   1  11
TORSDOF 4
ENDMDL
MODEL 4
REMARK VINA RESULT:    -4.829      1.392      4.918
REMARK INTER + INTRA:          -7.470
REMARK INTER:                  -5.986
REMARK INTRA:                  -1.484
REMARK UNBOUND:                -1.511
REMARK SMILES CC(C)=CCC[C@@H](C)c1ccc(C)cc1
REMARK SMILES IDX 6 1 7 2 8 3 9 4 13 5 12 6 11 7 14 8 10 9 15 10 5 11 4 12
REMARK SMILES IDX 2 13 1 14 3 15
REMARK H PARENT
REMARK Flexibility Score: inf
ROOT
ATOM      1  C   UNL     1      80.634  84.183  79.884  1.00  0.00     0.012 C 
ENDROOT
BRANCH   1   2
ATOM      2  C   UNL     1      82.052  83.664  80.215  1.00  0.00     0.016 C 
ATOM      3  C   UNL     1      82.562  82.654  79.176  1.00  0.00     0.013 C 
BRANCH   2   4
ATOM      4  C   UNL     1      83.024  84.824  80.345  1.00  0.00    -0.045 A 
ATOM      5  C   UNL     1      85.767  88.137  80.738  1.00  0.00     0.044 C 
ATOM      6  C   UNL     1      84.807  86.997  80.574  1.00  0.00    -0.051 A 
ATOM      7  C   UNL     1      85.238  85.784  80.019  1.00  0.00     0.004 A 
ATOM      8  C   UNL     1      83.488  87.112  81.035  1.00  0.00     0.004 A 
ATOM      9  C   UNL     1      84.354  84.709  79.898  1.00  0.00     0.004 A 
ATOM     10  C   UNL     1      82.602  86.038  80.916  1.00  0.00     0.004 A 
ENDBRANCH   2   4
ENDBRANCH   1   2
BRANCH   1  11
ATOM     11  C   UNL     1      80.426  84.417  78.380  1.00  0.00     0.028 C 
BRANCH  11  12
ATOM     12  C   UNL     1      80.030  85.848  78.113  1.00  0.00    -0.028 C 
ATOM     13  C   UNL     1      80.855  86.783  77.588  1.00  0.00    -0.080 C 
ATOM     14  C   UNL     1      80.344  88.177  77.334  1.00  0.00     0.039 C 
ATOM     15  C   UNL     1      82.304  86.491  77.283  1.00  0.00     0.039 C 
ENDBRANCH  11  12
ENDBRANCH   1  11
TORSDOF 4
ENDMDL
MODEL 5
REMARK VINA RESULT:    -4.644      1.640      4.614
REMARK INTER + INTRA:          -7.241
REMARK INTER:                  -5.757
REMARK INTRA:                  -1.485
REMARK UNBOUND:                -1.511
REMARK SMILES CC(C)=CCC[C@@H](C)c1ccc(C)cc1
REMARK SMILES IDX 6 1 7 2 8 3 9 4 13 5 12 6 11 7 14 8 10 9 15 10 5 11 4 12
REMARK SMILES IDX 2 13 1 14 3 15
REMARK H PARENT
REMARK Flexibility Score: inf
ROOT
ATOM      1  C   UNL     1      82.488  83.027  79.405  1.00  0.00     0.012 C 
ENDROOT
BRANCH   1   2
ATOM      2  C   UNL     1      81.695  83.766  78.303  1.00  0.00     0.016 C 
ATOM      3  C   UNL     1      80.194  83.443  78.348  1.00  0.00     0.013 C 
BRANCH   2   4
ATOM      4  C   UNL     1      81.917  85.265  78.406  1.00  0.00    -0.045 A 
ATOM      5  C   UNL     1      82.514  89.533  78.692  1.00  0.00     0.044 C 
ATOM      6  C   UNL     1      82.322  88.051  78.566  1.00  0.00    -0.051 A 
ATOM      7  C   UNL     1      83.257  87.168  79.124  1.00  0.00     0.004 A 
ATOM      8  C   UNL     1      81.173  87.537  77.950  1.00  0.00     0.004 A 
ATOM      9  C   UNL     1      83.062  85.786  79.038  1.00  0.00     0.004 A 
ATOM     10  C   UNL     1      80.975  86.156  77.864  1.00  0.00     0.004 A 
ENDBRANCH   2   4
ENDBRANCH   1   2
BRANCH   1  11
ATOM     11  C   UNL     1      81.654  82.784  80.672  1.00  0.00     0.028 C 
BRANCH  11  12
ATOM     12  C   UNL     1      82.114  83.683  81.793  1.00  0.00    -0.028 C 
ATOM     13  C   UNL     1      81.426  84.759  82.239  1.00  0.00    -0.080 C 
ATOM     14  C   UNL     1      81.965  85.570  83.388  1.00  0.00     0.039 C 
ATOM     15  C   UNL     1      80.140  85.212  81.592  1.00  0.00     0.039 C 
ENDBRANCH  11  12
ENDBRANCH   1  11
TORSDOF 4
ENDMDL
MODEL 6
REMARK VINA RESULT:    -4.627      1.330      4.917
REMARK INTER + INTRA:          -7.219
REMARK INTER:                  -6.391
REMARK INTRA:                  -0.829
REMARK UNBOUND:                -1.511
REMARK SMILES CC(C)=CCC[C@@H](C)c1ccc(C)cc1
REMARK SMILES IDX 6 1 7 2 8 3 9 4 13 5 12 6 11 7 14 8 10 9 15 10 5 11 4 12
REMARK SMILES IDX 2 13 1 14 3 15
REMARK H PARENT
REMARK Flexibility Score: inf
ROOT
ATOM      1  C   UNL     1      83.391  83.646  79.478  1.00  0.00     0.012 C 
ENDROOT
BRANCH   1   2
ATOM      2  C   UNL     1      82.598  84.768  80.185  1.00  0.00     0.016 C 
ATOM      3  C   UNL     1      83.492  85.638  81.082  1.00  0.00     0.013 C 
BRANCH   2   4
ATOM      4  C   UNL     1      81.875  85.631  79.165  1.00  0.00    -0.045 A 
ATOM      5  C   UNL     1      79.789  88.074  76.277  1.00  0.00     0.044 C 
ATOM      6  C   UNL     1      80.521  87.206  77.257  1.00  0.00    -0.051 A 
ATOM      7  C   UNL     1      81.881  87.426  77.519  1.00  0.00     0.004 A 
ATOM      8  C   UNL     1      79.836  86.211  77.969  1.00  0.00     0.004 A 
ATOM      9  C   UNL     1      82.555  86.641  78.459  1.00  0.00     0.004 A 
ATOM     10  C   UNL     1      80.508  85.425  78.910  1.00  0.00     0.004 A 
ENDBRANCH   2   4
ENDBRANCH   1   2
BRANCH   1  11
ATOM     11  C   UNL     1      82.483  82.677  78.706  1.00  0.00     0.028 C 
BRANCH  11  12
ATOM     12  C   UNL     1      82.293  81.395  79.478  1.00  0.00    -0.028 C 
ATOM     13  C   UNL     1      81.204  81.111  80.229  1.00  0.00    -0.080 C 
ATOM     14  C   UNL     1      81.105  79.784  80.935  1.00  0.00     0.039 C 
ATOM     15  C   UNL     1      80.086  82.105  80.425  1.00  0.00     0.039 C 
ENDBRANCH  11  12
ENDBRANCH   1  11
TORSDOF 4
ENDMDL
MODEL 7
REMARK VINA RESULT:    -4.557      1.682      3.992
REMARK INTER + INTRA:          -7.134
REMARK INTER:                  -5.647
REMARK INTRA:                  -1.487
REMARK UNBOUND:                -1.511
REMARK SMILES CC(C)=CCC[C@@H](C)c1ccc(C)cc1
REMARK SMILES IDX 6 1 7 2 8 3 9 4 13 5 12 6 11 7 14 8 10 9 15 10 5 11 4 12
REMARK SMILES IDX 2 13 1 14 3 15
REMARK H PARENT
REMARK Flexibility Score: inf
ROOT
ATOM      1  C   UNL     1      83.101  88.745  80.450  1.00  0.00     0.012 C 
ENDROOT
BRANCH   1   2
ATOM      2  C   UNL     1      83.914  87.613  81.117  1.00  0.00     0.016 C 
ATOM      3  C   UNL     1      83.853  87.675  82.651  1.00  0.00     0.013 C 
BRANCH   2   4
ATOM      4  C   UNL     1      83.438  86.257  80.624  1.00  0.00    -0.045 A 
ATOM      5  C   UNL     1      82.050  82.414  79.224  1.00  0.00     0.044 C 
ATOM      6  C   UNL     1      82.540  83.735  79.737  1.00  0.00    -0.051 A 
ATOM      7  C   UNL     1      83.873  84.122  79.536  1.00  0.00     0.004 A 
ATOM      8  C   UNL     1      81.653  84.624  80.362  1.00  0.00     0.004 A 
ATOM      9  C   UNL     1      84.321  85.369  79.982  1.00  0.00     0.004 A 
ATOM     10  C   UNL     1      82.099  85.871  80.807  1.00  0.00     0.004 A 
ENDBRANCH   2   4
ENDBRANCH   1   2
BRANCH   1  11
ATOM     11  C   UNL     1      83.179  88.705  78.917  1.00  0.00     0.028 C 
BRANCH  11  12
ATOM     12  C   UNL     1      81.797  88.674  78.313  1.00  0.00    -0.028 C 
ATOM     13  C   UNL     1      81.322  87.666  77.546  1.00  0.00    -0.080 C 
ATOM     14  C   UNL     1      79.913  87.724  77.018  1.00  0.00     0.039 C 
ATOM     15  C   UNL     1      82.178  86.486  77.156  1.00  0.00     0.039 C 
ENDBRANCH  11  12
ENDBRANCH   1  11
TORSDOF 4
ENDMDL
MODEL 8
REMARK VINA RESULT:    -4.540      1.245      4.897
REMARK INTER + INTRA:          -7.112
REMARK INTER:                  -6.064
REMARK INTRA:                  -1.049
REMARK UNBOUND:                -1.511
REMARK SMILES CC(C)=CCC[C@@H](C)c1ccc(C)cc1
REMARK SMILES IDX 6 1 7 2 8 3 9 4 13 5 12 6 11 7 14 8 10 9 15 10 5 11 4 12
REMARK SMILES IDX 2 13 1 14 3 15
REMARK H PARENT
REMARK Flexibility Score: inf
ROOT
ATOM      1  C   UNL     1      82.424  84.942  81.506  1.00  0.00     0.012 C 
ENDROOT
BRANCH   1   2
ATOM      2  C   UNL     1      83.199  85.863  80.538  1.00  0.00     0.016 C 
ATOM      3  C   UNL     1      84.401  85.155  79.894  1.00  0.00     0.013 C 
BRANCH   2   4
ATOM      4  C   UNL     1      82.270  86.407  79.467  1.00  0.00    -0.045 A 
ATOM      5  C   UNL     1      79.653  87.978  76.410  1.00  0.00     0.044 C 
ATOM      6  C   UNL     1      80.543  87.445  77.493  1.00  0.00    -0.051 A 
ATOM      7  C   UNL     1      80.329  86.161  78.016  1.00  0.00     0.004 A 
ATOM      8  C   UNL     1      81.637  88.197  77.944  1.00  0.00     0.004 A 
ATOM      9  C   UNL     1      81.180  85.649  79.000  1.00  0.00     0.004 A 
ATOM     10  C   UNL     1      82.489  87.686  78.927  1.00  0.00     0.004 A 
ENDBRANCH   2   4
ENDBRANCH   1   2
BRANCH   1  11
ATOM     11  C   UNL     1      83.073  83.557  81.653  1.00  0.00     0.028 C 
BRANCH  11  12
ATOM     12  C   UNL     1      82.034  82.468  81.560  1.00  0.00    -0.028 C 
ATOM     13  C   UNL     1      81.720  81.808  80.422  1.00  0.00    -0.080 C 
ATOM     14  C   UNL     1      80.685  80.714  80.450  1.00  0.00     0.039 C 
ATOM     15  C   UNL     1      82.345  82.160  79.094  1.00  0.00     0.039 C 
ENDBRANCH  11  12
ENDBRANCH   1  11
TORSDOF 4
ENDMDL
MODEL 9
REMARK VINA RESULT:    -4.526      2.395      4.337
REMARK INTER + INTRA:          -7.096
REMARK INTER:                  -5.880
REMARK INTRA:                  -1.216
REMARK UNBOUND:                -1.511
REMARK SMILES CC(C)=CCC[C@@H](C)c1ccc(C)cc1
REMARK SMILES IDX 6 1 7 2 8 3 9 4 13 5 12 6 11 7 14 8 10 9 15 10 5 11 4 12
REMARK SMILES IDX 2 13 1 14 3 15
REMARK H PARENT
REMARK Flexibility Score: inf
ROOT
ATOM      1  C   UNL     1      80.246  86.101  78.027  1.00  0.00     0.012 C 
ENDROOT
BRANCH   1   2
ATOM      2  C   UNL     1      80.930  85.015  78.886  1.00  0.00     0.016 C 
ATOM      3  C   UNL     1      82.350  84.691  78.396  1.00  0.00     0.013 C 
BRANCH   2   4
ATOM      4  C   UNL     1      80.959  85.434  80.346  1.00  0.00    -0.045 A 
ATOM      5  C   UNL     1      81.063  86.649  84.490  1.00  0.00     0.044 C 
ATOM      6  C   UNL     1      81.041  86.201  83.059  1.00  0.00    -0.051 A 
ATOM      7  C   UNL     1      79.943  85.485  82.559  1.00  0.00     0.004 A 
ATOM      8  C   UNL     1      82.085  86.551  82.192  1.00  0.00     0.004 A 
ATOM      9  C   UNL     1      79.904  85.098  81.217  1.00  0.00     0.004 A 
ATOM     10  C   UNL     1      82.048  86.165  80.849  1.00  0.00     0.004 A 
ENDBRANCH   2   4
ENDBRANCH   1   2
BRANCH   1  11
ATOM     11  C   UNL     1      81.254  87.012  77.312  1.00  0.00     0.028 C 
BRANCH  11  12
ATOM     12  C   UNL     1      81.320  88.363  77.981  1.00  0.00    -0.028 C 
ATOM     13  C   UNL     1      82.454  88.917  78.469  1.00  0.00    -0.080 C 
ATOM     14  C   UNL     1      82.411  90.288  79.092  1.00  0.00     0.039 C 
ATOM     15  C   UNL     1      83.774  88.186  78.454  1.00  0.00     0.039 C 
ENDBRANCH  11  12
ENDBRANCH   1  11
TORSDOF 4
ENDMDL
