MODEL 1
REMARK VINA RESULT:    -3.883      0.000      0.000
REMARK INTER + INTRA:          -5.778
REMARK INTER:                  -5.245
REMARK INTRA:                  -0.533
REMARK UNBOUND:                -0.533
REMARK SMILES [NH3+]CCCC[C@H]([NH3+])C(=O)[O-]
REMARK SMILES IDX 4 1 3 2 2 3 1 4 5 8 6 9 7 10 8 14 9 15 10 16
REMARK H PARENT 1 5 1 6 1 7 7 11 7 12 7 13
REMARK Flexibility Score: inf
ROOT
ATOM      1  C   UNL     1     161.268 167.432 149.991  1.00  0.00     0.012 C 
ENDROOT
BRANCH   1   2
ATOM      2  C   UNL     1     160.051 168.369 150.074  1.00  0.00     0.061 C 
BRANCH   2   3
ATOM      3  C   UNL     1     159.219 168.141 151.348  1.00  0.00     0.258 C 
BRANCH   3   4
ATOM      4  N   UNL     1     157.886 167.615 151.047  1.00  0.00    -0.358 N 
ATOM      5  H   UNL     1     157.803 167.396 150.029  1.00  0.00     0.344 HD
ATOM      6  H   UNL     1     157.740 166.732 151.587  1.00  0.00     0.344 HD
ATOM      7  H   UNL     1     157.150 168.305 151.325  1.00  0.00     0.344 HD
ENDBRANCH   3   4
ENDBRANCH   2   3
ENDBRANCH   1   2
BRANCH   1   8
ATOM      8  C   UNL     1     160.928 166.063 149.374  1.00  0.00     0.072 C 
BRANCH   8   9
ATOM      9  C   UNL     1     160.907 164.886 150.378  1.00  0.00     0.227 C 
BRANCH   9  10
ATOM     10  N   UNL     1     161.849 163.823 149.997  1.00  0.00    -0.350 N 
ATOM     11  H   UNL     1     161.333 163.022 149.571  1.00  0.00     0.345 HD
ATOM     12  H   UNL     1     162.388 163.489 150.829  1.00  0.00     0.345 HD
ATOM     13  H   UNL     1     162.519 164.183 149.277  1.00  0.00     0.345 HD
ENDBRANCH   9  10
BRANCH   9  14
ATOM     14  C   UNL     1     159.509 164.334 150.475  1.00  0.00     0.099 C 
ATOM     15  O   UNL     1     158.552 164.918 149.900  1.00  0.00    -0.544 OA
ATOM     16  O   UNL     1     159.264 163.192 151.225  1.00  0.00    -0.544 OA
ENDBRANCH   9  14
ENDBRANCH   8   9
ENDBRANCH   1   8
TORSDOF 7
ENDMDL
MODEL 2
REMARK VINA RESULT:    -3.878     16.728     17.672
REMARK INTER + INTRA:          -5.770
REMARK INTER:                  -5.244
REMARK INTRA:                  -0.527
REMARK UNBOUND:                -0.533
REMARK SMILES [NH3+]CCCC[C@H]([NH3+])C(=O)[O-]
REMARK SMILES IDX 4 1 3 2 2 3 1 4 5 8 6 9 7 10 8 14 9 15 10 16
REMARK H PARENT 1 5 1 6 1 7 7 11 7 12 7 13
REMARK Flexibility Score: inf
ROOT
ATOM      1  C   UNL     1     156.756 167.264 168.104  1.00  0.00     0.012 C 
ENDROOT
BRANCH   1   2
ATOM      2  C   UNL     1     157.923 168.256 167.968  1.00  0.00     0.061 C 
BRANCH   2   3
ATOM      3  C   UNL     1     158.727 168.044 166.673  1.00  0.00     0.258 C 
BRANCH   3   4
ATOM      4  N   UNL     1     160.110 167.647 166.944  1.00  0.00    -0.358 N 
ATOM      5  H   UNL     1     160.245 167.471 167.965  1.00  0.00     0.344 HD
ATOM      6  H   UNL     1     160.317 166.762 166.427  1.00  0.00     0.344 HD
ATOM      7  H   UNL     1     160.773 168.388 166.618  1.00  0.00     0.344 HD
ENDBRANCH   3   4
ENDBRANCH   2   3
ENDBRANCH   1   2
BRANCH   1   8
ATOM      8  C   UNL     1     157.165 165.948 168.790  1.00  0.00     0.072 C 
BRANCH   8   9
ATOM      9  C   UNL     1     157.205 164.715 167.856  1.00  0.00     0.227 C 
BRANCH   9  10
ATOM     10  N   UNL     1     156.382 163.610 168.371  1.00  0.00    -0.350 N 
ATOM     11  H   UNL     1     156.580 162.736 167.835  1.00  0.00     0.345 HD
ATOM     12  H   UNL     1     155.365 163.841 168.301  1.00  0.00     0.345 HD
ATOM     13  H   UNL     1     156.623 163.424 169.373  1.00  0.00     0.345 HD
ENDBRANCH   9  10
BRANCH   9  14
ATOM     14  C   UNL     1     158.631 164.265 167.681  1.00  0.00     0.099 C 
ATOM     15  O   UNL     1     159.578 164.941 168.166  1.00  0.00    -0.544 OA
ATOM     16  O   UNL     1     158.913 163.116 166.954  1.00  0.00    -0.544 OA
ENDBRANCH   9  14
ENDBRANCH   8   9
ENDBRANCH   1   8
TORSDOF 7
ENDMDL
MODEL 3
REMARK VINA RESULT:    -3.871     21.104     22.427
REMARK INTER + INTRA:          -5.761
REMARK INTER:                  -5.239
REMARK INTRA:                  -0.522
REMARK UNBOUND:                -0.533
REMARK SMILES [NH3+]CCCC[C@H]([NH3+])C(=O)[O-]
REMARK SMILES IDX 4 1 3 2 2 3 1 4 5 8 6 9 7 10 8 14 9 15 10 16
REMARK H PARENT 1 5 1 6 1 7 7 11 7 12 7 13
REMARK Flexibility Score: inf
ROOT
ATOM      1  C   UNL     1     161.243 150.760 167.999  1.00  0.00     0.012 C 
ENDROOT
BRANCH   1   2
ATOM      2  C   UNL     1     160.087 149.747 167.963  1.00  0.00     0.061 C 
BRANCH   2   3
ATOM      3  C   UNL     1     159.259 149.845 166.670  1.00  0.00     0.258 C 
BRANCH   3   4
ATOM      4  N   UNL     1     157.899 150.325 166.921  1.00  0.00    -0.358 N 
ATOM      5  H   UNL     1     157.505 150.767 166.061  1.00  0.00     0.344 HD
ATOM      6  H   UNL     1     157.295 149.511 167.180  1.00  0.00     0.344 HD
ATOM      7  H   UNL     1     157.894 151.011 167.711  1.00  0.00     0.344 HD
ENDBRANCH   3   4
ENDBRANCH   2   3
ENDBRANCH   1   2
BRANCH   1   8
ATOM      8  C   UNL     1     160.884 152.054 168.753  1.00  0.00     0.072 C 
BRANCH   8   9
ATOM      9  C   UNL     1     160.797 153.319 167.866  1.00  0.00     0.227 C 
BRANCH   9  10
ATOM     10  N   UNL     1     161.525 154.452 168.455  1.00  0.00    -0.350 N 
ATOM     11  H   UNL     1     161.094 154.720 169.368  1.00  0.00     0.345 HD
ATOM     12  H   UNL     1     161.514 155.275 167.809  1.00  0.00     0.345 HD
ATOM     13  H   UNL     1     162.517 154.179 168.645  1.00  0.00     0.345 HD
ENDBRANCH   9  10
BRANCH   9  14
ATOM     14  C   UNL     1     159.351 153.681 167.651  1.00  0.00     0.099 C 
ATOM     15  O   UNL     1     158.435 152.983 168.164  1.00  0.00    -0.544 OA
ATOM     16  O   UNL     1     159.019 154.772 166.860  1.00  0.00    -0.544 OA
ENDBRANCH   9  14
ENDBRANCH   8   9
ENDBRANCH   1   8
TORSDOF 7
ENDMDL
MODEL 4
REMARK VINA RESULT:    -3.871     12.372     14.556
REMARK INTER + INTRA:          -5.761
REMARK INTER:                  -5.235
REMARK INTRA:                  -0.526
REMARK UNBOUND:                -0.533
REMARK SMILES [NH3+]CCCC[C@H]([NH3+])C(=O)[O-]
REMARK SMILES IDX 4 1 3 2 2 3 1 4 5 8 6 9 7 10 8 14 9 15 10 16
REMARK H PARENT 1 5 1 6 1 7 7 11 7 12 7 13
REMARK Flexibility Score: inf
ROOT
ATOM      1  C   UNL     1     156.774 150.597 149.999  1.00  0.00     0.012 C 
ENDROOT
BRANCH   1   2
ATOM      2  C   UNL     1     157.958 149.621 150.111  1.00  0.00     0.061 C 
BRANCH   2   3
ATOM      3  C   UNL     1     158.796 149.858 151.379  1.00  0.00     0.258 C 
BRANCH   3   4
ATOM      4  N   UNL     1     160.137 150.358 151.067  1.00  0.00    -0.358 N 
ATOM      5  H   UNL     1     160.204 151.378 151.283  1.00  0.00     0.344 HD
ATOM      6  H   UNL     1     160.834 149.850 151.657  1.00  0.00     0.344 HD
ATOM      7  H   UNL     1     160.364 150.190 150.059  1.00  0.00     0.344 HD
ENDBRANCH   3   4
ENDBRANCH   2   3
ENDBRANCH   1   2
BRANCH   1   8
ATOM      8  C   UNL     1     157.122 151.873 149.211  1.00  0.00     0.072 C 
BRANCH   8   9
ATOM      9  C   UNL     1     157.086 153.178 150.043  1.00  0.00     0.227 C 
BRANCH   9  10
ATOM     10  N   UNL     1     156.376 154.257 149.338  1.00  0.00    -0.350 N 
ATOM     11  H   UNL     1     156.158 153.963 148.360  1.00  0.00     0.345 HD
ATOM     12  H   UNL     1     156.952 155.130 149.322  1.00  0.00     0.345 HD
ATOM     13  H   UNL     1     155.466 154.456 149.816  1.00  0.00     0.345 HD
ENDBRANCH   9  10
BRANCH   9  14
ATOM     14  C   UNL     1     158.493 153.604 150.368  1.00  0.00     0.099 C 
ATOM     15  O   UNL     1     159.475 153.017 149.842  1.00  0.00    -0.544 OA
ATOM     16  O   UNL     1     158.714 154.631 151.277  1.00  0.00    -0.544 OA
ENDBRANCH   9  14
ENDBRANCH   8   9
ENDBRANCH   1   8
TORSDOF 7
ENDMDL
MODEL 5
REMARK VINA RESULT:    -3.855     15.595     16.467
REMARK INTER + INTRA:          -5.741
REMARK INTER:                  -5.482
REMARK INTRA:                  -0.259
REMARK UNBOUND:                -0.533
REMARK SMILES [NH3+]CCCC[C@H]([NH3+])C(=O)[O-]
REMARK SMILES IDX 4 1 3 2 2 3 1 4 5 8 6 9 7 10 8 14 9 15 10 16
REMARK H PARENT 1 5 1 6 1 7 7 11 7 12 7 13
REMARK Flexibility Score: inf
ROOT
ATOM      1  C   UNL     1     157.437 166.438 168.314  1.00  0.00     0.012 C 
ENDROOT
BRANCH   1   2
ATOM      2  C   UNL     1     157.785 167.901 167.994  1.00  0.00     0.061 C 
BRANCH   2   3
ATOM      3  C   UNL     1     158.647 168.037 166.727  1.00  0.00     0.258 C 
BRANCH   3   4
ATOM      4  N   UNL     1     160.041 167.661 166.967  1.00  0.00    -0.358 N 
ATOM      5  H   UNL     1     160.244 166.727 166.543  1.00  0.00     0.344 HD
ATOM      6  H   UNL     1     160.666 168.369 166.518  1.00  0.00     0.344 HD
ATOM      7  H   UNL     1     160.242 167.638 167.993  1.00  0.00     0.344 HD
ENDBRANCH   3   4
ENDBRANCH   2   3
ENDBRANCH   1   2
BRANCH   1   8
ATOM      8  C   UNL     1     156.603 165.766 167.207  1.00  0.00     0.072 C 
BRANCH   8   9
ATOM      9  C   UNL     1     157.192 164.440 166.667  1.00  0.00     0.227 C 
BRANCH   9  10
ATOM     10  N   UNL     1     158.643 164.354 166.887  1.00  0.00    -0.350 N 
ATOM     11  H   UNL     1     159.099 163.866 166.085  1.00  0.00     0.345 HD
ATOM     12  H   UNL     1     158.854 163.842 167.774  1.00  0.00     0.345 HD
ATOM     13  H   UNL     1     159.052 165.317 166.941  1.00  0.00     0.345 HD
ENDBRANCH   9  10
BRANCH   9  14
ATOM     14  C   UNL     1     156.877 164.313 165.200  1.00  0.00     0.099 C 
ATOM     15  O   UNL     1     156.949 165.317 164.443  1.00  0.00    -0.544 OA
ATOM     16  O   UNL     1     156.476 163.090 164.680  1.00  0.00    -0.544 OA
ENDBRANCH   9  14
ENDBRANCH   8   9
ENDBRANCH   1   8
TORSDOF 7
ENDMDL
MODEL 6
REMARK VINA RESULT:    -3.854      2.075      2.264
REMARK INTER + INTRA:          -5.738
REMARK INTER:                  -5.495
REMARK INTRA:                  -0.244
REMARK UNBOUND:                -0.533
REMARK SMILES [NH3+]CCCC[C@H]([NH3+])C(=O)[O-]
REMARK SMILES IDX 4 1 3 2 2 3 1 4 5 8 6 9 7 10 8 14 9 15 10 16
REMARK H PARENT 1 5 1 6 1 7 7 11 7 12 7 13
REMARK Flexibility Score: inf
ROOT
ATOM      1  C   UNL     1     160.707 166.510 149.771  1.00  0.00     0.012 C 
ENDROOT
BRANCH   1   2
ATOM      2  C   UNL     1     160.188 167.943 149.978  1.00  0.00     0.061 C 
BRANCH   2   3
ATOM      3  C   UNL     1     159.351 168.085 151.262  1.00  0.00     0.258 C 
BRANCH   3   4
ATOM      4  N   UNL     1     157.955 167.697 151.053  1.00  0.00    -0.358 N 
ATOM      5  H   UNL     1     157.902 166.804 150.515  1.00  0.00     0.344 HD
ATOM      6  H   UNL     1     157.502 167.548 151.984  1.00  0.00     0.344 HD
ATOM      7  H   UNL     1     157.438 168.452 150.545  1.00  0.00     0.344 HD
ENDBRANCH   3   4
ENDBRANCH   2   3
ENDBRANCH   1   2
BRANCH   1   8
ATOM      8  C   UNL     1     161.318 165.904 151.048  1.00  0.00     0.072 C 
BRANCH   8   9
ATOM      9  C   UNL     1     160.768 164.508 151.430  1.00  0.00     0.227 C 
BRANCH   9  10
ATOM     10  N   UNL     1     159.332 164.387 151.140  1.00  0.00    -0.350 N 
ATOM     11  H   UNL     1     159.191 164.072 150.154  1.00  0.00     0.345 HD
ATOM     12  H   UNL     1     158.845 165.300 151.289  1.00  0.00     0.345 HD
ATOM     13  H   UNL     1     158.902 163.664 151.764  1.00  0.00     0.345 HD
ENDBRANCH   9  10
BRANCH   9  14
ATOM     14  C   UNL     1     161.030 164.250 152.890  1.00  0.00     0.099 C 
ATOM     15  O   UNL     1     160.998 165.196 153.722  1.00  0.00    -0.544 OA
ATOM     16  O   UNL     1     161.338 162.967 153.324  1.00  0.00    -0.544 OA
ENDBRANCH   9  14
ENDBRANCH   8   9
ENDBRANCH   1   8
TORSDOF 7
ENDMDL
MODEL 7
REMARK VINA RESULT:    -3.843     12.735     14.459
REMARK INTER + INTRA:          -5.724
REMARK INTER:                  -5.485
REMARK INTRA:                  -0.239
REMARK UNBOUND:                -0.533
REMARK SMILES [NH3+]CCCC[C@H]([NH3+])C(=O)[O-]
REMARK SMILES IDX 4 1 3 2 2 3 1 4 5 8 6 9 7 10 8 14 9 15 10 16
REMARK H PARENT 1 5 1 6 1 7 7 11 7 12 7 13
REMARK Flexibility Score: inf
ROOT
ATOM      1  C   UNL     1     157.351 151.457 149.707  1.00  0.00     0.012 C 
ENDROOT
BRANCH   1   2
ATOM      2  C   UNL     1     157.789 150.013 150.003  1.00  0.00     0.061 C 
BRANCH   2   3
ATOM      3  C   UNL     1     158.652 149.908 151.272  1.00  0.00     0.258 C 
BRANCH   3   4
ATOM      4  N   UNL     1     160.034 150.328 151.033  1.00  0.00    -0.358 N 
ATOM      5  H   UNL     1     160.475 150.652 151.924  1.00  0.00     0.344 HD
ATOM      6  H   UNL     1     160.580 149.512 150.674  1.00  0.00     0.344 HD
ATOM      7  H   UNL     1     160.065 151.093 150.320  1.00  0.00     0.344 HD
ENDBRANCH   3   4
ENDBRANCH   2   3
ENDBRANCH   1   2
BRANCH   1   8
ATOM      8  C   UNL     1     156.609 152.111 150.888  1.00  0.00     0.072 C 
BRANCH   8   9
ATOM      9  C   UNL     1     157.183 153.476 151.338  1.00  0.00     0.227 C 
BRANCH   9  10
ATOM     10  N   UNL     1     158.636 153.556 151.125  1.00  0.00    -0.350 N 
ATOM     11  H   UNL     1     158.911 152.971 150.305  1.00  0.00     0.345 HD
ATOM     12  H   UNL     1     159.154 153.234 151.974  1.00  0.00     0.345 HD
ATOM     13  H   UNL     1     158.910 154.544 150.910  1.00  0.00     0.345 HD
ENDBRANCH   9  10
BRANCH   9  14
ATOM     14  C   UNL     1     156.856 153.702 152.790  1.00  0.00     0.099 C 
ATOM     15  O   UNL     1     156.385 154.806 153.174  1.00  0.00    -0.544 OA
ATOM     16  O   UNL     1     157.099 152.701 153.721  1.00  0.00    -0.544 OA
ENDBRANCH   9  14
ENDBRANCH   8   9
ENDBRANCH   1   8
TORSDOF 7
ENDMDL
MODEL 8
REMARK VINA RESULT:    -3.801     13.695     14.918
REMARK INTER + INTRA:          -5.667
REMARK INTER:                  -5.440
REMARK INTRA:                  -0.226
REMARK UNBOUND:                -0.533
REMARK SMILES [NH3+]CCCC[C@H]([NH3+])C(=O)[O-]
REMARK SMILES IDX 4 1 3 2 2 3 1 4 5 8 6 9 7 10 8 14 9 15 10 16
REMARK H PARENT 1 5 1 6 1 7 7 11 7 12 7 13
REMARK Flexibility Score: inf
ROOT
ATOM      1  C   UNL     1     155.794 152.202 151.138  1.00  0.00     0.012 C 
ENDROOT
BRANCH   1   2
ATOM      2  C   UNL     1     156.446 153.372 151.895  1.00  0.00     0.061 C 
BRANCH   2   3
ATOM      3  C   UNL     1     156.866 152.986 153.324  1.00  0.00     0.258 C 
BRANCH   3   4
ATOM      4  N   UNL     1     155.855 153.358 154.314  1.00  0.00    -0.358 N 
ATOM      5  H   UNL     1     155.842 152.667 155.099  1.00  0.00     0.344 HD
ATOM      6  H   UNL     1     156.093 154.297 154.707  1.00  0.00     0.344 HD
ATOM      7  H   UNL     1     154.909 153.409 153.869  1.00  0.00     0.344 HD
ENDBRANCH   3   4
ENDBRANCH   2   3
ENDBRANCH   1   2
BRANCH   1   8
ATOM      8  C   UNL     1     156.570 151.803 149.870  1.00  0.00     0.072 C 
BRANCH   8   9
ATOM      9  C   UNL     1     157.160 150.373 149.894  1.00  0.00     0.227 C 
BRANCH   9  10
ATOM     10  N   UNL     1     156.202 149.393 150.427  1.00  0.00    -0.350 N 
ATOM     11  H   UNL     1     156.124 148.578 149.779  1.00  0.00     0.345 HD
ATOM     12  H   UNL     1     155.259 149.829 150.555  1.00  0.00     0.345 HD
ATOM     13  H   UNL     1     156.540 149.029 151.348  1.00  0.00     0.345 HD
ENDBRANCH   9  10
BRANCH   9  14
ATOM     14  C   UNL     1     158.424 150.366 150.713  1.00  0.00     0.099 C 
ATOM     15  O   UNL     1     159.247 151.316 150.624  1.00  0.00    -0.544 OA
ATOM     16  O   UNL     1     158.702 149.294 151.550  1.00  0.00    -0.544 OA
ENDBRANCH   9  14
ENDBRANCH   8   9
ENDBRANCH   1   8
TORSDOF 7
ENDMDL
MODEL 9
REMARK VINA RESULT:    -3.785     20.404     21.837
REMARK INTER + INTRA:          -5.645
REMARK INTER:                  -5.054
REMARK INTRA:                  -0.591
REMARK UNBOUND:                -0.533
REMARK SMILES [NH3+]CCCC[C@H]([NH3+])C(=O)[O-]
REMARK SMILES IDX 4 1 3 2 2 3 1 4 5 8 6 9 7 10 8 14 9 15 10 16
REMARK H PARENT 1 5 1 6 1 7 7 11 7 12 7 13
REMARK Flexibility Score: inf
ROOT
ATOM      1  C   UNL     1     160.875 151.554 168.703  1.00  0.00     0.012 C 
ENDROOT
BRANCH   1   2
ATOM      2  C   UNL     1     161.099 150.230 167.953  1.00  0.00     0.061 C 
BRANCH   2   3
ATOM      3  C   UNL     1     159.780 149.575 167.508  1.00  0.00     0.258 C 
BRANCH   3   4
ATOM      4  N   UNL     1     159.427 149.928 166.132  1.00  0.00    -0.358 N 
ATOM      5  H   UNL     1     159.765 149.193 165.470  1.00  0.00     0.344 HD
ATOM      6  H   UNL     1     158.387 149.989 166.053  1.00  0.00     0.344 HD
ATOM      7  H   UNL     1     159.838 150.856 165.876  1.00  0.00     0.344 HD
ENDBRANCH   3   4
ENDBRANCH   2   3
ENDBRANCH   1   2
BRANCH   1   8
ATOM      8  C   UNL     1     161.411 152.776 167.935  1.00  0.00     0.072 C 
BRANCH   8   9
ATOM      9  C   UNL     1     160.330 153.613 167.210  1.00  0.00     0.227 C 
BRANCH   9  10
ATOM     10  N   UNL     1     158.972 153.151 167.533  1.00  0.00    -0.350 N 
ATOM     11  H   UNL     1     158.704 152.359 166.907  1.00  0.00     0.345 HD
ATOM     12  H   UNL     1     158.281 153.929 167.429  1.00  0.00     0.345 HD
ATOM     13  H   UNL     1     158.941 152.795 168.518  1.00  0.00     0.345 HD
ENDBRANCH   9  10
BRANCH   9  14
ATOM     14  C   UNL     1     160.562 153.552 165.724  1.00  0.00     0.099 C 
ATOM     15  O   UNL     1     160.901 152.470 165.175  1.00  0.00    -0.544 OA
ATOM     16  O   UNL     1     160.434 154.700 164.954  1.00  0.00    -0.544 OA
ENDBRANCH   9  14
ENDBRANCH   8   9
ENDBRANCH   1   8
TORSDOF 7
ENDMDL
