MODEL 1
REMARK VINA RESULT:    -2.389      0.000      0.000
REMARK INTER + INTRA:          -2.389
REMARK INTER:                  -2.389
REMARK INTRA:                   0.000
REMARK UNBOUND:                 0.000
REMARK SMILES CC(=O)[O-]
REMARK SMILES IDX 1 1 2 2 3 3 4 4
REMARK H PARENT
REMARK Flexibility Score: inf
ROOT
ATOM      1  C   UNL     1      -4.299 -24.264  11.029  1.00  0.00     0.063 C 
ATOM      2  C   UNL     1      -4.089 -25.576  10.354  1.00  0.00     0.038 C 
ATOM      3  O   UNL     1      -5.075 -26.229   9.924  1.00  0.00    -0.550 OA
ATOM      4  O   UNL     1      -2.810 -26.107  10.248  1.00  0.00    -0.550 OA
ENDROOT
TORSDOF 0
ENDMDL
MODEL 2
REMARK VINA RESULT:    -2.370      1.525      1.792
REMARK INTER + INTRA:          -2.370
REMARK INTER:                  -2.370
REMARK INTRA:                   0.000
REMARK UNBOUND:                 0.000
REMARK SMILES CC(=O)[O-]
REMARK SMILES IDX 1 1 2 2 3 3 4 4
REMARK H PARENT
REMARK Flexibility Score: inf
ROOT
ATOM      1  C   UNL     1      -4.955 -26.123  10.171  1.00  0.00     0.063 C 
ATOM      2  C   UNL     1      -4.060 -25.063  10.719  1.00  0.00     0.038 C 
ATOM      3  O   UNL     1      -4.510 -23.908  10.934  1.00  0.00    -0.550 OA
ATOM      4  O   UNL     1      -2.716 -25.333  10.941  1.00  0.00    -0.550 OA
ENDROOT
TORSDOF 0
ENDMDL
MODEL 3
REMARK VINA RESULT:    -2.367      1.559      2.280
REMARK INTER + INTRA:          -2.367
REMARK INTER:                  -2.367
REMARK INTRA:                   0.000
REMARK UNBOUND:                 0.000
REMARK SMILES CC(=O)[O-]
REMARK SMILES IDX 1 1 2 2 3 3 4 4
REMARK H PARENT
REMARK Flexibility Score: inf
ROOT
ATOM      1  C   UNL     1      -4.963 -26.125  10.131  1.00  0.00     0.063 C 
ATOM      2  C   UNL     1      -4.070 -25.054  10.659  1.00  0.00     0.038 C 
ATOM      3  O   UNL     1      -2.847 -25.285  10.840  1.00  0.00    -0.550 OA
ATOM      4  O   UNL     1      -4.597 -23.816  11.003  1.00  0.00    -0.550 OA
ENDROOT
TORSDOF 0
ENDMDL
MODEL 4
REMARK VINA RESULT:    -2.304      1.347      1.764
REMARK INTER + INTRA:          -2.304
REMARK INTER:                  -2.304
REMARK INTRA:                   0.000
REMARK UNBOUND:                 0.000
REMARK SMILES CC(=O)[O-]
REMARK SMILES IDX 1 1 2 2 3 3 4 4
REMARK H PARENT
REMARK Flexibility Score: inf
ROOT
ATOM      1  C   UNL     1      -2.830 -25.913  10.553  1.00  0.00     0.063 C 
ATOM      2  C   UNL     1      -4.253 -25.481  10.450  1.00  0.00     0.038 C 
ATOM      3  O   UNL     1      -5.105 -26.238   9.915  1.00  0.00    -0.550 OA
ATOM      4  O   UNL     1      -4.632 -24.221  10.894  1.00  0.00    -0.550 OA
ENDROOT
TORSDOF 0
ENDMDL
MODEL 5
REMARK VINA RESULT:    -2.253     11.720     11.907
REMARK INTER + INTRA:          -2.253
REMARK INTER:                  -2.253
REMARK INTRA:                   0.000
REMARK UNBOUND:                 0.000
REMARK SMILES CC(=O)[O-]
REMARK SMILES IDX 1 1 2 2 3 3 4 4
REMARK H PARENT
REMARK Flexibility Score: inf
ROOT
ATOM      1  C   UNL     1      -2.389 -25.756  -0.200  1.00  0.00     0.063 C 
ATOM      2  C   UNL     1      -2.905 -25.010  -1.383  1.00  0.00     0.038 C 
ATOM      3  O   UNL     1      -3.819 -25.507  -2.091  1.00  0.00    -0.550 OA
ATOM      4  O   UNL     1      -2.343 -23.791  -1.737  1.00  0.00    -0.550 OA
ENDROOT
TORSDOF 0
ENDMDL
MODEL 6
REMARK VINA RESULT:    -2.224     11.361     11.573
REMARK INTER + INTRA:          -2.224
REMARK INTER:                  -2.224
REMARK INTRA:                   0.000
REMARK UNBOUND:                 0.000
REMARK SMILES CC(=O)[O-]
REMARK SMILES IDX 1 1 2 2 3 3 4 4
REMARK H PARENT
REMARK Flexibility Score: inf
ROOT
ATOM      1  C   UNL     1      -3.540 -25.421  -2.125  1.00  0.00     0.063 C 
ATOM      2  C   UNL     1      -2.749 -25.060  -0.914  1.00  0.00     0.038 C 
ATOM      3  O   UNL     1      -2.382 -23.870  -0.731  1.00  0.00    -0.550 OA
ATOM      4  O   UNL     1      -2.370 -26.046  -0.012  1.00  0.00    -0.550 OA
ENDROOT
TORSDOF 0
ENDMDL
MODEL 7
REMARK VINA RESULT:    -2.156     11.605     11.837
REMARK INTER + INTRA:          -2.156
REMARK INTER:                  -2.156
REMARK INTRA:                   0.000
REMARK UNBOUND:                 0.000
REMARK SMILES CC(=O)[O-]
REMARK SMILES IDX 1 1 2 2 3 3 4 4
REMARK H PARENT
REMARK Flexibility Score: inf
ROOT
ATOM      1  C   UNL     1      -2.148 -23.919  -1.562  1.00  0.00     0.063 C 
ATOM      2  C   UNL     1      -2.826 -25.201  -1.216  1.00  0.00     0.038 C 
ATOM      3  O   UNL     1      -2.502 -25.824  -0.172  1.00  0.00    -0.550 OA
ATOM      4  O   UNL     1      -3.777 -25.739  -2.074  1.00  0.00    -0.550 OA
ENDROOT
TORSDOF 0
ENDMDL
MODEL 8
REMARK VINA RESULT:    -2.021      8.437      8.652
REMARK INTER + INTRA:          -2.021
REMARK INTER:                  -2.021
REMARK INTRA:                   0.000
REMARK UNBOUND:                 0.000
REMARK SMILES CC(=O)[O-]
REMARK SMILES IDX 1 1 2 2 3 3 4 4
REMARK H PARENT
REMARK Flexibility Score: inf
ROOT
ATOM      1  C   UNL     1      -1.539 -26.058   3.411  1.00  0.00     0.063 C 
ATOM      2  C   UNL     1      -2.036 -26.537   2.090  1.00  0.00     0.038 C 
ATOM      3  O   UNL     1      -2.536 -25.723   1.271  1.00  0.00    -0.550 OA
ATOM      4  O   UNL     1      -1.998 -27.891   1.781  1.00  0.00    -0.550 OA
ENDROOT
TORSDOF 0
ENDMDL
MODEL 9
REMARK VINA RESULT:    -1.983      1.992      2.936
REMARK INTER + INTRA:          -1.983
REMARK INTER:                  -1.983
REMARK INTRA:                   0.000
REMARK UNBOUND:                 0.000
REMARK SMILES CC(=O)[O-]
REMARK SMILES IDX 1 1 2 2 3 3 4 4
REMARK H PARENT
REMARK Flexibility Score: inf
ROOT
ATOM      1  C   UNL     1      -1.565 -26.938   9.446  1.00  0.00     0.063 C 
ATOM      2  C   UNL     1      -2.376 -26.187  10.447  1.00  0.00     0.038 C 
ATOM      3  O   UNL     1      -1.846 -25.790  11.517  1.00  0.00    -0.550 OA
ATOM      4  O   UNL     1      -3.730 -25.972  10.226  1.00  0.00    -0.550 OA
ENDROOT
TORSDOF 0
ENDMDL
