MODEL 1
REMARK VINA RESULT:    -4.202      0.000      0.000
REMARK INTER + INTRA:          -5.475
REMARK INTER:                  -5.922
REMARK INTRA:                   0.447
REMARK UNBOUND:                 0.447
REMARK SMILES CC1=CCC(=C(C)C)C(=O)CC(C)=CCC1
REMARK SMILES IDX 12 1 14 2 13 3 15 4 16 5 2 6 1 7 3 8 11 10 9 11 10 12 5 13
REMARK SMILES IDX 6 14 7 15 8 16 4 17
REMARK H PARENT
REMARK Flexibility Score: 60.00
ROOT
ATOM      1  C   UNL     1      19.006 -24.194 -24.743  1.00  0.00    -0.070 C 
ATOM      2  C   UNL     1      18.852 -23.197 -25.646  1.00  0.00    -0.027 C 
ATOM      3  C   UNL     1      18.518 -25.570 -25.116  1.00  0.00     0.039 C 
ENDROOT
BRANCH   2   4
ATOM      4  C   UNL     1      19.335 -21.776 -25.466  1.00  0.00     0.032 C 
BRANCH   4   5
ATOM      5  C   UNL     1      18.177 -20.770 -25.532  1.00  0.00     0.034 C 
BRANCH   5   6
ATOM      6  C   UNL     1      16.951 -21.201 -24.737  1.00  0.00    -0.077 C 
ATOM      7  C   UNL     1      15.666 -21.480 -25.475  1.00  0.00     0.039 C 
ATOM      8  C   UNL     1      16.955 -21.367 -23.394  1.00  0.00    -0.023 CG0
ATOM      9  G   UNL     1      18.121 -21.072 -22.479  1.00  0.00     0.000 G0
ENDBRANCH   5   6
ENDBRANCH   4   5
ENDBRANCH   2   4
BRANCH   1  10
ATOM     10  C   UNL     1      19.642 -23.984 -23.382  1.00  0.00     0.111 C 
BRANCH  10  11
ATOM     11  C   UNL     1      18.607 -23.628 -22.352  1.00  0.00     0.163 C 
ATOM     12  O   UNL     1      17.733 -24.478 -22.035  1.00  0.00    -0.294 OA
BRANCH  11  13
ATOM     13  C   UNL     1      18.609 -22.302 -21.683  1.00  0.00    -0.002 C 
ATOM     14  C   UNL     1      19.043 -22.181 -20.398  1.00  0.00    -0.069 C 
ATOM     15  C   UNL     1      19.003 -20.851 -19.683  1.00  0.00     0.039 C 
ATOM     16  C   UNL     1      19.621 -23.364 -19.654  1.00  0.00     0.039 C 
BRANCH  13  17
ATOM     17  C   UNL     1      18.118 -21.080 -22.453  1.00  0.00     0.066 CG0
ATOM     18  G   UNL     1      16.966 -21.373 -23.386  1.00  0.00     0.000 G0
ENDBRANCH  13  17
ENDBRANCH  11  13
ENDBRANCH  10  11
ENDBRANCH   1  10
TORSDOF 0
ENDMDL
MODEL 2
REMARK VINA RESULT:    -3.973      1.845      2.283
REMARK INTER + INTRA:          -5.152
REMARK INTER:                  -5.863
REMARK INTRA:                   0.711
REMARK UNBOUND:                 0.447
REMARK SMILES CC1=CCC(=C(C)C)C(=O)CC(C)=CCC1
REMARK SMILES IDX 12 1 14 2 13 3 15 4 16 5 2 6 1 7 3 8 11 10 9 11 10 12 5 13
REMARK SMILES IDX 6 14 7 15 8 16 4 17
REMARK H PARENT
REMARK Flexibility Score: 60.00
ROOT
ATOM      1  C   UNL     1      19.267 -24.324 -24.382  1.00  0.00    -0.070 C 
ATOM      2  C   UNL     1      19.819 -23.152 -24.775  1.00  0.00    -0.027 C 
ATOM      3  C   UNL     1      19.927 -25.076 -23.255  1.00  0.00     0.039 C 
ENDROOT
BRANCH   2   4
ATOM      4  C   UNL     1      19.258 -22.239 -25.842  1.00  0.00     0.032 C 
BRANCH   4   5
ATOM      5  C   UNL     1      18.545 -21.025 -25.231  1.00  0.00     0.034 C 
BRANCH   5   6
ATOM      6  C   UNL     1      17.028 -21.147 -25.230  1.00  0.00    -0.077 C 
ATOM      7  C   UNL     1      16.250 -20.557 -26.381  1.00  0.00     0.039 C 
ATOM      8  C   UNL     1      16.332 -21.776 -24.256  1.00  0.00    -0.023 CG0
ATOM      9  G   UNL     1      16.925 -22.365 -22.997  1.00  0.00     0.000 G0
ENDBRANCH   5   6
ENDBRANCH   4   5
ENDBRANCH   2   4
BRANCH   1  10
ATOM     10  C   UNL     1      18.024 -24.908 -25.025  1.00  0.00     0.111 C 
BRANCH  10  11
ATOM     11  C   UNL     1      16.811 -24.672 -24.171  1.00  0.00     0.163 C 
ATOM     12  O   UNL     1      15.706 -25.169 -24.517  1.00  0.00    -0.294 OA
BRANCH  11  13
ATOM     13  C   UNL     1      16.891 -23.883 -22.916  1.00  0.00    -0.002 C 
ATOM     14  C   UNL     1      16.937 -24.513 -21.710  1.00  0.00    -0.069 C 
ATOM     15  C   UNL     1      16.966 -23.727 -20.419  1.00  0.00     0.039 C 
ATOM     16  C   UNL     1      17.002 -26.021 -21.618  1.00  0.00     0.039 C 
BRANCH  13  17
ATOM     17  C   UNL     1      16.923 -22.360 -22.996  1.00  0.00     0.066 CG0
ATOM     18  G   UNL     1      16.321 -21.806 -24.267  1.00  0.00     0.000 G0
ENDBRANCH  13  17
ENDBRANCH  11  13
ENDBRANCH  10  11
ENDBRANCH   1  10
TORSDOF 0
ENDMDL
MODEL 3
REMARK VINA RESULT:    -3.930      1.728      4.266
REMARK INTER + INTRA:          -5.091
REMARK INTER:                  -5.828
REMARK INTRA:                   0.737
REMARK UNBOUND:                 0.447
REMARK SMILES CC1=CCC(=C(C)C)C(=O)CC(C)=CCC1
REMARK SMILES IDX 12 1 14 2 13 3 15 4 16 5 2 6 1 7 3 8 11 10 9 11 10 12 5 13
REMARK SMILES IDX 6 14 7 15 8 16 4 17
REMARK H PARENT
REMARK Flexibility Score: 60.00
ROOT
ATOM      1  C   UNL     1      19.185 -23.401 -25.144  1.00  0.00    -0.070 C 
ATOM      2  C   UNL     1      19.702 -23.856 -23.979  1.00  0.00    -0.027 C 
ATOM      3  C   UNL     1      19.576 -22.020 -25.603  1.00  0.00     0.039 C 
ENDROOT
BRANCH   2   4
ATOM      4  C   UNL     1      19.468 -25.233 -23.400  1.00  0.00     0.032 C 
BRANCH   4   5
ATOM      5  C   UNL     1      18.516 -25.186 -22.196  1.00  0.00     0.034 C 
BRANCH   5   6
ATOM      6  C   UNL     1      18.229 -23.775 -21.701  1.00  0.00    -0.077 C 
ATOM      7  C   UNL     1      19.188 -23.135 -20.729  1.00  0.00     0.039 C 
ATOM      8  C   UNL     1      17.160 -23.049 -22.102  1.00  0.00    -0.023 CG0
ATOM      9  G   UNL     1      16.058 -23.542 -23.012  1.00  0.00     0.000 G0
ENDBRANCH   5   6
ENDBRANCH   4   5
ENDBRANCH   2   4
BRANCH   1  10
ATOM     10  C   UNL     1      18.233 -24.215 -25.999  1.00  0.00     0.111 C 
BRANCH  10  11
ATOM     11  C   UNL     1      16.908 -24.395 -25.311  1.00  0.00     0.163 C 
ATOM     12  O   UNL     1      16.306 -25.497 -25.411  1.00  0.00    -0.294 OA
BRANCH  11  13
ATOM     13  C   UNL     1      16.307 -23.308 -24.498  1.00  0.00    -0.002 C 
ATOM     14  C   UNL     1      15.996 -22.113 -25.071  1.00  0.00    -0.069 C 
ATOM     15  C   UNL     1      15.432 -20.976 -24.249  1.00  0.00     0.039 C 
ATOM     16  C   UNL     1      16.165 -21.891 -26.557  1.00  0.00     0.039 C 
BRANCH  13  17
ATOM     17  C   UNL     1      16.041 -23.548 -23.015  1.00  0.00     0.066 CG0
ATOM     18  G   UNL     1      17.138 -23.035 -22.111  1.00  0.00     0.000 G0
ENDBRANCH  13  17
ENDBRANCH  11  13
ENDBRANCH  10  11
ENDBRANCH   1  10
TORSDOF 0
ENDMDL
MODEL 4
REMARK VINA RESULT:    -3.883      1.677      2.986
REMARK INTER + INTRA:          -5.026
REMARK INTER:                  -5.592
REMARK INTRA:                   0.566
REMARK UNBOUND:                 0.447
REMARK SMILES CC1=CCC(=C(C)C)C(=O)CC(C)=CCC1
REMARK SMILES IDX 12 1 14 2 13 3 15 4 16 5 2 6 1 7 3 8 11 10 9 11 10 12 5 13
REMARK SMILES IDX 6 14 7 15 8 16 4 17
REMARK H PARENT
REMARK Flexibility Score: 60.00
ROOT
ATOM      1  C   UNL     1      18.283 -21.455 -25.098  1.00  0.00    -0.070 C 
ATOM      2  C   UNL     1      18.623 -22.671 -25.586  1.00  0.00    -0.027 C 
ATOM      3  C   UNL     1      17.397 -20.575 -25.942  1.00  0.00     0.039 C 
ENDROOT
BRANCH   2   4
ATOM      4  C   UNL     1      19.450 -23.703 -24.853  1.00  0.00     0.032 C 
BRANCH   4   5
ATOM      5  C   UNL     1      18.636 -24.970 -24.549  1.00  0.00     0.034 C 
BRANCH   5   6
ATOM      6  C   UNL     1      17.262 -24.683 -23.958  1.00  0.00    -0.077 C 
ATOM      7  C   UNL     1      16.038 -24.968 -24.792  1.00  0.00     0.039 C 
ATOM      8  C   UNL     1      17.075 -24.199 -22.709  1.00  0.00    -0.023 CG0
ATOM      9  G   UNL     1      18.174 -23.790 -21.755  1.00  0.00     0.000 G0
ENDBRANCH   5   6
ENDBRANCH   4   5
ENDBRANCH   2   4
BRANCH   1  10
ATOM     10  C   UNL     1      18.756 -20.943 -23.751  1.00  0.00     0.111 C 
BRANCH  10  11
ATOM     11  C   UNL     1      17.835 -21.388 -22.650  1.00  0.00     0.163 C 
ATOM     12  O   UNL     1      16.635 -21.004 -22.656  1.00  0.00    -0.294 OA
BRANCH  11  13
ATOM     13  C   UNL     1      18.305 -22.289 -21.568  1.00  0.00    -0.002 C 
ATOM     14  C   UNL     1      18.846 -21.773 -20.430  1.00  0.00    -0.069 C 
ATOM     15  C   UNL     1      19.378 -22.674 -19.340  1.00  0.00     0.039 C 
ATOM     16  C   UNL     1      18.896 -20.280 -20.196  1.00  0.00     0.039 C 
BRANCH  13  17
ATOM     17  C   UNL     1      18.175 -23.799 -21.748  1.00  0.00     0.066 CG0
ATOM     18  G   UNL     1      17.073 -24.203 -22.700  1.00  0.00     0.000 G0
ENDBRANCH  13  17
ENDBRANCH  11  13
ENDBRANCH  10  11
ENDBRANCH   1  10
TORSDOF 0
ENDMDL
MODEL 5
REMARK VINA RESULT:    -3.847      1.548      4.220
REMARK INTER + INTRA:          -4.974
REMARK INTER:                  -5.650
REMARK INTRA:                   0.676
REMARK UNBOUND:                 0.447
REMARK SMILES CC1=CCC(=C(C)C)C(=O)CC(C)=CCC1
REMARK SMILES IDX 12 1 14 2 13 3 15 4 16 5 2 6 1 7 3 8 11 10 9 11 10 12 5 13
REMARK SMILES IDX 6 14 7 15 8 16 4 17
REMARK H PARENT
REMARK Flexibility Score: 60.00
ROOT
ATOM      1  C   UNL     1      18.993 -24.269 -24.808  1.00  0.00    -0.070 C 
ATOM      2  C   UNL     1      19.167 -24.499 -23.485  1.00  0.00    -0.027 C 
ATOM      3  C   UNL     1      18.348 -25.349 -25.637  1.00  0.00     0.039 C 
ENDROOT
BRANCH   2   4
ATOM      4  C   UNL     1      19.739 -23.509 -22.495  1.00  0.00     0.032 C 
BRANCH   4   5
ATOM      5  C   UNL     1      18.747 -23.204 -21.363  1.00  0.00     0.034 C 
BRANCH   5   6
ATOM      6  C   UNL     1      18.114 -21.822 -21.465  1.00  0.00    -0.077 C 
ATOM      7  C   UNL     1      18.526 -20.759 -20.477  1.00  0.00     0.039 C 
ATOM      8  C   UNL     1      17.208 -21.486 -22.412  1.00  0.00    -0.023 CG0
ATOM      9  G   UNL     1      16.624 -22.428 -23.439  1.00  0.00     0.000 G0
ENDBRANCH   5   6
ENDBRANCH   4   5
ENDBRANCH   2   4
BRANCH   1  10
ATOM     10  C   UNL     1      19.421 -22.981 -25.484  1.00  0.00     0.111 C 
BRANCH  10  11
ATOM     11  C   UNL     1      18.472 -21.861 -25.163  1.00  0.00     0.163 C 
ATOM     12  O   UNL     1      18.897 -20.674 -25.157  1.00  0.00    -0.294 OA
BRANCH  11  13
ATOM     13  C   UNL     1      17.038 -22.121 -24.876  1.00  0.00    -0.002 C 
ATOM     14  C   UNL     1      16.119 -22.086 -25.879  1.00  0.00    -0.069 C 
ATOM     15  C   UNL     1      14.649 -22.296 -25.599  1.00  0.00     0.039 C 
ATOM     16  C   UNL     1      16.539 -21.876 -27.317  1.00  0.00     0.039 C 
BRANCH  13  17
ATOM     17  C   UNL     1      16.611 -22.428 -23.444  1.00  0.00     0.066 CG0
ATOM     18  G   UNL     1      17.199 -21.486 -22.420  1.00  0.00     0.000 G0
ENDBRANCH  13  17
ENDBRANCH  11  13
ENDBRANCH  10  11
ENDBRANCH   1  10
TORSDOF 0
ENDMDL
MODEL 6
REMARK VINA RESULT:    -3.818      2.392      3.978
REMARK INTER + INTRA:          -4.933
REMARK INTER:                  -5.205
REMARK INTRA:                   0.272
REMARK UNBOUND:                 0.447
REMARK SMILES CC1=CCC(=C(C)C)C(=O)CC(C)=CCC1
REMARK SMILES IDX 12 1 14 2 13 3 15 4 16 5 2 6 1 7 3 8 11 10 9 11 10 12 5 13
REMARK SMILES IDX 6 14 7 15 8 16 4 17
REMARK H PARENT
REMARK Flexibility Score: 60.00
ROOT
ATOM      1  C   UNL     1      18.269 -20.838 -22.654  1.00  0.00    -0.070 C 
ATOM      2  C   UNL     1      18.938 -20.572 -23.800  1.00  0.00    -0.027 C 
ATOM      3  C   UNL     1      18.865 -20.358 -21.357  1.00  0.00     0.039 C 
ENDROOT
BRANCH   2   4
ATOM      4  C   UNL     1      18.460 -20.924 -25.191  1.00  0.00     0.032 C 
BRANCH   4   5
ATOM      5  C   UNL     1      18.736 -22.396 -25.530  1.00  0.00     0.034 C 
BRANCH   5   6
ATOM      6  C   UNL     1      17.539 -23.116 -26.135  1.00  0.00    -0.077 C 
ATOM      7  C   UNL     1      16.996 -22.638 -27.458  1.00  0.00     0.039 C 
ATOM      8  C   UNL     1      16.941 -24.182 -25.556  1.00  0.00    -0.023 CG0
ATOM      9  G   UNL     1      17.297 -24.760 -24.206  1.00  0.00     0.000 G0
ENDBRANCH   5   6
ENDBRANCH   4   5
ENDBRANCH   2   4
BRANCH   1  10
ATOM     10  C   UNL     1      16.956 -21.597 -22.622  1.00  0.00     0.111 C 
BRANCH  10  11
ATOM     11  C   UNL     1      17.174 -23.039 -22.259  1.00  0.00     0.163 C 
ATOM     12  O   UNL     1      17.898 -23.323 -21.268  1.00  0.00    -0.294 OA
BRANCH  11  13
ATOM     13  C   UNL     1      16.535 -24.135 -23.030  1.00  0.00    -0.002 C 
ATOM     14  C   UNL     1      15.288 -24.571 -22.700  1.00  0.00    -0.069 C 
ATOM     15  C   UNL     1      14.642 -25.720 -23.439  1.00  0.00     0.039 C 
ATOM     16  C   UNL     1      14.487 -23.895 -21.610  1.00  0.00     0.039 C 
BRANCH  13  17
ATOM     17  C   UNL     1      17.293 -24.764 -24.195  1.00  0.00     0.066 CG0
ATOM     18  G   UNL     1      16.935 -24.177 -25.541  1.00  0.00     0.000 G0
ENDBRANCH  13  17
ENDBRANCH  11  13
ENDBRANCH  10  11
ENDBRANCH   1  10
TORSDOF 0
ENDMDL
MODEL 7
REMARK VINA RESULT:    -3.757      1.774      3.310
REMARK INTER + INTRA:          -4.847
REMARK INTER:                  -5.220
REMARK INTRA:                   0.373
REMARK UNBOUND:                 0.447
REMARK SMILES CC1=CCC(=C(C)C)C(=O)CC(C)=CCC1
REMARK SMILES IDX 12 1 14 2 13 3 15 4 16 5 2 6 1 7 3 8 11 10 9 11 10 12 5 13
REMARK SMILES IDX 6 14 7 15 8 16 4 17
REMARK H PARENT
REMARK Flexibility Score: 60.00
ROOT
ATOM      1  C   UNL     1      18.715 -22.836 -25.249  1.00  0.00    -0.070 C 
ATOM      2  C   UNL     1      18.332 -21.584 -24.905  1.00  0.00    -0.027 C 
ATOM      3  C   UNL     1      18.206 -23.402 -26.549  1.00  0.00     0.039 C 
ENDROOT
BRANCH   2   4
ATOM      4  C   UNL     1      18.793 -20.838 -23.673  1.00  0.00     0.032 C 
BRANCH   4   5
ATOM      5  C   UNL     1      17.816 -21.022 -22.502  1.00  0.00     0.034 C 
BRANCH   5   6
ATOM      6  C   UNL     1      18.484 -21.510 -21.224  1.00  0.00    -0.077 C 
ATOM      7  C   UNL     1      19.258 -20.524 -20.385  1.00  0.00     0.039 C 
ATOM      8  C   UNL     1      18.406 -22.787 -20.784  1.00  0.00    -0.023 CG0
ATOM      9  G   UNL     1      17.738 -23.927 -21.518  1.00  0.00     0.000 G0
ENDBRANCH   5   6
ENDBRANCH   4   5
ENDBRANCH   2   4
BRANCH   1  10
ATOM     10  C   UNL     1      19.625 -23.687 -24.384  1.00  0.00     0.111 C 
BRANCH  10  11
ATOM     11  C   UNL     1      18.858 -24.794 -23.718  1.00  0.00     0.163 C 
ATOM     12  O   UNL     1      18.326 -25.690 -24.427  1.00  0.00    -0.294 OA
BRANCH  11  13
ATOM     13  C   UNL     1      18.732 -24.866 -22.240  1.00  0.00    -0.002 C 
ATOM     14  C   UNL     1      19.487 -25.746 -21.528  1.00  0.00    -0.069 C 
ATOM     15  C   UNL     1      19.335 -25.871 -20.029  1.00  0.00     0.039 C 
ATOM     16  C   UNL     1      20.534 -26.603 -22.204  1.00  0.00     0.039 C 
BRANCH  13  17
ATOM     17  C   UNL     1      17.747 -23.941 -21.532  1.00  0.00     0.066 CG0
ATOM     18  G   UNL     1      18.409 -22.808 -20.782  1.00  0.00     0.000 G0
ENDBRANCH  13  17
ENDBRANCH  11  13
ENDBRANCH  10  11
ENDBRANCH   1  10
TORSDOF 0
ENDMDL
MODEL 8
REMARK VINA RESULT:    -3.721      2.497      4.469
REMARK INTER + INTRA:          -4.797
REMARK INTER:                  -5.441
REMARK INTRA:                   0.644
REMARK UNBOUND:                 0.447
REMARK SMILES CC1=CCC(=C(C)C)C(=O)CC(C)=CCC1
REMARK SMILES IDX 12 1 14 2 13 3 15 4 16 5 2 6 1 7 3 8 11 10 9 11 10 12 5 13
REMARK SMILES IDX 6 14 7 15 8 16 4 17
REMARK H PARENT
REMARK Flexibility Score: 60.00
ROOT
ATOM      1  C   UNL     1      17.770 -22.024 -25.722  1.00  0.00    -0.070 C 
ATOM      2  C   UNL     1      18.915 -22.193 -25.019  1.00  0.00    -0.027 C 
ATOM      3  C   UNL     1      17.223 -20.627 -25.861  1.00  0.00     0.039 C 
ENDROOT
BRANCH   2   4
ATOM      4  C   UNL     1      19.636 -23.508 -24.830  1.00  0.00     0.032 C 
BRANCH   4   5
ATOM      5  C   UNL     1      19.773 -23.871 -23.344  1.00  0.00     0.034 C 
BRANCH   5   6
ATOM      6  C   UNL     1      18.861 -25.010 -22.910  1.00  0.00    -0.077 C 
ATOM      7  C   UNL     1      19.447 -26.390 -22.749  1.00  0.00     0.039 C 
ATOM      8  C   UNL     1      17.545 -24.848 -22.639  1.00  0.00    -0.023 CG0
ATOM      9  G   UNL     1      16.768 -23.564 -22.808  1.00  0.00     0.000 G0
ENDBRANCH   5   6
ENDBRANCH   4   5
ENDBRANCH   2   4
BRANCH   1  10
ATOM     10  C   UNL     1      17.019 -23.174 -26.365  1.00  0.00     0.111 C 
BRANCH  10  11
ATOM     11  C   UNL     1      16.405 -24.068 -25.324  1.00  0.00     0.163 C 
ATOM     12  O   UNL     1      16.353 -25.310 -25.530  1.00  0.00    -0.294 OA
BRANCH  11  13
ATOM     13  C   UNL     1      15.878 -23.519 -24.049  1.00  0.00    -0.002 C 
ATOM     14  C   UNL     1      14.625 -22.990 -23.994  1.00  0.00    -0.069 C 
ATOM     15  C   UNL     1      14.090 -22.379 -22.719  1.00  0.00     0.039 C 
ATOM     16  C   UNL     1      13.707 -23.029 -25.195  1.00  0.00     0.039 C 
BRANCH  13  17
ATOM     17  C   UNL     1      16.757 -23.558 -22.803  1.00  0.00     0.066 CG0
ATOM     18  G   UNL     1      17.526 -24.849 -22.642  1.00  0.00     0.000 G0
ENDBRANCH  13  17
ENDBRANCH  11  13
ENDBRANCH  10  11
ENDBRANCH   1  10
TORSDOF 0
ENDMDL
MODEL 9
REMARK VINA RESULT:    -3.710      1.916      2.670
REMARK INTER + INTRA:          -4.782
REMARK INTER:                  -5.333
REMARK INTRA:                   0.551
REMARK UNBOUND:                 0.447
REMARK SMILES CC1=CCC(=C(C)C)C(=O)CC(C)=CCC1
REMARK SMILES IDX 12 1 14 2 13 3 15 4 16 5 2 6 1 7 3 8 11 10 9 11 10 12 5 13
REMARK SMILES IDX 6 14 7 15 8 16 4 17
REMARK H PARENT
REMARK Flexibility Score: 60.00
ROOT
ATOM      1  C   UNL     1      18.952 -23.416 -25.137  1.00  0.00    -0.070 C 
ATOM      2  C   UNL     1      18.046 -24.157 -25.816  1.00  0.00    -0.027 C 
ATOM      3  C   UNL     1      19.632 -22.285 -25.864  1.00  0.00     0.039 C 
ENDROOT
BRANCH   2   4
ATOM      4  C   UNL     1      17.228 -25.286 -25.231  1.00  0.00     0.032 C 
BRANCH   4   5
ATOM      5  C   UNL     1      15.732 -24.938 -25.187  1.00  0.00     0.034 C 
BRANCH   5   6
ATOM      6  C   UNL     1      15.453 -23.504 -24.759  1.00  0.00    -0.077 C 
ATOM      7  C   UNL     1      14.926 -22.529 -25.782  1.00  0.00     0.039 C 
ATOM      8  C   UNL     1      15.636 -23.055 -23.496  1.00  0.00    -0.023 CG0
ATOM      9  G   UNL     1      16.218 -23.860 -22.356  1.00  0.00     0.000 G0
ENDBRANCH   5   6
ENDBRANCH   4   5
ENDBRANCH   2   4
BRANCH   1  10
ATOM     10  C   UNL     1      19.312 -23.678 -23.687  1.00  0.00     0.111 C 
BRANCH  10  11
ATOM     11  C   UNL     1      18.534 -22.781 -22.766  1.00  0.00     0.163 C 
ATOM     12  O   UNL     1      18.716 -21.535 -22.819  1.00  0.00    -0.294 OA
BRANCH  11  13
ATOM     13  C   UNL     1      17.538 -23.331 -21.811  1.00  0.00    -0.002 C 
ATOM     14  C   UNL     1      17.805 -23.351 -20.477  1.00  0.00    -0.069 C 
ATOM     15  C   UNL     1      16.828 -23.954 -19.494  1.00  0.00     0.039 C 
ATOM     16  C   UNL     1      19.069 -22.733 -19.923  1.00  0.00     0.039 C 
BRANCH  13  17
ATOM     17  C   UNL     1      16.216 -23.872 -22.345  1.00  0.00     0.066 CG0
ATOM     18  G   UNL     1      15.641 -23.057 -23.481  1.00  0.00     0.000 G0
ENDBRANCH  13  17
ENDBRANCH  11  13
ENDBRANCH  10  11
ENDBRANCH   1  10
TORSDOF 0
ENDMDL
