MODEL 1
REMARK VINA RESULT:    -5.523      0.000      0.000
REMARK INTER + INTRA:          -8.820
REMARK INTER:                  -8.429
REMARK INTRA:                  -0.391
REMARK UNBOUND:                -0.391
REMARK SMILES CC1=CCC[C@@H](C)C(=O)C[C@@H](C(C)C)C(=O)C1
REMARK SMILES IDX 8 1 9 2 6 3 7 4 5 5 4 6 3 7 2 8 1 9 10 11 11 12 15 13 16 14
REMARK SMILES IDX 17 15 12 17 13 18 14 19
REMARK H PARENT
REMARK Flexibility Score: 70.00
ROOT
ATOM      1  C   UNL     1      -2.244  11.427  21.876  1.00  0.00     0.136 C 
ATOM      2  O   UNL     1      -2.532  10.517  22.640  1.00  0.00    -0.299 OA
ENDROOT
BRANCH   1   3
ATOM      3  C   UNL     1      -3.327  12.412  21.463  1.00  0.00     0.053 C 
ATOM      4  C   UNL     1      -3.106  12.812  19.998  1.00  0.00     0.016 C 
BRANCH   3   5
ATOM      5  C   UNL     1      -3.386  13.670  22.373  1.00  0.00     0.015 C 
BRANCH   5   6
ATOM      6  C   UNL     1      -2.562  14.884  21.898  1.00  0.00     0.028 C 
BRANCH   6   7
ATOM      7  C   UNL     1      -1.417  15.318  22.782  1.00  0.00    -0.028 C 
ATOM      8  C   UNL     1      -0.101  15.148  22.523  1.00  0.00    -0.070 CG0
ATOM      9  C   UNL     1       0.878  15.907  23.388  1.00  0.00     0.039 C 
ATOM     10  G   UNL     1       0.435  14.257  21.415  1.00  0.00     0.000 G0
ENDBRANCH   6   7
ENDBRANCH   5   6
ENDBRANCH   3   5
ENDBRANCH   1   3
BRANCH   1  11
ATOM     11  C   UNL     1      -0.857  11.464  21.262  1.00  0.00     0.087 C 
BRANCH  11  12
ATOM     12  C   UNL     1       0.314  11.732  22.254  1.00  0.00     0.066 C 
BRANCH  12  13
ATOM     13  C   UNL     1       1.092  13.008  21.962  1.00  0.00     0.140 C 
ATOM     14  O   UNL     1       2.305  12.989  22.122  1.00  0.00    -0.299 OA
BRANCH  13  15
ATOM     15  C   UNL     1       0.450  14.260  21.403  1.00  0.00     0.106 CG0
ATOM     16  G   UNL     1      -0.090  15.131  22.525  1.00  0.00     0.000 G0
ENDBRANCH  13  15
ENDBRANCH  12  13
BRANCH  12  17
ATOM     17  C   UNL     1       1.270  10.503  22.371  1.00  0.00    -0.006 C 
ATOM     18  C   UNL     1       1.259   9.899  23.788  1.00  0.00     0.008 C 
ATOM     19  C   UNL     1       0.902   9.401  21.361  1.00  0.00     0.008 C 
ENDBRANCH  12  17
ENDBRANCH  11  12
ENDBRANCH   1  11
TORSDOF 1
ENDMDL
MODEL 2
REMARK VINA RESULT:    -5.522      2.008      5.397
REMARK INTER + INTRA:          -8.818
REMARK INTER:                  -8.407
REMARK INTRA:                  -0.411
REMARK UNBOUND:                -0.391
REMARK SMILES CC1=CCC[C@@H](C)C(=O)C[C@@H](C(C)C)C(=O)C1
REMARK SMILES IDX 8 1 9 2 6 3 7 4 5 5 4 6 3 7 2 8 1 9 10 11 11 12 15 13 16 14
REMARK SMILES IDX 17 15 12 17 13 18 14 19
REMARK H PARENT
REMARK Flexibility Score: 70.00
ROOT
ATOM      1  C   UNL     1       2.318  13.736  21.897  1.00  0.00     0.136 C 
ATOM      2  O   UNL     1       2.658  14.645  22.640  1.00  0.00    -0.299 OA
ENDROOT
BRANCH   1   3
ATOM      3  C   UNL     1       3.345  12.690  21.494  1.00  0.00     0.053 C 
ATOM      4  C   UNL     1       3.034  12.208  20.070  1.00  0.00     0.016 C 
BRANCH   3   5
ATOM      5  C   UNL     1       3.413  11.490  22.478  1.00  0.00     0.015 C 
BRANCH   5   6
ATOM      6  C   UNL     1       2.667  10.214  22.037  1.00  0.00     0.028 C 
BRANCH   6   7
ATOM      7  C   UNL     1       1.466   9.809  22.858  1.00  0.00    -0.028 C 
ATOM      8  C   UNL     1       0.170   9.995  22.521  1.00  0.00    -0.070 CG0
ATOM      9  C   UNL     1      -0.869   9.263  23.337  1.00  0.00     0.039 C 
ATOM     10  G   UNL     1      -0.287  10.879  21.371  1.00  0.00     0.000 G0
ENDBRANCH   6   7
ENDBRANCH   5   6
ENDBRANCH   3   5
ENDBRANCH   1   3
BRANCH   1  11
ATOM     11  C   UNL     1       0.924  13.756  21.299  1.00  0.00     0.087 C 
BRANCH  11  12
ATOM     12  C   UNL     1      -0.237  13.400  22.275  1.00  0.00     0.066 C 
BRANCH  12  13
ATOM     13  C   UNL     1      -0.989  12.129  21.903  1.00  0.00     0.140 C 
ATOM     14  O   UNL     1      -2.211  12.146  21.969  1.00  0.00    -0.299 OA
BRANCH  13  15
ATOM     15  C   UNL     1      -0.305  10.886  21.374  1.00  0.00     0.106 CG0
ATOM     16  G   UNL     1       0.145   9.995  22.521  1.00  0.00     0.000 G0
ENDBRANCH  13  15
ENDBRANCH  12  13
BRANCH  12  17
ATOM     17  C   UNL     1      -1.218  14.598  22.475  1.00  0.00    -0.006 C 
ATOM     18  C   UNL     1      -1.079  15.228  23.873  1.00  0.00     0.008 C 
ATOM     19  C   UNL     1      -0.998  15.693  21.414  1.00  0.00     0.008 C 
ENDBRANCH  12  17
ENDBRANCH  11  12
ENDBRANCH   1  11
TORSDOF 1
ENDMDL
MODEL 3
REMARK VINA RESULT:    -5.418      2.187      3.837
REMARK INTER + INTRA:          -8.659
REMARK INTER:                  -8.484
REMARK INTRA:                  -0.175
REMARK UNBOUND:                -0.391
REMARK SMILES CC1=CCC[C@@H](C)C(=O)C[C@@H](C(C)C)C(=O)C1
REMARK SMILES IDX 8 1 9 2 6 3 7 4 5 5 4 6 3 7 2 8 1 9 10 11 11 12 15 13 16 14
REMARK SMILES IDX 17 15 12 17 13 18 14 19
REMARK H PARENT
REMARK Flexibility Score: 70.00
ROOT
ATOM      1  C   UNL     1      -0.488  14.841  22.979  1.00  0.00     0.136 C 
ATOM      2  O   UNL     1      -1.109  14.956  24.025  1.00  0.00    -0.299 OA
ENDROOT
BRANCH   1   3
ATOM      3  C   UNL     1      -0.209  16.084  22.148  1.00  0.00     0.053 C 
ATOM      4  C   UNL     1       0.648  17.055  22.972  1.00  0.00     0.016 C 
BRANCH   3   5
ATOM      5  C   UNL     1      -1.501  16.784  21.643  1.00  0.00     0.015 C 
BRANCH   5   6
ATOM      6  C   UNL     1      -2.041  16.300  20.282  1.00  0.00     0.028 C 
BRANCH   6   7
ATOM      7  C   UNL     1      -2.890  15.052  20.290  1.00  0.00    -0.028 C 
ATOM      8  C   UNL     1      -2.501  13.820  19.889  1.00  0.00    -0.070 CG0
ATOM      9  C   UNL     1      -3.400  12.660  20.248  1.00  0.00     0.039 C 
ATOM     10  G   UNL     1      -1.220  13.546  19.120  1.00  0.00     0.000 G0
ENDBRANCH   6   7
ENDBRANCH   5   6
ENDBRANCH   3   5
ENDBRANCH   1   3
BRANCH   1  11
ATOM     11  C   UNL     1      -0.135  13.453  22.479  1.00  0.00     0.087 C 
BRANCH  11  12
ATOM     12  C   UNL     1       0.583  13.393  21.098  1.00  0.00     0.066 C 
BRANCH  12  13
ATOM     13  C   UNL     1      -0.246  12.744  19.998  1.00  0.00     0.140 C 
ATOM     14  O   UNL     1      -0.175  11.529  19.868  1.00  0.00    -0.299 OA
BRANCH  13  15
ATOM     15  C   UNL     1      -1.212  13.515  19.124  1.00  0.00     0.106 CG0
ATOM     16  G   UNL     1      -2.488  13.831  19.887  1.00  0.00     0.000 G0
ENDBRANCH  13  15
ENDBRANCH  12  13
BRANCH  12  17
ATOM     17  C   UNL     1       1.995  12.735  21.204  1.00  0.00    -0.006 C 
ATOM     18  C   UNL     1       3.043  13.711  21.770  1.00  0.00     0.008 C 
ATOM     19  C   UNL     1       1.966  11.473  22.086  1.00  0.00     0.008 C 
ENDBRANCH  12  17
ENDBRANCH  11  12
ENDBRANCH   1  11
TORSDOF 1
ENDMDL
MODEL 4
REMARK VINA RESULT:    -5.372      2.186      4.632
REMARK INTER + INTRA:          -8.589
REMARK INTER:                  -8.419
REMARK INTRA:                  -0.170
REMARK UNBOUND:                -0.391
REMARK SMILES CC1=CCC[C@@H](C)C(=O)C[C@@H](C(C)C)C(=O)C1
REMARK SMILES IDX 8 1 9 2 6 3 7 4 5 5 4 6 3 7 2 8 1 9 10 11 11 12 15 13 16 14
REMARK SMILES IDX 17 15 12 17 13 18 14 19
REMARK H PARENT
REMARK Flexibility Score: 70.00
ROOT
ATOM      1  C   UNL     1       0.380   9.215  22.417  1.00  0.00     0.136 C 
ATOM      2  O   UNL     1      -0.245   8.169  22.324  1.00  0.00    -0.299 OA
ENDROOT
BRANCH   1   3
ATOM      3  C   UNL     1       1.870   9.212  22.119  1.00  0.00     0.053 C 
ATOM      4  C   UNL     1       2.507  10.464  22.737  1.00  0.00     0.016 C 
BRANCH   3   5
ATOM      5  C   UNL     1       2.188   9.128  20.600  1.00  0.00     0.015 C 
BRANCH   5   6
ATOM      6  C   UNL     1       2.539  10.462  19.910  1.00  0.00     0.028 C 
BRANCH   6   7
ATOM      7  C   UNL     1       1.427  11.150  19.153  1.00  0.00    -0.028 C 
ATOM      8  C   UNL     1       0.795  12.286  19.523  1.00  0.00    -0.070 CG0
ATOM      9  C   UNL     1      -0.078  12.959  18.490  1.00  0.00     0.039 C 
ATOM     10  G   UNL     1       0.925  12.918  20.899  1.00  0.00     0.000 G0
ENDBRANCH   6   7
ENDBRANCH   5   6
ENDBRANCH   3   5
ENDBRANCH   1   3
BRANCH   1  11
ATOM     11  C   UNL     1      -0.323  10.448  22.955  1.00  0.00     0.087 C 
BRANCH  11  12
ATOM     12  C   UNL     1      -0.986  11.368  21.887  1.00  0.00     0.066 C 
BRANCH  12  13
ATOM     13  C   UNL     1      -0.313  12.726  21.738  1.00  0.00     0.140 C 
ATOM     14  O   UNL     1      -0.765  13.663  22.382  1.00  0.00    -0.299 OA
BRANCH  13  15
ATOM     15  C   UNL     1       0.931  12.947  20.905  1.00  0.00     0.106 CG0
ATOM     16  G   UNL     1       0.786  12.291  19.541  1.00  0.00     0.000 G0
ENDBRANCH  13  15
ENDBRANCH  12  13
BRANCH  12  17
ATOM     17  C   UNL     1      -2.522  11.522  22.125  1.00  0.00    -0.006 C 
ATOM     18  C   UNL     1      -3.283  11.789  20.812  1.00  0.00     0.008 C 
ATOM     19  C   UNL     1      -3.118  10.273  22.798  1.00  0.00     0.008 C 
ENDBRANCH  12  17
ENDBRANCH  11  12
ENDBRANCH   1  11
TORSDOF 1
ENDMDL
MODEL 5
REMARK VINA RESULT:    -5.356      2.176      4.830
REMARK INTER + INTRA:          -8.564
REMARK INTER:                  -8.184
REMARK INTRA:                  -0.381
REMARK UNBOUND:                -0.391
REMARK SMILES CC1=CCC[C@@H](C)C(=O)C[C@@H](C(C)C)C(=O)C1
REMARK SMILES IDX 8 1 9 2 6 3 7 4 5 5 4 6 3 7 2 8 1 9 10 11 11 12 15 13 16 14
REMARK SMILES IDX 17 15 12 17 13 18 14 19
REMARK H PARENT
REMARK Flexibility Score: 70.00
ROOT
ATOM      1  C   UNL     1      -0.336  10.956  22.237  1.00  0.00     0.136 C 
ATOM      2  O   UNL     1      -1.267  11.082  21.456  1.00  0.00    -0.299 OA
ENDROOT
BRANCH   1   3
ATOM      3  C   UNL     1       0.130   9.556  22.607  1.00  0.00     0.053 C 
ATOM      4  C   UNL     1       1.026   9.640  23.850  1.00  0.00     0.016 C 
BRANCH   3   5
ATOM      5  C   UNL     1       0.866   8.832  21.447  1.00  0.00     0.015 C 
BRANCH   5   6
ATOM      6  C   UNL     1       2.367   9.154  21.296  1.00  0.00     0.028 C 
BRANCH   6   7
ATOM      7  C   UNL     1       2.738  10.223  20.297  1.00  0.00    -0.028 C 
ATOM      8  C   UNL     1       3.234  11.447  20.586  1.00  0.00    -0.070 CG0
ATOM      9  C   UNL     1       3.807  12.250  19.441  1.00  0.00     0.039 C 
ATOM     10  G   UNL     1       3.258  12.042  21.984  1.00  0.00     0.000 G0
ENDBRANCH   6   7
ENDBRANCH   5   6
ENDBRANCH   3   5
ENDBRANCH   1   3
BRANCH   1  11
ATOM     11  C   UNL     1       0.233  12.189  22.912  1.00  0.00     0.087 C 
BRANCH  11  12
ATOM     12  C   UNL     1       0.878  13.243  21.963  1.00  0.00     0.066 C 
BRANCH  12  13
ATOM     13  C   UNL     1       2.398  13.299  22.044  1.00  0.00     0.140 C 
ATOM     14  O   UNL     1       2.921  14.387  22.238  1.00  0.00    -0.299 OA
BRANCH  13  15
ATOM     15  C   UNL     1       3.276  12.068  21.983  1.00  0.00     0.106 CG0
ATOM     16  G   UNL     1       3.250  11.460  20.590  1.00  0.00     0.000 G0
ENDBRANCH  13  15
ENDBRANCH  12  13
BRANCH  12  17
ATOM     17  C   UNL     1       0.250  14.660  22.154  1.00  0.00    -0.006 C 
ATOM     18  C   UNL     1      -0.881  14.929  21.144  1.00  0.00     0.008 C 
ATOM     19  C   UNL     1      -0.303  14.847  23.579  1.00  0.00     0.008 C 
ENDBRANCH  12  17
ENDBRANCH  11  12
ENDBRANCH   1  11
TORSDOF 1
ENDMDL
MODEL 6
REMARK VINA RESULT:    -5.305      2.067      3.820
REMARK INTER + INTRA:          -8.488
REMARK INTER:                  -8.114
REMARK INTRA:                  -0.374
REMARK UNBOUND:                -0.391
REMARK SMILES CC1=CCC[C@@H](C)C(=O)C[C@@H](C(C)C)C(=O)C1
REMARK SMILES IDX 8 1 9 2 6 3 7 4 5 5 4 6 3 7 2 8 1 9 10 11 11 12 15 13 16 14
REMARK SMILES IDX 17 15 12 17 13 18 14 19
REMARK H PARENT
REMARK Flexibility Score: 70.00
ROOT
ATOM      1  C   UNL     1      -0.695  15.014  23.044  1.00  0.00     0.136 C 
ATOM      2  O   UNL     1      -1.445  15.234  23.983  1.00  0.00    -0.299 OA
ENDROOT
BRANCH   1   3
ATOM      3  C   UNL     1      -0.921  15.749  21.733  1.00  0.00     0.053 C 
ATOM      4  C   UNL     1      -0.394  17.184  21.867  1.00  0.00     0.016 C 
BRANCH   3   5
ATOM      5  C   UNL     1      -2.408  15.751  21.282  1.00  0.00     0.015 C 
BRANCH   5   6
ATOM      6  C   UNL     1      -2.861  14.533  20.451  1.00  0.00     0.028 C 
BRANCH   6   7
ATOM      7  C   UNL     1      -3.320  13.316  21.220  1.00  0.00    -0.028 C 
ATOM      8  C   UNL     1      -2.603  12.188  21.429  1.00  0.00    -0.070 CG0
ATOM      9  C   UNL     1      -3.128  11.217  22.460  1.00  0.00     0.039 C 
ATOM     10  G   UNL     1      -1.310  11.860  20.701  1.00  0.00     0.000 G0
ENDBRANCH   6   7
ENDBRANCH   5   6
ENDBRANCH   3   5
ENDBRANCH   1   3
BRANCH   1  11
ATOM     11  C   UNL     1       0.347  13.919  23.174  1.00  0.00     0.087 C 
BRANCH  11  12
ATOM     12  C   UNL     1       0.703  13.164  21.859  1.00  0.00     0.066 C 
BRANCH  12  13
ATOM     13  C   UNL     1      -0.118  11.903  21.629  1.00  0.00     0.140 C 
ATOM     14  O   UNL     1       0.163  10.909  22.286  1.00  0.00    -0.299 OA
BRANCH  13  15
ATOM     15  C   UNL     1      -1.310  11.848  20.697  1.00  0.00     0.106 CG0
ATOM     16  G   UNL     1      -2.588  12.193  21.444  1.00  0.00     0.000 G0
ENDBRANCH  13  15
ENDBRANCH  12  13
BRANCH  12  17
ATOM     17  C   UNL     1       2.233  12.870  21.753  1.00  0.00    -0.006 C 
ATOM     18  C   UNL     1       2.633  12.411  20.338  1.00  0.00     0.008 C 
ATOM     19  C   UNL     1       3.075  14.102  22.130  1.00  0.00     0.008 C 
ENDBRANCH  12  17
ENDBRANCH  11  12
ENDBRANCH   1  11
TORSDOF 1
ENDMDL
MODEL 7
REMARK VINA RESULT:    -5.260      1.946      4.063
REMARK INTER + INTRA:          -8.419
REMARK INTER:                  -7.961
REMARK INTRA:                  -0.458
REMARK UNBOUND:                -0.391
REMARK SMILES CC1=CCC[C@@H](C)C(=O)C[C@@H](C(C)C)C(=O)C1
REMARK SMILES IDX 8 1 9 2 6 3 7 4 5 5 4 6 3 7 2 8 1 9 10 11 11 12 15 13 16 14
REMARK SMILES IDX 17 15 12 17 13 18 14 19
REMARK H PARENT
REMARK Flexibility Score: 70.00
ROOT
ATOM      1  C   UNL     1      -0.089  11.621  20.988  1.00  0.00     0.136 C 
ATOM      2  O   UNL     1       0.191  10.437  21.107  1.00  0.00    -0.299 OA
ENDROOT
BRANCH   1   3
ATOM      3  C   UNL     1       0.893  12.542  20.283  1.00  0.00     0.053 C 
ATOM      4  C   UNL     1       0.966  12.155  18.800  1.00  0.00     0.016 C 
BRANCH   3   5
ATOM      5  C   UNL     1       2.308  12.531  20.923  1.00  0.00     0.015 C 
BRANCH   5   6
ATOM      6  C   UNL     1       2.429  13.208  22.304  1.00  0.00     0.028 C 
BRANCH   6   7
ATOM      7  C   UNL     1       2.057  14.670  22.380  1.00  0.00    -0.028 C 
ATOM      8  C   UNL     1       0.999  15.191  23.042  1.00  0.00    -0.070 CG0
ATOM      9  C   UNL     1       0.971  16.689  23.233  1.00  0.00     0.039 C 
ATOM     10  G   UNL     1      -0.140  14.357  23.606  1.00  0.00     0.000 G0
ENDBRANCH   6   7
ENDBRANCH   5   6
ENDBRANCH   3   5
ENDBRANCH   1   3
BRANCH   1  11
ATOM     11  C   UNL     1      -1.338  12.154  21.663  1.00  0.00     0.087 C 
BRANCH  11  12
ATOM     12  C   UNL     1      -1.606  13.679  21.482  1.00  0.00     0.066 C 
BRANCH  12  13
ATOM     13  C   UNL     1      -1.386  14.499  22.746  1.00  0.00     0.140 C 
ATOM     14  O   UNL     1      -2.285  15.246  23.108  1.00  0.00    -0.299 OA
BRANCH  13  15
ATOM     15  C   UNL     1      -0.153  14.368  23.614  1.00  0.00     0.106 CG0
ATOM     16  G   UNL     1       0.990  15.195  23.050  1.00  0.00     0.000 G0
ENDBRANCH  13  15
ENDBRANCH  12  13
BRANCH  12  17
ATOM     17  C   UNL     1      -3.016  13.953  20.869  1.00  0.00    -0.006 C 
ATOM     18  C   UNL     1      -2.970  15.050  19.789  1.00  0.00     0.008 C 
ATOM     19  C   UNL     1      -3.624  12.679  20.256  1.00  0.00     0.008 C 
ENDBRANCH  12  17
ENDBRANCH  11  12
ENDBRANCH   1  11
TORSDOF 1
ENDMDL
MODEL 8
REMARK VINA RESULT:    -5.171      1.242      1.673
REMARK INTER + INTRA:          -8.283
REMARK INTER:                  -7.944
REMARK INTRA:                  -0.339
REMARK UNBOUND:                -0.391
REMARK SMILES CC1=CCC[C@@H](C)C(=O)C[C@@H](C(C)C)C(=O)C1
REMARK SMILES IDX 8 1 9 2 6 3 7 4 5 5 4 6 3 7 2 8 1 9 10 11 11 12 15 13 16 14
REMARK SMILES IDX 17 15 12 17 13 18 14 19
REMARK H PARENT
REMARK Flexibility Score: 70.00
ROOT
ATOM      1  C   UNL     1      -1.057  10.609  22.158  1.00  0.00     0.136 C 
ATOM      2  O   UNL     1      -0.922   9.482  22.610  1.00  0.00    -0.299 OA
ENDROOT
BRANCH   1   3
ATOM      3  C   UNL     1      -2.399  11.309  22.312  1.00  0.00     0.053 C 
ATOM      4  C   UNL     1      -3.433  10.298  22.826  1.00  0.00     0.016 C 
BRANCH   3   5
ATOM      5  C   UNL     1      -2.892  11.979  21.000  1.00  0.00     0.015 C 
BRANCH   5   6
ATOM      6  C   UNL     1      -2.929  13.521  21.004  1.00  0.00     0.028 C 
BRANCH   6   7
ATOM      7  C   UNL     1      -2.264  14.215  22.169  1.00  0.00    -0.028 C 
ATOM      8  C   UNL     1      -0.979  14.632  22.222  1.00  0.00    -0.070 CG0
ATOM      9  C   UNL     1      -0.596  15.555  23.354  1.00  0.00     0.039 C 
ATOM     10  G   UNL     1       0.081  14.235  21.207  1.00  0.00     0.000 G0
ENDBRANCH   6   7
ENDBRANCH   5   6
ENDBRANCH   3   5
ENDBRANCH   1   3
BRANCH   1  11
ATOM     11  C   UNL     1       0.069  11.218  21.345  1.00  0.00     0.087 C 
BRANCH  11  12
ATOM     12  C   UNL     1       1.161  11.973  22.161  1.00  0.00     0.066 C 
BRANCH  12  13
ATOM     13  C   UNL     1       1.230  13.466  21.866  1.00  0.00     0.140 C 
ATOM     14  O   UNL     1       2.274  14.052  22.121  1.00  0.00    -0.299 OA
BRANCH  13  15
ATOM     15  C   UNL     1       0.109  14.231  21.197  1.00  0.00     0.106 CG0
ATOM     16  G   UNL     1      -0.953  14.621  22.212  1.00  0.00     0.000 G0
ENDBRANCH  13  15
ENDBRANCH  12  13
BRANCH  12  17
ATOM     17  C   UNL     1       2.564  11.304  22.016  1.00  0.00    -0.006 C 
ATOM     18  C   UNL     1       2.691  10.041  22.889  1.00  0.00     0.008 C 
ATOM     19  C   UNL     1       2.863  10.927  20.554  1.00  0.00     0.008 C 
ENDBRANCH  12  17
ENDBRANCH  11  12
ENDBRANCH   1  11
TORSDOF 1
ENDMDL
MODEL 9
REMARK VINA RESULT:    -5.122      1.887      3.727
REMARK INTER + INTRA:          -8.208
REMARK INTER:                  -8.219
REMARK INTRA:                   0.011
REMARK UNBOUND:                -0.391
REMARK SMILES CC1=CCC[C@@H](C)C(=O)C[C@@H](C(C)C)C(=O)C1
REMARK SMILES IDX 8 1 9 2 6 3 7 4 5 5 4 6 3 7 2 8 1 9 10 11 11 12 15 13 16 14
REMARK SMILES IDX 17 15 12 17 13 18 14 19
REMARK H PARENT
REMARK Flexibility Score: 70.00
ROOT
ATOM      1  C   UNL     1       1.049  14.464  22.666  1.00  0.00     0.136 C 
ATOM      2  O   UNL     1       2.252  14.679  22.664  1.00  0.00    -0.299 OA
ENDROOT
BRANCH   1   3
ATOM      3  C   UNL     1       0.096  15.615  22.946  1.00  0.00     0.053 C 
ATOM      4  C   UNL     1       0.902  16.822  23.444  1.00  0.00     0.016 C 
BRANCH   3   5
ATOM      5  C   UNL     1      -1.024  15.248  23.958  1.00  0.00     0.015 C 
BRANCH   5   6
ATOM      6  C   UNL     1      -2.413  14.962  23.352  1.00  0.00     0.028 C 
BRANCH   6   7
ATOM      7  C   UNL     1      -2.600  15.296  21.891  1.00  0.00    -0.028 C 
ATOM      8  C   UNL     1      -2.578  14.417  20.863  1.00  0.00    -0.070 CG0
ATOM      9  C   UNL     1      -3.072  14.909  19.522  1.00  0.00     0.039 C 
ATOM     10  G   UNL     1      -2.103  12.980  20.989  1.00  0.00     0.000 G0
ENDBRANCH   6   7
ENDBRANCH   5   6
ENDBRANCH   3   5
ENDBRANCH   1   3
BRANCH   1  11
ATOM     11  C   UNL     1       0.555  13.037  22.524  1.00  0.00     0.087 C 
BRANCH  11  12
ATOM     12  C   UNL     1       0.528  12.472  21.073  1.00  0.00     0.066 C 
BRANCH  12  13
ATOM     13  C   UNL     1      -0.753  12.784  20.311  1.00  0.00     0.140 C 
ATOM     14  O   UNL     1      -0.700  12.813  19.089  1.00  0.00    -0.299 OA
BRANCH  13  15
ATOM     15  C   UNL     1      -2.094  12.970  20.988  1.00  0.00     0.106 CG0
ATOM     16  G   UNL     1      -2.562  14.410  20.861  1.00  0.00     0.000 G0
ENDBRANCH  13  15
ENDBRANCH  12  13
BRANCH  12  17
ATOM     17  C   UNL     1       0.848  10.944  21.037  1.00  0.00    -0.006 C 
ATOM     18  C   UNL     1       1.817  10.585  19.894  1.00  0.00     0.008 C 
ATOM     19  C   UNL     1       1.452  10.461  22.368  1.00  0.00     0.008 C 
ENDBRANCH  12  17
ENDBRANCH  11  12
ENDBRANCH   1  11
TORSDOF 1
ENDMDL
