MODEL 1
REMARK VINA RESULT:    -5.470      0.000      0.000
REMARK INTER + INTRA:          -8.674
REMARK INTER:                  -7.389
REMARK INTRA:                  -1.286
REMARK UNBOUND:                -1.286
REMARK SMILES CC(=O)CCC=C(C)CCC=C(C)C
REMARK SMILES IDX 7 1 6 2 8 3 9 4 10 5 11 6 13 7 12 8 14 9 5 10 4 11 2 12 3 13
REMARK SMILES IDX 1 14
REMARK H PARENT
REMARK Flexibility Score: inf
ROOT
ATOM      1  C   UNL     1      10.809 -16.747 -31.297  1.00  0.00    -0.077 C 
ATOM      2  C   UNL     1      11.957 -16.884 -31.997  1.00  0.00    -0.028 C 
ATOM      3  C   UNL     1       9.609 -16.154 -31.990  1.00  0.00     0.039 C 
ENDROOT
BRANCH   1   4
ATOM      4  C   UNL     1      10.661 -17.219 -29.864  1.00  0.00     0.034 C 
BRANCH   4   5
ATOM      5  C   UNL     1      11.049 -16.104 -28.886  1.00  0.00     0.032 C 
BRANCH   5   6
ATOM      6  C   UNL     1      12.024 -16.614 -27.854  1.00  0.00    -0.028 C 
ATOM      7  C   UNL     1      13.827 -15.014 -28.529  1.00  0.00     0.039 C 
ATOM      8  C   UNL     1      13.284 -16.152 -27.697  1.00  0.00    -0.080 C 
ATOM      9  C   UNL     1      14.158 -16.789 -26.648  1.00  0.00     0.039 C 
ENDBRANCH   5   6
ENDBRANCH   4   5
ENDBRANCH   1   4
BRANCH   2  10
ATOM     10  C   UNL     1      13.222 -17.476 -31.422  1.00  0.00     0.035 C 
BRANCH  10  11
ATOM     11  C   UNL     1      13.430 -18.918 -31.905  1.00  0.00     0.079 C 
BRANCH  11  12
ATOM     12  C   UNL     1      13.161 -19.973 -30.855  1.00  0.00     0.130 C 
ATOM     13  O   UNL     1      12.610 -21.008 -31.200  1.00  0.00    -0.300 OA
ATOM     14  C   UNL     1      13.538 -19.804 -29.408  1.00  0.00     0.087 C 
ENDBRANCH  11  12
ENDBRANCH  10  11
ENDBRANCH   2  10
TORSDOF 6
ENDMDL
MODEL 2
REMARK VINA RESULT:    -5.465      1.570      2.364
REMARK INTER + INTRA:          -8.668
REMARK INTER:                  -7.534
REMARK INTRA:                  -1.133
REMARK UNBOUND:                -1.286
REMARK SMILES CC(=O)CCC=C(C)CCC=C(C)C
REMARK SMILES IDX 7 1 6 2 8 3 9 4 10 5 11 6 13 7 12 8 14 9 5 10 4 11 2 12 3 13
REMARK SMILES IDX 1 14
REMARK H PARENT
REMARK Flexibility Score: inf
ROOT
ATOM      1  C   UNL     1      13.489 -17.021 -31.721  1.00  0.00    -0.077 C 
ATOM      2  C   UNL     1      13.405 -18.227 -32.324  1.00  0.00    -0.028 C 
ATOM      3  C   UNL     1      14.617 -16.099 -32.105  1.00  0.00     0.039 C 
ENDROOT
BRANCH   1   4
ATOM      4  C   UNL     1      12.461 -16.534 -30.718  1.00  0.00     0.034 C 
BRANCH   4   5
ATOM      5  C   UNL     1      13.107 -16.319 -29.345  1.00  0.00     0.032 C 
BRANCH   5   6
ATOM      6  C   UNL     1      12.160 -16.718 -28.240  1.00  0.00    -0.028 C 
ATOM      7  C   UNL     1      13.953 -16.748 -26.492  1.00  0.00     0.039 C 
ATOM      8  C   UNL     1      12.529 -16.939 -26.959  1.00  0.00    -0.080 C 
ATOM      9  C   UNL     1      11.476 -17.373 -25.974  1.00  0.00     0.039 C 
ENDBRANCH   5   6
ENDBRANCH   4   5
ENDBRANCH   1   4
BRANCH   2  10
ATOM     10  C   UNL     1      12.317 -19.234 -32.037  1.00  0.00     0.035 C 
BRANCH  10  11
ATOM     11  C   UNL     1      12.848 -20.400 -31.191  1.00  0.00     0.079 C 
BRANCH  11  12
ATOM     12  C   UNL     1      12.924 -20.111 -29.708  1.00  0.00     0.130 C 
ATOM     13  O   UNL     1      11.887 -19.864 -29.111  1.00  0.00    -0.300 OA
ATOM     14  C   UNL     1      14.217 -20.112 -28.938  1.00  0.00     0.087 C 
ENDBRANCH  11  12
ENDBRANCH  10  11
ENDBRANCH   2  10
TORSDOF 6
ENDMDL
MODEL 3
REMARK VINA RESULT:    -5.381      2.337      5.148
REMARK INTER + INTRA:          -8.554
REMARK INTER:                  -7.550
REMARK INTRA:                  -1.004
REMARK UNBOUND:                -1.286
REMARK SMILES CC(=O)CCC=C(C)CCC=C(C)C
REMARK SMILES IDX 7 1 6 2 8 3 9 4 10 5 11 6 13 7 12 8 14 9 5 10 4 11 2 12 3 13
REMARK SMILES IDX 1 14
REMARK H PARENT
REMARK Flexibility Score: inf
ROOT
ATOM      1  C   UNL     1      13.182 -19.519 -28.986  1.00  0.00    -0.077 C 
ATOM      2  C   UNL     1      13.408 -18.380 -28.298  1.00  0.00    -0.028 C 
ATOM      3  C   UNL     1      14.117 -20.683 -28.782  1.00  0.00     0.039 C 
ENDROOT
BRANCH   1   4
ATOM      4  C   UNL     1      11.992 -19.696 -29.911  1.00  0.00     0.034 C 
BRANCH   4   5
ATOM      5  C   UNL     1      12.458 -19.917 -31.354  1.00  0.00     0.032 C 
BRANCH   5   6
ATOM      6  C   UNL     1      13.403 -18.823 -31.784  1.00  0.00    -0.028 C 
ATOM      7  C   UNL     1      11.559 -17.214 -32.312  1.00  0.00     0.039 C 
ATOM      8  C   UNL     1      13.014 -17.612 -32.240  1.00  0.00    -0.080 C 
ATOM      9  C   UNL     1      14.075 -16.633 -32.673  1.00  0.00     0.039 C 
ENDBRANCH   5   6
ENDBRANCH   4   5
ENDBRANCH   1   4
BRANCH   2  10
ATOM     10  C   UNL     1      12.538 -17.149 -28.404  1.00  0.00     0.035 C 
BRANCH  10  11
ATOM     11  C   UNL     1      13.311 -15.975 -29.020  1.00  0.00     0.079 C 
BRANCH  11  12
ATOM     12  C   UNL     1      14.120 -15.170 -28.026  1.00  0.00     0.130 C 
ATOM     13  O   UNL     1      14.207 -15.582 -26.879  1.00  0.00    -0.300 OA
ATOM     14  C   UNL     1      14.819 -13.887 -28.387  1.00  0.00     0.087 C 
ENDBRANCH  11  12
ENDBRANCH  10  11
ENDBRANCH   2  10
TORSDOF 6
ENDMDL
MODEL 4
REMARK VINA RESULT:    -5.369      2.136      4.457
REMARK INTER + INTRA:          -8.538
REMARK INTER:                  -6.982
REMARK INTRA:                  -1.556
REMARK UNBOUND:                -1.286
REMARK SMILES CC(=O)CCC=C(C)CCC=C(C)C
REMARK SMILES IDX 7 1 6 2 8 3 9 4 10 5 11 6 13 7 12 8 14 9 5 10 4 11 2 12 3 13
REMARK SMILES IDX 1 14
REMARK H PARENT
REMARK Flexibility Score: inf
ROOT
ATOM      1  C   UNL     1      13.042 -18.340 -30.990  1.00  0.00    -0.077 C 
ATOM      2  C   UNL     1      13.440 -17.910 -29.773  1.00  0.00    -0.028 C 
ATOM      3  C   UNL     1      12.917 -19.823 -31.226  1.00  0.00     0.039 C 
ENDROOT
BRANCH   1   4
ATOM      4  C   UNL     1      12.661 -17.391 -32.110  1.00  0.00     0.034 C 
BRANCH   4   5
ATOM      5  C   UNL     1      11.151 -17.439 -32.368  1.00  0.00     0.032 C 
BRANCH   5   6
ATOM      6  C   UNL     1      10.451 -16.310 -31.656  1.00  0.00    -0.028 C 
ATOM      7  C   UNL     1       9.605 -17.780 -29.813  1.00  0.00     0.039 C 
ATOM      8  C   UNL     1       9.731 -16.451 -30.521  1.00  0.00    -0.080 C 
ATOM      9  C   UNL     1       9.052 -15.235 -29.945  1.00  0.00     0.039 C 
ENDBRANCH   5   6
ENDBRANCH   4   5
ENDBRANCH   1   4
BRANCH   2  10
ATOM     10  C   UNL     1      13.591 -16.452 -29.407  1.00  0.00     0.035 C 
BRANCH  10  11
ATOM     11  C   UNL     1      12.563 -16.037 -28.345  1.00  0.00     0.079 C 
BRANCH  11  12
ATOM     12  C   UNL     1      12.638 -16.833 -27.060  1.00  0.00     0.130 C 
ATOM     13  O   UNL     1      13.699 -16.861 -26.456  1.00  0.00    -0.300 OA
ATOM     14  C   UNL     1      11.466 -17.590 -26.496  1.00  0.00     0.087 C 
ENDBRANCH  11  12
ENDBRANCH  10  11
ENDBRANCH   2  10
TORSDOF 6
ENDMDL
MODEL 5
REMARK VINA RESULT:    -5.312      1.884      4.125
REMARK INTER + INTRA:          -8.461
REMARK INTER:                  -6.797
REMARK INTRA:                  -1.664
REMARK UNBOUND:                -1.286
REMARK SMILES CC(=O)CCC=C(C)CCC=C(C)C
REMARK SMILES IDX 7 1 6 2 8 3 9 4 10 5 11 6 13 7 12 8 14 9 5 10 4 11 2 12 3 13
REMARK SMILES IDX 1 14
REMARK H PARENT
REMARK Flexibility Score: inf
ROOT
ATOM      1  C   UNL     1      10.700 -17.390 -31.342  1.00  0.00    -0.077 C 
ATOM      2  C   UNL     1      10.201 -17.118 -30.116  1.00  0.00    -0.028 C 
ATOM      3  C   UNL     1       9.921 -18.303 -32.252  1.00  0.00     0.039 C 
ENDROOT
BRANCH   1   4
ATOM      4  C   UNL     1      11.982 -16.767 -31.861  1.00  0.00     0.034 C 
BRANCH   4   5
ATOM      5  C   UNL     1      13.052 -17.842 -32.086  1.00  0.00     0.032 C 
BRANCH   5   6
ATOM      6  C   UNL     1      13.616 -18.317 -30.771  1.00  0.00    -0.028 C 
ATOM      7  C   UNL     1      12.628 -20.608 -30.989  1.00  0.00     0.039 C 
ATOM      8  C   UNL     1      13.414 -19.549 -30.252  1.00  0.00    -0.080 C 
ATOM      9  C   UNL     1      14.009 -19.868 -28.905  1.00  0.00     0.039 C 
ENDBRANCH   5   6
ENDBRANCH   4   5
ENDBRANCH   1   4
BRANCH   2  10
ATOM     10  C   UNL     1      10.878 -16.210 -29.118  1.00  0.00     0.035 C 
BRANCH  10  11
ATOM     11  C   UNL     1      11.558 -17.018 -28.005  1.00  0.00     0.079 C 
BRANCH  11  12
ATOM     12  C   UNL     1      12.896 -16.468 -27.562  1.00  0.00     0.130 C 
ATOM     13  O   UNL     1      13.389 -16.900 -26.531  1.00  0.00    -0.300 OA
ATOM     14  C   UNL     1      13.644 -15.413 -28.332  1.00  0.00     0.087 C 
ENDBRANCH  11  12
ENDBRANCH  10  11
ENDBRANCH   2  10
TORSDOF 6
ENDMDL
MODEL 6
REMARK VINA RESULT:    -5.200      1.696      3.546
REMARK INTER + INTRA:          -8.309
REMARK INTER:                  -7.139
REMARK INTRA:                  -1.170
REMARK UNBOUND:                -1.286
REMARK SMILES CC(=O)CCC=C(C)CCC=C(C)C
REMARK SMILES IDX 7 1 6 2 8 3 9 4 10 5 11 6 13 7 12 8 14 9 5 10 4 11 2 12 3 13
REMARK SMILES IDX 1 14
REMARK H PARENT
REMARK Flexibility Score: inf
ROOT
ATOM      1  C   UNL     1      13.080 -19.647 -29.750  1.00  0.00    -0.077 C 
ATOM      2  C   UNL     1      13.383 -19.573 -31.064  1.00  0.00    -0.028 C 
ATOM      3  C   UNL     1      14.113 -20.198 -28.802  1.00  0.00     0.039 C 
ENDROOT
BRANCH   1   4
ATOM      4  C   UNL     1      11.767 -19.144 -29.182  1.00  0.00     0.034 C 
BRANCH   4   5
ATOM      5  C   UNL     1      12.016 -18.193 -28.006  1.00  0.00     0.032 C 
BRANCH   5   6
ATOM      6  C   UNL     1      12.596 -16.887 -28.488  1.00  0.00    -0.028 C 
ATOM      7  C   UNL     1      14.137 -16.660 -26.527  1.00  0.00     0.039 C 
ATOM      8  C   UNL     1      13.531 -16.173 -27.823  1.00  0.00    -0.080 C 
ATOM      9  C   UNL     1      13.986 -14.863 -28.410  1.00  0.00     0.039 C 
ENDBRANCH   5   6
ENDBRANCH   4   5
ENDBRANCH   1   4
BRANCH   2  10
ATOM     10  C   UNL     1      12.441 -19.028 -32.112  1.00  0.00     0.035 C 
BRANCH  10  11
ATOM     11  C   UNL     1      12.550 -17.500 -32.215  1.00  0.00     0.079 C 
BRANCH  11  12
ATOM     12  C   UNL     1      11.235 -16.796 -32.463  1.00  0.00     0.130 C 
ATOM     13  O   UNL     1      10.879 -16.620 -33.619  1.00  0.00    -0.300 OA
ATOM     14  C   UNL     1      10.348 -16.301 -31.352  1.00  0.00     0.087 C 
ENDBRANCH  11  12
ENDBRANCH  10  11
ENDBRANCH   2  10
TORSDOF 6
ENDMDL
MODEL 7
REMARK VINA RESULT:    -5.185      2.292      4.347
REMARK INTER + INTRA:          -8.290
REMARK INTER:                  -6.909
REMARK INTRA:                  -1.381
REMARK UNBOUND:                -1.286
REMARK SMILES CC(=O)CCC=C(C)CCC=C(C)C
REMARK SMILES IDX 7 1 6 2 8 3 9 4 10 5 11 6 13 7 12 8 14 9 5 10 4 11 2 12 3 13
REMARK SMILES IDX 1 14
REMARK H PARENT
REMARK Flexibility Score: inf
ROOT
ATOM      1  C   UNL     1       9.851 -16.412 -29.671  1.00  0.00    -0.077 C 
ATOM      2  C   UNL     1      10.996 -15.973 -29.104  1.00  0.00    -0.028 C 
ATOM      3  C   UNL     1       9.087 -15.477 -30.572  1.00  0.00     0.039 C 
ENDROOT
BRANCH   1   4
ATOM      4  C   UNL     1       9.335 -17.826 -29.486  1.00  0.00     0.034 C 
BRANCH   4   5
ATOM      5  C   UNL     1       9.663 -18.686 -30.712  1.00  0.00     0.032 C 
BRANCH   5   6
ATOM      6  C   UNL     1      10.972 -19.409 -30.522  1.00  0.00    -0.028 C 
ATOM      7  C   UNL     1      12.219 -17.900 -32.083  1.00  0.00     0.039 C 
ATOM      8  C   UNL     1      12.124 -19.084 -31.150  1.00  0.00    -0.080 C 
ATOM      9  C   UNL     1      13.346 -19.927 -30.892  1.00  0.00     0.039 C 
ENDBRANCH   5   6
ENDBRANCH   4   5
ENDBRANCH   1   4
BRANCH   2  10
ATOM     10  C   UNL     1      11.858 -16.816 -28.194  1.00  0.00     0.035 C 
BRANCH  10  11
ATOM     11  C   UNL     1      13.347 -16.645 -28.525  1.00  0.00     0.079 C 
BRANCH  11  12
ATOM     12  C   UNL     1      14.048 -15.577 -27.714  1.00  0.00     0.130 C 
ATOM     13  O   UNL     1      14.231 -15.780 -26.523  1.00  0.00    -0.300 OA
ATOM     14  C   UNL     1      14.526 -14.279 -28.307  1.00  0.00     0.087 C 
ENDBRANCH  11  12
ENDBRANCH  10  11
ENDBRANCH   2  10
TORSDOF 6
ENDMDL
MODEL 8
REMARK VINA RESULT:    -5.160      1.575      4.225
REMARK INTER + INTRA:          -8.256
REMARK INTER:                  -6.689
REMARK INTRA:                  -1.567
REMARK UNBOUND:                -1.286
REMARK SMILES CC(=O)CCC=C(C)CCC=C(C)C
REMARK SMILES IDX 7 1 6 2 8 3 9 4 10 5 11 6 13 7 12 8 14 9 5 10 4 11 2 12 3 13
REMARK SMILES IDX 1 14
REMARK H PARENT
REMARK Flexibility Score: inf
ROOT
ATOM      1  C   UNL     1      12.840 -16.121 -28.337  1.00  0.00    -0.077 C 
ATOM      2  C   UNL     1      11.738 -15.777 -29.038  1.00  0.00    -0.028 C 
ATOM      3  C   UNL     1      13.924 -15.091 -28.147  1.00  0.00     0.039 C 
ENDROOT
BRANCH   1   4
ATOM      4  C   UNL     1      13.006 -17.480 -27.685  1.00  0.00     0.034 C 
BRANCH   4   5
ATOM      5  C   UNL     1      14.088 -18.294 -28.403  1.00  0.00     0.032 C 
BRANCH   5   6
ATOM      6  C   UNL     1      13.470 -19.406 -29.213  1.00  0.00    -0.028 C 
ATOM      7  C   UNL     1      13.561 -18.114 -31.357  1.00  0.00     0.039 C 
ATOM      8  C   UNL     1      13.204 -19.332 -30.536  1.00  0.00    -0.080 C 
ATOM      9  C   UNL     1      12.545 -20.511 -31.204  1.00  0.00     0.039 C 
ENDBRANCH   5   6
ENDBRANCH   4   5
ENDBRANCH   1   4
BRANCH   2  10
ATOM     10  C   UNL     1      10.578 -16.712 -29.287  1.00  0.00     0.035 C 
BRANCH  10  11
ATOM     11  C   UNL     1      10.131 -16.663 -30.755  1.00  0.00     0.079 C 
BRANCH  11  12
ATOM     12  C   UNL     1       9.782 -18.011 -31.346  1.00  0.00     0.130 C 
ATOM     13  O   UNL     1      10.146 -18.256 -32.486  1.00  0.00    -0.300 OA
ATOM     14  C   UNL     1       9.006 -19.059 -30.595  1.00  0.00     0.087 C 
ENDBRANCH  11  12
ENDBRANCH  10  11
ENDBRANCH   2  10
TORSDOF 6
ENDMDL
MODEL 9
REMARK VINA RESULT:    -5.137      1.762      2.601
REMARK INTER + INTRA:          -8.225
REMARK INTER:                  -6.940
REMARK INTRA:                  -1.285
REMARK UNBOUND:                -1.286
REMARK SMILES CC(=O)CCC=C(C)CCC=C(C)C
REMARK SMILES IDX 7 1 6 2 8 3 9 4 10 5 11 6 13 7 12 8 14 9 5 10 4 11 2 12 3 13
REMARK SMILES IDX 1 14
REMARK H PARENT
REMARK Flexibility Score: inf
ROOT
ATOM      1  C   UNL     1      10.544 -18.266 -30.411  1.00  0.00    -0.077 C 
ATOM      2  C   UNL     1      11.541 -19.178 -30.427  1.00  0.00    -0.028 C 
ATOM      3  C   UNL     1       9.127 -18.751 -30.247  1.00  0.00     0.039 C 
ENDROOT
BRANCH   1   4
ATOM      4  C   UNL     1      10.797 -16.773 -30.492  1.00  0.00     0.034 C 
BRANCH   4   5
ATOM      5  C   UNL     1      10.738 -16.139 -29.098  1.00  0.00     0.032 C 
BRANCH   5   6
ATOM      6  C   UNL     1      12.104 -16.126 -28.458  1.00  0.00    -0.028 C 
ATOM      7  C   UNL     1      11.447 -17.721 -26.643  1.00  0.00     0.039 C 
ATOM      8  C   UNL     1      12.431 -16.812 -27.341  1.00  0.00    -0.080 C 
ATOM      9  C   UNL     1      13.828 -16.668 -26.794  1.00  0.00     0.039 C 
ENDBRANCH   5   6
ENDBRANCH   4   5
ENDBRANCH   1   4
BRANCH   2  10
ATOM     10  C   UNL     1      13.001 -18.820 -30.571  1.00  0.00     0.035 C 
BRANCH  10  11
ATOM     11  C   UNL     1      13.392 -18.667 -32.048  1.00  0.00     0.079 C 
BRANCH  11  12
ATOM     12  C   UNL     1      13.648 -17.240 -32.481  1.00  0.00     0.130 C 
ATOM     13  O   UNL     1      13.324 -16.909 -33.611  1.00  0.00    -0.300 OA
ATOM     14  C   UNL     1      14.286 -16.214 -31.583  1.00  0.00     0.087 C 
ENDBRANCH  11  12
ENDBRANCH  10  11
ENDBRANCH   2  10
TORSDOF 6
ENDMDL
