MODEL 1
REMARK VINA RESULT:    -4.437      0.000      0.000
REMARK INTER + INTRA:          -5.629
REMARK INTER:                  -5.345
REMARK INTRA:                  -0.285
REMARK UNBOUND:                -0.285
REMARK SMILES C=CCc1ccc(O)c(OC)c1
REMARK SMILES IDX 9 1 7 2 6 3 5 4 4 5 12 6 10 7 11 8 8 9 3 11 2 12 1 13
REMARK H PARENT 8 10
REMARK Flexibility Score: inf
ROOT
ATOM      1  C   UNL     1      84.730  31.978  65.796  1.00  0.00     0.160 A 
ATOM      2  C   UNL     1      84.822  31.939  67.195  1.00  0.00     0.157 A 
ATOM      3  C   UNL     1      86.041  32.216  67.828  1.00  0.00     0.050 A 
ATOM      4  C   UNL     1      87.171  32.530  67.071  1.00  0.00     0.008 A 
ATOM      5  C   UNL     1      87.098  32.562  65.670  1.00  0.00    -0.040 A 
ATOM      6  C   UNL     1      85.874  32.294  65.037  1.00  0.00     0.054 A 
ENDROOT
BRANCH   1   7
ATOM      7  O   UNL     1      83.489  31.701  65.199  1.00  0.00    -0.493 OA
ATOM      8  C   UNL     1      83.098  30.423  64.710  1.00  0.00     0.278 C 
ENDBRANCH   1   7
BRANCH   2   9
ATOM      9  O   UNL     1      83.694  31.626  67.951  1.00  0.00    -0.504 OA
ATOM     10  H   UNL     1      82.988  30.984  67.610  1.00  0.00     0.293 HD
ENDBRANCH   2   9
BRANCH   5  11
ATOM     11  C   UNL     1      88.311  32.931  64.859  1.00  0.00     0.062 C 
BRANCH  11  12
ATOM     12  C   UNL     1      88.796  34.307  65.220  1.00  0.00    -0.030 C 
ATOM     13  C   UNL     1      88.100  35.402  64.901  1.00  0.00     0.004 C 
ENDBRANCH  11  12
ENDBRANCH   5  11
TORSDOF 4
ENDMDL
MODEL 2
REMARK VINA RESULT:    -4.365     16.162     17.577
REMARK INTER + INTRA:          -5.543
REMARK INTER:                  -5.327
REMARK INTRA:                  -0.216
REMARK UNBOUND:                -0.285
REMARK SMILES C=CCc1ccc(O)c(OC)c1
REMARK SMILES IDX 9 1 7 2 6 3 5 4 4 5 12 6 10 7 11 8 8 9 3 11 2 12 1 13
REMARK H PARENT 8 10
REMARK Flexibility Score: inf
ROOT
ATOM      1  C   UNL     1      75.990  34.162  52.485  1.00  0.00     0.160 A 
ATOM      2  C   UNL     1      75.734  35.459  52.013  1.00  0.00     0.157 A 
ATOM      3  C   UNL     1      74.539  36.107  52.349  1.00  0.00     0.050 A 
ATOM      4  C   UNL     1      73.594  35.468  53.154  1.00  0.00     0.008 A 
ATOM      5  C   UNL     1      73.829  34.167  53.625  1.00  0.00    -0.040 A 
ATOM      6  C   UNL     1      75.032  33.522  53.295  1.00  0.00     0.054 A 
ENDROOT
BRANCH   1   7
ATOM      7  O   UNL     1      77.202  33.549  52.131  1.00  0.00    -0.493 OA
ATOM      8  C   UNL     1      77.561  32.216  52.477  1.00  0.00     0.278 C 
ENDBRANCH   1   7
BRANCH   2   9
ATOM      9  O   UNL     1      76.677  36.098  51.209  1.00  0.00    -0.504 OA
ATOM     10  H   UNL     1      77.035  37.017  51.441  1.00  0.00     0.293 HD
ENDBRANCH   2   9
BRANCH   5  11
ATOM     11  C   UNL     1      72.822  33.493  54.518  1.00  0.00     0.062 C 
BRANCH  11  12
ATOM     12  C   UNL     1      72.893  34.045  55.914  1.00  0.00    -0.030 C 
ATOM     13  C   UNL     1      71.842  34.635  56.491  1.00  0.00     0.004 C 
ENDBRANCH  11  12
ENDBRANCH   5  11
TORSDOF 4
ENDMDL
MODEL 3
REMARK VINA RESULT:    -4.333      1.152      1.930
REMARK INTER + INTRA:          -5.505
REMARK INTER:                  -5.230
REMARK INTRA:                  -0.274
REMARK UNBOUND:                -0.285
REMARK SMILES C=CCc1ccc(O)c(OC)c1
REMARK SMILES IDX 9 1 7 2 6 3 5 4 4 5 12 6 10 7 11 8 8 9 3 11 2 12 1 13
REMARK H PARENT 8 10
REMARK Flexibility Score: inf
ROOT
ATOM      1  C   UNL     1      84.912  31.888  65.740  1.00  0.00     0.160 A 
ATOM      2  C   UNL     1      85.094  31.971  67.128  1.00  0.00     0.157 A 
ATOM      3  C   UNL     1      86.373  32.178  67.659  1.00  0.00     0.050 A 
ATOM      4  C   UNL     1      87.475  32.301  66.812  1.00  0.00     0.008 A 
ATOM      5  C   UNL     1      87.312  32.210  65.421  1.00  0.00    -0.040 A 
ATOM      6  C   UNL     1      86.028  32.012  64.889  1.00  0.00     0.054 A 
ENDROOT
BRANCH   1   7
ATOM      7  O   UNL     1      83.613  31.687  65.246  1.00  0.00    -0.493 OA
ATOM      8  C   UNL     1      83.107  30.435  64.796  1.00  0.00     0.278 C 
ENDBRANCH   1   7
BRANCH   2   9
ATOM      9  O   UNL     1      83.993  31.848  67.975  1.00  0.00    -0.504 OA
ATOM     10  H   UNL     1      83.551  30.952  68.143  1.00  0.00     0.293 HD
ENDBRANCH   2   9
BRANCH   5  11
ATOM     11  C   UNL     1      88.498  32.374  64.509  1.00  0.00     0.062 C 
BRANCH  11  12
ATOM     12  C   UNL     1      88.722  31.130  63.696  1.00  0.00    -0.030 C 
ATOM     13  C   UNL     1      89.125  29.986  64.259  1.00  0.00     0.004 C 
ENDBRANCH  11  12
ENDBRANCH   5  11
TORSDOF 4
ENDMDL
MODEL 4
REMARK VINA RESULT:    -4.328      2.027      4.491
REMARK INTER + INTRA:          -5.498
REMARK INTER:                  -5.277
REMARK INTRA:                  -0.221
REMARK UNBOUND:                -0.285
REMARK SMILES C=CCc1ccc(O)c(OC)c1
REMARK SMILES IDX 9 1 7 2 6 3 5 4 4 5 12 6 10 7 11 8 8 9 3 11 2 12 1 13
REMARK H PARENT 8 10
REMARK Flexibility Score: inf
ROOT
ATOM      1  C   UNL     1      87.075  32.468  65.886  1.00  0.00     0.160 A 
ATOM      2  C   UNL     1      86.941  32.390  67.281  1.00  0.00     0.157 A 
ATOM      3  C   UNL     1      85.690  32.131  67.854  1.00  0.00     0.050 A 
ATOM      4  C   UNL     1      84.568  31.951  67.043  1.00  0.00     0.008 A 
ATOM      5  C   UNL     1      84.682  32.038  65.647  1.00  0.00    -0.040 A 
ATOM      6  C   UNL     1      85.938  32.288  65.073  1.00  0.00     0.054 A 
ENDROOT
BRANCH   1   7
ATOM      7  O   UNL     1      88.347  32.723  65.349  1.00  0.00    -0.493 OA
ATOM      8  C   UNL     1      88.873  34.023  65.106  1.00  0.00     0.278 C 
ENDBRANCH   1   7
BRANCH   2   9
ATOM      9  O   UNL     1      88.062  32.568  68.091  1.00  0.00    -0.504 OA
ATOM     10  H   UNL     1      88.807  31.882  68.123  1.00  0.00     0.293 HD
ENDBRANCH   2   9
BRANCH   5  11
ATOM     11  C   UNL     1      83.476  31.814  64.776  1.00  0.00     0.062 C 
BRANCH  11  12
ATOM     12  C   UNL     1      83.067  30.368  64.792  1.00  0.00    -0.030 C 
ATOM     13  C   UNL     1      83.900  29.399  64.401  1.00  0.00     0.004 C 
ENDBRANCH  11  12
ENDBRANCH   5  11
TORSDOF 4
ENDMDL
MODEL 5
REMARK VINA RESULT:    -4.288      1.301      1.938
REMARK INTER + INTRA:          -5.450
REMARK INTER:                  -5.171
REMARK INTRA:                  -0.279
REMARK UNBOUND:                -0.285
REMARK SMILES C=CCc1ccc(O)c(OC)c1
REMARK SMILES IDX 9 1 7 2 6 3 5 4 4 5 12 6 10 7 11 8 8 9 3 11 2 12 1 13
REMARK H PARENT 8 10
REMARK Flexibility Score: inf
ROOT
ATOM      1  C   UNL     1      84.126  31.603  65.777  1.00  0.00     0.160 A 
ATOM      2  C   UNL     1      83.717  31.656  67.118  1.00  0.00     0.157 A 
ATOM      3  C   UNL     1      84.602  32.100  68.107  1.00  0.00     0.050 A 
ATOM      4  C   UNL     1      85.898  32.493  67.766  1.00  0.00     0.008 A 
ATOM      5  C   UNL     1      86.327  32.436  66.431  1.00  0.00    -0.040 A 
ATOM      6  C   UNL     1      85.435  31.999  65.439  1.00  0.00     0.054 A 
ENDROOT
BRANCH   1   7
ATOM      7  O   UNL     1      83.206  31.158  64.813  1.00  0.00    -0.493 OA
ATOM      8  C   UNL     1      83.171  29.838  64.284  1.00  0.00     0.278 C 
ENDBRANCH   1   7
BRANCH   2   9
ATOM      9  O   UNL     1      82.422  31.264  67.458  1.00  0.00    -0.504 OA
ATOM     10  H   UNL     1      81.611  31.667  67.005  1.00  0.00     0.293 HD
ENDBRANCH   2   9
BRANCH   5  11
ATOM     11  C   UNL     1      87.715  32.888  66.064  1.00  0.00     0.062 C 
BRANCH  11  12
ATOM     12  C   UNL     1      88.750  32.002  66.700  1.00  0.00    -0.030 C 
ATOM     13  C   UNL     1      88.818  30.696  66.427  1.00  0.00     0.004 C 
ENDBRANCH  11  12
ENDBRANCH   5  11
TORSDOF 4
ENDMDL
MODEL 6
REMARK VINA RESULT:    -4.250      2.481      4.443
REMARK INTER + INTRA:          -5.404
REMARK INTER:                  -5.244
REMARK INTRA:                  -0.160
REMARK UNBOUND:                -0.285
REMARK SMILES C=CCc1ccc(O)c(OC)c1
REMARK SMILES IDX 9 1 7 2 6 3 5 4 4 5 12 6 10 7 11 8 8 9 3 11 2 12 1 13
REMARK H PARENT 8 10
REMARK Flexibility Score: inf
ROOT
ATOM      1  C   UNL     1      87.405  32.158  65.366  1.00  0.00     0.160 A 
ATOM      2  C   UNL     1      87.508  32.153  66.765  1.00  0.00     0.157 A 
ATOM      3  C   UNL     1      86.355  32.070  67.555  1.00  0.00     0.050 A 
ATOM      4  C   UNL     1      85.095  31.994  66.957  1.00  0.00     0.008 A 
ATOM      5  C   UNL     1      84.975  32.010  65.559  1.00  0.00    -0.040 A 
ATOM      6  C   UNL     1      86.132  32.084  64.767  1.00  0.00     0.054 A 
ENDROOT
BRANCH   1   7
ATOM      7  O   UNL     1      88.585  32.236  64.609  1.00  0.00    -0.493 OA
ATOM      8  C   UNL     1      89.020  31.240  63.690  1.00  0.00     0.278 C 
ENDBRANCH   1   7
BRANCH   2   9
ATOM      9  O   UNL     1      88.765  32.228  67.364  1.00  0.00    -0.504 OA
ATOM     10  H   UNL     1      89.298  33.089  67.370  1.00  0.00     0.293 HD
ENDBRANCH   2   9
BRANCH   5  11
ATOM     11  C   UNL     1      83.618  31.899  64.917  1.00  0.00     0.062 C 
BRANCH  11  12
ATOM     12  C   UNL     1      83.154  30.469  64.896  1.00  0.00    -0.030 C 
ATOM     13  C   UNL     1      83.912  29.492  64.388  1.00  0.00     0.004 C 
ENDBRANCH  11  12
ENDBRANCH   5  11
TORSDOF 4
ENDMDL
MODEL 7
REMARK VINA RESULT:    -4.032      2.732      3.471
REMARK INTER + INTRA:          -5.142
REMARK INTER:                  -4.902
REMARK INTRA:                  -0.240
REMARK UNBOUND:                -0.285
REMARK SMILES C=CCc1ccc(O)c(OC)c1
REMARK SMILES IDX 9 1 7 2 6 3 5 4 4 5 12 6 10 7 11 8 8 9 3 11 2 12 1 13
REMARK H PARENT 8 10
REMARK Flexibility Score: inf
ROOT
ATOM      1  C   UNL     1      85.605  31.295  66.078  1.00  0.00     0.160 A 
ATOM      2  C   UNL     1      86.257  31.847  67.192  1.00  0.00     0.157 A 
ATOM      3  C   UNL     1      87.635  31.665  67.362  1.00  0.00     0.050 A 
ATOM      4  C   UNL     1      88.369  30.933  66.427  1.00  0.00     0.008 A 
ATOM      5  C   UNL     1      87.731  30.365  65.314  1.00  0.00    -0.040 A 
ATOM      6  C   UNL     1      86.351  30.555  65.139  1.00  0.00     0.054 A 
ENDROOT
BRANCH   1   7
ATOM      7  O   UNL     1      84.224  31.505  65.939  1.00  0.00    -0.493 OA
ATOM      8  C   UNL     1      83.597  31.981  64.754  1.00  0.00     0.278 C 
ENDBRANCH   1   7
BRANCH   2   9
ATOM      9  O   UNL     1      85.524  32.578  68.125  1.00  0.00    -0.504 OA
ATOM     10  H   UNL     1      85.937  33.349  68.637  1.00  0.00     0.293 HD
ENDBRANCH   2   9
BRANCH   5  11
ATOM     11  C   UNL     1      88.531  29.602  64.293  1.00  0.00     0.062 C 
BRANCH  11  12
ATOM     12  C   UNL     1      88.834  28.213  64.783  1.00  0.00    -0.030 C 
ATOM     13  C   UNL     1      88.117  27.157  64.387  1.00  0.00     0.004 C 
ENDBRANCH  11  12
ENDBRANCH   5  11
TORSDOF 4
ENDMDL
MODEL 8
REMARK VINA RESULT:    -3.975      1.733      2.267
REMARK INTER + INTRA:          -5.073
REMARK INTER:                  -4.858
REMARK INTRA:                  -0.215
REMARK UNBOUND:                -0.285
REMARK SMILES C=CCc1ccc(O)c(OC)c1
REMARK SMILES IDX 9 1 7 2 6 3 5 4 4 5 12 6 10 7 11 8 8 9 3 11 2 12 1 13
REMARK H PARENT 8 10
REMARK Flexibility Score: inf
ROOT
ATOM      1  C   UNL     1      85.724  31.314  65.726  1.00  0.00     0.160 A 
ATOM      2  C   UNL     1      86.340  30.168  65.201  1.00  0.00     0.157 A 
ATOM      3  C   UNL     1      87.736  30.091  65.125  1.00  0.00     0.050 A 
ATOM      4  C   UNL     1      88.525  31.153  65.571  1.00  0.00     0.008 A 
ATOM      5  C   UNL     1      87.925  32.311  66.088  1.00  0.00    -0.040 A 
ATOM      6  C   UNL     1      86.525  32.384  66.172  1.00  0.00     0.054 A 
ENDROOT
BRANCH   1   7
ATOM      7  O   UNL     1      84.322  31.350  65.790  1.00  0.00    -0.493 OA
ATOM      8  C   UNL     1      83.487  31.964  64.816  1.00  0.00     0.278 C 
ENDBRANCH   1   7
BRANCH   2   9
ATOM      9  O   UNL     1      85.553  29.106  64.756  1.00  0.00    -0.504 OA
ATOM     10  H   UNL     1      84.610  29.251  64.417  1.00  0.00     0.293 HD
ENDBRANCH   2   9
BRANCH   5  11
ATOM     11  C   UNL     1      88.779  33.442  66.595  1.00  0.00     0.062 C 
BRANCH  11  12
ATOM     12  C   UNL     1      89.125  34.390  65.480  1.00  0.00    -0.030 C 
ATOM     13  C   UNL     1      88.290  35.362  65.101  1.00  0.00     0.004 C 
ENDBRANCH  11  12
ENDBRANCH   5  11
TORSDOF 4
ENDMDL
MODEL 9
REMARK VINA RESULT:    -3.907      2.512      3.208
REMARK INTER + INTRA:          -4.990
REMARK INTER:                  -4.768
REMARK INTRA:                  -0.223
REMARK UNBOUND:                -0.285
REMARK SMILES C=CCc1ccc(O)c(OC)c1
REMARK SMILES IDX 9 1 7 2 6 3 5 4 4 5 12 6 10 7 11 8 8 9 3 11 2 12 1 13
REMARK H PARENT 8 10
REMARK Flexibility Score: inf
ROOT
ATOM      1  C   UNL     1      87.277  30.059  65.140  1.00  0.00     0.160 A 
ATOM      2  C   UNL     1      85.883  30.215  65.131  1.00  0.00     0.157 A 
ATOM      3  C   UNL     1      85.308  31.433  65.515  1.00  0.00     0.050 A 
ATOM      4  C   UNL     1      86.118  32.499  65.910  1.00  0.00     0.008 A 
ATOM      5  C   UNL     1      87.514  32.356  65.935  1.00  0.00    -0.040 A 
ATOM      6  C   UNL     1      88.089  31.138  65.542  1.00  0.00     0.054 A 
ENDROOT
BRANCH   1   7
ATOM      7  O   UNL     1      87.815  28.824  64.742  1.00  0.00    -0.493 OA
ATOM      8  C   UNL     1      89.125  28.374  65.067  1.00  0.00     0.278 C 
ENDBRANCH   1   7
BRANCH   2   9
ATOM      9  O   UNL     1      85.073  29.150  64.736  1.00  0.00    -0.504 OA
ATOM     10  H   UNL     1      85.390  28.190  64.805  1.00  0.00     0.293 HD
ENDBRANCH   2   9
BRANCH   5  11
ATOM     11  C   UNL     1      88.384  33.518  66.333  1.00  0.00     0.062 C 
BRANCH  11  12
ATOM     12  C   UNL     1      88.737  34.355  65.136  1.00  0.00    -0.030 C 
ATOM     13  C   UNL     1      88.022  35.432  64.797  1.00  0.00     0.004 C 
ENDBRANCH  11  12
ENDBRANCH   5  11
TORSDOF 4
ENDMDL
