MODEL 1
REMARK VINA RESULT:    -4.890      0.000      0.000
REMARK INTER + INTRA:          -5.482
REMARK INTER:                  -5.319
REMARK INTRA:                  -0.163
REMARK UNBOUND:                -0.163
REMARK SMILES C=C(C)[C@@H]1CC[C@@H](C)C[C@@H]1O
REMARK SMILES IDX 8 1 7 2 6 3 5 4 4 5 10 6 9 7 11 8 2 10 1 11 3 12
REMARK H PARENT 11 9
REMARK Flexibility Score: inf
ROOT
ATOM      1  C   UNL     1     113.385 122.625 127.663  1.00  0.00     0.008 C 
ATOM      2  C   UNL     1     114.571 122.692 128.640  1.00  0.00    -0.012 C 
ATOM      3  C   UNL     1     115.050 121.291 129.059  1.00  0.00     0.004 C 
ATOM      4  C   UNL     1     114.084 120.591 130.027  1.00  0.00     0.011 C 
ATOM      5  C   UNL     1     113.653 121.452 131.236  1.00  0.00     0.043 C 
ATOM      6  C   UNL     1     113.279 122.910 130.853  1.00  0.00     0.121 C 
ATOM      7  C   UNL     1     114.261 123.572 129.866  1.00  0.00     0.035 C 
ENDROOT
BRANCH   6   8
ATOM      8  O   UNL     1     113.164 123.694 132.013  1.00  0.00    -0.392 OA
ATOM      9  H   UNL     1     113.202 123.075 132.788  1.00  0.00     0.210 HD
ENDBRANCH   6   8
BRANCH   5  10
ATOM     10  C   UNL     1     114.605 121.327 132.433  1.00  0.00    -0.075 C 
ATOM     11  C   UNL     1     114.199 120.683 133.542  1.00  0.00     0.008 C 
ATOM     12  C   UNL     1     116.004 121.892 132.435  1.00  0.00     0.039 C 
ENDBRANCH   5  10
TORSDOF 2
ENDMDL
MODEL 2
REMARK VINA RESULT:    -4.742      1.828      4.504
REMARK INTER + INTRA:          -5.321
REMARK INTER:                  -5.236
REMARK INTRA:                  -0.085
REMARK UNBOUND:                -0.163
REMARK SMILES C=C(C)[C@@H]1CC[C@@H](C)C[C@@H]1O
REMARK SMILES IDX 8 1 7 2 6 3 5 4 4 5 10 6 9 7 11 8 2 10 1 11 3 12
REMARK H PARENT 11 9
REMARK Flexibility Score: inf
ROOT
ATOM      1  C   UNL     1     116.246 119.626 134.818  1.00  0.00     0.008 C 
ATOM      2  C   UNL     1     115.620 120.944 134.335  1.00  0.00    -0.012 C 
ATOM      3  C   UNL     1     114.115 120.795 134.048  1.00  0.00     0.004 C 
ATOM      4  C   UNL     1     113.824 120.000 132.767  1.00  0.00     0.011 C 
ATOM      5  C   UNL     1     114.616 120.473 131.526  1.00  0.00     0.043 C 
ATOM      6  C   UNL     1     116.116 120.747 131.820  1.00  0.00     0.121 C 
ATOM      7  C   UNL     1     116.369 121.530 133.123  1.00  0.00     0.035 C 
ENDROOT
BRANCH   6   8
ATOM      8  O   UNL     1     116.700 121.423 130.734  1.00  0.00    -0.392 OA
ATOM      9  H   UNL     1     117.433 120.846 130.393  1.00  0.00     0.210 HD
ENDBRANCH   6   8
BRANCH   5  10
ATOM     10  C   UNL     1     113.902 121.585 130.745  1.00  0.00    -0.075 C 
ATOM     11  C   UNL     1     113.719 121.453 129.419  1.00  0.00     0.008 C 
ATOM     12  C   UNL     1     113.375 122.840 131.394  1.00  0.00     0.039 C 
ENDBRANCH   5  10
TORSDOF 2
ENDMDL
MODEL 3
REMARK VINA RESULT:    -4.558      1.836      2.937
REMARK INTER + INTRA:          -5.121
REMARK INTER:                  -5.186
REMARK INTRA:                   0.065
REMARK UNBOUND:                -0.163
REMARK SMILES C=C(C)[C@@H]1CC[C@@H](C)C[C@@H]1O
REMARK SMILES IDX 8 1 7 2 6 3 5 4 4 5 10 6 9 7 11 8 2 10 1 11 3 12
REMARK H PARENT 11 9
REMARK Flexibility Score: inf
ROOT
ATOM      1  C   UNL     1     114.444 122.589 129.647  1.00  0.00     0.008 C 
ATOM      2  C   UNL     1     114.212 122.812 131.151  1.00  0.00    -0.012 C 
ATOM      3  C   UNL     1     115.536 122.963 131.920  1.00  0.00     0.004 C 
ATOM      4  C   UNL     1     116.298 121.638 132.070  1.00  0.00     0.011 C 
ATOM      5  C   UNL     1     115.443 120.462 132.595  1.00  0.00     0.043 C 
ATOM      6  C   UNL     1     114.050 120.362 131.916  1.00  0.00     0.121 C 
ATOM      7  C   UNL     1     113.324 121.714 131.767  1.00  0.00     0.035 C 
ENDROOT
BRANCH   6   8
ATOM      8  O   UNL     1     113.238 119.458 132.623  1.00  0.00    -0.392 OA
ATOM      9  H   UNL     1     112.396 119.359 132.105  1.00  0.00     0.210 HD
ENDBRANCH   6   8
BRANCH   5  10
ATOM     10  C   UNL     1     115.418 120.375 134.127  1.00  0.00    -0.075 C 
ATOM     11  C   UNL     1     116.372 119.677 134.769  1.00  0.00     0.008 C 
ATOM     12  C   UNL     1     114.366 121.047 134.973  1.00  0.00     0.039 C 
ENDBRANCH   5  10
TORSDOF 2
ENDMDL
MODEL 4
REMARK VINA RESULT:    -4.552      1.284      3.764
REMARK INTER + INTRA:          -5.115
REMARK INTER:                  -4.943
REMARK INTRA:                  -0.171
REMARK UNBOUND:                -0.163
REMARK SMILES C=C(C)[C@@H]1CC[C@@H](C)C[C@@H]1O
REMARK SMILES IDX 8 1 7 2 6 3 5 4 4 5 10 6 9 7 11 8 2 10 1 11 3 12
REMARK H PARENT 11 9
REMARK Flexibility Score: inf
ROOT
ATOM      1  C   UNL     1     114.493 120.199 133.081  1.00  0.00     0.008 C 
ATOM      2  C   UNL     1     113.744 120.635 131.811  1.00  0.00    -0.012 C 
ATOM      3  C   UNL     1     114.424 120.109 130.534  1.00  0.00     0.004 C 
ATOM      4  C   UNL     1     115.734 120.841 130.207  1.00  0.00     0.011 C 
ATOM      5  C   UNL     1     115.628 122.383 130.225  1.00  0.00     0.043 C 
ATOM      6  C   UNL     1     114.840 122.932 131.445  1.00  0.00     0.121 C 
ATOM      7  C   UNL     1     113.541 122.161 131.754  1.00  0.00     0.035 C 
ENDROOT
BRANCH   6   8
ATOM      8  O   UNL     1     114.553 124.295 131.255  1.00  0.00    -0.392 OA
ATOM      9  H   UNL     1     114.689 124.489 130.291  1.00  0.00     0.210 HD
ENDBRANCH   6   8
BRANCH   5  10
ATOM     10  C   UNL     1     115.208 122.974 128.872  1.00  0.00    -0.075 C 
ATOM     11  C   UNL     1     116.057 123.777 128.205  1.00  0.00     0.008 C 
ATOM     12  C   UNL     1     113.873 122.693 128.229  1.00  0.00     0.039 C 
ENDBRANCH   5  10
TORSDOF 2
ENDMDL
MODEL 5
REMARK VINA RESULT:    -4.481      1.772      2.579
REMARK INTER + INTRA:          -5.037
REMARK INTER:                  -4.869
REMARK INTRA:                  -0.168
REMARK UNBOUND:                -0.163
REMARK SMILES C=C(C)[C@@H]1CC[C@@H](C)C[C@@H]1O
REMARK SMILES IDX 8 1 7 2 6 3 5 4 4 5 10 6 9 7 11 8 2 10 1 11 3 12
REMARK H PARENT 11 9
REMARK Flexibility Score: inf
ROOT
ATOM      1  C   UNL     1     114.364 123.379 128.460  1.00  0.00     0.008 C 
ATOM      2  C   UNL     1     113.733 122.244 129.283  1.00  0.00    -0.012 C 
ATOM      3  C   UNL     1     113.037 122.770 130.550  1.00  0.00     0.004 C 
ATOM      4  C   UNL     1     114.026 123.223 131.634  1.00  0.00     0.011 C 
ATOM      5  C   UNL     1     115.138 122.198 131.956  1.00  0.00     0.043 C 
ATOM      6  C   UNL     1     115.774 121.562 130.690  1.00  0.00     0.121 C 
ATOM      7  C   UNL     1     114.752 121.137 129.618  1.00  0.00     0.035 C 
ENDROOT
BRANCH   6   8
ATOM      8  O   UNL     1     116.568 120.461 131.056  1.00  0.00    -0.392 OA
ATOM      9  H   UNL     1     117.323 120.421 130.412  1.00  0.00     0.210 HD
ENDBRANCH   6   8
BRANCH   5  10
ATOM     10  C   UNL     1     114.733 121.194 133.044  1.00  0.00    -0.075 C 
ATOM     11  C   UNL     1     115.334 121.239 134.246  1.00  0.00     0.008 C 
ATOM     12  C   UNL     1     113.672 120.142 132.841  1.00  0.00     0.039 C 
ENDBRANCH   5  10
TORSDOF 2
ENDMDL
MODEL 6
REMARK VINA RESULT:    -4.431      2.385      4.863
REMARK INTER + INTRA:          -4.983
REMARK INTER:                  -4.815
REMARK INTRA:                  -0.168
REMARK UNBOUND:                -0.163
REMARK SMILES C=C(C)[C@@H]1CC[C@@H](C)C[C@@H]1O
REMARK SMILES IDX 8 1 7 2 6 3 5 4 4 5 10 6 9 7 11 8 2 10 1 11 3 12
REMARK H PARENT 11 9
REMARK Flexibility Score: inf
ROOT
ATOM      1  C   UNL     1     118.543 120.577 134.920  1.00  0.00     0.008 C 
ATOM      2  C   UNL     1     117.542 119.873 133.989  1.00  0.00    -0.012 C 
ATOM      3  C   UNL     1     117.595 120.436 132.557  1.00  0.00     0.004 C 
ATOM      4  C   UNL     1     116.969 121.833 132.438  1.00  0.00     0.011 C 
ATOM      5  C   UNL     1     115.564 121.962 133.069  1.00  0.00     0.043 C 
ATOM      6  C   UNL     1     115.453 121.294 134.467  1.00  0.00     0.121 C 
ATOM      7  C   UNL     1     116.109 119.902 134.553  1.00  0.00     0.035 C 
ENDROOT
BRANCH   6   8
ATOM      8  O   UNL     1     114.104 121.212 134.852  1.00  0.00    -0.392 OA
ATOM      9  H   UNL     1     113.985 121.820 135.628  1.00  0.00     0.210 HD
ENDBRANCH   6   8
BRANCH   5  10
ATOM     10  C   UNL     1     114.433 121.605 132.096  1.00  0.00    -0.075 C 
ATOM     11  C   UNL     1     113.604 122.569 131.657  1.00  0.00     0.008 C 
ATOM     12  C   UNL     1     114.195 120.205 131.586  1.00  0.00     0.039 C 
ENDBRANCH   5  10
TORSDOF 2
ENDMDL
MODEL 7
REMARK VINA RESULT:    -4.429      1.758      4.105
REMARK INTER + INTRA:          -4.981
REMARK INTER:                  -4.812
REMARK INTRA:                  -0.169
REMARK UNBOUND:                -0.163
REMARK SMILES C=C(C)[C@@H]1CC[C@@H](C)C[C@@H]1O
REMARK SMILES IDX 8 1 7 2 6 3 5 4 4 5 10 6 9 7 11 8 2 10 1 11 3 12
REMARK H PARENT 11 9
REMARK Flexibility Score: inf
ROOT
ATOM      1  C   UNL     1     115.130 120.498 133.301  1.00  0.00     0.008 C 
ATOM      2  C   UNL     1     115.807 121.188 132.106  1.00  0.00    -0.012 C 
ATOM      3  C   UNL     1     115.443 122.681 132.022  1.00  0.00     0.004 C 
ATOM      4  C   UNL     1     114.001 122.922 131.552  1.00  0.00     0.011 C 
ATOM      5  C   UNL     1     113.606 122.148 130.273  1.00  0.00     0.043 C 
ATOM      6  C   UNL     1     114.070 120.666 130.283  1.00  0.00     0.121 C 
ATOM      7  C   UNL     1     115.516 120.462 130.778  1.00  0.00     0.035 C 
ENDROOT
BRANCH   6   8
ATOM      8  O   UNL     1     113.922 120.110 129.000  1.00  0.00    -0.392 OA
ATOM      9  H   UNL     1     113.494 120.803 128.431  1.00  0.00     0.210 HD
ENDBRANCH   6   8
BRANCH   5  10
ATOM     10  C   UNL     1     113.930 122.913 128.983  1.00  0.00    -0.075 C 
ATOM     11  C   UNL     1     112.927 123.377 128.216  1.00  0.00     0.008 C 
ATOM     12  C   UNL     1     115.338 123.187 128.518  1.00  0.00     0.039 C 
ENDBRANCH   5  10
TORSDOF 2
ENDMDL
MODEL 8
REMARK VINA RESULT:    -4.346      1.846      3.130
REMARK INTER + INTRA:          -4.891
REMARK INTER:                  -4.745
REMARK INTRA:                  -0.146
REMARK UNBOUND:                -0.163
REMARK SMILES C=C(C)[C@@H]1CC[C@@H](C)C[C@@H]1O
REMARK SMILES IDX 8 1 7 2 6 3 5 4 4 5 10 6 9 7 11 8 2 10 1 11 3 12
REMARK H PARENT 11 9
REMARK Flexibility Score: inf
ROOT
ATOM      1  C   UNL     1     115.252 119.044 128.549  1.00  0.00     0.008 C 
ATOM      2  C   UNL     1     114.169 119.908 129.215  1.00  0.00    -0.012 C 
ATOM      3  C   UNL     1     114.085 121.310 128.585  1.00  0.00     0.004 C 
ATOM      4  C   UNL     1     115.268 122.212 128.967  1.00  0.00     0.011 C 
ATOM      5  C   UNL     1     115.570 122.265 130.483  1.00  0.00     0.043 C 
ATOM      6  C   UNL     1     115.541 120.870 131.165  1.00  0.00     0.121 C 
ATOM      7  C   UNL     1     114.350 119.987 130.743  1.00  0.00     0.035 C 
ENDROOT
BRANCH   6   8
ATOM      8  O   UNL     1     115.552 121.022 132.563  1.00  0.00    -0.392 OA
ATOM      9  H   UNL     1     116.502 121.121 132.837  1.00  0.00     0.210 HD
ENDBRANCH   6   8
BRANCH   5  10
ATOM     10  C   UNL     1     114.777 123.354 131.216  1.00  0.00    -0.075 C 
ATOM     11  C   UNL     1     115.404 124.472 131.624  1.00  0.00     0.008 C 
ATOM     12  C   UNL     1     113.301 123.245 131.507  1.00  0.00     0.039 C 
ENDBRANCH   5  10
TORSDOF 2
ENDMDL
MODEL 9
REMARK VINA RESULT:    -4.305      1.664      2.395
REMARK INTER + INTRA:          -4.846
REMARK INTER:                  -4.707
REMARK INTRA:                  -0.138
REMARK UNBOUND:                -0.163
REMARK SMILES C=C(C)[C@@H]1CC[C@@H](C)C[C@@H]1O
REMARK SMILES IDX 8 1 7 2 6 3 5 4 4 5 10 6 9 7 11 8 2 10 1 11 3 12
REMARK H PARENT 11 9
REMARK Flexibility Score: inf
ROOT
ATOM      1  C   UNL     1     115.298 125.277 129.071  1.00  0.00     0.008 C 
ATOM      2  C   UNL     1     115.402 123.757 128.860  1.00  0.00    -0.012 C 
ATOM      3  C   UNL     1     114.017 123.094 128.762  1.00  0.00     0.004 C 
ATOM      4  C   UNL     1     113.290 123.019 130.113  1.00  0.00     0.011 C 
ATOM      5  C   UNL     1     114.140 122.439 131.267  1.00  0.00     0.043 C 
ATOM      6  C   UNL     1     115.585 123.006 131.313  1.00  0.00     0.121 C 
ATOM      7  C   UNL     1     116.275 123.083 129.937  1.00  0.00     0.035 C 
ENDROOT
BRANCH   6   8
ATOM      8  O   UNL     1     116.368 122.247 132.199  1.00  0.00    -0.392 OA
ATOM      9  H   UNL     1     115.761 121.916 132.913  1.00  0.00     0.210 HD
ENDBRANCH   6   8
BRANCH   5  10
ATOM     10  C   UNL     1     114.046 120.911 131.373  1.00  0.00    -0.075 C 
ATOM     11  C   UNL     1     113.640 120.348 132.525  1.00  0.00     0.008 C 
ATOM     12  C   UNL     1     114.385 119.984 130.232  1.00  0.00     0.039 C 
ENDBRANCH   5  10
TORSDOF 2
ENDMDL
