MODEL 1
REMARK VINA RESULT:    -4.535      0.000      0.000
REMARK INTER + INTRA:          -9.750
REMARK INTER:                  -8.511
REMARK INTRA:                  -1.239
REMARK UNBOUND:                -1.239
REMARK SMILES CCCCCCCCC=CCCCCCCCC(=O)[O-]
REMARK SMILES IDX 10 1 9 2 11 3 12 4 13 5 14 6 15 7 16 8 17 9 18 10 19 11
REMARK SMILES IDX 20 12 8 13 7 14 6 15 5 16 4 17 3 18 2 19 1 20
REMARK H PARENT
REMARK Flexibility Score: inf
ROOT
ATOM      1  C   UNL     1     -42.973  27.840   0.074  1.00  0.00    -0.031 C 
ATOM      2  C   UNL     1     -43.963  27.139  -0.513  1.00  0.00    -0.031 C 
ENDROOT
BRANCH   1   3
ATOM      3  C   UNL     1     -43.125  29.204   0.700  1.00  0.00     0.027 C 
BRANCH   3   4
ATOM      4  C   UNL     1     -43.053  29.129   2.233  1.00  0.00     0.004 C 
BRANCH   4   5
ATOM      5  C   UNL     1     -44.438  29.203   2.895  1.00  0.00     0.000 C 
BRANCH   5   6
ATOM      6  C   UNL     1     -45.139  27.838   2.958  1.00  0.00     0.000 C 
BRANCH   6   7
ATOM      7  C   UNL     1     -44.512  26.949   4.042  1.00  0.00     0.000 C 
BRANCH   7   8
ATOM      8  C   UNL     1     -44.740  27.497   5.465  1.00  0.00     0.006 C 
BRANCH   8   9
ATOM      9  C   UNL     1     -43.597  27.174   6.442  1.00  0.00     0.053 C 
BRANCH   9  10
ATOM     10  C   UNL     1     -42.717  28.356   6.705  1.00  0.00     0.041 C 
ATOM     11  O   UNL     1     -41.948  28.363   7.701  1.00  0.00    -0.550 OA
ATOM     12  O   UNL     1     -42.735  29.443   5.840  1.00  0.00    -0.550 OA
ENDBRANCH   9  10
ENDBRANCH   8   9
ENDBRANCH   7   8
ENDBRANCH   6   7
ENDBRANCH   5   6
ENDBRANCH   4   5
ENDBRANCH   3   4
ENDBRANCH   1   3
BRANCH   2  13
ATOM     13  C   UNL     1     -45.403  27.586  -0.631  1.00  0.00     0.027 C 
BRANCH  13  14
ATOM     14  C   UNL     1     -45.903  27.551  -2.086  1.00  0.00     0.004 C 
BRANCH  14  15
ATOM     15  C   UNL     1     -46.182  26.143  -2.647  1.00  0.00     0.000 C 
BRANCH  15  16
ATOM     16  C   UNL     1     -47.088  26.164  -3.890  1.00  0.00     0.000 C 
BRANCH  16  17
ATOM     17  C   UNL     1     -46.573  27.112  -4.989  1.00  0.00    -0.000 C 
BRANCH  17  18
ATOM     18  C   UNL     1     -45.954  26.421  -6.221  1.00  0.00    -0.000 C 
BRANCH  18  19
ATOM     19  C   UNL     1     -45.636  27.356  -7.401  1.00  0.00    -0.003 C 
ATOM     20  C   UNL     1     -45.316  28.784  -6.960  1.00  0.00     0.004 C 
ENDBRANCH  18  19
ENDBRANCH  17  18
ENDBRANCH  16  17
ENDBRANCH  15  16
ENDBRANCH  14  15
ENDBRANCH  13  14
ENDBRANCH   2  13
TORSDOF 15
ENDMDL
MODEL 2
REMARK VINA RESULT:    -4.534      1.193      1.805
REMARK INTER + INTRA:          -9.749
REMARK INTER:                  -8.838
REMARK INTRA:                  -0.911
REMARK UNBOUND:                -1.239
REMARK SMILES CCCCCCCCC=CCCCCCCCC(=O)[O-]
REMARK SMILES IDX 10 1 9 2 11 3 12 4 13 5 14 6 15 7 16 8 17 9 18 10 19 11
REMARK SMILES IDX 20 12 8 13 7 14 6 15 5 16 4 17 3 18 2 19 1 20
REMARK H PARENT
REMARK Flexibility Score: inf
ROOT
ATOM      1  C   UNL     1     -43.419  27.493   1.111  1.00  0.00    -0.031 C 
ATOM      2  C   UNL     1     -43.625  27.428  -0.220  1.00  0.00    -0.031 C 
ENDROOT
BRANCH   1   3
ATOM      3  C   UNL     1     -44.502  27.494   2.160  1.00  0.00     0.027 C 
BRANCH   3   4
ATOM      4  C   UNL     1     -43.932  27.802   3.554  1.00  0.00     0.004 C 
BRANCH   4   5
ATOM      5  C   UNL     1     -44.485  26.865   4.640  1.00  0.00     0.000 C 
BRANCH   5   6
ATOM      6  C   UNL     1     -45.666  27.478   5.407  1.00  0.00     0.000 C 
BRANCH   6   7
ATOM      7  C   UNL     1     -45.509  27.262   6.920  1.00  0.00     0.000 C 
BRANCH   7   8
ATOM      8  C   UNL     1     -44.977  28.514   7.646  1.00  0.00     0.006 C 
BRANCH   8   9
ATOM      9  C   UNL     1     -43.714  28.251   8.484  1.00  0.00     0.053 C 
BRANCH   9  10
ATOM     10  C   UNL     1     -42.462  28.671   7.780  1.00  0.00     0.041 C 
ATOM     11  O   UNL     1     -42.055  28.029   6.776  1.00  0.00    -0.550 OA
ATOM     12  O   UNL     1     -41.754  29.781   8.222  1.00  0.00    -0.550 OA
ENDBRANCH   9  10
ENDBRANCH   8   9
ENDBRANCH   7   8
ENDBRANCH   6   7
ENDBRANCH   5   6
ENDBRANCH   4   5
ENDBRANCH   3   4
ENDBRANCH   1   3
BRANCH   2  13
ATOM     13  C   UNL     1     -44.976  27.326  -0.893  1.00  0.00     0.027 C 
BRANCH  13  14
ATOM     14  C   UNL     1     -45.144  25.999  -1.654  1.00  0.00     0.004 C 
BRANCH  14  15
ATOM     15  C   UNL     1     -45.959  26.092  -2.958  1.00  0.00     0.000 C 
BRANCH  15  16
ATOM     16  C   UNL     1     -46.371  27.534  -3.303  1.00  0.00     0.000 C 
BRANCH  16  17
ATOM     17  C   UNL     1     -46.656  27.731  -4.804  1.00  0.00    -0.000 C 
BRANCH  17  18
ATOM     18  C   UNL     1     -46.299  26.533  -5.707  1.00  0.00    -0.000 C 
BRANCH  18  19
ATOM     19  C   UNL     1     -45.575  26.897  -7.015  1.00  0.00    -0.003 C 
ATOM     20  C   UNL     1     -45.336  28.399  -7.165  1.00  0.00     0.004 C 
ENDBRANCH  18  19
ENDBRANCH  17  18
ENDBRANCH  16  17
ENDBRANCH  15  16
ENDBRANCH  14  15
ENDBRANCH  13  14
ENDBRANCH   2  13
TORSDOF 15
ENDMDL
MODEL 3
REMARK VINA RESULT:    -4.512      1.955      2.931
REMARK INTER + INTRA:          -9.708
REMARK INTER:                  -8.282
REMARK INTRA:                  -1.426
REMARK UNBOUND:                -1.239
REMARK SMILES CCCCCCCCC=CCCCCCCCC(=O)[O-]
REMARK SMILES IDX 10 1 9 2 11 3 12 4 13 5 14 6 15 7 16 8 17 9 18 10 19 11
REMARK SMILES IDX 20 12 8 13 7 14 6 15 5 16 4 17 3 18 2 19 1 20
REMARK H PARENT
REMARK Flexibility Score: inf
ROOT
ATOM      1  C   UNL     1     -45.714  27.461  -0.232  1.00  0.00    -0.031 C 
ATOM      2  C   UNL     1     -46.292  28.614  -0.623  1.00  0.00    -0.031 C 
ENDROOT
BRANCH   1   3
ATOM      3  C   UNL     1     -44.351  26.982  -0.662  1.00  0.00     0.027 C 
BRANCH   3   4
ATOM      4  C   UNL     1     -43.287  27.283   0.405  1.00  0.00     0.004 C 
BRANCH   4   5
ATOM      5  C   UNL     1     -42.485  28.559   0.097  1.00  0.00     0.000 C 
BRANCH   5   6
ATOM      6  C   UNL     1     -42.630  29.627   1.191  1.00  0.00     0.000 C 
BRANCH   6   7
ATOM      7  C   UNL     1     -43.646  29.188   2.256  1.00  0.00     0.000 C 
BRANCH   7   8
ATOM      8  C   UNL     1     -43.007  29.007   3.647  1.00  0.00     0.006 C 
BRANCH   8   9
ATOM      9  C   UNL     1     -43.867  28.178   4.617  1.00  0.00     0.053 C 
BRANCH   9  10
ATOM     10  C   UNL     1     -44.720  27.173   3.908  1.00  0.00     0.041 C 
ATOM     11  O   UNL     1     -44.207  26.120   3.446  1.00  0.00    -0.550 OA
ATOM     12  O   UNL     1     -46.086  27.390   3.774  1.00  0.00    -0.550 OA
ENDBRANCH   9  10
ENDBRANCH   8   9
ENDBRANCH   7   8
ENDBRANCH   6   7
ENDBRANCH   5   6
ENDBRANCH   4   5
ENDBRANCH   3   4
ENDBRANCH   1   3
BRANCH   2  13
ATOM     13  C   UNL     1     -45.670  29.637  -1.548  1.00  0.00     0.027 C 
BRANCH  13  14
ATOM     14  C   UNL     1     -46.083  29.419  -3.014  1.00  0.00     0.004 C 
BRANCH  14  15
ATOM     15  C   UNL     1     -46.726  28.052  -3.316  1.00  0.00     0.000 C 
BRANCH  15  16
ATOM     16  C   UNL     1     -46.455  27.568  -4.751  1.00  0.00     0.000 C 
BRANCH  16  17
ATOM     17  C   UNL     1     -46.114  28.718  -5.716  1.00  0.00    -0.000 C 
BRANCH  17  18
ATOM     18  C   UNL     1     -45.331  28.309  -6.980  1.00  0.00    -0.000 C 
BRANCH  18  19
ATOM     19  C   UNL     1     -45.506  26.841  -7.409  1.00  0.00    -0.003 C 
ATOM     20  C   UNL     1     -46.714  26.628  -8.321  1.00  0.00     0.004 C 
ENDBRANCH  18  19
ENDBRANCH  17  18
ENDBRANCH  16  17
ENDBRANCH  15  16
ENDBRANCH  14  15
ENDBRANCH  13  14
ENDBRANCH   2  13
TORSDOF 15
ENDMDL
MODEL 4
REMARK VINA RESULT:    -4.454      1.810      2.402
REMARK INTER + INTRA:          -9.600
REMARK INTER:                  -8.472
REMARK INTRA:                  -1.127
REMARK UNBOUND:                -1.239
REMARK SMILES CCCCCCCCC=CCCCCCCCC(=O)[O-]
REMARK SMILES IDX 10 1 9 2 11 3 12 4 13 5 14 6 15 7 16 8 17 9 18 10 19 11
REMARK SMILES IDX 20 12 8 13 7 14 6 15 5 16 4 17 3 18 2 19 1 20
REMARK H PARENT
REMARK Flexibility Score: inf
ROOT
ATOM      1  C   UNL     1     -43.005  27.689   0.494  1.00  0.00    -0.031 C 
ATOM      2  C   UNL     1     -44.030  26.919   0.077  1.00  0.00    -0.031 C 
ENDROOT
BRANCH   1   3
ATOM      3  C   UNL     1     -42.559  28.972  -0.160  1.00  0.00     0.027 C 
BRANCH   3   4
ATOM      4  C   UNL     1     -42.480  30.122   0.856  1.00  0.00     0.004 C 
BRANCH   4   5
ATOM      5  C   UNL     1     -43.303  29.847   2.125  1.00  0.00     0.000 C 
BRANCH   5   6
ATOM      6  C   UNL     1     -42.462  29.937   3.407  1.00  0.00     0.000 C 
BRANCH   6   7
ATOM      7  C   UNL     1     -43.358  29.886   4.654  1.00  0.00     0.000 C 
BRANCH   7   8
ATOM      8  C   UNL     1     -43.370  28.496   5.321  1.00  0.00     0.006 C 
BRANCH   8   9
ATOM      9  C   UNL     1     -44.753  27.824   5.321  1.00  0.00     0.053 C 
BRANCH   9  10
ATOM     10  C   UNL     1     -45.088  27.204   4.001  1.00  0.00     0.041 C 
ATOM     11  O   UNL     1     -46.097  27.594   3.356  1.00  0.00    -0.550 OA
ATOM     12  O   UNL     1     -44.277  26.207   3.474  1.00  0.00    -0.550 OA
ENDBRANCH   9  10
ENDBRANCH   8   9
ENDBRANCH   7   8
ENDBRANCH   6   7
ENDBRANCH   5   6
ENDBRANCH   4   5
ENDBRANCH   3   4
ENDBRANCH   1   3
BRANCH   2  13
ATOM     13  C   UNL     1     -44.923  27.215  -1.107  1.00  0.00     0.027 C 
BRANCH  13  14
ATOM     14  C   UNL     1     -45.327  25.935  -1.862  1.00  0.00     0.004 C 
BRANCH  14  15
ATOM     15  C   UNL     1     -46.566  26.074  -2.767  1.00  0.00     0.000 C 
BRANCH  15  16
ATOM     16  C   UNL     1     -46.447  27.234  -3.770  1.00  0.00     0.000 C 
BRANCH  16  17
ATOM     17  C   UNL     1     -46.979  26.872  -5.169  1.00  0.00    -0.000 C 
BRANCH  17  18
ATOM     18  C   UNL     1     -45.928  26.315  -6.151  1.00  0.00    -0.000 C 
BRANCH  18  19
ATOM     19  C   UNL     1     -45.566  27.251  -7.318  1.00  0.00    -0.003 C 
ATOM     20  C   UNL     1     -46.761  27.573  -8.215  1.00  0.00     0.004 C 
ENDBRANCH  18  19
ENDBRANCH  17  18
ENDBRANCH  16  17
ENDBRANCH  15  16
ENDBRANCH  14  15
ENDBRANCH  13  14
ENDBRANCH   2  13
TORSDOF 15
ENDMDL
MODEL 5
REMARK VINA RESULT:    -4.445      4.654      9.565
REMARK INTER + INTRA:          -9.582
REMARK INTER:                  -7.931
REMARK INTRA:                  -1.652
REMARK UNBOUND:                -1.239
REMARK SMILES CCCCCCCCC=CCCCCCCCC(=O)[O-]
REMARK SMILES IDX 10 1 9 2 11 3 12 4 13 5 14 6 15 7 16 8 17 9 18 10 19 11
REMARK SMILES IDX 20 12 8 13 7 14 6 15 5 16 4 17 3 18 2 19 1 20
REMARK H PARENT
REMARK Flexibility Score: inf
ROOT
ATOM      1  C   UNL     1     -42.950  27.877  -0.134  1.00  0.00    -0.031 C 
ATOM      2  C   UNL     1     -42.573  27.684   1.146  1.00  0.00    -0.031 C 
ENDROOT
BRANCH   1   3
ATOM      3  C   UNL     1     -44.144  28.685  -0.578  1.00  0.00     0.027 C 
BRANCH   3   4
ATOM      4  C   UNL     1     -45.327  27.779  -0.953  1.00  0.00     0.004 C 
BRANCH   4   5
ATOM      5  C   UNL     1     -44.898  26.328  -1.227  1.00  0.00     0.000 C 
BRANCH   5   6
ATOM      6  C   UNL     1     -45.931  25.552  -2.056  1.00  0.00     0.000 C 
BRANCH   6   7
ATOM      7  C   UNL     1     -46.646  26.480  -3.049  1.00  0.00     0.000 C 
BRANCH   7   8
ATOM      8  C   UNL     1     -46.123  26.323  -4.491  1.00  0.00     0.006 C 
BRANCH   8   9
ATOM      9  C   UNL     1     -46.288  27.589  -5.348  1.00  0.00     0.053 C 
BRANCH   9  10
ATOM     10  C   UNL     1     -45.562  27.495  -6.654  1.00  0.00     0.041 C 
ATOM     11  O   UNL     1     -45.371  26.374  -7.193  1.00  0.00    -0.550 OA
ATOM     12  O   UNL     1     -45.111  28.648  -7.284  1.00  0.00    -0.550 OA
ENDBRANCH   9  10
ENDBRANCH   8   9
ENDBRANCH   7   8
ENDBRANCH   6   7
ENDBRANCH   5   6
ENDBRANCH   4   5
ENDBRANCH   3   4
ENDBRANCH   1   3
BRANCH   2  13
ATOM     13  C   UNL     1     -43.268  28.259   2.359  1.00  0.00     0.027 C 
BRANCH  13  14
ATOM     14  C   UNL     1     -44.385  27.336   2.879  1.00  0.00     0.004 C 
BRANCH  14  15
ATOM     15  C   UNL     1     -45.597  28.060   3.497  1.00  0.00     0.000 C 
BRANCH  15  16
ATOM     16  C   UNL     1     -45.218  29.388   4.175  1.00  0.00     0.000 C 
BRANCH  16  17
ATOM     17  C   UNL     1     -44.852  29.216   5.661  1.00  0.00    -0.000 C 
BRANCH  17  18
ATOM     18  C   UNL     1     -43.344  29.278   5.981  1.00  0.00    -0.000 C 
BRANCH  18  19
ATOM     19  C   UNL     1     -42.774  28.029   6.676  1.00  0.00    -0.003 C 
ATOM     20  C   UNL     1     -43.660  26.796   6.502  1.00  0.00     0.004 C 
ENDBRANCH  18  19
ENDBRANCH  17  18
ENDBRANCH  16  17
ENDBRANCH  15  16
ENDBRANCH  14  15
ENDBRANCH  13  14
ENDBRANCH   2  13
TORSDOF 15
ENDMDL
MODEL 6
REMARK VINA RESULT:    -4.231      2.600      3.750
REMARK INTER + INTRA:          -9.181
REMARK INTER:                  -6.581
REMARK INTRA:                  -2.600
REMARK UNBOUND:                -1.239
REMARK SMILES CCCCCCCCC=CCCCCCCCC(=O)[O-]
REMARK SMILES IDX 10 1 9 2 11 3 12 4 13 5 14 6 15 7 16 8 17 9 18 10 19 11
REMARK SMILES IDX 20 12 8 13 7 14 6 15 5 16 4 17 3 18 2 19 1 20
REMARK H PARENT
REMARK Flexibility Score: inf
ROOT
ATOM      1  C   UNL     1     -44.142  27.218   2.496  1.00  0.00    -0.031 C 
ATOM      2  C   UNL     1     -43.368  26.952   1.425  1.00  0.00    -0.031 C 
ENDROOT
BRANCH   1   3
ATOM      3  C   UNL     1     -44.107  28.494   3.299  1.00  0.00     0.027 C 
BRANCH   3   4
ATOM      4  C   UNL     1     -45.420  29.279   3.162  1.00  0.00     0.004 C 
BRANCH   4   5
ATOM      5  C   UNL     1     -46.628  28.515   3.729  1.00  0.00     0.000 C 
BRANCH   5   6
ATOM      6  C   UNL     1     -46.780  28.689   5.247  1.00  0.00     0.000 C 
BRANCH   6   7
ATOM      7  C   UNL     1     -46.801  27.326   5.956  1.00  0.00     0.000 C 
BRANCH   7   8
ATOM      8  C   UNL     1     -45.898  27.292   7.205  1.00  0.00     0.006 C 
BRANCH   8   9
ATOM      9  C   UNL     1     -44.699  28.252   7.125  1.00  0.00     0.053 C 
BRANCH   9  10
ATOM     10  C   UNL     1     -43.436  27.558   6.721  1.00  0.00     0.041 C 
ATOM     11  O   UNL     1     -42.319  28.099   6.934  1.00  0.00    -0.550 OA
ATOM     12  O   UNL     1     -43.491  26.305   6.123  1.00  0.00    -0.550 OA
ENDBRANCH   9  10
ENDBRANCH   8   9
ENDBRANCH   7   8
ENDBRANCH   6   7
ENDBRANCH   5   6
ENDBRANCH   4   5
ENDBRANCH   3   4
ENDBRANCH   1   3
BRANCH   2  13
ATOM     13  C   UNL     1     -42.343  27.891   0.829  1.00  0.00     0.027 C 
BRANCH  13  14
ATOM     14  C   UNL     1     -42.913  28.695  -0.354  1.00  0.00     0.004 C 
BRANCH  14  15
ATOM     15  C   UNL     1     -43.583  30.029   0.025  1.00  0.00     0.000 C 
BRANCH  15  16
ATOM     16  C   UNL     1     -45.040  30.125  -0.460  1.00  0.00     0.000 C 
BRANCH  16  17
ATOM     17  C   UNL     1     -45.384  29.075  -1.532  1.00  0.00    -0.000 C 
BRANCH  17  18
ATOM     18  C   UNL     1     -46.605  28.186  -1.217  1.00  0.00    -0.000 C 
BRANCH  18  19
ATOM     19  C   UNL     1     -46.269  26.752  -0.771  1.00  0.00    -0.003 C 
ATOM     20  C   UNL     1     -45.226  26.080  -1.663  1.00  0.00     0.004 C 
ENDBRANCH  18  19
ENDBRANCH  17  18
ENDBRANCH  16  17
ENDBRANCH  15  16
ENDBRANCH  14  15
ENDBRANCH  13  14
ENDBRANCH   2  13
TORSDOF 15
ENDMDL
MODEL 7
REMARK VINA RESULT:    -4.227      4.593      9.860
REMARK INTER + INTRA:          -9.172
REMARK INTER:                  -7.797
REMARK INTRA:                  -1.375
REMARK UNBOUND:                -1.239
REMARK SMILES CCCCCCCCC=CCCCCCCCC(=O)[O-]
REMARK SMILES IDX 10 1 9 2 11 3 12 4 13 5 14 6 15 7 16 8 17 9 18 10 19 11
REMARK SMILES IDX 20 12 8 13 7 14 6 15 5 16 4 17 3 18 2 19 1 20
REMARK H PARENT
REMARK Flexibility Score: inf
ROOT
ATOM      1  C   UNL     1     -43.196  27.130   1.071  1.00  0.00    -0.031 C 
ATOM      2  C   UNL     1     -43.477  27.544   2.323  1.00  0.00    -0.031 C 
ENDROOT
BRANCH   1   3
ATOM      3  C   UNL     1     -43.408  27.941  -0.182  1.00  0.00     0.027 C 
BRANCH   3   4
ATOM      4  C   UNL     1     -44.825  27.747  -0.743  1.00  0.00     0.004 C 
BRANCH   4   5
ATOM      5  C   UNL     1     -45.016  26.371  -1.403  1.00  0.00     0.000 C 
BRANCH   5   6
ATOM      6  C   UNL     1     -46.202  26.341  -2.378  1.00  0.00     0.000 C 
BRANCH   6   7
ATOM      7  C   UNL     1     -46.319  27.671  -3.139  1.00  0.00     0.000 C 
BRANCH   7   8
ATOM      8  C   UNL     1     -46.853  27.489  -4.574  1.00  0.00     0.006 C 
BRANCH   8   9
ATOM      9  C   UNL     1     -46.111  26.406  -5.376  1.00  0.00     0.053 C 
BRANCH   9  10
ATOM     10  C   UNL     1     -45.784  26.848  -6.768  1.00  0.00     0.041 C 
ATOM     11  O   UNL     1     -45.307  27.995  -6.973  1.00  0.00    -0.550 OA
ATOM     12  O   UNL     1     -45.990  25.986  -7.838  1.00  0.00    -0.550 OA
ENDBRANCH   9  10
ENDBRANCH   8   9
ENDBRANCH   7   8
ENDBRANCH   6   7
ENDBRANCH   5   6
ENDBRANCH   4   5
ENDBRANCH   3   4
ENDBRANCH   1   3
BRANCH   2  13
ATOM     13  C   UNL     1     -44.036  28.899   2.693  1.00  0.00     0.027 C 
BRANCH  13  14
ATOM     14  C   UNL     1     -45.499  28.814   3.164  1.00  0.00     0.004 C 
BRANCH  14  15
ATOM     15  C   UNL     1     -45.701  28.906   4.688  1.00  0.00     0.000 C 
BRANCH  15  16
ATOM     16  C   UNL     1     -46.092  27.560   5.322  1.00  0.00     0.000 C 
BRANCH  16  17
ATOM     17  C   UNL     1     -45.217  27.194   6.535  1.00  0.00    -0.000 C 
BRANCH  17  18
ATOM     18  C   UNL     1     -43.741  26.883   6.215  1.00  0.00    -0.000 C 
BRANCH  18  19
ATOM     19  C   UNL     1     -42.732  27.940   6.698  1.00  0.00    -0.003 C 
ATOM     20  C   UNL     1     -43.189  28.662   7.966  1.00  0.00     0.004 C 
ENDBRANCH  18  19
ENDBRANCH  17  18
ENDBRANCH  16  17
ENDBRANCH  15  16
ENDBRANCH  14  15
ENDBRANCH  13  14
ENDBRANCH   2  13
TORSDOF 15
ENDMDL
MODEL 8
REMARK VINA RESULT:    -4.170      1.829      2.429
REMARK INTER + INTRA:          -9.067
REMARK INTER:                  -7.816
REMARK INTRA:                  -1.250
REMARK UNBOUND:                -1.239
REMARK SMILES CCCCCCCCC=CCCCCCCCC(=O)[O-]
REMARK SMILES IDX 10 1 9 2 11 3 12 4 13 5 14 6 15 7 16 8 17 9 18 10 19 11
REMARK SMILES IDX 20 12 8 13 7 14 6 15 5 16 4 17 3 18 2 19 1 20
REMARK H PARENT
REMARK Flexibility Score: inf
ROOT
ATOM      1  C   UNL     1     -42.789  27.801   0.788  1.00  0.00    -0.031 C 
ATOM      2  C   UNL     1     -43.291  27.586  -0.445  1.00  0.00    -0.031 C 
ENDROOT
BRANCH   1   3
ATOM      3  C   UNL     1     -43.439  27.369   2.079  1.00  0.00     0.027 C 
BRANCH   3   4
ATOM      4  C   UNL     1     -44.013  28.570   2.846  1.00  0.00     0.004 C 
BRANCH   4   5
ATOM      5  C   UNL     1     -42.972  29.676   3.081  1.00  0.00     0.000 C 
BRANCH   5   6
ATOM      6  C   UNL     1     -42.854  30.076   4.559  1.00  0.00     0.000 C 
BRANCH   6   7
ATOM      7  C   UNL     1     -43.926  29.371   5.404  1.00  0.00     0.000 C 
BRANCH   7   8
ATOM      8  C   UNL     1     -43.347  28.235   6.270  1.00  0.00     0.006 C 
BRANCH   8   9
ATOM      9  C   UNL     1     -44.151  26.926   6.189  1.00  0.00     0.053 C 
BRANCH   9  10
ATOM     10  C   UNL     1     -45.583  27.109   6.585  1.00  0.00     0.041 C 
ATOM     11  O   UNL     1     -45.888  27.281   7.794  1.00  0.00    -0.550 OA
ATOM     12  O   UNL     1     -46.579  27.106   5.617  1.00  0.00    -0.550 OA
ENDBRANCH   9  10
ENDBRANCH   8   9
ENDBRANCH   7   8
ENDBRANCH   6   7
ENDBRANCH   5   6
ENDBRANCH   4   5
ENDBRANCH   3   4
ENDBRANCH   1   3
BRANCH   2  13
ATOM     13  C   UNL     1     -44.581  26.860  -0.751  1.00  0.00     0.027 C 
BRANCH  13  14
ATOM     14  C   UNL     1     -45.776  27.824  -0.861  1.00  0.00     0.004 C 
BRANCH  14  15
ATOM     15  C   UNL     1     -45.510  29.105  -1.674  1.00  0.00     0.000 C 
BRANCH  15  16
ATOM     16  C   UNL     1     -46.337  29.174  -2.970  1.00  0.00     0.000 C 
BRANCH  16  17
ATOM     17  C   UNL     1     -46.374  27.834  -3.727  1.00  0.00    -0.000 C 
BRANCH  17  18
ATOM     18  C   UNL     1     -46.154  27.931  -5.251  1.00  0.00    -0.000 C 
BRANCH  18  19
ATOM     19  C   UNL     1     -46.076  26.580  -5.985  1.00  0.00    -0.003 C 
ATOM     20  C   UNL     1     -45.537  26.708  -7.410  1.00  0.00     0.004 C 
ENDBRANCH  18  19
ENDBRANCH  17  18
ENDBRANCH  16  17
ENDBRANCH  15  16
ENDBRANCH  14  15
ENDBRANCH  13  14
ENDBRANCH   2  13
TORSDOF 15
ENDMDL
MODEL 9
REMARK VINA RESULT:    -4.123      3.952      8.687
REMARK INTER + INTRA:          -8.977
REMARK INTER:                  -6.348
REMARK INTRA:                  -2.629
REMARK UNBOUND:                -1.239
REMARK SMILES CCCCCCCCC=CCCCCCCCC(=O)[O-]
REMARK SMILES IDX 10 1 9 2 11 3 12 4 13 5 14 6 15 7 16 8 17 9 18 10 19 11
REMARK SMILES IDX 20 12 8 13 7 14 6 15 5 16 4 17 3 18 2 19 1 20
REMARK H PARENT
REMARK Flexibility Score: inf
ROOT
ATOM      1  C   UNL     1     -43.061  27.102   1.707  1.00  0.00    -0.031 C 
ATOM      2  C   UNL     1     -43.646  27.611   2.809  1.00  0.00    -0.031 C 
ENDROOT
BRANCH   1   3
ATOM      3  C   UNL     1     -42.613  27.902   0.510  1.00  0.00     0.027 C 
BRANCH   3   4
ATOM      4  C   UNL     1     -43.648  27.844  -0.624  1.00  0.00     0.004 C 
BRANCH   4   5
ATOM      5  C   UNL     1     -44.616  29.039  -0.604  1.00  0.00     0.000 C 
BRANCH   5   6
ATOM      6  C   UNL     1     -46.088  28.608  -0.544  1.00  0.00     0.000 C 
BRANCH   6   7
ATOM      7  C   UNL     1     -46.208  27.085  -0.385  1.00  0.00     0.000 C 
BRANCH   7   8
ATOM      8  C   UNL     1     -46.937  26.420  -1.569  1.00  0.00     0.006 C 
BRANCH   8   9
ATOM      9  C   UNL     1     -46.009  26.059  -2.742  1.00  0.00     0.053 C 
BRANCH   9  10
ATOM     10  C   UNL     1     -46.303  26.859  -3.972  1.00  0.00     0.041 C 
ATOM     11  O   UNL     1     -46.302  28.118  -3.923  1.00  0.00    -0.550 OA
ATOM     12  O   UNL     1     -46.561  26.216  -5.175  1.00  0.00    -0.550 OA
ENDBRANCH   9  10
ENDBRANCH   8   9
ENDBRANCH   7   8
ENDBRANCH   6   7
ENDBRANCH   5   6
ENDBRANCH   4   5
ENDBRANCH   3   4
ENDBRANCH   1   3
BRANCH   2  13
ATOM     13  C   UNL     1     -43.938  29.075   3.048  1.00  0.00     0.027 C 
BRANCH  13  14
ATOM     14  C   UNL     1     -45.449  29.361   3.117  1.00  0.00     0.004 C 
BRANCH  14  15
ATOM     15  C   UNL     1     -46.292  28.259   3.788  1.00  0.00     0.000 C 
BRANCH  15  16
ATOM     16  C   UNL     1     -46.835  28.677   5.165  1.00  0.00     0.000 C 
BRANCH  16  17
ATOM     17  C   UNL     1     -45.809  28.483   6.297  1.00  0.00    -0.000 C 
BRANCH  17  18
ATOM     18  C   UNL     1     -45.230  27.059   6.426  1.00  0.00    -0.000 C 
BRANCH  18  19
ATOM     19  C   UNL     1     -43.693  26.981   6.452  1.00  0.00    -0.003 C 
ATOM     20  C   UNL     1     -43.030  28.354   6.558  1.00  0.00     0.004 C 
ENDBRANCH  18  19
ENDBRANCH  17  18
ENDBRANCH  16  17
ENDBRANCH  15  16
ENDBRANCH  14  15
ENDBRANCH  13  14
ENDBRANCH   2  13
TORSDOF 15
ENDMDL
