MODEL 1
REMARK VINA RESULT:    -3.121      0.000      0.000
REMARK INTER + INTRA:          -4.694
REMARK INTER:                  -4.306
REMARK INTRA:                  -0.388
REMARK UNBOUND:                -0.388
REMARK SMILES O=C([O-])[C@@H]1O[C@@H](Oc2cc3oc(-c4ccccc4)cc(=O)c3c(O)c2O)[C@H](O)[C@@H](O)[C@@H]1O
REMARK SMILES IDX 7 1 6 2 4 3 31 4 5 5 29 6 27 7 2 8 1 9 3 10 32 11 30 13
REMARK SMILES IDX 28 15 8 17 25 18 9 19 23 20 10 21 22 22 11 23 20 24 12 25
REMARK SMILES IDX 19 26 21 27 26 28 24 30 13 32 14 33 18 34 15 35 17 36 16 37
REMARK H PARENT 32 12 30 14 28 16 26 29 24 31
REMARK Flexibility Score: inf
ROOT
ATOM      1  O   UNL     1      22.943  31.617  19.378  1.00  0.00    -0.458 OA
ENDROOT
BRANCH   1   2
ATOM      2  C   UNL     1      22.390  30.446  18.766  1.00  0.00     0.339 C 
ATOM      3  C   UNL     1      24.453  29.784  17.869  1.00  0.00     0.199 C 
ATOM      4  C   UNL     1      23.999  29.974  16.407  1.00  0.00     0.180 C 
ATOM      5  O   UNL     1      23.360  29.413  18.694  1.00  0.00    -0.328 OA
ATOM      6  C   UNL     1      22.902  31.048  16.342  1.00  0.00     0.181 C 
ATOM      7  C   UNL     1      21.792  30.767  17.376  1.00  0.00     0.214 C 
BRANCH   3   8
ATOM      8  C   UNL     1      25.520  28.730  17.955  1.00  0.00     0.073 C 
ATOM      9  O   UNL     1      25.506  27.881  18.886  1.00  0.00    -0.547 OA
ATOM     10  O   UNL     1      26.501  28.657  16.974  1.00  0.00    -0.547 OA
ENDBRANCH   3   8
BRANCH   4  11
ATOM     11  O   UNL     1      23.497  28.766  15.886  1.00  0.00    -0.387 OA
ATOM     12  H   UNL     1      22.603  28.620  16.293  1.00  0.00     0.211 HD
ENDBRANCH   4  11
BRANCH   6  13
ATOM     13  O   UNL     1      23.475  32.312  16.576  1.00  0.00    -0.387 OA
ATOM     14  H   UNL     1      23.078  32.935  15.911  1.00  0.00     0.211 HD
ENDBRANCH   6  13
BRANCH   7  15
ATOM     15  O   UNL     1      21.012  29.686  16.933  1.00  0.00    -0.384 OA
ATOM     16  H   UNL     1      21.276  28.898  17.477  1.00  0.00     0.211 HD
ENDBRANCH   7  15
ENDBRANCH   1   2
BRANCH   1  17
ATOM     17  C   UNL     1      22.161  32.529  20.091  1.00  0.00     0.172 A 
ATOM     18  C   UNL     1      21.263  33.390  19.430  1.00  0.00     0.201 A 
ATOM     19  C   UNL     1      22.267  32.568  21.481  1.00  0.00     0.098 A 
ATOM     20  C   UNL     1      20.515  34.329  20.168  1.00  0.00     0.176 A 
ATOM     21  C   UNL     1      21.523  33.484  22.226  1.00  0.00     0.146 A 
ATOM     22  C   UNL     1      20.643  34.381  21.576  1.00  0.00     0.111 A 
ATOM     23  O   UNL     1      21.653  33.501  23.548  1.00  0.00    -0.456 OA
ATOM     24  C   UNL     1      19.926  35.289  22.383  1.00  0.00     0.197 A 
ATOM     25  C   UNL     1      20.985  34.338  24.340  1.00  0.00     0.138 A 
ATOM     26  C   UNL     1      20.102  35.269  23.768  1.00  0.00     0.100 A 
ATOM     27  O   UNL     1      19.125  36.124  21.881  1.00  0.00    -0.289 OA
BRANCH  18  28
ATOM     28  O   UNL     1      21.080  33.308  18.048  1.00  0.00    -0.502 OA
ATOM     29  H   UNL     1      20.177  33.443  17.610  1.00  0.00     0.293 HD
ENDBRANCH  18  28
BRANCH  20  30
ATOM     30  O   UNL     1      19.643  35.197  19.505  1.00  0.00    -0.504 OA
ATOM     31  H   UNL     1      19.099  34.914  18.699  1.00  0.00     0.293 HD
ENDBRANCH  20  30
BRANCH  25  32
ATOM     32  C   UNL     1      21.209  34.265  25.805  1.00  0.00     0.017 A 
ATOM     33  C   UNL     1      20.348  34.962  26.673  1.00  0.00     0.012 A 
ATOM     34  C   UNL     1      22.289  33.542  26.357  1.00  0.00     0.012 A 
ATOM     35  C   UNL     1      20.546  34.919  28.056  1.00  0.00     0.001 A 
ATOM     36  C   UNL     1      22.480  33.504  27.741  1.00  0.00     0.001 A 
ATOM     37  C   UNL     1      21.609  34.189  28.590  1.00  0.00     0.000 A 
ENDBRANCH  25  32
ENDBRANCH   1  17
TORSDOF 9
ENDMDL
MODEL 2
REMARK VINA RESULT:    -2.415      7.543     12.876
REMARK INTER + INTRA:          -3.720
REMARK INTER:                  -3.575
REMARK INTRA:                  -0.145
REMARK UNBOUND:                -0.388
REMARK SMILES O=C([O-])[C@@H]1O[C@@H](Oc2cc3oc(-c4ccccc4)cc(=O)c3c(O)c2O)[C@H](O)[C@@H](O)[C@@H]1O
REMARK SMILES IDX 7 1 6 2 4 3 31 4 5 5 29 6 27 7 2 8 1 9 3 10 32 11 30 13
REMARK SMILES IDX 28 15 8 17 25 18 9 19 23 20 10 21 22 22 11 23 20 24 12 25
REMARK SMILES IDX 19 26 21 27 26 28 24 30 13 32 14 33 18 34 15 35 17 36 16 37
REMARK H PARENT 32 12 30 14 28 16 26 29 24 31
REMARK Flexibility Score: inf
ROOT
ATOM      1  O   UNL     1      19.264  35.497  33.066  1.00  0.00    -0.458 OA
ENDROOT
BRANCH   1   2
ATOM      2  C   UNL     1      18.744  34.671  34.114  1.00  0.00     0.339 C 
ATOM      3  C   UNL     1      17.745  33.172  32.611  1.00  0.00     0.199 C 
ATOM      4  C   UNL     1      16.308  33.520  33.053  1.00  0.00     0.180 C 
ATOM      5  O   UNL     1      18.656  33.319  33.689  1.00  0.00    -0.328 OA
ATOM      6  C   UNL     1      16.266  34.961  33.584  1.00  0.00     0.181 C 
ATOM      7  C   UNL     1      17.382  35.199  34.623  1.00  0.00     0.214 C 
BRANCH   3   8
ATOM      8  C   UNL     1      17.810  31.763  32.096  1.00  0.00     0.073 C 
ATOM      9  O   UNL     1      16.789  31.215  31.601  1.00  0.00    -0.547 OA
ATOM     10  O   UNL     1      19.016  31.073  32.117  1.00  0.00    -0.547 OA
ENDBRANCH   3   8
BRANCH   4  11
ATOM     11  O   UNL     1      15.877  32.639  34.063  1.00  0.00    -0.387 OA
ATOM     12  H   UNL     1      16.052  33.084  34.934  1.00  0.00     0.211 HD
ENDBRANCH   4  11
BRANCH   6  13
ATOM     13  O   UNL     1      16.404  35.858  32.509  1.00  0.00    -0.387 OA
ATOM     14  H   UNL     1      15.569  35.795  31.974  1.00  0.00     0.211 HD
ENDBRANCH   6  13
BRANCH   7  15
ATOM     15  O   UNL     1      17.041  34.554  35.824  1.00  0.00    -0.384 OA
ATOM     16  H   UNL     1      16.850  33.606  35.598  1.00  0.00     0.211 HD
ENDBRANCH   7  15
ENDBRANCH   1   2
BRANCH   1  17
ATOM     17  C   UNL     1      19.947  34.970  31.967  1.00  0.00     0.172 A 
ATOM     18  C   UNL     1      21.026  34.081  32.139  1.00  0.00     0.201 A 
ATOM     19  C   UNL     1      19.533  35.323  30.682  1.00  0.00     0.098 A 
ATOM     20  C   UNL     1      21.724  33.595  31.015  1.00  0.00     0.176 A 
ATOM     21  C   UNL     1      20.208  34.839  29.560  1.00  0.00     0.146 A 
ATOM     22  C   UNL     1      21.317  33.975  29.714  1.00  0.00     0.111 A 
ATOM     23  O   UNL     1      19.795  35.202  28.350  1.00  0.00    -0.456 OA
ATOM     24  C   UNL     1      21.961  33.527  28.543  1.00  0.00     0.197 A 
ATOM     25  C   UNL     1      20.375  34.792  27.224  1.00  0.00     0.138 A 
ATOM     26  C   UNL     1      21.491  33.941  27.295  1.00  0.00     0.100 A 
ATOM     27  O   UNL     1      22.960  32.759  28.594  1.00  0.00    -0.289 OA
BRANCH  18  28
ATOM     28  O   UNL     1      21.399  33.648  33.412  1.00  0.00    -0.502 OA
ATOM     29  H   UNL     1      22.342  33.751  33.767  1.00  0.00     0.293 HD
ENDBRANCH  18  28
BRANCH  20  30
ATOM     30  O   UNL     1      22.809  32.733  31.192  1.00  0.00    -0.504 OA
ATOM     31  H   UNL     1      22.697  31.734  31.323  1.00  0.00     0.293 HD
ENDBRANCH  20  30
BRANCH  25  32
ATOM     32  C   UNL     1      19.824  35.260  25.927  1.00  0.00     0.017 A 
ATOM     33  C   UNL     1      18.487  35.691  25.859  1.00  0.00     0.012 A 
ATOM     34  C   UNL     1      20.596  35.251  24.746  1.00  0.00     0.012 A 
ATOM     35  C   UNL     1      17.941  36.125  24.647  1.00  0.00     0.001 A 
ATOM     36  C   UNL     1      20.044  35.686  23.537  1.00  0.00     0.001 A 
ATOM     37  C   UNL     1      18.719  36.125  23.488  1.00  0.00     0.000 A 
ENDBRANCH  25  32
ENDBRANCH   1  17
TORSDOF 9
ENDMDL
MODEL 3
REMARK VINA RESULT:    -1.749      7.492     12.352
REMARK INTER + INTRA:          -2.801
REMARK INTER:                  -2.560
REMARK INTRA:                  -0.241
REMARK UNBOUND:                -0.388
REMARK SMILES O=C([O-])[C@@H]1O[C@@H](Oc2cc3oc(-c4ccccc4)cc(=O)c3c(O)c2O)[C@H](O)[C@@H](O)[C@@H]1O
REMARK SMILES IDX 7 1 6 2 4 3 31 4 5 5 29 6 27 7 2 8 1 9 3 10 32 11 30 13
REMARK SMILES IDX 28 15 8 17 25 18 9 19 23 20 10 21 22 22 11 23 20 24 12 25
REMARK SMILES IDX 19 26 21 27 26 28 24 30 13 32 14 33 18 34 15 35 17 36 16 37
REMARK H PARENT 32 12 30 14 28 16 26 29 24 31
REMARK Flexibility Score: inf
ROOT
ATOM      1  O   UNL     1      19.332  31.326  31.294  1.00  0.00    -0.458 OA
ENDROOT
BRANCH   1   2
ATOM      2  C   UNL     1      17.950  31.426  31.656  1.00  0.00     0.339 C 
ATOM      3  C   UNL     1      18.140  33.683  32.266  1.00  0.00     0.199 C 
ATOM      4  C   UNL     1      17.843  33.415  33.756  1.00  0.00     0.180 C 
ATOM      5  O   UNL     1      17.469  32.744  31.440  1.00  0.00    -0.328 OA
ATOM      6  C   UNL     1      18.278  31.988  34.122  1.00  0.00     0.181 C 
ATOM      7  C   UNL     1      17.715  30.964  33.114  1.00  0.00     0.214 C 
BRANCH   3   8
ATOM      8  C   UNL     1      17.713  35.071  31.886  1.00  0.00     0.073 C 
ATOM      9  O   UNL     1      18.563  35.996  31.783  1.00  0.00    -0.547 OA
ATOM     10  O   UNL     1      16.379  35.330  31.595  1.00  0.00    -0.547 OA
ENDBRANCH   3   8
BRANCH   4  11
ATOM     11  O   UNL     1      16.468  33.563  34.018  1.00  0.00    -0.387 OA
ATOM     12  H   UNL     1      15.978  33.160  33.254  1.00  0.00     0.211 HD
ENDBRANCH   4  11
BRANCH   6  13
ATOM     13  O   UNL     1      19.684  31.922  34.147  1.00  0.00    -0.387 OA
ATOM     14  H   UNL     1      19.975  32.326  35.007  1.00  0.00     0.211 HD
ENDBRANCH   6  13
BRANCH   7  15
ATOM     15  O   UNL     1      16.339  30.798  33.344  1.00  0.00    -0.384 OA
ATOM     16  H   UNL     1      15.869  31.136  32.538  1.00  0.00     0.211 HD
ENDBRANCH   7  15
ENDBRANCH   1   2
BRANCH   1  17
ATOM     17  C   UNL     1      20.007  32.352  30.628  1.00  0.00     0.172 A 
ATOM     18  C   UNL     1      21.152  32.952  31.187  1.00  0.00     0.201 A 
ATOM     19  C   UNL     1      19.540  32.770  29.381  1.00  0.00     0.098 A 
ATOM     20  C   UNL     1      21.791  34.013  30.515  1.00  0.00     0.176 A 
ATOM     21  C   UNL     1      20.171  33.812  28.699  1.00  0.00     0.146 A 
ATOM     22  C   UNL     1      21.301  34.450  29.262  1.00  0.00     0.111 A 
ATOM     23  O   UNL     1      19.696  34.192  27.517  1.00  0.00    -0.456 OA
ATOM     24  C   UNL     1      21.888  35.501  28.527  1.00  0.00     0.197 A 
ATOM     25  C   UNL     1      20.231  35.173  26.794  1.00  0.00     0.138 A 
ATOM     26  C   UNL     1      21.348  35.865  27.292  1.00  0.00     0.100 A 
ATOM     27  O   UNL     1      22.894  36.125  28.961  1.00  0.00    -0.289 OA
BRANCH  18  28
ATOM     28  O   UNL     1      21.685  32.490  32.392  1.00  0.00    -0.502 OA
ATOM     29  H   UNL     1      21.196  31.831  32.986  1.00  0.00     0.293 HD
ENDBRANCH  18  28
BRANCH  20  30
ATOM     30  O   UNL     1      22.913  34.621  31.085  1.00  0.00    -0.504 OA
ATOM     31  H   UNL     1      22.859  35.196  31.917  1.00  0.00     0.293 HD
ENDBRANCH  20  30
BRANCH  25  32
ATOM     32  C   UNL     1      19.617  35.510  25.485  1.00  0.00     0.017 A 
ATOM     33  C   UNL     1      18.241  35.800  25.421  1.00  0.00     0.012 A 
ATOM     34  C   UNL     1      20.367  35.513  24.290  1.00  0.00     0.012 A 
ATOM     35  C   UNL     1      17.637  36.108  24.199  1.00  0.00     0.001 A 
ATOM     36  C   UNL     1      19.756  35.821  23.072  1.00  0.00     0.001 A 
ATOM     37  C   UNL     1      18.393  36.121  23.026  1.00  0.00     0.000 A 
ENDBRANCH  25  32
ENDBRANCH   1  17
TORSDOF 9
ENDMDL
MODEL 4
REMARK VINA RESULT:    -1.708      8.360     13.120
REMARK INTER + INTRA:          -2.745
REMARK INTER:                  -2.436
REMARK INTRA:                  -0.309
REMARK UNBOUND:                -0.388
REMARK SMILES O=C([O-])[C@@H]1O[C@@H](Oc2cc3oc(-c4ccccc4)cc(=O)c3c(O)c2O)[C@H](O)[C@@H](O)[C@@H]1O
REMARK SMILES IDX 7 1 6 2 4 3 31 4 5 5 29 6 27 7 2 8 1 9 3 10 32 11 30 13
REMARK SMILES IDX 28 15 8 17 25 18 9 19 23 20 10 21 22 22 11 23 20 24 12 25
REMARK SMILES IDX 19 26 21 27 26 28 24 30 13 32 14 33 18 34 15 35 17 36 16 37
REMARK H PARENT 32 12 30 14 28 16 26 29 24 31
REMARK Flexibility Score: inf
ROOT
ATOM      1  O   UNL     1      20.796  35.328  33.820  1.00  0.00    -0.458 OA
ENDROOT
BRANCH   1   2
ATOM      2  C   UNL     1      21.638  34.173  33.915  1.00  0.00     0.339 C 
ATOM      3  C   UNL     1      19.887  32.695  33.417  1.00  0.00     0.199 C 
ATOM      4  C   UNL     1      19.912  32.028  34.809  1.00  0.00     0.180 C 
ATOM      5  O   UNL     1      21.180  33.147  33.048  1.00  0.00    -0.328 OA
ATOM      6  C   UNL     1      20.438  33.027  35.851  1.00  0.00     0.181 C 
ATOM      7  C   UNL     1      21.753  33.679  35.376  1.00  0.00     0.214 C 
BRANCH   3   8
ATOM      8  C   UNL     1      19.383  31.732  32.382  1.00  0.00     0.073 C 
ATOM      9  O   UNL     1      20.172  30.923  31.823  1.00  0.00    -0.547 OA
ATOM     10  O   UNL     1      18.029  31.693  32.072  1.00  0.00    -0.547 OA
ENDBRANCH   3   8
BRANCH   4  11
ATOM     11  O   UNL     1      20.743  30.891  34.794  1.00  0.00    -0.387 OA
ATOM     12  H   UNL     1      20.945  30.664  35.739  1.00  0.00     0.211 HD
ENDBRANCH   4  11
BRANCH   6  13
ATOM     13  O   UNL     1      19.463  34.015  36.082  1.00  0.00    -0.387 OA
ATOM     14  H   UNL     1      19.093  33.845  36.989  1.00  0.00     0.211 HD
ENDBRANCH   6  13
BRANCH   7  15
ATOM     15  O   UNL     1      22.797  32.743  35.480  1.00  0.00    -0.384 OA
ATOM     16  H   UNL     1      22.375  31.851  35.588  1.00  0.00     0.211 HD
ENDBRANCH   7  15
ENDBRANCH   1   2
BRANCH   1  17
ATOM     17  C   UNL     1      19.853  35.485  32.801  1.00  0.00     0.172 A 
ATOM     18  C   UNL     1      18.503  35.761  33.095  1.00  0.00     0.201 A 
ATOM     19  C   UNL     1      20.270  35.382  31.474  1.00  0.00     0.098 A 
ATOM     20  C   UNL     1      17.565  35.875  32.051  1.00  0.00     0.176 A 
ATOM     21  C   UNL     1      19.352  35.504  30.429  1.00  0.00     0.146 A 
ATOM     22  C   UNL     1      17.986  35.745  30.706  1.00  0.00     0.111 A 
ATOM     23  O   UNL     1      19.780  35.392  29.176  1.00  0.00    -0.456 OA
ATOM     24  C   UNL     1      17.109  35.851  29.608  1.00  0.00     0.197 A 
ATOM     25  C   UNL     1      18.980  35.495  28.117  1.00  0.00     0.138 A 
ATOM     26  C   UNL     1      17.607  35.721  28.310  1.00  0.00     0.100 A 
ATOM     27  O   UNL     1      15.875  36.060  29.770  1.00  0.00    -0.289 OA
BRANCH  18  28
ATOM     28  O   UNL     1      18.083  35.953  34.413  1.00  0.00    -0.502 OA
ATOM     29  H   UNL     1      17.340  35.408  34.832  1.00  0.00     0.293 HD
ENDBRANCH  18  28
BRANCH  20  30
ATOM     30  O   UNL     1      16.222  36.125  32.348  1.00  0.00    -0.504 OA
ATOM     31  H   UNL     1      15.783  37.022  32.178  1.00  0.00     0.293 HD
ENDBRANCH  20  30
BRANCH  25  32
ATOM     32  C   UNL     1      19.570  35.354  26.762  1.00  0.00     0.017 A 
ATOM     33  C   UNL     1      20.636  34.458  26.561  1.00  0.00     0.012 A 
ATOM     34  C   UNL     1      19.117  36.123  25.670  1.00  0.00     0.012 A 
ATOM     35  C   UNL     1      21.217  34.316  25.298  1.00  0.00     0.001 A 
ATOM     36  C   UNL     1      19.703  35.978  24.409  1.00  0.00     0.001 A 
ATOM     37  C   UNL     1      20.750  35.073  24.222  1.00  0.00     0.000 A 
ENDBRANCH  25  32
ENDBRANCH   1  17
TORSDOF 9
ENDMDL
MODEL 5
REMARK VINA RESULT:    -1.664      3.846      9.474
REMARK INTER + INTRA:          -2.684
REMARK INTER:                  -1.429
REMARK INTRA:                  -1.255
REMARK UNBOUND:                -0.388
REMARK SMILES O=C([O-])[C@@H]1O[C@@H](Oc2cc3oc(-c4ccccc4)cc(=O)c3c(O)c2O)[C@H](O)[C@@H](O)[C@@H]1O
REMARK SMILES IDX 7 1 6 2 4 3 31 4 5 5 29 6 27 7 2 8 1 9 3 10 32 11 30 13
REMARK SMILES IDX 28 15 8 17 25 18 9 19 23 20 10 21 22 22 11 23 20 24 12 25
REMARK SMILES IDX 19 26 21 27 26 28 24 30 13 32 14 33 18 34 15 35 17 36 16 37
REMARK H PARENT 32 12 30 14 28 16 26 29 24 31
REMARK Flexibility Score: inf
ROOT
ATOM      1  O   UNL     1      21.159  35.095  25.662  1.00  0.00    -0.458 OA
ENDROOT
BRANCH   1   2
ATOM      2  C   UNL     1      21.283  33.870  26.394  1.00  0.00     0.339 C 
ATOM      3  C   UNL     1      20.045  34.681  28.213  1.00  0.00     0.199 C 
ATOM      4  C   UNL     1      21.241  34.631  29.186  1.00  0.00     0.180 C 
ATOM      5  O   UNL     1      20.151  33.667  27.226  1.00  0.00    -0.328 OA
ATOM      6  C   UNL     1      22.552  34.794  28.403  1.00  0.00     0.181 C 
ATOM      7  C   UNL     1      22.602  33.827  27.202  1.00  0.00     0.214 C 
BRANCH   3   8
ATOM      8  C   UNL     1      18.752  34.514  28.958  1.00  0.00     0.073 C 
ATOM      9  O   UNL     1      17.895  35.438  28.969  1.00  0.00    -0.547 OA
ATOM     10  O   UNL     1      18.473  33.313  29.600  1.00  0.00    -0.547 OA
ENDBRANCH   3   8
BRANCH   4  11
ATOM     11  O   UNL     1      21.261  33.403  29.877  1.00  0.00    -0.387 OA
ATOM     12  H   UNL     1      21.900  32.810  29.401  1.00  0.00     0.211 HD
ENDBRANCH   4  11
BRANCH   6  13
ATOM     13  O   UNL     1      22.667  36.125  27.961  1.00  0.00    -0.387 OA
ATOM     14  H   UNL     1      21.766  36.401  27.645  1.00  0.00     0.211 HD
ENDBRANCH   6  13
BRANCH   7  15
ATOM     15  O   UNL     1      22.832  32.522  27.668  1.00  0.00    -0.384 OA
ATOM     16  H   UNL     1      22.460  31.903  26.987  1.00  0.00     0.211 HD
ENDBRANCH   7  15
ENDBRANCH   1   2
BRANCH   1  17
ATOM     17  C   UNL     1      20.373  35.204  24.513  1.00  0.00     0.172 A 
ATOM     18  C   UNL     1      19.037  35.646  24.584  1.00  0.00     0.201 A 
ATOM     19  C   UNL     1      20.935  34.883  23.277  1.00  0.00     0.098 A 
ATOM     20  C   UNL     1      18.253  35.709  23.416  1.00  0.00     0.176 A 
ATOM     21  C   UNL     1      20.172  34.952  22.110  1.00  0.00     0.146 A 
ATOM     22  C   UNL     1      18.819  35.359  22.167  1.00  0.00     0.111 A 
ATOM     23  O   UNL     1      20.735  34.632  20.949  1.00  0.00    -0.456 OA
ATOM     24  C   UNL     1      18.100  35.401  20.955  1.00  0.00     0.197 A 
ATOM     25  C   UNL     1      20.088  34.668  19.786  1.00  0.00     0.138 A 
ATOM     26  C   UNL     1      18.736  35.050  19.763  1.00  0.00     0.100 A 
ATOM     27  O   UNL     1      16.887  35.747  20.921  1.00  0.00    -0.289 OA
BRANCH  18  28
ATOM     28  O   UNL     1      18.484  36.053  25.800  1.00  0.00    -0.502 OA
ATOM     29  H   UNL     1      18.533  37.011  26.127  1.00  0.00     0.293 HD
ENDBRANCH  18  28
BRANCH  20  30
ATOM     30  O   UNL     1      16.921  36.125  23.495  1.00  0.00    -0.504 OA
ATOM     31  H   UNL     1      16.328  36.216  22.679  1.00  0.00     0.293 HD
ENDBRANCH  20  30
BRANCH  25  32
ATOM     32  C   UNL     1      20.820  34.290  18.552  1.00  0.00     0.017 A 
ATOM     33  C   UNL     1      21.688  33.183  18.573  1.00  0.00     0.012 A 
ATOM     34  C   UNL     1      20.699  35.034  17.358  1.00  0.00     0.012 A 
ATOM     35  C   UNL     1      22.398  32.814  17.427  1.00  0.00     0.001 A 
ATOM     36  C   UNL     1      21.413  34.660  16.216  1.00  0.00     0.001 A 
ATOM     37  C   UNL     1      22.259  33.550  16.249  1.00  0.00     0.000 A 
ENDBRANCH  25  32
ENDBRANCH   1  17
TORSDOF 9
ENDMDL
MODEL 6
REMARK VINA RESULT:    -1.603      6.704     12.627
REMARK INTER + INTRA:          -2.600
REMARK INTER:                  -1.490
REMARK INTRA:                  -1.109
REMARK UNBOUND:                -0.388
REMARK SMILES O=C([O-])[C@@H]1O[C@@H](Oc2cc3oc(-c4ccccc4)cc(=O)c3c(O)c2O)[C@H](O)[C@@H](O)[C@@H]1O
REMARK SMILES IDX 7 1 6 2 4 3 31 4 5 5 29 6 27 7 2 8 1 9 3 10 32 11 30 13
REMARK SMILES IDX 28 15 8 17 25 18 9 19 23 20 10 21 22 22 11 23 20 24 12 25
REMARK SMILES IDX 19 26 21 27 26 28 24 30 13 32 14 33 18 34 15 35 17 36 16 37
REMARK H PARENT 32 12 30 14 28 16 26 29 24 31
REMARK Flexibility Score: inf
ROOT
ATOM      1  O   UNL     1      18.944  34.420  31.722  1.00  0.00    -0.458 OA
ENDROOT
BRANCH   1   2
ATOM      2  C   UNL     1      17.558  34.058  31.713  1.00  0.00     0.339 C 
ATOM      3  C   UNL     1      17.531  33.598  34.012  1.00  0.00     0.199 C 
ATOM      4  C   UNL     1      17.260  32.091  33.815  1.00  0.00     0.180 C 
ATOM      5  O   UNL     1      16.954  34.357  32.962  1.00  0.00    -0.328 OA
ATOM      6  C   UNL     1      17.829  31.636  32.463  1.00  0.00     0.181 C 
ATOM      7  C   UNL     1      17.367  32.572  31.327  1.00  0.00     0.214 C 
BRANCH   3   8
ATOM      8  C   UNL     1      16.974  34.065  35.326  1.00  0.00     0.073 C 
ATOM      9  O   UNL     1      16.348  33.268  36.076  1.00  0.00    -0.547 OA
ATOM     10  O   UNL     1      17.193  35.372  35.745  1.00  0.00    -0.547 OA
ENDBRANCH   3   8
BRANCH   4  11
ATOM     11  O   UNL     1      15.876  31.832  33.849  1.00  0.00    -0.387 OA
ATOM     12  H   UNL     1      15.489  32.200  33.011  1.00  0.00     0.211 HD
ENDBRANCH   4  11
BRANCH   6  13
ATOM     13  O   UNL     1      19.234  31.614  32.533  1.00  0.00    -0.387 OA
ATOM     14  H   UNL     1      19.565  31.428  31.615  1.00  0.00     0.211 HD
ENDBRANCH   6  13
BRANCH   7  15
ATOM     15  O   UNL     1      16.013  32.325  31.045  1.00  0.00    -0.384 OA
ATOM     16  H   UNL     1      15.682  33.099  30.519  1.00  0.00     0.211 HD
ENDBRANCH   7  15
ENDBRANCH   1   2
BRANCH   1  17
ATOM     17  C   UNL     1      19.775  34.228  30.615  1.00  0.00     0.172 A 
ATOM     18  C   UNL     1      21.052  33.651  30.755  1.00  0.00     0.201 A 
ATOM     19  C   UNL     1      19.314  34.601  29.352  1.00  0.00     0.098 A 
ATOM     20  C   UNL     1      21.886  33.505  29.629  1.00  0.00     0.176 A 
ATOM     21  C   UNL     1      20.125  34.451  28.226  1.00  0.00     0.146 A 
ATOM     22  C   UNL     1      21.425  33.907  28.353  1.00  0.00     0.111 A 
ATOM     23  O   UNL     1      19.660  34.825  27.039  1.00  0.00    -0.456 OA
ATOM     24  C   UNL     1      22.198  33.790  27.180  1.00  0.00     0.197 A 
ATOM     25  C   UNL     1      20.359  34.719  25.911  1.00  0.00     0.138 A 
ATOM     26  C   UNL     1      21.665  34.201  25.957  1.00  0.00     0.100 A 
ATOM     27  O   UNL     1      23.368  33.320  27.208  1.00  0.00    -0.289 OA
BRANCH  18  28
ATOM     28  O   UNL     1      21.497  33.192  31.997  1.00  0.00    -0.502 OA
ATOM     29  H   UNL     1      21.369  32.235  32.301  1.00  0.00     0.293 HD
ENDBRANCH  18  28
BRANCH  20  30
ATOM     30  O   UNL     1      23.162  32.955  29.777  1.00  0.00    -0.504 OA
ATOM     31  H   UNL     1      24.001  33.521  29.805  1.00  0.00     0.293 HD
ENDBRANCH  20  30
BRANCH  25  32
ATOM     32  C   UNL     1      19.736  35.167  24.641  1.00  0.00     0.017 A 
ATOM     33  C   UNL     1      18.436  35.706  24.661  1.00  0.00     0.012 A 
ATOM     34  C   UNL     1      20.396  35.033  23.401  1.00  0.00     0.012 A 
ATOM     35  C   UNL     1      17.822  36.123  23.476  1.00  0.00     0.001 A 
ATOM     36  C   UNL     1      19.775  35.452  22.221  1.00  0.00     0.001 A 
ATOM     37  C   UNL     1      18.491  35.999  22.258  1.00  0.00     0.000 A 
ENDBRANCH  25  32
ENDBRANCH   1  17
TORSDOF 9
ENDMDL
MODEL 7
REMARK VINA RESULT:    -1.080      2.233      3.264
REMARK INTER + INTRA:          -1.878
REMARK INTER:                  -4.035
REMARK INTRA:                   2.157
REMARK UNBOUND:                -0.388
REMARK SMILES O=C([O-])[C@@H]1O[C@@H](Oc2cc3oc(-c4ccccc4)cc(=O)c3c(O)c2O)[C@H](O)[C@@H](O)[C@@H]1O
REMARK SMILES IDX 7 1 6 2 4 3 31 4 5 5 29 6 27 7 2 8 1 9 3 10 32 11 30 13
REMARK SMILES IDX 28 15 8 17 25 18 9 19 23 20 10 21 22 22 11 23 20 24 12 25
REMARK SMILES IDX 19 26 21 27 26 28 24 30 13 32 14 33 18 34 15 35 17 36 16 37
REMARK H PARENT 32 12 30 14 28 16 26 29 24 31
REMARK Flexibility Score: inf
ROOT
ATOM      1  O   UNL     1      23.786  31.009  18.717  1.00  0.00    -0.458 OA
ENDROOT
BRANCH   1   2
ATOM      2  C   UNL     1      23.368  29.649  18.887  1.00  0.00     0.339 C 
ATOM      3  C   UNL     1      25.021  28.826  17.441  1.00  0.00     0.199 C 
ATOM      4  C   UNL     1      24.006  28.327  16.392  1.00  0.00     0.180 C 
ATOM      5  O   UNL     1      24.470  28.765  18.747  1.00  0.00    -0.328 OA
ATOM      6  C   UNL     1      22.729  29.178  16.463  1.00  0.00     0.181 C 
ATOM      7  C   UNL     1      22.219  29.287  17.916  1.00  0.00     0.214 C 
BRANCH   3   8
ATOM      8  C   UNL     1      26.275  28.000  17.393  1.00  0.00     0.073 C 
ATOM      9  O   UNL     1      26.444  27.047  18.200  1.00  0.00    -0.547 OA
ATOM     10  O   UNL     1      27.234  28.255  16.420  1.00  0.00    -0.547 OA
ENDBRANCH   3   8
BRANCH   4  11
ATOM     11  O   UNL     1      23.679  26.978  16.625  1.00  0.00    -0.387 OA
ATOM     12  H   UNL     1      23.089  26.953  17.423  1.00  0.00     0.211 HD
ENDBRANCH   4  11
BRANCH   6  13
ATOM     13  O   UNL     1      22.993  30.459  15.944  1.00  0.00    -0.387 OA
ATOM     14  H   UNL     1      22.972  31.090  16.711  1.00  0.00     0.211 HD
ENDBRANCH   6  13
BRANCH   7  15
ATOM     15  O   UNL     1      21.643  28.064  18.296  1.00  0.00    -0.384 OA
ATOM     16  H   UNL     1      21.691  28.018  19.287  1.00  0.00     0.211 HD
ENDBRANCH   7  15
ENDBRANCH   1   2
BRANCH   1  17
ATOM     17  C   UNL     1      22.875  32.062  18.602  1.00  0.00     0.172 A 
ATOM     18  C   UNL     1      22.584  32.639  17.350  1.00  0.00     0.201 A 
ATOM     19  C   UNL     1      22.235  32.530  19.750  1.00  0.00     0.098 A 
ATOM     20  C   UNL     1      21.692  33.726  17.266  1.00  0.00     0.176 A 
ATOM     21  C   UNL     1      21.340  33.599  19.679  1.00  0.00     0.146 A 
ATOM     22  C   UNL     1      21.064  34.215  18.436  1.00  0.00     0.111 A 
ATOM     23  O   UNL     1      20.755  34.027  20.793  1.00  0.00    -0.456 OA
ATOM     24  C   UNL     1      20.158  35.294  18.432  1.00  0.00     0.197 A 
ATOM     25  C   UNL     1      19.888  35.037  20.823  1.00  0.00     0.138 A 
ATOM     26  C   UNL     1      19.572  35.709  19.630  1.00  0.00     0.100 A 
ATOM     27  O   UNL     1      19.862  35.901  17.367  1.00  0.00    -0.289 OA
BRANCH  18  28
ATOM     28  O   UNL     1      23.148  32.128  16.179  1.00  0.00    -0.502 OA
ATOM     29  H   UNL     1      24.134  31.908  16.101  1.00  0.00     0.293 HD
ENDBRANCH  18  28
BRANCH  20  30
ATOM     30  O   UNL     1      21.426  34.311  16.025  1.00  0.00    -0.504 OA
ATOM     31  H   UNL     1      20.484  34.479  15.692  1.00  0.00     0.293 HD
ENDBRANCH  20  30
BRANCH  25  32
ATOM     32  C   UNL     1      19.294  35.427  22.126  1.00  0.00     0.017 A 
ATOM     33  C   UNL     1      20.101  35.443  23.278  1.00  0.00     0.012 A 
ATOM     34  C   UNL     1      17.926  35.749  22.253  1.00  0.00     0.012 A 
ATOM     35  C   UNL     1      19.562  35.795  24.519  1.00  0.00     0.001 A 
ATOM     36  C   UNL     1      17.393  36.099  23.497  1.00  0.00     0.001 A 
ATOM     37  C   UNL     1      18.210  36.124  24.628  1.00  0.00     0.000 A 
ENDBRANCH  25  32
ENDBRANCH   1  17
TORSDOF 9
ENDMDL
MODEL 8
REMARK VINA RESULT:    -1.026      7.383     12.136
REMARK INTER + INTRA:          -1.803
REMARK INTER:                  -1.767
REMARK INTRA:                  -0.036
REMARK UNBOUND:                -0.388
REMARK SMILES O=C([O-])[C@@H]1O[C@@H](Oc2cc3oc(-c4ccccc4)cc(=O)c3c(O)c2O)[C@H](O)[C@@H](O)[C@@H]1O
REMARK SMILES IDX 7 1 6 2 4 3 31 4 5 5 29 6 27 7 2 8 1 9 3 10 32 11 30 13
REMARK SMILES IDX 28 15 8 17 25 18 9 19 23 20 10 21 22 22 11 23 20 24 12 25
REMARK SMILES IDX 19 26 21 27 26 28 24 30 13 32 14 33 18 34 15 35 17 36 16 37
REMARK H PARENT 32 12 30 14 28 16 26 29 24 31
REMARK Flexibility Score: inf
ROOT
ATOM      1  O   UNL     1      21.202  34.839  32.435  1.00  0.00    -0.458 OA
ENDROOT
BRANCH   1   2
ATOM      2  C   UNL     1      21.716  33.522  32.664  1.00  0.00     0.339 C 
ATOM      3  C   UNL     1      19.641  32.504  32.272  1.00  0.00     0.199 C 
ATOM      4  C   UNL     1      19.494  31.998  33.722  1.00  0.00     0.180 C 
ATOM      5  O   UNL     1      21.006  32.566  31.892  1.00  0.00    -0.328 OA
ATOM      6  C   UNL     1      20.263  32.928  34.674  1.00  0.00     0.181 C 
ATOM      7  C   UNL     1      21.701  33.166  34.170  1.00  0.00     0.214 C 
BRANCH   3   8
ATOM      8  C   UNL     1      18.903  31.602  31.324  1.00  0.00     0.073 C 
ATOM      9  O   UNL     1      18.016  32.067  30.558  1.00  0.00    -0.547 OA
ATOM     10  O   UNL     1      19.234  30.254  31.252  1.00  0.00    -0.547 OA
ENDBRANCH   3   8
BRANCH   4  11
ATOM     11  O   UNL     1      20.001  30.690  33.841  1.00  0.00    -0.387 OA
ATOM     12  H   UNL     1      20.988  30.764  33.919  1.00  0.00     0.211 HD
ENDBRANCH   4  11
BRANCH   6  13
ATOM     13  O   UNL     1      19.577  34.153  34.782  1.00  0.00    -0.387 OA
ATOM     14  H   UNL     1      18.810  33.999  35.394  1.00  0.00     0.211 HD
ENDBRANCH   6  13
BRANCH   7  15
ATOM     15  O   UNL     1      22.466  32.009  34.392  1.00  0.00    -0.384 OA
ATOM     16  H   UNL     1      22.568  31.557  33.514  1.00  0.00     0.211 HD
ENDBRANCH   7  15
ENDBRANCH   1   2
BRANCH   1  17
ATOM     17  C   UNL     1      20.263  35.112  31.437  1.00  0.00     0.172 A 
ATOM     18  C   UNL     1      18.943  35.481  31.761  1.00  0.00     0.201 A 
ATOM     19  C   UNL     1      20.656  35.034  30.101  1.00  0.00     0.098 A 
ATOM     20  C   UNL     1      18.005  35.712  30.736  1.00  0.00     0.176 A 
ATOM     21  C   UNL     1      19.740  35.272  29.075  1.00  0.00     0.146 A 
ATOM     22  C   UNL     1      18.400  35.607  29.381  1.00  0.00     0.111 A 
ATOM     23  O   UNL     1      20.144  35.180  27.813  1.00  0.00    -0.456 OA
ATOM     24  C   UNL     1      17.521  35.827  28.302  1.00  0.00     0.197 A 
ATOM     25  C   UNL     1      19.343  35.390  26.770  1.00  0.00     0.138 A 
ATOM     26  C   UNL     1      17.994  35.714  26.993  1.00  0.00     0.100 A 
ATOM     27  O   UNL     1      16.310  36.125  28.489  1.00  0.00    -0.289 OA
BRANCH  18  28
ATOM     28  O   UNL     1      18.554  35.649  33.092  1.00  0.00    -0.502 OA
ATOM     29  H   UNL     1      18.424  36.562  33.509  1.00  0.00     0.293 HD
ENDBRANCH  18  28
BRANCH  20  30
ATOM     30  O   UNL     1      16.690  36.053  31.063  1.00  0.00    -0.504 OA
ATOM     31  H   UNL     1      16.102  36.608  30.452  1.00  0.00     0.293 HD
ENDBRANCH  20  30
BRANCH  25  32
ATOM     32  C   UNL     1      19.905  35.261  25.402  1.00  0.00     0.017 A 
ATOM     33  C   UNL     1      19.351  36.017  24.353  1.00  0.00     0.012 A 
ATOM     34  C   UNL     1      20.961  34.371  25.113  1.00  0.00     0.012 A 
ATOM     35  C   UNL     1      19.854  35.905  23.053  1.00  0.00     0.001 A 
ATOM     36  C   UNL     1      21.459  34.263  23.811  1.00  0.00     0.001 A 
ATOM     37  C   UNL     1      20.908  35.031  22.783  1.00  0.00     0.000 A 
ENDBRANCH  25  32
ENDBRANCH   1  17
TORSDOF 9
ENDMDL
