MODEL 1
REMARK VINA RESULT:     1.389      0.000      0.000
REMARK INTER + INTRA:           3.048
REMARK INTER:                   2.201
REMARK INTRA:                   0.847
REMARK UNBOUND:                 0.847
REMARK SMILES CCCCCCCCCCCC(=O)[O-]
REMARK SMILES IDX 7 1 8 2 9 3 10 4 11 5 12 6 13 7 14 8 6 9 5 10 4 11 3 12 2 13
REMARK SMILES IDX 1 14
REMARK H PARENT
REMARK Flexibility Score: inf
ROOT
ATOM      1  C   UNL     1      10.492  13.474   0.228  1.00  0.00     0.000 C 
ENDROOT
BRANCH   1   2
ATOM      2  C   UNL     1       9.335  14.351  -0.283  1.00  0.00     0.000 C 
BRANCH   2   3
ATOM      3  C   UNL     1       8.116  14.341   0.656  1.00  0.00     0.000 C 
BRANCH   3   4
ATOM      4  C   UNL     1       8.452  14.852   2.066  1.00  0.00     0.006 C 
BRANCH   4   5
ATOM      5  C   UNL     1       8.908  16.317   2.067  1.00  0.00     0.053 C 
BRANCH   5   6
ATOM      6  C   UNL     1       7.777  17.215   1.674  1.00  0.00     0.041 C 
ATOM      7  O   UNL     1       6.604  16.959   2.052  1.00  0.00    -0.550 OA
ATOM      8  O   UNL     1       8.027  18.362   0.931  1.00  0.00    -0.550 OA
ENDBRANCH   5   6
ENDBRANCH   4   5
ENDBRANCH   3   4
ENDBRANCH   2   3
ENDBRANCH   1   2
BRANCH   1   9
ATOM      9  C   UNL     1      11.862  13.775  -0.407  1.00  0.00     0.000 C 
BRANCH   9  10
ATOM     10  C   UNL     1      13.002  12.949   0.209  1.00  0.00    -0.000 C 
BRANCH  10  11
ATOM     11  C   UNL     1      13.178  13.279   1.696  1.00  0.00    -0.000 C 
BRANCH  11  12
ATOM     12  C   UNL     1      12.232  14.411   2.124  1.00  0.00    -0.000 C 
BRANCH  12  13
ATOM     13  C   UNL     1      12.735  15.796   1.694  1.00  0.00    -0.003 C 
ATOM     14  C   UNL     1      11.774  16.921   2.077  1.00  0.00     0.004 C 
ENDBRANCH  12  13
ENDBRANCH  11  12
ENDBRANCH  10  11
ENDBRANCH   9  10
ENDBRANCH   1   9
TORSDOF 10
ENDMDL
MODEL 2
REMARK VINA RESULT:     1.555      2.435      3.720
REMARK INTER + INTRA:           3.311
REMARK INTER:                   3.632
REMARK INTRA:                  -0.322
REMARK UNBOUND:                 0.847
REMARK SMILES CCCCCCCCCCCC(=O)[O-]
REMARK SMILES IDX 7 1 8 2 9 3 10 4 11 5 12 6 13 7 14 8 6 9 5 10 4 11 3 12 2 13
REMARK SMILES IDX 1 14
REMARK H PARENT
REMARK Flexibility Score: inf
ROOT
ATOM      1  C   UNL     1       9.551  15.973   0.904  1.00  0.00     0.000 C 
ENDROOT
BRANCH   1   2
ATOM      2  C   UNL     1       8.455  15.471   1.861  1.00  0.00     0.000 C 
BRANCH   2   3
ATOM      3  C   UNL     1       7.960  14.056   1.515  1.00  0.00     0.000 C 
BRANCH   3   4
ATOM      4  C   UNL     1       6.581  13.749   2.119  1.00  0.00     0.006 C 
BRANCH   4   5
ATOM      5  C   UNL     1       5.461  14.583   1.482  1.00  0.00     0.053 C 
BRANCH   5   6
ATOM      6  C   UNL     1       4.469  13.691   0.803  1.00  0.00     0.041 C 
ATOM      7  O   UNL     1       4.845  12.897  -0.098  1.00  0.00    -0.550 OA
ATOM      8  O   UNL     1       3.137  13.704   1.200  1.00  0.00    -0.550 OA
ENDBRANCH   5   6
ENDBRANCH   4   5
ENDBRANCH   3   4
ENDBRANCH   2   3
ENDBRANCH   1   2
BRANCH   1   9
ATOM      9  C   UNL     1      10.625  16.862   1.556  1.00  0.00     0.000 C 
BRANCH   9  10
ATOM     10  C   UNL     1      11.931  16.108   1.848  1.00  0.00    -0.000 C 
BRANCH  10  11
ATOM     11  C   UNL     1      11.660  14.625   2.125  1.00  0.00    -0.000 C 
BRANCH  11  12
ATOM     12  C   UNL     1      12.438  13.730   1.147  1.00  0.00    -0.000 C 
BRANCH  12  13
ATOM     13  C   UNL     1      11.518  12.988   0.167  1.00  0.00    -0.003 C 
ATOM     14  C   UNL     1      10.881  13.917  -0.867  1.00  0.00     0.004 C 
ENDBRANCH  12  13
ENDBRANCH  11  12
ENDBRANCH  10  11
ENDBRANCH   9  10
ENDBRANCH   1   9
TORSDOF 10
ENDMDL
MODEL 3
REMARK VINA RESULT:     3.392      3.628      4.881
REMARK INTER + INTRA:           6.222
REMARK INTER:                   6.706
REMARK INTRA:                  -0.483
REMARK UNBOUND:                 0.847
REMARK SMILES CCCCCCCCCCCC(=O)[O-]
REMARK SMILES IDX 7 1 8 2 9 3 10 4 11 5 12 6 13 7 14 8 6 9 5 10 4 11 3 12 2 13
REMARK SMILES IDX 1 14
REMARK H PARENT
REMARK Flexibility Score: inf
ROOT
ATOM      1  C   UNL     1      11.513  14.022  -1.359  1.00  0.00     0.000 C 
ENDROOT
BRANCH   1   2
ATOM      2  C   UNL     1      10.891  13.262  -0.173  1.00  0.00     0.000 C 
BRANCH   2   3
ATOM      3  C   UNL     1      11.855  13.120   1.018  1.00  0.00     0.000 C 
BRANCH   3   4
ATOM      4  C   UNL     1      11.583  14.150   2.125  1.00  0.00     0.006 C 
BRANCH   4   5
ATOM      5  C   UNL     1      10.142  14.678   2.094  1.00  0.00     0.053 C 
BRANCH   5   6
ATOM      6  C   UNL     1      10.132  16.150   1.821  1.00  0.00     0.041 C 
ATOM      7  O   UNL     1      11.178  16.728   1.425  1.00  0.00    -0.550 OA
ATOM      8  O   UNL     1       8.954  16.874   1.957  1.00  0.00    -0.550 OA
ENDBRANCH   5   6
ENDBRANCH   4   5
ENDBRANCH   3   4
ENDBRANCH   2   3
ENDBRANCH   1   2
BRANCH   1   9
ATOM      9  C   UNL     1      10.547  14.308  -2.522  1.00  0.00     0.000 C 
BRANCH   9  10
ATOM     10  C   UNL     1      11.138  13.950  -3.894  1.00  0.00    -0.000 C 
BRANCH  10  11
ATOM     11  C   UNL     1      10.963  15.104  -4.887  1.00  0.00    -0.000 C 
BRANCH  11  12
ATOM     12  C   UNL     1      12.103  16.125  -4.752  1.00  0.00    -0.000 C 
BRANCH  12  13
ATOM     13  C   UNL     1      12.283  16.980  -6.015  1.00  0.00    -0.003 C 
ATOM     14  C   UNL     1      13.731  17.423  -6.229  1.00  0.00     0.004 C 
ENDBRANCH  12  13
ENDBRANCH  11  12
ENDBRANCH  10  11
ENDBRANCH   9  10
ENDBRANCH   1   9
TORSDOF 10
ENDMDL
MODEL 4
REMARK VINA RESULT:     3.660     15.578     16.948
REMARK INTER + INTRA:           6.646
REMARK INTER:                   7.434
REMARK INTRA:                  -0.788
REMARK UNBOUND:                 0.847
REMARK SMILES CCCCCCCCCCCC(=O)[O-]
REMARK SMILES IDX 7 1 8 2 9 3 10 4 11 5 12 6 13 7 14 8 6 9 5 10 4 11 3 12 2 13
REMARK SMILES IDX 1 14
REMARK H PARENT
REMARK Flexibility Score: inf
ROOT
ATOM      1  C   UNL     1      18.831  17.389 -12.174  1.00  0.00     0.000 C 
ENDROOT
BRANCH   1   2
ATOM      2  C   UNL     1      18.107  18.028 -10.975  1.00  0.00     0.000 C 
BRANCH   2   3
ATOM      3  C   UNL     1      18.071  19.564 -11.046  1.00  0.00     0.000 C 
BRANCH   3   4
ATOM      4  C   UNL     1      18.339  20.096 -12.463  1.00  0.00     0.006 C 
BRANCH   4   5
ATOM      5  C   UNL     1      19.335  21.262 -12.475  1.00  0.00     0.053 C 
BRANCH   5   6
ATOM      6  C   UNL     1      20.718  20.770 -12.183  1.00  0.00     0.041 C 
ATOM      7  O   UNL     1      21.463  21.406 -11.392  1.00  0.00    -0.550 OA
ATOM      8  O   UNL     1      21.167  19.581 -12.747  1.00  0.00    -0.550 OA
ENDBRANCH   5   6
ENDBRANCH   4   5
ENDBRANCH   3   4
ENDBRANCH   2   3
ENDBRANCH   1   2
BRANCH   1   9
ATOM      9  C   UNL     1      17.908  16.703 -13.198  1.00  0.00     0.000 C 
BRANCH   9  10
ATOM     10  C   UNL     1      16.794  15.876 -12.539  1.00  0.00    -0.000 C 
BRANCH  10  11
ATOM     11  C   UNL     1      16.641  14.513 -13.226  1.00  0.00    -0.000 C 
BRANCH  11  12
ATOM     12  C   UNL     1      17.946  14.101 -13.925  1.00  0.00    -0.000 C 
BRANCH  12  13
ATOM     13  C   UNL     1      18.833  13.212 -13.042  1.00  0.00    -0.003 C 
ATOM     14  C   UNL     1      20.156  13.881 -12.667  1.00  0.00     0.004 C 
ENDBRANCH  12  13
ENDBRANCH  11  12
ENDBRANCH  10  11
ENDBRANCH   9  10
ENDBRANCH   1   9
TORSDOF 10
ENDMDL
MODEL 5
REMARK VINA RESULT:     3.736     15.582     17.050
REMARK INTER + INTRA:           6.767
REMARK INTER:                   7.448
REMARK INTRA:                  -0.682
REMARK UNBOUND:                 0.847
REMARK SMILES CCCCCCCCCCCC(=O)[O-]
REMARK SMILES IDX 7 1 8 2 9 3 10 4 11 5 12 6 13 7 14 8 6 9 5 10 4 11 3 12 2 13
REMARK SMILES IDX 1 14
REMARK H PARENT
REMARK Flexibility Score: inf
ROOT
ATOM      1  C   UNL     1      18.541  17.858 -11.345  1.00  0.00     0.000 C 
ENDROOT
BRANCH   1   2
ATOM      2  C   UNL     1      18.048  17.229 -12.661  1.00  0.00     0.000 C 
BRANCH   2   3
ATOM      3  C   UNL     1      16.840  16.296 -12.463  1.00  0.00     0.000 C 
BRANCH   3   4
ATOM      4  C   UNL     1      16.918  15.035 -13.337  1.00  0.00     0.006 C 
BRANCH   4   5
ATOM      5  C   UNL     1      18.313  14.822 -13.938  1.00  0.00     0.053 C 
BRANCH   5   6
ATOM      6  C   UNL     1      19.100  13.862 -13.102  1.00  0.00     0.041 C 
ATOM      7  O   UNL     1      18.531  12.875 -12.566  1.00  0.00    -0.550 OA
ATOM      8  O   UNL     1      20.472  14.030 -12.956  1.00  0.00    -0.550 OA
ENDBRANCH   5   6
ENDBRANCH   4   5
ENDBRANCH   3   4
ENDBRANCH   2   3
ENDBRANCH   1   2
BRANCH   1   9
ATOM      9  C   UNL     1      17.925  19.229 -11.012  1.00  0.00     0.000 C 
BRANCH   9  10
ATOM     10  C   UNL     1      17.426  19.979 -12.255  1.00  0.00    -0.000 C 
BRANCH  10  11
ATOM     11  C   UNL     1      18.597  20.588 -13.037  1.00  0.00    -0.000 C 
BRANCH  11  12
ATOM     12  C   UNL     1      19.503  21.418 -12.113  1.00  0.00    -0.000 C 
BRANCH  12  13
ATOM     13  C   UNL     1      20.990  21.079 -12.286  1.00  0.00    -0.003 C 
ATOM     14  C   UNL     1      21.234  19.592 -12.541  1.00  0.00     0.004 C 
ENDBRANCH  12  13
ENDBRANCH  11  12
ENDBRANCH  10  11
ENDBRANCH   9  10
ENDBRANCH   1   9
TORSDOF 10
ENDMDL
MODEL 6
REMARK VINA RESULT:     4.141     14.578     16.206
REMARK INTER + INTRA:           7.409
REMARK INTER:                   8.055
REMARK INTRA:                  -0.646
REMARK UNBOUND:                 0.847
REMARK SMILES CCCCCCCCCCCC(=O)[O-]
REMARK SMILES IDX 7 1 8 2 9 3 10 4 11 5 12 6 13 7 14 8 6 9 5 10 4 11 3 12 2 13
REMARK SMILES IDX 1 14
REMARK H PARENT
REMARK Flexibility Score: inf
ROOT
ATOM      1  C   UNL     1      18.943  17.439 -12.437  1.00  0.00     0.000 C 
ENDROOT
BRANCH   1   2
ATOM      2  C   UNL     1      17.935  16.517 -13.146  1.00  0.00     0.000 C 
BRANCH   2   3
ATOM      3  C   UNL     1      18.440  15.070 -13.282  1.00  0.00     0.000 C 
BRANCH   3   4
ATOM      4  C   UNL     1      17.298  14.043 -13.280  1.00  0.00     0.006 C 
BRANCH   4   5
ATOM      5  C   UNL     1      15.916  14.700 -13.171  1.00  0.00     0.053 C 
BRANCH   5   6
ATOM      6  C   UNL     1      15.204  14.218 -11.946  1.00  0.00     0.041 C 
ATOM      7  O   UNL     1      14.876  15.031 -11.043  1.00  0.00    -0.550 OA
ATOM      8  O   UNL     1      14.860  12.877 -11.825  1.00  0.00    -0.550 OA
ENDBRANCH   5   6
ENDBRANCH   4   5
ENDBRANCH   3   4
ENDBRANCH   2   3
ENDBRANCH   1   2
BRANCH   1   9
ATOM      9  C   UNL     1      18.489  17.959 -11.061  1.00  0.00     0.000 C 
BRANCH   9  10
ATOM     10  C   UNL     1      18.149  19.457 -11.070  1.00  0.00    -0.000 C 
BRANCH  10  11
ATOM     11  C   UNL     1      18.269  20.040 -12.482  1.00  0.00    -0.000 C 
BRANCH  11  12
ATOM     12  C   UNL     1      19.105  21.329 -12.477  1.00  0.00    -0.000 C 
BRANCH  12  13
ATOM     13  C   UNL     1      20.564  21.084 -12.063  1.00  0.00    -0.003 C 
ATOM     14  C   UNL     1      21.232  19.974 -12.875  1.00  0.00     0.004 C 
ENDBRANCH  12  13
ENDBRANCH  11  12
ENDBRANCH  10  11
ENDBRANCH   9  10
ENDBRANCH   1   9
TORSDOF 10
ENDMDL
