MODEL 1
REMARK VINA RESULT:    -3.297      0.000      0.000
REMARK INTER + INTRA:          -8.277
REMARK INTER:                  -5.996
REMARK INTRA:                  -2.281
REMARK UNBOUND:                -2.281
REMARK SMILES CCCCCCCCCCCCCC[C@H](C)C(=O)[O-]
REMARK SMILES IDX 9 1 10 2 11 3 12 4 13 5 14 6 15 7 16 8 17 9 18 10 19 11 8 12
REMARK SMILES IDX 7 13 6 14 5 15 4 16 3 17 2 18 1 19
REMARK H PARENT
REMARK Flexibility Score: inf
ROOT
ATOM      1  C   UNL     1      57.358  26.627  52.274  1.00  0.00     0.000 C 
ENDROOT
BRANCH   1   2
ATOM      2  C   UNL     1      57.647  28.094  51.892  1.00  0.00     0.000 C 
BRANCH   2   3
ATOM      3  C   UNL     1      57.388  28.407  50.407  1.00  0.00     0.000 C 
BRANCH   3   4
ATOM      4  C   UNL     1      58.662  28.827  49.656  1.00  0.00     0.000 C 
BRANCH   4   5
ATOM      5  C   UNL     1      59.941  28.266  50.301  1.00  0.00     0.001 C 
BRANCH   5   6
ATOM      6  C   UNL     1      60.426  26.968  49.623  1.00  0.00     0.009 C 
BRANCH   6   7
ATOM      7  C   UNL     1      61.594  26.269  50.356  1.00  0.00     0.032 C 
ATOM      8  C   UNL     1      62.955  26.560  49.708  1.00  0.00     0.014 C 
BRANCH   7   9
ATOM      9  C   UNL     1      61.351  24.790  50.504  1.00  0.00     0.044 C 
ATOM     10  O   UNL     1      60.177  24.339  50.450  1.00  0.00    -0.550 OA
ATOM     11  O   UNL     1      62.414  23.905  50.651  1.00  0.00    -0.550 OA
ENDBRANCH   7   9
ENDBRANCH   6   7
ENDBRANCH   5   6
ENDBRANCH   4   5
ENDBRANCH   3   4
ENDBRANCH   2   3
ENDBRANCH   1   2
BRANCH   1  12
ATOM     12  C   UNL     1      56.975  25.774  51.052  1.00  0.00     0.000 C 
BRANCH  12  13
ATOM     13  C   UNL     1      55.534  25.245  51.126  1.00  0.00    -0.000 C 
BRANCH  13  14
ATOM     14  C   UNL     1      54.679  25.690  49.927  1.00  0.00    -0.000 C 
BRANCH  14  15
ATOM     15  C   UNL     1      53.487  26.567  50.341  1.00  0.00    -0.000 C 
BRANCH  15  16
ATOM     16  C   UNL     1      53.777  28.070  50.185  1.00  0.00    -0.000 C 
BRANCH  16  17
ATOM     17  C   UNL     1      53.812  28.807  51.534  1.00  0.00    -0.000 C 
BRANCH  17  18
ATOM     18  C   UNL     1      53.379  27.915  52.707  1.00  0.00    -0.003 C 
ATOM     19  C   UNL     1      54.404  27.961  53.838  1.00  0.00     0.004 C 
ENDBRANCH  17  18
ENDBRANCH  16  17
ENDBRANCH  15  16
ENDBRANCH  14  15
ENDBRANCH  13  14
ENDBRANCH  12  13
ENDBRANCH   1  12
TORSDOF 14
ENDMDL
MODEL 2
REMARK VINA RESULT:    -3.272      3.073      6.114
REMARK INTER + INTRA:          -8.231
REMARK INTER:                  -5.942
REMARK INTRA:                  -2.289
REMARK UNBOUND:                -2.281
REMARK SMILES CCCCCCCCCCCCCC[C@H](C)C(=O)[O-]
REMARK SMILES IDX 9 1 10 2 11 3 12 4 13 5 14 6 15 7 16 8 17 9 18 10 19 11 8 12
REMARK SMILES IDX 7 13 6 14 5 15 4 16 3 17 2 18 1 19
REMARK H PARENT
REMARK Flexibility Score: inf
ROOT
ATOM      1  C   UNL     1      58.790  28.412  49.623  1.00  0.00     0.000 C 
ENDROOT
BRANCH   1   2
ATOM      2  C   UNL     1      58.567  28.992  51.035  1.00  0.00     0.000 C 
BRANCH   2   3
ATOM      3  C   UNL     1      57.224  28.585  51.665  1.00  0.00     0.000 C 
BRANCH   3   4
ATOM      4  C   UNL     1      56.312  27.827  50.686  1.00  0.00     0.000 C 
BRANCH   4   5
ATOM      5  C   UNL     1      54.928  28.482  50.539  1.00  0.00     0.001 C 
BRANCH   5   6
ATOM      6  C   UNL     1      53.810  27.452  50.279  1.00  0.00     0.009 C 
BRANCH   6   7
ATOM      7  C   UNL     1      54.240  25.983  50.496  1.00  0.00     0.032 C 
ATOM      8  C   UNL     1      53.895  25.085  49.299  1.00  0.00     0.014 C 
BRANCH   7   9
ATOM      9  C   UNL     1      53.693  25.428  51.785  1.00  0.00     0.044 C 
ATOM     10  O   UNL     1      53.277  24.240  51.830  1.00  0.00    -0.550 OA
ATOM     11  O   UNL     1      53.686  26.195  52.946  1.00  0.00    -0.550 OA
ENDBRANCH   7   9
ENDBRANCH   6   7
ENDBRANCH   5   6
ENDBRANCH   4   5
ENDBRANCH   3   4
ENDBRANCH   2   3
ENDBRANCH   1   2
BRANCH   1  12
ATOM     12  C   UNL     1      59.913  27.360  49.598  1.00  0.00     0.000 C 
BRANCH  12  13
ATOM     13  C   UNL     1      59.376  25.920  49.645  1.00  0.00    -0.000 C 
BRANCH  13  14
ATOM     14  C   UNL     1      60.212  25.008  50.559  1.00  0.00    -0.000 C 
BRANCH  14  15
ATOM     15  C   UNL     1      61.173  25.796  51.464  1.00  0.00    -0.000 C 
BRANCH  15  16
ATOM     16  C   UNL     1      60.832  25.648  52.957  1.00  0.00    -0.000 C 
BRANCH  16  17
ATOM     17  C   UNL     1      59.424  26.165  53.295  1.00  0.00    -0.000 C 
BRANCH  17  18
ATOM     18  C   UNL     1      58.471  25.045  53.736  1.00  0.00    -0.003 C 
ATOM     19  C   UNL     1      57.237  24.989  52.840  1.00  0.00     0.004 C 
ENDBRANCH  17  18
ENDBRANCH  16  17
ENDBRANCH  15  16
ENDBRANCH  14  15
ENDBRANCH  13  14
ENDBRANCH  12  13
ENDBRANCH   1  12
TORSDOF 14
ENDMDL
MODEL 3
REMARK VINA RESULT:    -3.254      1.692      3.250
REMARK INTER + INTRA:          -8.198
REMARK INTER:                  -5.930
REMARK INTRA:                  -2.269
REMARK UNBOUND:                -2.281
REMARK SMILES CCCCCCCCCCCCCC[C@H](C)C(=O)[O-]
REMARK SMILES IDX 9 1 10 2 11 3 12 4 13 5 14 6 15 7 16 8 17 9 18 10 19 11 8 12
REMARK SMILES IDX 7 13 6 14 5 15 4 16 3 17 2 18 1 19
REMARK H PARENT
REMARK Flexibility Score: inf
ROOT
ATOM      1  C   UNL     1      54.338  29.606  52.153  1.00  0.00     0.000 C 
ENDROOT
BRANCH   1   2
ATOM      2  C   UNL     1      55.490  28.859  52.857  1.00  0.00     0.000 C 
BRANCH   2   3
ATOM      3  C   UNL     1      56.871  29.496  52.625  1.00  0.00     0.000 C 
BRANCH   3   4
ATOM      4  C   UNL     1      57.899  28.501  52.061  1.00  0.00     0.000 C 
BRANCH   4   5
ATOM      5  C   UNL     1      57.793  28.342  50.535  1.00  0.00     0.001 C 
BRANCH   5   6
ATOM      6  C   UNL     1      59.102  28.714  49.809  1.00  0.00     0.009 C 
BRANCH   6   7
ATOM      7  C   UNL     1      59.987  27.501  49.438  1.00  0.00     0.032 C 
ATOM      8  C   UNL     1      59.313  26.160  49.760  1.00  0.00     0.014 C 
BRANCH   7   9
ATOM      9  C   UNL     1      61.355  27.601  50.060  1.00  0.00     0.044 C 
ATOM     10  O   UNL     1      62.341  27.055  49.496  1.00  0.00    -0.550 OA
ATOM     11  O   UNL     1      61.557  28.331  51.226  1.00  0.00    -0.550 OA
ENDBRANCH   7   9
ENDBRANCH   6   7
ENDBRANCH   5   6
ENDBRANCH   4   5
ENDBRANCH   3   4
ENDBRANCH   2   3
ENDBRANCH   1   2
BRANCH   1  12
ATOM     12  C   UNL     1      54.148  29.139  50.698  1.00  0.00     0.000 C 
BRANCH  12  13
ATOM     13  C   UNL     1      52.875  28.299  50.507  1.00  0.00    -0.000 C 
BRANCH  13  14
ATOM     14  C   UNL     1      53.165  26.919  49.893  1.00  0.00    -0.000 C 
BRANCH  14  15
ATOM     15  C   UNL     1      53.949  26.000  50.844  1.00  0.00    -0.000 C 
BRANCH  15  16
ATOM     16  C   UNL     1      55.358  25.671  50.319  1.00  0.00    -0.000 C 
BRANCH  16  17
ATOM     17  C   UNL     1      56.272  25.087  51.408  1.00  0.00    -0.000 C 
BRANCH  17  18
ATOM     18  C   UNL     1      55.732  25.328  52.826  1.00  0.00    -0.003 C 
ATOM     19  C   UNL     1      56.867  25.371  53.846  1.00  0.00     0.004 C 
ENDBRANCH  17  18
ENDBRANCH  16  17
ENDBRANCH  15  16
ENDBRANCH  14  15
ENDBRANCH  13  14
ENDBRANCH  12  13
ENDBRANCH   1  12
TORSDOF 14
ENDMDL
MODEL 4
REMARK VINA RESULT:    -3.230      2.527      4.238
REMARK INTER + INTRA:          -8.154
REMARK INTER:                  -6.003
REMARK INTRA:                  -2.151
REMARK UNBOUND:                -2.281
REMARK SMILES CCCCCCCCCCCCCC[C@H](C)C(=O)[O-]
REMARK SMILES IDX 9 1 10 2 11 3 12 4 13 5 14 6 15 7 16 8 17 9 18 10 19 11 8 12
REMARK SMILES IDX 7 13 6 14 5 15 4 16 3 17 2 18 1 19
REMARK H PARENT
REMARK Flexibility Score: inf
ROOT
ATOM      1  C   UNL     1      58.549  28.673  49.896  1.00  0.00     0.000 C 
ENDROOT
BRANCH   1   2
ATOM      2  C   UNL     1      59.668  27.650  49.611  1.00  0.00     0.000 C 
BRANCH   2   3
ATOM      3  C   UNL     1      59.184  26.189  49.606  1.00  0.00     0.000 C 
BRANCH   3   4
ATOM      4  C   UNL     1      60.108  25.252  50.400  1.00  0.00     0.000 C 
BRANCH   4   5
ATOM      5  C   UNL     1      59.330  24.198  51.206  1.00  0.00     0.001 C 
BRANCH   5   6
ATOM      6  C   UNL     1      57.881  24.633  51.506  1.00  0.00     0.009 C 
BRANCH   6   7
ATOM      7  C   UNL     1      57.614  24.962  52.993  1.00  0.00     0.032 C 
ATOM      8  C   UNL     1      58.718  24.437  53.921  1.00  0.00     0.014 C 
BRANCH   7   9
ATOM      9  C   UNL     1      56.250  24.494  53.429  1.00  0.00     0.044 C 
ATOM     10  O   UNL     1      55.243  25.225  53.232  1.00  0.00    -0.550 OA
ATOM     11  O   UNL     1      56.077  23.240  54.004  1.00  0.00    -0.550 OA
ENDBRANCH   7   9
ENDBRANCH   6   7
ENDBRANCH   5   6
ENDBRANCH   4   5
ENDBRANCH   3   4
ENDBRANCH   2   3
ENDBRANCH   1   2
BRANCH   1  12
ATOM     12  C   UNL     1      57.240  27.992  50.335  1.00  0.00     0.000 C 
BRANCH  12  13
ATOM     13  C   UNL     1      56.815  28.388  51.758  1.00  0.00    -0.000 C 
BRANCH  13  14
ATOM     14  C   UNL     1      55.289  28.522  51.903  1.00  0.00    -0.000 C 
BRANCH  14  15
ATOM     15  C   UNL     1      54.602  28.931  50.590  1.00  0.00    -0.000 C 
BRANCH  15  16
ATOM     16  C   UNL     1      53.173  28.371  50.473  1.00  0.00    -0.000 C 
BRANCH  16  17
ATOM     17  C   UNL     1      53.088  26.886  50.861  1.00  0.00    -0.000 C 
BRANCH  17  18
ATOM     18  C   UNL     1      53.317  25.948  49.666  1.00  0.00    -0.003 C 
ATOM     19  C   UNL     1      54.688  25.282  49.747  1.00  0.00     0.004 C 
ENDBRANCH  17  18
ENDBRANCH  16  17
ENDBRANCH  15  16
ENDBRANCH  14  15
ENDBRANCH  13  14
ENDBRANCH  12  13
ENDBRANCH   1  12
TORSDOF 14
ENDMDL
MODEL 5
REMARK VINA RESULT:    -3.197      1.649      3.189
REMARK INTER + INTRA:          -8.095
REMARK INTER:                  -6.006
REMARK INTRA:                  -2.089
REMARK UNBOUND:                -2.281
REMARK SMILES CCCCCCCCCCCCCC[C@H](C)C(=O)[O-]
REMARK SMILES IDX 9 1 10 2 11 3 12 4 13 5 14 6 15 7 16 8 17 9 18 10 19 11 8 12
REMARK SMILES IDX 7 13 6 14 5 15 4 16 3 17 2 18 1 19
REMARK H PARENT
REMARK Flexibility Score: inf
ROOT
ATOM      1  C   UNL     1      57.036  29.013  53.934  1.00  0.00     0.000 C 
ENDROOT
BRANCH   1   2
ATOM      2  C   UNL     1      57.707  29.572  52.662  1.00  0.00     0.000 C 
BRANCH   2   3
ATOM      3  C   UNL     1      58.454  28.508  51.839  1.00  0.00     0.000 C 
BRANCH   3   4
ATOM      4  C   UNL     1      58.767  28.973  50.408  1.00  0.00     0.000 C 
BRANCH   4   5
ATOM      5  C   UNL     1      59.095  27.804  49.465  1.00  0.00     0.001 C 
BRANCH   5   6
ATOM      6  C   UNL     1      58.844  26.429  50.118  1.00  0.00     0.009 C 
BRANCH   6   7
ATOM      7  C   UNL     1      60.050  25.464  50.044  1.00  0.00     0.032 C 
ATOM      8  C   UNL     1      59.755  24.101  50.687  1.00  0.00     0.014 C 
BRANCH   7   9
ATOM      9  C   UNL     1      61.298  26.089  50.610  1.00  0.00     0.044 C 
ATOM     10  O   UNL     1      62.292  26.291  49.863  1.00  0.00    -0.550 OA
ATOM     11  O   UNL     1      61.352  26.495  51.939  1.00  0.00    -0.550 OA
ENDBRANCH   7   9
ENDBRANCH   6   7
ENDBRANCH   5   6
ENDBRANCH   4   5
ENDBRANCH   3   4
ENDBRANCH   2   3
ENDBRANCH   1   2
BRANCH   1  12
ATOM     12  C   UNL     1      55.672  29.672  54.207  1.00  0.00     0.000 C 
BRANCH  12  13
ATOM     13  C   UNL     1      55.022  30.239  52.935  1.00  0.00    -0.000 C 
BRANCH  13  14
ATOM     14  C   UNL     1      53.913  29.327  52.382  1.00  0.00    -0.000 C 
BRANCH  14  15
ATOM     15  C   UNL     1      54.006  29.136  50.860  1.00  0.00    -0.000 C 
BRANCH  15  16
ATOM     16  C   UNL     1      55.115  28.148  50.457  1.00  0.00    -0.000 C 
BRANCH  16  17
ATOM     17  C   UNL     1      54.901  26.746  51.051  1.00  0.00    -0.000 C 
BRANCH  17  18
ATOM     18  C   UNL     1      55.205  25.624  50.047  1.00  0.00    -0.003 C 
ATOM     19  C   UNL     1      53.918  24.996  49.520  1.00  0.00     0.004 C 
ENDBRANCH  17  18
ENDBRANCH  16  17
ENDBRANCH  15  16
ENDBRANCH  14  15
ENDBRANCH  13  14
ENDBRANCH  12  13
ENDBRANCH   1  12
TORSDOF 14
ENDMDL
MODEL 6
REMARK VINA RESULT:    -3.194     11.010     12.726
REMARK INTER + INTRA:          -8.089
REMARK INTER:                  -5.698
REMARK INTRA:                  -2.391
REMARK UNBOUND:                -2.281
REMARK SMILES CCCCCCCCCCCCCC[C@H](C)C(=O)[O-]
REMARK SMILES IDX 9 1 10 2 11 3 12 4 13 5 14 6 15 7 16 8 17 9 18 10 19 11 8 12
REMARK SMILES IDX 7 13 6 14 5 15 4 16 3 17 2 18 1 19
REMARK H PARENT
REMARK Flexibility Score: inf
ROOT
ATOM      1  C   UNL     1      60.444  32.817  59.150  1.00  0.00     0.000 C 
ENDROOT
BRANCH   1   2
ATOM      2  C   UNL     1      60.727  31.312  59.338  1.00  0.00     0.000 C 
BRANCH   2   3
ATOM      3  C   UNL     1      61.100  30.929  60.780  1.00  0.00     0.000 C 
BRANCH   3   4
ATOM      4  C   UNL     1      61.691  29.513  60.887  1.00  0.00     0.000 C 
BRANCH   4   5
ATOM      5  C   UNL     1      63.056  29.495  61.597  1.00  0.00     0.001 C 
BRANCH   5   6
ATOM      6  C   UNL     1      63.980  28.376  61.074  1.00  0.00     0.009 C 
BRANCH   6   7
ATOM      7  C   UNL     1      65.114  28.874  60.148  1.00  0.00     0.032 C 
ATOM      8  C   UNL     1      64.746  28.777  58.660  1.00  0.00     0.014 C 
BRANCH   7   9
ATOM      9  C   UNL     1      66.419  28.183  60.446  1.00  0.00     0.044 C 
ATOM     10  O   UNL     1      67.188  28.650  61.327  1.00  0.00    -0.550 OA
ATOM     11  O   UNL     1      66.766  27.004  59.794  1.00  0.00    -0.550 OA
ENDBRANCH   7   9
ENDBRANCH   6   7
ENDBRANCH   5   6
ENDBRANCH   4   5
ENDBRANCH   3   4
ENDBRANCH   2   3
ENDBRANCH   1   2
BRANCH   1  12
ATOM     12  C   UNL     1      60.260  33.544  60.495  1.00  0.00     0.000 C 
BRANCH  12  13
ATOM     13  C   UNL     1      60.569  35.047  60.402  1.00  0.00    -0.000 C 
BRANCH  13  14
ATOM     14  C   UNL     1      62.036  35.325  60.029  1.00  0.00    -0.000 C 
BRANCH  14  15
ATOM     15  C   UNL     1      62.952  35.421  61.260  1.00  0.00    -0.000 C 
BRANCH  15  16
ATOM     16  C   UNL     1      64.231  34.577  61.110  1.00  0.00    -0.000 C 
BRANCH  16  17
ATOM     17  C   UNL     1      63.932  33.079  60.937  1.00  0.00    -0.000 C 
BRANCH  17  18
ATOM     18  C   UNL     1      64.738  32.442  59.796  1.00  0.00    -0.003 C 
ATOM     19  C   UNL     1      64.070  32.691  58.446  1.00  0.00     0.004 C 
ENDBRANCH  17  18
ENDBRANCH  16  17
ENDBRANCH  15  16
ENDBRANCH  14  15
ENDBRANCH  13  14
ENDBRANCH  12  13
ENDBRANCH   1  12
TORSDOF 14
ENDMDL
MODEL 7
REMARK VINA RESULT:    -3.184     10.301     11.731
REMARK INTER + INTRA:          -8.070
REMARK INTER:                  -5.462
REMARK INTRA:                  -2.608
REMARK UNBOUND:                -2.281
REMARK SMILES CCCCCCCCCCCCCC[C@H](C)C(=O)[O-]
REMARK SMILES IDX 9 1 10 2 11 3 12 4 13 5 14 6 15 7 16 8 17 9 18 10 19 11 8 12
REMARK SMILES IDX 7 13 6 14 5 15 4 16 3 17 2 18 1 19
REMARK H PARENT
REMARK Flexibility Score: inf
ROOT
ATOM      1  C   UNL     1      62.608  32.611  59.437  1.00  0.00     0.000 C 
ENDROOT
BRANCH   1   2
ATOM      2  C   UNL     1      61.554  31.518  59.711  1.00  0.00     0.000 C 
BRANCH   2   3
ATOM      3  C   UNL     1      61.347  31.221  61.207  1.00  0.00     0.000 C 
BRANCH   3   4
ATOM      4  C   UNL     1      61.799  29.806  61.602  1.00  0.00     0.000 C 
BRANCH   4   5
ATOM      5  C   UNL     1      63.330  29.673  61.672  1.00  0.00     0.001 C 
BRANCH   5   6
ATOM      6  C   UNL     1      63.864  28.517  60.801  1.00  0.00     0.009 C 
BRANCH   6   7
ATOM      7  C   UNL     1      64.731  28.973  59.605  1.00  0.00     0.032 C 
ATOM      8  C   UNL     1      65.471  30.290  59.882  1.00  0.00     0.014 C 
BRANCH   7   9
ATOM      9  C   UNL     1      63.929  29.042  58.332  1.00  0.00     0.044 C 
ATOM     10  O   UNL     1      62.774  28.541  58.290  1.00  0.00    -0.550 OA
ATOM     11  O   UNL     1      64.427  29.698  57.211  1.00  0.00    -0.550 OA
ENDBRANCH   7   9
ENDBRANCH   6   7
ENDBRANCH   5   6
ENDBRANCH   4   5
ENDBRANCH   3   4
ENDBRANCH   2   3
ENDBRANCH   1   2
BRANCH   1  12
ATOM     12  C   UNL     1      63.188  33.196  60.738  1.00  0.00     0.000 C 
BRANCH  12  13
ATOM     13  C   UNL     1      62.876  34.691  60.906  1.00  0.00    -0.000 C 
BRANCH  13  14
ATOM     14  C   UNL     1      61.888  35.210  59.846  1.00  0.00    -0.000 C 
BRANCH  14  15
ATOM     15  C   UNL     1      60.548  35.654  60.453  1.00  0.00    -0.000 C 
BRANCH  15  16
ATOM     16  C   UNL     1      59.506  34.522  60.475  1.00  0.00    -0.000 C 
BRANCH  16  17
ATOM     17  C   UNL     1      58.598  34.531  59.235  1.00  0.00    -0.000 C 
BRANCH  17  18
ATOM     18  C   UNL     1      58.767  33.275  58.367  1.00  0.00    -0.003 C 
ATOM     19  C   UNL     1      59.664  33.556  57.164  1.00  0.00     0.004 C 
ENDBRANCH  17  18
ENDBRANCH  16  17
ENDBRANCH  15  16
ENDBRANCH  14  15
ENDBRANCH  13  14
ENDBRANCH  12  13
ENDBRANCH   1  12
TORSDOF 14
ENDMDL
MODEL 8
REMARK VINA RESULT:    -3.145      2.062      3.031
REMARK INTER + INTRA:          -7.999
REMARK INTER:                  -5.426
REMARK INTRA:                  -2.573
REMARK UNBOUND:                -2.281
REMARK SMILES CCCCCCCCCCCCCC[C@H](C)C(=O)[O-]
REMARK SMILES IDX 9 1 10 2 11 3 12 4 13 5 14 6 15 7 16 8 17 9 18 10 19 11 8 12
REMARK SMILES IDX 7 13 6 14 5 15 4 16 3 17 2 18 1 19
REMARK H PARENT
REMARK Flexibility Score: inf
ROOT
ATOM      1  C   UNL     1      55.677  28.393  50.855  1.00  0.00     0.000 C 
ENDROOT
BRANCH   1   2
ATOM      2  C   UNL     1      57.084  27.759  50.849  1.00  0.00     0.000 C 
BRANCH   2   3
ATOM      3  C   UNL     1      58.118  28.559  50.038  1.00  0.00     0.000 C 
BRANCH   3   4
ATOM      4  C   UNL     1      59.307  27.701  49.577  1.00  0.00     0.000 C 
BRANCH   4   5
ATOM      5  C   UNL     1      59.016  26.193  49.661  1.00  0.00     0.001 C 
BRANCH   5   6
ATOM      6  C   UNL     1      60.051  25.437  50.519  1.00  0.00     0.009 C 
BRANCH   6   7
ATOM      7  C   UNL     1      59.517  24.974  51.894  1.00  0.00     0.032 C 
ATOM      8  C   UNL     1      58.091  24.410  51.814  1.00  0.00     0.014 C 
BRANCH   7   9
ATOM      9  C   UNL     1      59.628  26.063  52.929  1.00  0.00     0.044 C 
ATOM     10  O   UNL     1      58.874  26.048  53.938  1.00  0.00    -0.550 OA
ATOM     11  O   UNL     1      60.589  27.062  52.813  1.00  0.00    -0.550 OA
ENDBRANCH   7   9
ENDBRANCH   6   7
ENDBRANCH   5   6
ENDBRANCH   4   5
ENDBRANCH   3   4
ENDBRANCH   2   3
ENDBRANCH   1   2
BRANCH   1  12
ATOM     12  C   UNL     1      54.595  27.409  50.376  1.00  0.00     0.000 C 
BRANCH  12  13
ATOM     13  C   UNL     1      55.159  26.014  50.065  1.00  0.00    -0.000 C 
BRANCH  13  14
ATOM     14  C   UNL     1      54.107  24.903  50.226  1.00  0.00    -0.000 C 
BRANCH  14  15
ATOM     15  C   UNL     1      53.445  24.910  51.613  1.00  0.00    -0.000 C 
BRANCH  15  16
ATOM     16  C   UNL     1      54.284  24.172  52.672  1.00  0.00    -0.000 C 
BRANCH  16  17
ATOM     17  C   UNL     1      54.427  24.975  53.975  1.00  0.00    -0.000 C 
BRANCH  17  18
ATOM     18  C   UNL     1      55.390  26.163  53.837  1.00  0.00    -0.003 C 
ATOM     19  C   UNL     1      54.705  27.472  54.222  1.00  0.00     0.004 C 
ENDBRANCH  17  18
ENDBRANCH  16  17
ENDBRANCH  15  16
ENDBRANCH  14  15
ENDBRANCH  13  14
ENDBRANCH  12  13
ENDBRANCH   1  12
TORSDOF 14
ENDMDL
MODEL 9
REMARK VINA RESULT:    -3.131      3.388      6.236
REMARK INTER + INTRA:          -7.975
REMARK INTER:                  -5.249
REMARK INTRA:                  -2.726
REMARK UNBOUND:                -2.281
REMARK SMILES CCCCCCCCCCCCCC[C@H](C)C(=O)[O-]
REMARK SMILES IDX 9 1 10 2 11 3 12 4 13 5 14 6 15 7 16 8 17 9 18 10 19 11 8 12
REMARK SMILES IDX 7 13 6 14 5 15 4 16 3 17 2 18 1 19
REMARK H PARENT
REMARK Flexibility Score: inf
ROOT
ATOM      1  C   UNL     1      57.081  25.499  51.634  1.00  0.00     0.000 C 
ENDROOT
BRANCH   1   2
ATOM      2  C   UNL     1      55.610  25.317  51.207  1.00  0.00     0.000 C 
BRANCH   2   3
ATOM      3  C   UNL     1      55.145  26.330  50.146  1.00  0.00     0.000 C 
BRANCH   3   4
ATOM      4  C   UNL     1      55.370  27.789  50.576  1.00  0.00     0.000 C 
BRANCH   4   5
ATOM      5  C   UNL     1      54.073  28.616  50.561  1.00  0.00     0.001 C 
BRANCH   5   6
ATOM      6  C   UNL     1      53.571  28.954  51.980  1.00  0.00     0.009 C 
BRANCH   6   7
ATOM      7  C   UNL     1      54.598  28.670  53.100  1.00  0.00     0.032 C 
ATOM      8  C   UNL     1      54.150  27.540  54.038  1.00  0.00     0.014 C 
BRANCH   7   9
ATOM      9  C   UNL     1      54.951  29.921  53.862  1.00  0.00     0.044 C 
ATOM     10  O   UNL     1      55.040  31.020  53.254  1.00  0.00    -0.550 OA
ATOM     11  O   UNL     1      55.132  29.888  55.240  1.00  0.00    -0.550 OA
ENDBRANCH   7   9
ENDBRANCH   6   7
ENDBRANCH   5   6
ENDBRANCH   4   5
ENDBRANCH   3   4
ENDBRANCH   2   3
ENDBRANCH   1   2
BRANCH   1  12
ATOM     12  C   UNL     1      58.057  25.273  50.466  1.00  0.00     0.000 C 
BRANCH  12  13
ATOM     13  C   UNL     1      59.529  25.385  50.893  1.00  0.00    -0.000 C 
BRANCH  13  14
ATOM     14  C   UNL     1      60.207  26.653  50.347  1.00  0.00    -0.000 C 
BRANCH  14  15
ATOM     15  C   UNL     1      59.314  27.427  49.364  1.00  0.00    -0.000 C 
BRANCH  15  16
ATOM     16  C   UNL     1      58.930  28.822  49.887  1.00  0.00    -0.000 C 
BRANCH  16  17
ATOM     17  C   UNL     1      59.392  29.056  51.335  1.00  0.00    -0.000 C 
BRANCH  17  18
ATOM     18  C   UNL     1      58.218  29.261  52.305  1.00  0.00    -0.003 C 
ATOM     19  C   UNL     1      58.353  28.356  53.527  1.00  0.00     0.004 C 
ENDBRANCH  17  18
ENDBRANCH  16  17
ENDBRANCH  15  16
ENDBRANCH  14  15
ENDBRANCH  13  14
ENDBRANCH  12  13
ENDBRANCH   1  12
TORSDOF 14
ENDMDL
