MODEL 1
REMARK VINA RESULT:    -6.047      0.000      0.000
REMARK INTER + INTRA:          -6.801
REMARK INTER:                  -6.577
REMARK INTRA:                  -0.224
REMARK UNBOUND:                -0.224
REMARK SMILES CC1=C2C[C@H](C(C)(C)O)CC[C@]2(C)CCC1
REMARK SMILES IDX 6 1 7 2 8 3 5 4 1 5 2 6 3 7 16 8 4 9 12 10 15 11 11 12 14 13
REMARK SMILES IDX 13 14 10 15 9 16
REMARK H PARENT 9 17
REMARK Flexibility Score: inf
ROOT
ATOM      1  C   UNL     1     113.296 117.345 129.581  1.00  0.00     0.062 C 
ATOM      2  C   UNL     1     113.153 115.810 129.644  1.00  0.00     0.042 C 
ATOM      3  C   UNL     1     114.707 117.723 130.089  1.00  0.00     0.042 C 
ENDROOT
BRANCH   1   4
ATOM      4  C   UNL     1     113.046 117.905 128.131  1.00  0.00     0.024 C 
ATOM      5  C   UNL     1     112.783 115.161 124.732  1.00  0.00     0.039 C 
ATOM      6  C   UNL     1     112.484 116.640 124.625  1.00  0.00    -0.074 C 
ATOM      7  C   UNL     1     112.385 117.434 125.731  1.00  0.00    -0.065 C 
ATOM      8  C   UNL     1     112.353 117.231 123.232  1.00  0.00     0.031 C 
ATOM      9  C   UNL     1     112.488 116.856 127.139  1.00  0.00     0.038 C 
ATOM     10  C   UNL     1     111.957 118.895 125.578  1.00  0.00    -0.011 C 
ATOM     11  C   UNL     1     111.382 118.426 123.116  1.00  0.00     0.005 C 
ATOM     12  C   UNL     1     111.306 119.395 126.896  1.00  0.00     0.011 C 
ATOM     13  C   UNL     1     110.888 118.977 124.461  1.00  0.00     0.011 C 
ATOM     14  C   UNL     1     113.171 119.790 125.226  1.00  0.00     0.016 C 
ATOM     15  C   UNL     1     112.193 119.208 128.141  1.00  0.00     0.008 C 
ENDBRANCH   1   4
BRANCH   1  16
ATOM     16  O   UNL     1     112.349 117.892 130.470  1.00  0.00    -0.390 OA
ATOM     17  H   UNL     1     111.470 117.469 130.279  1.00  0.00     0.211 HD
ENDBRANCH   1  16
TORSDOF 2
ENDMDL
MODEL 2
REMARK VINA RESULT:    -5.710      6.469      8.322
REMARK INTER + INTRA:          -6.434
REMARK INTER:                  -6.220
REMARK INTRA:                  -0.214
REMARK UNBOUND:                -0.224
REMARK SMILES CC1=C2C[C@H](C(C)(C)O)CC[C@]2(C)CCC1
REMARK SMILES IDX 6 1 7 2 8 3 5 4 1 5 2 6 3 7 16 8 4 9 12 10 15 11 11 12 14 13
REMARK SMILES IDX 13 14 10 15 9 16
REMARK H PARENT 9 17
REMARK Flexibility Score: inf
ROOT
ATOM      1  C   UNL     1     117.999 126.767 126.724  1.00  0.00     0.062 C 
ATOM      2  C   UNL     1     119.257 126.722 125.833  1.00  0.00     0.042 C 
ATOM      3  C   UNL     1     117.420 128.200 126.675  1.00  0.00     0.042 C 
ENDROOT
BRANCH   1   4
ATOM      4  C   UNL     1     116.923 125.704 126.285  1.00  0.00     0.024 C 
ATOM      5  C   UNL     1     117.944 122.633 123.339  1.00  0.00     0.039 C 
ATOM      6  C   UNL     1     116.638 122.645 124.101  1.00  0.00    -0.074 C 
ATOM      7  C   UNL     1     116.425 123.496 125.147  1.00  0.00    -0.065 C 
ATOM      8  C   UNL     1     115.538 121.711 123.624  1.00  0.00     0.031 C 
ATOM      9  C   UNL     1     117.523 124.423 125.657  1.00  0.00     0.038 C 
ATOM     10  C   UNL     1     115.136 123.383 125.964  1.00  0.00    -0.011 C 
ATOM     11  C   UNL     1     114.595 121.192 124.731  1.00  0.00     0.005 C 
ATOM     12  C   UNL     1     115.369 123.937 127.396  1.00  0.00     0.011 C 
ATOM     13  C   UNL     1     114.767 121.885 126.090  1.00  0.00     0.011 C 
ATOM     14  C   UNL     1     113.984 124.165 125.285  1.00  0.00     0.016 C 
ATOM     15  C   UNL     1     115.917 125.376 127.427  1.00  0.00     0.008 C 
ENDBRANCH   1   4
BRANCH   1  16
ATOM     16  O   UNL     1     118.410 126.504 128.046  1.00  0.00    -0.390 OA
ATOM     17  H   UNL     1     118.732 125.564 128.086  1.00  0.00     0.211 HD
ENDBRANCH   1  16
TORSDOF 2
ENDMDL
MODEL 3
REMARK VINA RESULT:    -5.463      5.982      7.986
REMARK INTER + INTRA:          -6.165
REMARK INTER:                  -5.908
REMARK INTRA:                  -0.257
REMARK UNBOUND:                -0.224
REMARK SMILES CC1=C2C[C@H](C(C)(C)O)CC[C@]2(C)CCC1
REMARK SMILES IDX 6 1 7 2 8 3 5 4 1 5 2 6 3 7 16 8 4 9 12 10 15 11 11 12 14 13
REMARK SMILES IDX 13 14 10 15 9 16
REMARK H PARENT 9 17
REMARK Flexibility Score: inf
ROOT
ATOM      1  C   UNL     1     118.153 125.901 126.575  1.00  0.00     0.062 C 
ATOM      2  C   UNL     1     118.765 126.822 125.500  1.00  0.00     0.042 C 
ATOM      3  C   UNL     1     116.960 126.640 127.227  1.00  0.00     0.042 C 
ENDROOT
BRANCH   1   4
ATOM      4  C   UNL     1     117.704 124.513 125.982  1.00  0.00     0.024 C 
ATOM      5  C   UNL     1     114.344 122.345 127.761  1.00  0.00     0.039 C 
ATOM      6  C   UNL     1     115.022 121.912 126.480  1.00  0.00    -0.074 C 
ATOM      7  C   UNL     1     115.933 122.707 125.847  1.00  0.00    -0.065 C 
ATOM      8  C   UNL     1     114.695 120.528 125.947  1.00  0.00     0.031 C 
ATOM      9  C   UNL     1     116.257 124.109 126.351  1.00  0.00     0.038 C 
ATOM     10  C   UNL     1     116.496 122.278 124.489  1.00  0.00    -0.011 C 
ATOM     11  C   UNL     1     114.755 120.387 124.411  1.00  0.00     0.005 C 
ATOM     12  C   UNL     1     116.958 123.528 123.692  1.00  0.00     0.011 C 
ATOM     13  C   UNL     1     115.363 121.595 123.684  1.00  0.00     0.011 C 
ATOM     14  C   UNL     1     117.688 121.306 124.669  1.00  0.00     0.016 C 
ATOM     15  C   UNL     1     117.963 124.416 124.449  1.00  0.00     0.008 C 
ENDBRANCH   1   4
BRANCH   1  16
ATOM     16  O   UNL     1     119.136 125.697 127.564  1.00  0.00    -0.390 OA
ATOM     17  H   UNL     1     119.960 126.173 127.278  1.00  0.00     0.211 HD
ENDBRANCH   1  16
TORSDOF 2
ENDMDL
MODEL 4
REMARK VINA RESULT:    -5.420      2.448      5.352
REMARK INTER + INTRA:          -6.119
REMARK INTER:                  -5.920
REMARK INTRA:                  -0.199
REMARK UNBOUND:                -0.224
REMARK SMILES CC1=C2C[C@H](C(C)(C)O)CC[C@]2(C)CCC1
REMARK SMILES IDX 6 1 7 2 8 3 5 4 1 5 2 6 3 7 16 8 4 9 12 10 15 11 11 12 14 13
REMARK SMILES IDX 13 14 10 15 9 16
REMARK H PARENT 9 17
REMARK Flexibility Score: inf
ROOT
ATOM      1  C   UNL     1     113.798 115.761 124.049  1.00  0.00     0.062 C 
ATOM      2  C   UNL     1     113.997 114.264 123.734  1.00  0.00     0.042 C 
ATOM      3  C   UNL     1     112.746 116.329 123.067  1.00  0.00     0.042 C 
ENDROOT
BRANCH   1   4
ATOM      4  C   UNL     1     113.367 116.001 125.544  1.00  0.00     0.024 C 
ATOM      5  C   UNL     1     116.335 115.762 128.752  1.00  0.00     0.039 C 
ATOM      6  C   UNL     1     114.913 116.227 128.974  1.00  0.00    -0.074 C 
ATOM      7  C   UNL     1     114.068 116.476 127.931  1.00  0.00    -0.065 C 
ATOM      8  C   UNL     1     114.433 116.355 130.410  1.00  0.00     0.031 C 
ATOM      9  C   UNL     1     114.537 116.379 126.484  1.00  0.00     0.038 C 
ATOM     10  C   UNL     1     112.682 117.065 128.205  1.00  0.00    -0.011 C 
ATOM     11  C   UNL     1     113.375 117.453 130.651  1.00  0.00     0.005 C 
ATOM     12  C   UNL     1     112.181 117.838 126.954  1.00  0.00     0.011 C 
ATOM     13  C   UNL     1     112.802 118.078 129.370  1.00  0.00     0.011 C 
ATOM     14  C   UNL     1     111.671 115.949 128.565  1.00  0.00     0.016 C 
ATOM     15  C   UNL     1     112.179 117.000 125.662  1.00  0.00     0.008 C 
ENDBRANCH   1   4
BRANCH   1  16
ATOM     16  O   UNL     1     115.025 116.409 123.801  1.00  0.00    -0.390 OA
ATOM     17  H   UNL     1     115.184 116.397 122.819  1.00  0.00     0.211 HD
ENDBRANCH   1  16
TORSDOF 2
ENDMDL
MODEL 5
REMARK VINA RESULT:    -5.413      2.442      5.102
REMARK INTER + INTRA:          -6.112
REMARK INTER:                  -5.892
REMARK INTRA:                  -0.219
REMARK UNBOUND:                -0.224
REMARK SMILES CC1=C2C[C@H](C(C)(C)O)CC[C@]2(C)CCC1
REMARK SMILES IDX 6 1 7 2 8 3 5 4 1 5 2 6 3 7 16 8 4 9 12 10 15 11 11 12 14 13
REMARK SMILES IDX 13 14 10 15 9 16
REMARK H PARENT 9 17
REMARK Flexibility Score: inf
ROOT
ATOM      1  C   UNL     1     113.516 120.932 125.256  1.00  0.00     0.062 C 
ATOM      2  C   UNL     1     114.213 121.993 126.132  1.00  0.00     0.042 C 
ATOM      3  C   UNL     1     114.396 120.678 124.009  1.00  0.00     0.042 C 
ENDROOT
BRANCH   1   4
ATOM      4  C   UNL     1     113.249 119.595 126.044  1.00  0.00     0.024 C 
ATOM      5  C   UNL     1     116.149 118.163 128.992  1.00  0.00     0.039 C 
ATOM      6  C   UNL     1     114.794 117.523 128.787  1.00  0.00    -0.074 C 
ATOM      7  C   UNL     1     113.838 118.103 128.004  1.00  0.00    -0.065 C 
ATOM      8  C   UNL     1     114.549 116.175 129.442  1.00  0.00     0.031 C 
ATOM      9  C   UNL     1     114.054 119.468 127.359  1.00  0.00     0.038 C 
ATOM     10  C   UNL     1     112.441 117.481 127.931  1.00  0.00    -0.011 C 
ATOM     11  C   UNL     1     113.087 115.904 129.858  1.00  0.00     0.005 C 
ATOM     12  C   UNL     1     111.398 118.569 127.558  1.00  0.00     0.011 C 
ATOM     13  C   UNL     1     112.075 116.933 129.332  1.00  0.00     0.011 C 
ATOM     14  C   UNL     1     112.401 116.341 126.882  1.00  0.00     0.016 C 
ATOM     15  C   UNL     1     111.729 119.335 126.263  1.00  0.00     0.008 C 
ENDBRANCH   1   4
BRANCH   1  16
ATOM     16  O   UNL     1     112.292 121.480 124.825  1.00  0.00    -0.390 OA
ATOM     17  H   UNL     1     111.602 120.767 124.878  1.00  0.00     0.211 HD
ENDBRANCH   1  16
TORSDOF 2
ENDMDL
MODEL 6
REMARK VINA RESULT:    -5.385      2.173      5.230
REMARK INTER + INTRA:          -6.081
REMARK INTER:                  -5.865
REMARK INTRA:                  -0.215
REMARK UNBOUND:                -0.224
REMARK SMILES CC1=C2C[C@H](C(C)(C)O)CC[C@]2(C)CCC1
REMARK SMILES IDX 6 1 7 2 8 3 5 4 1 5 2 6 3 7 16 8 4 9 12 10 15 11 11 12 14 13
REMARK SMILES IDX 13 14 10 15 9 16
REMARK H PARENT 9 17
REMARK Flexibility Score: inf
ROOT
ATOM      1  C   UNL     1     112.735 119.697 124.812  1.00  0.00     0.062 C 
ATOM      2  C   UNL     1     114.184 120.106 124.475  1.00  0.00     0.042 C 
ATOM      3  C   UNL     1     112.104 119.061 123.551  1.00  0.00     0.042 C 
ENDROOT
BRANCH   1   4
ATOM      4  C   UNL     1     112.667 118.712 126.039  1.00  0.00     0.024 C 
ATOM      5  C   UNL     1     116.251 117.918 128.421  1.00  0.00     0.039 C 
ATOM      6  C   UNL     1     114.876 117.417 128.804  1.00  0.00    -0.074 C 
ATOM      7  C   UNL     1     113.752 117.838 128.154  1.00  0.00    -0.065 C 
ATOM      8  C   UNL     1     114.791 116.377 129.908  1.00  0.00     0.031 C 
ATOM      9  C   UNL     1     113.813 118.900 127.061  1.00  0.00     0.038 C 
ATOM     10  C   UNL     1     112.376 117.399 128.661  1.00  0.00    -0.011 C 
ATOM     11  C   UNL     1     113.504 116.429 130.759  1.00  0.00     0.005 C 
ATOM     12  C   UNL     1     111.303 118.438 128.238  1.00  0.00     0.011 C 
ATOM     13  C   UNL     1     112.414 117.360 130.208  1.00  0.00     0.011 C 
ATOM     14  C   UNL     1     112.002 116.005 128.098  1.00  0.00     0.016 C 
ATOM     15  C   UNL     1     111.268 118.720 126.724  1.00  0.00     0.008 C 
ENDBRANCH   1   4
BRANCH   1  16
ATOM     16  O   UNL     1     112.024 120.876 125.112  1.00  0.00    -0.390 OA
ATOM     17  H   UNL     1     112.219 121.540 124.399  1.00  0.00     0.211 HD
ENDBRANCH   1  16
TORSDOF 2
ENDMDL
MODEL 7
REMARK VINA RESULT:    -5.381      3.428      4.911
REMARK INTER + INTRA:          -6.077
REMARK INTER:                  -5.823
REMARK INTRA:                  -0.254
REMARK UNBOUND:                -0.224
REMARK SMILES CC1=C2C[C@H](C(C)(C)O)CC[C@]2(C)CCC1
REMARK SMILES IDX 6 1 7 2 8 3 5 4 1 5 2 6 3 7 16 8 4 9 12 10 15 11 11 12 14 13
REMARK SMILES IDX 13 14 10 15 9 16
REMARK H PARENT 9 17
REMARK Flexibility Score: inf
ROOT
ATOM      1  C   UNL     1     115.388 122.004 124.209  1.00  0.00     0.062 C 
ATOM      2  C   UNL     1     114.666 123.261 124.735  1.00  0.00     0.042 C 
ATOM      3  C   UNL     1     116.602 121.722 125.125  1.00  0.00     0.042 C 
ENDROOT
BRANCH   1   4
ATOM      4  C   UNL     1     114.430 120.756 124.135  1.00  0.00     0.024 C 
ATOM      5  C   UNL     1     116.080 116.707 124.333  1.00  0.00     0.039 C 
ATOM      6  C   UNL     1     114.595 116.997 124.358  1.00  0.00    -0.074 C 
ATOM      7  C   UNL     1     114.115 118.268 124.490  1.00  0.00    -0.065 C 
ATOM      8  C   UNL     1     113.648 115.825 124.172  1.00  0.00     0.031 C 
ATOM      9  C   UNL     1     115.047 119.456 124.703  1.00  0.00     0.038 C 
ATOM     10  C   UNL     1     112.608 118.496 124.636  1.00  0.00    -0.011 C 
ATOM     11  C   UNL     1     112.292 115.957 124.898  1.00  0.00     0.005 C 
ATOM     12  C   UNL     1     112.347 119.829 125.388  1.00  0.00     0.011 C 
ATOM     13  C   UNL     1     112.021 117.347 125.492  1.00  0.00     0.011 C 
ATOM     14  C   UNL     1     111.921 118.538 123.249  1.00  0.00     0.016 C 
ATOM     15  C   UNL     1     113.029 121.052 124.747  1.00  0.00     0.008 C 
ENDBRANCH   1   4
BRANCH   1  16
ATOM     16  O   UNL     1     115.872 122.306 122.920  1.00  0.00    -0.390 OA
ATOM     17  H   UNL     1     116.167 123.255 122.918  1.00  0.00     0.211 HD
ENDBRANCH   1  16
TORSDOF 2
ENDMDL
MODEL 8
REMARK VINA RESULT:    -5.355      1.772      2.510
REMARK INTER + INTRA:          -6.048
REMARK INTER:                  -5.805
REMARK INTRA:                  -0.243
REMARK UNBOUND:                -0.224
REMARK SMILES CC1=C2C[C@H](C(C)(C)O)CC[C@]2(C)CCC1
REMARK SMILES IDX 6 1 7 2 8 3 5 4 1 5 2 6 3 7 16 8 4 9 12 10 15 11 11 12 14 13
REMARK SMILES IDX 13 14 10 15 9 16
REMARK H PARENT 9 17
REMARK Flexibility Score: inf
ROOT
ATOM      1  C   UNL     1     114.094 117.124 130.301  1.00  0.00     0.062 C 
ATOM      2  C   UNL     1     113.902 115.747 130.968  1.00  0.00     0.042 C 
ATOM      3  C   UNL     1     115.581 117.527 130.437  1.00  0.00     0.042 C 
ENDROOT
BRANCH   1   4
ATOM      4  C   UNL     1     113.642 117.120 128.792  1.00  0.00     0.024 C 
ATOM      5  C   UNL     1     116.550 116.275 125.632  1.00  0.00     0.039 C 
ATOM      6  C   UNL     1     115.066 116.413 125.374  1.00  0.00    -0.074 C 
ATOM      7  C   UNL     1     114.164 116.483 126.397  1.00  0.00    -0.065 C 
ATOM      8  C   UNL     1     114.613 116.529 123.929  1.00  0.00     0.031 C 
ATOM      9  C   UNL     1     114.595 116.343 127.853  1.00  0.00     0.038 C 
ATOM     10  C   UNL     1     112.666 116.494 126.084  1.00  0.00    -0.011 C 
ATOM     11  C   UNL     1     113.215 115.943 123.632  1.00  0.00     0.005 C 
ATOM     12  C   UNL     1     111.870 115.941 127.296  1.00  0.00     0.011 C 
ATOM     13  C   UNL     1     112.410 115.553 124.881  1.00  0.00     0.011 C 
ATOM     14  C   UNL     1     112.183 117.929 125.755  1.00  0.00     0.016 C 
ATOM     15  C   UNL     1     112.161 116.672 128.621  1.00  0.00     0.008 C 
ENDBRANCH   1   4
BRANCH   1  16
ATOM     16  O   UNL     1     113.319 118.054 131.024  1.00  0.00    -0.390 OA
ATOM     17  H   UNL     1     112.543 118.311 130.458  1.00  0.00     0.211 HD
ENDBRANCH   1  16
TORSDOF 2
ENDMDL
