MODEL 1
REMARK VINA RESULT:    -3.794      0.000      0.000
REMARK INTER + INTRA:          -5.487
REMARK INTER:                  -5.125
REMARK INTRA:                  -0.361
REMARK UNBOUND:                -0.361
REMARK SMILES CCCCCCC=CC(=O)[O-]
REMARK SMILES IDX 5 1 6 2 7 3 8 4 9 5 10 6 11 7 4 8 3 9 2 10 1 11
REMARK H PARENT
REMARK Flexibility Score: inf
ROOT
ATOM      1  C   UNL     1      56.493  28.338  50.713  1.00  0.00     0.004 C 
ENDROOT
BRANCH   1   2
ATOM      2  C   UNL     1      57.640  29.323  50.989  1.00  0.00     0.027 C 
BRANCH   2   3
ATOM      3  C   UNL     1      58.465  29.600  49.759  1.00  0.00    -0.025 C 
ATOM      4  C   UNL     1      59.476  28.847  49.299  1.00  0.00     0.020 C 
BRANCH   4   5
ATOM      5  C   UNL     1      60.024  27.628  49.929  1.00  0.00     0.064 C 
ATOM      6  O   UNL     1      61.094  27.709  50.585  1.00  0.00    -0.545 OA
ATOM      7  O   UNL     1      59.381  26.400  49.848  1.00  0.00    -0.545 OA
ENDBRANCH   4   5
ENDBRANCH   2   3
ENDBRANCH   1   2
BRANCH   1   8
ATOM      8  C   UNL     1      55.118  29.029  50.748  1.00  0.00     0.000 C 
BRANCH   8   9
ATOM      9  C   UNL     1      53.975  28.093  50.322  1.00  0.00    -0.000 C 
BRANCH   9  10
ATOM     10  C   UNL     1      54.435  26.638  50.154  1.00  0.00    -0.003 C 
ATOM     11  C   UNL     1      53.377  25.808  49.431  1.00  0.00     0.004 C 
ENDBRANCH   9  10
ENDBRANCH   8   9
ENDBRANCH   1   8
TORSDOF 6
ENDMDL
MODEL 2
REMARK VINA RESULT:    -3.561      1.510      2.230
REMARK INTER + INTRA:          -5.171
REMARK INTER:                  -4.808
REMARK INTRA:                  -0.363
REMARK UNBOUND:                -0.361
REMARK SMILES CCCCCCC=CC(=O)[O-]
REMARK SMILES IDX 5 1 6 2 7 3 8 4 9 5 10 6 11 7 4 8 3 9 2 10 1 11
REMARK H PARENT
REMARK Flexibility Score: inf
ROOT
ATOM      1  C   UNL     1      57.880  29.574  50.477  1.00  0.00     0.004 C 
ENDROOT
BRANCH   1   2
ATOM      2  C   UNL     1      58.904  29.110  49.429  1.00  0.00     0.027 C 
BRANCH   2   3
ATOM      3  C   UNL     1      59.453  27.740  49.733  1.00  0.00    -0.025 C 
ATOM      4  C   UNL     1      60.731  27.447  50.022  1.00  0.00     0.020 C 
BRANCH   4   5
ATOM      5  C   UNL     1      61.868  28.390  50.048  1.00  0.00     0.064 C 
ATOM      6  O   UNL     1      62.729  28.331  49.133  1.00  0.00    -0.545 OA
ATOM      7  O   UNL     1      62.001  29.362  51.031  1.00  0.00    -0.545 OA
ENDBRANCH   4   5
ENDBRANCH   2   3
ENDBRANCH   1   2
BRANCH   1   8
ATOM      8  C   UNL     1      56.802  28.508  50.741  1.00  0.00     0.000 C 
BRANCH   8   9
ATOM      9  C   UNL     1      55.394  29.110  50.870  1.00  0.00    -0.000 C 
BRANCH   9  10
ATOM     10  C   UNL     1      54.295  28.146  50.399  1.00  0.00    -0.003 C 
ATOM     11  C   UNL     1      54.843  26.731  50.227  1.00  0.00     0.004 C 
ENDBRANCH   9  10
ENDBRANCH   8   9
ENDBRANCH   1   8
TORSDOF 6
ENDMDL
MODEL 3
REMARK VINA RESULT:    -3.509      1.078      1.805
REMARK INTER + INTRA:          -5.101
REMARK INTER:                  -4.632
REMARK INTRA:                  -0.469
REMARK UNBOUND:                -0.361
REMARK SMILES CCCCCCC=CC(=O)[O-]
REMARK SMILES IDX 5 1 6 2 7 3 8 4 9 5 10 6 11 7 4 8 3 9 2 10 1 11
REMARK H PARENT
REMARK Flexibility Score: inf
ROOT
ATOM      1  C   UNL     1      57.303  29.295  52.028  1.00  0.00     0.004 C 
ENDROOT
BRANCH   1   2
ATOM      2  C   UNL     1      58.619  29.871  51.480  1.00  0.00     0.027 C 
BRANCH   2   3
ATOM      3  C   UNL     1      58.712  29.761  49.980  1.00  0.00    -0.025 C 
ATOM      4  C   UNL     1      59.160  28.699  49.292  1.00  0.00     0.020 C 
BRANCH   4   5
ATOM      5  C   UNL     1      59.702  27.447  49.859  1.00  0.00     0.064 C 
ATOM      6  O   UNL     1      58.927  26.473  50.036  1.00  0.00    -0.545 OA
ATOM      7  O   UNL     1      61.047  27.298  50.172  1.00  0.00    -0.545 OA
ENDBRANCH   4   5
ENDBRANCH   2   3
ENDBRANCH   1   2
BRANCH   1   8
ATOM      8  C   UNL     1      56.178  29.331  50.979  1.00  0.00     0.000 C 
BRANCH   8   9
ATOM      9  C   UNL     1      55.569  27.944  50.718  1.00  0.00    -0.000 C 
BRANCH   9  10
ATOM     10  C   UNL     1      54.073  28.011  50.379  1.00  0.00    -0.003 C 
ATOM     11  C   UNL     1      53.539  29.433  50.531  1.00  0.00     0.004 C 
ENDBRANCH   9  10
ENDBRANCH   8   9
ENDBRANCH   1   8
TORSDOF 6
ENDMDL
MODEL 4
REMARK VINA RESULT:    -3.495      2.772      5.120
REMARK INTER + INTRA:          -5.082
REMARK INTER:                  -4.643
REMARK INTRA:                  -0.439
REMARK UNBOUND:                -0.361
REMARK SMILES CCCCCCC=CC(=O)[O-]
REMARK SMILES IDX 5 1 6 2 7 3 8 4 9 5 10 6 11 7 4 8 3 9 2 10 1 11
REMARK H PARENT
REMARK Flexibility Score: inf
ROOT
ATOM      1  C   UNL     1      57.153  29.427  51.602  1.00  0.00     0.004 C 
ENDROOT
BRANCH   1   2
ATOM      2  C   UNL     1      56.350  28.531  50.646  1.00  0.00     0.027 C 
BRANCH   2   3
ATOM      3  C   UNL     1      54.906  28.950  50.547  1.00  0.00    -0.025 C 
ATOM      4  C   UNL     1      53.845  28.128  50.515  1.00  0.00     0.020 C 
BRANCH   4   5
ATOM      5  C   UNL     1      53.874  26.651  50.514  1.00  0.00     0.064 C 
ATOM      6  O   UNL     1      53.573  26.035  51.568  1.00  0.00    -0.545 OA
ATOM      7  O   UNL     1      54.192  25.918  49.378  1.00  0.00    -0.545 OA
ENDBRANCH   4   5
ENDBRANCH   2   3
ENDBRANCH   1   2
BRANCH   1   8
ATOM      8  C   UNL     1      58.512  29.835  51.005  1.00  0.00     0.000 C 
BRANCH   8   9
ATOM      9  C   UNL     1      58.747  29.239  49.608  1.00  0.00    -0.000 C 
BRANCH   9  10
ATOM     10  C   UNL     1      59.945  28.280  49.570  1.00  0.00    -0.003 C 
ATOM     11  C   UNL     1      59.520  26.856  49.922  1.00  0.00     0.004 C 
ENDBRANCH   9  10
ENDBRANCH   8   9
ENDBRANCH   1   8
TORSDOF 6
ENDMDL
MODEL 5
REMARK VINA RESULT:    -3.406      1.693      2.541
REMARK INTER + INTRA:          -4.962
REMARK INTER:                  -4.409
REMARK INTRA:                  -0.553
REMARK UNBOUND:                -0.361
REMARK SMILES CCCCCCC=CC(=O)[O-]
REMARK SMILES IDX 5 1 6 2 7 3 8 4 9 5 10 6 11 7 4 8 3 9 2 10 1 11
REMARK H PARENT
REMARK Flexibility Score: inf
ROOT
ATOM      1  C   UNL     1      56.134  26.311  51.460  1.00  0.00     0.004 C 
ENDROOT
BRANCH   1   2
ATOM      2  C   UNL     1      57.624  26.645  51.633  1.00  0.00     0.027 C 
BRANCH   2   3
ATOM      3  C   UNL     1      58.438  26.280  50.418  1.00  0.00    -0.025 C 
ATOM      4  C   UNL     1      59.226  27.110  49.716  1.00  0.00     0.020 C 
BRANCH   4   5
ATOM      5  C   UNL     1      59.415  28.556  49.953  1.00  0.00     0.064 C 
ATOM      6  O   UNL     1      58.761  29.377  49.261  1.00  0.00    -0.545 OA
ATOM      7  O   UNL     1      60.269  29.040  50.936  1.00  0.00    -0.545 OA
ENDBRANCH   4   5
ENDBRANCH   2   3
ENDBRANCH   1   2
BRANCH   1   8
ATOM      8  C   UNL     1      55.453  27.231  50.430  1.00  0.00     0.000 C 
BRANCH   8   9
ATOM      9  C   UNL     1      55.628  28.722  50.762  1.00  0.00    -0.000 C 
BRANCH   9  10
ATOM     10  C   UNL     1      54.300  29.491  50.740  1.00  0.00    -0.003 C 
ATOM     11  C   UNL     1      53.149  28.586  50.308  1.00  0.00     0.004 C 
ENDBRANCH   9  10
ENDBRANCH   8   9
ENDBRANCH   1   8
TORSDOF 6
ENDMDL
MODEL 6
REMARK VINA RESULT:    -3.349      1.262      1.668
REMARK INTER + INTRA:          -4.885
REMARK INTER:                  -4.373
REMARK INTRA:                  -0.512
REMARK UNBOUND:                -0.361
REMARK SMILES CCCCCCC=CC(=O)[O-]
REMARK SMILES IDX 5 1 6 2 7 3 8 4 9 5 10 6 11 7 4 8 3 9 2 10 1 11
REMARK H PARENT
REMARK Flexibility Score: inf
ROOT
ATOM      1  C   UNL     1      55.382  28.479  51.557  1.00  0.00     0.004 C 
ENDROOT
BRANCH   1   2
ATOM      2  C   UNL     1      56.784  28.412  50.931  1.00  0.00     0.027 C 
BRANCH   2   3
ATOM      3  C   UNL     1      57.182  27.004  50.568  1.00  0.00    -0.025 C 
ATOM      4  C   UNL     1      58.422  26.586  50.268  1.00  0.00     0.020 C 
BRANCH   4   5
ATOM      5  C   UNL     1      59.636  27.422  50.176  1.00  0.00     0.064 C 
ATOM      6  O   UNL     1      59.723  28.269  49.251  1.00  0.00    -0.545 OA
ATOM      7  O   UNL     1      60.672  27.327  51.096  1.00  0.00    -0.545 OA
ENDBRANCH   4   5
ENDBRANCH   2   3
ENDBRANCH   1   2
BRANCH   1   8
ATOM      8  C   UNL     1      54.357  29.123  50.607  1.00  0.00     0.000 C 
BRANCH   8   9
ATOM      9  C   UNL     1      53.213  28.166  50.235  1.00  0.00    -0.000 C 
BRANCH   9  10
ATOM     10  C   UNL     1      53.479  26.724  50.690  1.00  0.00    -0.003 C 
ATOM     11  C   UNL     1      53.766  25.816  49.496  1.00  0.00     0.004 C 
ENDBRANCH   9  10
ENDBRANCH   8   9
ENDBRANCH   1   8
TORSDOF 6
ENDMDL
MODEL 7
REMARK VINA RESULT:    -3.332      2.048      2.913
REMARK INTER + INTRA:          -4.862
REMARK INTER:                  -4.153
REMARK INTRA:                  -0.709
REMARK UNBOUND:                -0.361
REMARK SMILES CCCCCCC=CC(=O)[O-]
REMARK SMILES IDX 5 1 6 2 7 3 8 4 9 5 10 6 11 7 4 8 3 9 2 10 1 11
REMARK H PARENT
REMARK Flexibility Score: inf
ROOT
ATOM      1  C   UNL     1      57.533  26.371  50.506  1.00  0.00     0.004 C 
ENDROOT
BRANCH   1   2
ATOM      2  C   UNL     1      58.780  27.269  50.508  1.00  0.00     0.027 C 
BRANCH   2   3
ATOM      3  C   UNL     1      58.595  28.508  49.670  1.00  0.00    -0.025 C 
ATOM      4  C   UNL     1      58.686  29.776  50.103  1.00  0.00     0.020 C 
BRANCH   4   5
ATOM      5  C   UNL     1      58.929  30.218  51.492  1.00  0.00     0.064 C 
ATOM      6  O   UNL     1      57.971  30.221  52.307  1.00  0.00    -0.545 OA
ATOM      7  O   UNL     1      60.188  30.599  51.937  1.00  0.00    -0.545 OA
ENDBRANCH   4   5
ENDBRANCH   2   3
ENDBRANCH   1   2
BRANCH   1   8
ATOM      8  C   UNL     1      56.316  27.073  51.133  1.00  0.00     0.000 C 
BRANCH   8   9
ATOM      9  C   UNL     1      55.040  26.907  50.291  1.00  0.00    -0.000 C 
BRANCH   9  10
ATOM     10  C   UNL     1      54.120  28.134  50.367  1.00  0.00    -0.003 C 
ATOM     11  C   UNL     1      54.904  29.385  50.756  1.00  0.00     0.004 C 
ENDBRANCH   9  10
ENDBRANCH   8   9
ENDBRANCH   1   8
TORSDOF 6
ENDMDL
MODEL 8
REMARK VINA RESULT:    -3.316     11.941     13.575
REMARK INTER + INTRA:          -4.840
REMARK INTER:                  -4.497
REMARK INTRA:                  -0.344
REMARK UNBOUND:                -0.361
REMARK SMILES CCCCCCC=CC(=O)[O-]
REMARK SMILES IDX 5 1 6 2 7 3 8 4 9 5 10 6 11 7 4 8 3 9 2 10 1 11
REMARK H PARENT
REMARK Flexibility Score: inf
ROOT
ATOM      1  C   UNL     1      63.339  33.049  59.334  1.00  0.00     0.004 C 
ENDROOT
BRANCH   1   2
ATOM      2  C   UNL     1      62.855  31.643  59.720  1.00  0.00     0.027 C 
BRANCH   2   3
ATOM      3  C   UNL     1      63.637  31.064  60.871  1.00  0.00    -0.025 C 
ATOM      4  C   UNL     1      63.409  29.882  61.466  1.00  0.00     0.020 C 
BRANCH   4   5
ATOM      5  C   UNL     1      62.318  28.935  61.157  1.00  0.00     0.064 C 
ATOM      6  O   UNL     1      62.476  28.108  60.223  1.00  0.00    -0.545 OA
ATOM      7  O   UNL     1      61.135  28.905  61.883  1.00  0.00    -0.545 OA
ENDBRANCH   4   5
ENDBRANCH   2   3
ENDBRANCH   1   2
BRANCH   1   8
ATOM      8  C   UNL     1      63.420  33.985  60.553  1.00  0.00     0.000 C 
BRANCH   8   9
ATOM      9  C   UNL     1      62.320  35.059  60.549  1.00  0.00    -0.000 C 
BRANCH   9  10
ATOM     10  C   UNL     1      62.448  36.039  61.724  1.00  0.00    -0.003 C 
ATOM     11  C   UNL     1      63.672  35.717  62.577  1.00  0.00     0.004 C 
ENDBRANCH   9  10
ENDBRANCH   8   9
ENDBRANCH   1   8
TORSDOF 6
ENDMDL
MODEL 9
REMARK VINA RESULT:    -3.264      2.558      4.993
REMARK INTER + INTRA:          -4.771
REMARK INTER:                  -4.414
REMARK INTRA:                  -0.356
REMARK UNBOUND:                -0.361
REMARK SMILES CCCCCCC=CC(=O)[O-]
REMARK SMILES IDX 5 1 6 2 7 3 8 4 9 5 10 6 11 7 4 8 3 9 2 10 1 11
REMARK H PARENT
REMARK Flexibility Score: inf
ROOT
ATOM      1  C   UNL     1      58.435  29.211  49.877  1.00  0.00     0.004 C 
ENDROOT
BRANCH   1   2
ATOM      2  C   UNL     1      57.464  28.608  50.904  1.00  0.00     0.027 C 
BRANCH   2   3
ATOM      3  C   UNL     1      56.061  29.135  50.744  1.00  0.00    -0.025 C 
ATOM      4  C   UNL     1      54.940  28.397  50.708  1.00  0.00     0.020 C 
BRANCH   4   5
ATOM      5  C   UNL     1      54.852  26.923  50.763  1.00  0.00     0.064 C 
ATOM      6  O   UNL     1      54.883  26.272  49.688  1.00  0.00    -0.545 OA
ATOM      7  O   UNL     1      54.768  26.231  51.964  1.00  0.00    -0.545 OA
ENDBRANCH   4   5
ENDBRANCH   2   3
ENDBRANCH   1   2
BRANCH   1   8
ATOM      8  C   UNL     1      59.510  28.201  49.437  1.00  0.00     0.000 C 
BRANCH   8   9
ATOM      9  C   UNL     1      59.282  26.801  50.029  1.00  0.00    -0.000 C 
BRANCH   9  10
ATOM     10  C   UNL     1      60.566  26.190  50.610  1.00  0.00    -0.003 C 
ATOM     11  C   UNL     1      60.553  24.669  50.490  1.00  0.00     0.004 C 
ENDBRANCH   9  10
ENDBRANCH   8   9
ENDBRANCH   1   8
TORSDOF 6
ENDMDL
