MODEL 1
REMARK VINA RESULT:    -3.789      0.000      0.000
REMARK INTER + INTRA:          -5.833
REMARK INTER:                  -5.339
REMARK INTRA:                  -0.494
REMARK UNBOUND:                -0.494
REMARK SMILES CCCCCCCCC(=O)[O-]
REMARK SMILES IDX 6 1 7 2 8 3 9 4 10 5 11 6 5 7 4 8 3 9 2 10 1 11
REMARK H PARENT
REMARK Flexibility Score: inf
ROOT
ATOM      1  C   UNL     1       6.187  24.375 111.169  1.00  0.00     0.000 C 
ENDROOT
BRANCH   1   2
ATOM      2  C   UNL     1       5.026  24.431 112.178  1.00  0.00     0.006 C 
BRANCH   2   3
ATOM      3  C   UNL     1       4.372  25.819 112.231  1.00  0.00     0.053 C 
BRANCH   3   4
ATOM      4  C   UNL     1       3.828  26.230 110.897  1.00  0.00     0.041 C 
ATOM      5  O   UNL     1       2.853  25.613 110.394  1.00  0.00    -0.550 OA
ATOM      6  O   UNL     1       4.379  27.313 110.223  1.00  0.00    -0.550 OA
ENDBRANCH   3   4
ENDBRANCH   2   3
ENDBRANCH   1   2
BRANCH   1   7
ATOM      7  C   UNL     1       7.472  25.038 111.696  1.00  0.00     0.000 C 
BRANCH   7   8
ATOM      8  C   UNL     1       8.318  25.765 110.634  1.00  0.00    -0.000 C 
BRANCH   8   9
ATOM      9  C   UNL     1       7.515  26.136 109.377  1.00  0.00    -0.000 C 
BRANCH   9  10
ATOM     10  C   UNL     1       8.133  25.563 108.092  1.00  0.00    -0.003 C 
ATOM     11  C   UNL     1       7.374  25.979 106.832  1.00  0.00     0.004 C 
ENDBRANCH   9  10
ENDBRANCH   8   9
ENDBRANCH   7   8
ENDBRANCH   1   7
TORSDOF 7
ENDMDL
MODEL 2
REMARK VINA RESULT:    -3.743      1.872      4.156
REMARK INTER + INTRA:          -5.769
REMARK INTER:                  -5.096
REMARK INTRA:                  -0.673
REMARK UNBOUND:                -0.494
REMARK SMILES CCCCCCCCC(=O)[O-]
REMARK SMILES IDX 6 1 7 2 8 3 9 4 10 5 11 6 5 7 4 8 3 9 2 10 1 11
REMARK H PARENT
REMARK Flexibility Score: inf
ROOT
ATOM      1  C   UNL     1       7.110  25.803 112.040  1.00  0.00     0.000 C 
ENDROOT
BRANCH   1   2
ATOM      2  C   UNL     1       7.585  26.499 110.752  1.00  0.00     0.006 C 
BRANCH   2   3
ATOM      3  C   UNL     1       7.855  25.498 109.620  1.00  0.00     0.053 C 
BRANCH   3   4
ATOM      4  C   UNL     1       7.395  26.019 108.293  1.00  0.00     0.041 C 
ATOM      5  O   UNL     1       8.058  25.772 107.252  1.00  0.00    -0.550 OA
ATOM      6  O   UNL     1       6.220  26.755 108.203  1.00  0.00    -0.550 OA
ENDBRANCH   3   4
ENDBRANCH   2   3
ENDBRANCH   1   2
BRANCH   1   7
ATOM      7  C   UNL     1       6.658  24.350 111.806  1.00  0.00     0.000 C 
BRANCH   7   8
ATOM      8  C   UNL     1       5.150  24.094 111.983  1.00  0.00    -0.000 C 
BRANCH   8   9
ATOM      9  C   UNL     1       4.318  25.388 111.987  1.00  0.00    -0.000 C 
BRANCH   9  10
ATOM     10  C   UNL     1       3.702  25.695 110.613  1.00  0.00    -0.003 C 
ATOM     11  C   UNL     1       3.343  27.172 110.442  1.00  0.00     0.004 C 
ENDBRANCH   9  10
ENDBRANCH   8   9
ENDBRANCH   7   8
ENDBRANCH   1   7
TORSDOF 7
ENDMDL
MODEL 3
REMARK VINA RESULT:    -3.653      2.153      4.076
REMARK INTER + INTRA:          -5.641
REMARK INTER:                  -4.818
REMARK INTRA:                  -0.823
REMARK UNBOUND:                -0.494
REMARK SMILES CCCCCCCCC(=O)[O-]
REMARK SMILES IDX 6 1 7 2 8 3 9 4 10 5 11 6 5 7 4 8 3 9 2 10 1 11
REMARK H PARENT
REMARK Flexibility Score: inf
ROOT
ATOM      1  C   UNL     1       6.210  25.001 112.980  1.00  0.00     0.000 C 
ENDROOT
BRANCH   1   2
ATOM      2  C   UNL     1       7.557  25.033 112.238  1.00  0.00     0.006 C 
BRANCH   2   3
ATOM      3  C   UNL     1       7.378  25.159 110.718  1.00  0.00     0.053 C 
BRANCH   3   4
ATOM      4  C   UNL     1       7.229  26.586 110.290  1.00  0.00     0.041 C 
ATOM      5  O   UNL     1       7.566  27.518 111.066  1.00  0.00    -0.550 OA
ATOM      6  O   UNL     1       6.742  26.887 109.025  1.00  0.00    -0.550 OA
ENDBRANCH   3   4
ENDBRANCH   2   3
ENDBRANCH   1   2
BRANCH   1   7
ATOM      7  C   UNL     1       5.093  24.322 112.167  1.00  0.00     0.000 C 
BRANCH   7   8
ATOM      8  C   UNL     1       3.808  25.153 111.995  1.00  0.00    -0.000 C 
BRANCH   8   9
ATOM      9  C   UNL     1       3.629  25.691 110.565  1.00  0.00    -0.000 C 
BRANCH   9  10
ATOM     10  C   UNL     1       3.504  27.222 110.524  1.00  0.00    -0.003 C 
ATOM     11  C   UNL     1       4.049  27.895 111.784  1.00  0.00     0.004 C 
ENDBRANCH   9  10
ENDBRANCH   8   9
ENDBRANCH   7   8
ENDBRANCH   1   7
TORSDOF 7
ENDMDL
MODEL 4
REMARK VINA RESULT:    -3.556      1.583      2.574
REMARK INTER + INTRA:          -5.505
REMARK INTER:                  -4.884
REMARK INTRA:                  -0.621
REMARK UNBOUND:                -0.494
REMARK SMILES CCCCCCCCC(=O)[O-]
REMARK SMILES IDX 6 1 7 2 8 3 9 4 10 5 11 6 5 7 4 8 3 9 2 10 1 11
REMARK H PARENT
REMARK Flexibility Score: inf
ROOT
ATOM      1  C   UNL     1       4.252  25.447 111.984  1.00  0.00     0.000 C 
ENDROOT
BRANCH   1   2
ATOM      2  C   UNL     1       3.454  25.745 110.702  1.00  0.00     0.006 C 
BRANCH   2   3
ATOM      3  C   UNL     1       3.781  27.129 110.125  1.00  0.00     0.053 C 
BRANCH   3   4
ATOM      4  C   UNL     1       2.628  28.076 110.258  1.00  0.00     0.041 C 
ATOM      5  O   UNL     1       1.618  27.752 110.936  1.00  0.00    -0.550 OA
ATOM      6  O   UNL     1       2.679  29.326 109.653  1.00  0.00    -0.550 OA
ENDBRANCH   3   4
ENDBRANCH   2   3
ENDBRANCH   1   2
BRANCH   1   7
ATOM      7  C   UNL     1       5.109  24.173 111.875  1.00  0.00     0.000 C 
BRANCH   7   8
ATOM      8  C   UNL     1       6.575  24.401 111.465  1.00  0.00    -0.000 C 
BRANCH   8   9
ATOM      9  C   UNL     1       7.123  25.762 111.926  1.00  0.00    -0.000 C 
BRANCH   9  10
ATOM     10  C   UNL     1       7.545  26.656 110.749  1.00  0.00    -0.003 C 
ATOM     11  C   UNL     1       8.142  25.862 109.587  1.00  0.00     0.004 C 
ENDBRANCH   9  10
ENDBRANCH   8   9
ENDBRANCH   7   8
ENDBRANCH   1   7
TORSDOF 7
ENDMDL
MODEL 5
REMARK VINA RESULT:    -3.539      2.222      4.846
REMARK INTER + INTRA:          -5.481
REMARK INTER:                  -4.925
REMARK INTRA:                  -0.555
REMARK UNBOUND:                -0.494
REMARK SMILES CCCCCCCCC(=O)[O-]
REMARK SMILES IDX 6 1 7 2 8 3 9 4 10 5 11 6 5 7 4 8 3 9 2 10 1 11
REMARK H PARENT
REMARK Flexibility Score: inf
ROOT
ATOM      1  C   UNL     1       6.557  26.440 111.815  1.00  0.00     0.000 C 
ENDROOT
BRANCH   1   2
ATOM      2  C   UNL     1       7.643  26.695 110.755  1.00  0.00     0.006 C 
BRANCH   2   3
ATOM      3  C   UNL     1       7.762  25.535 109.756  1.00  0.00     0.053 C 
BRANCH   3   4
ATOM      4  C   UNL     1       7.573  25.994 108.343  1.00  0.00     0.041 C 
ATOM      5  O   UNL     1       6.613  26.753 108.047  1.00  0.00    -0.550 OA
ATOM      6  O   UNL     1       8.471  25.604 107.358  1.00  0.00    -0.550 OA
ENDBRANCH   3   4
ENDBRANCH   2   3
ENDBRANCH   1   2
BRANCH   1   7
ATOM      7  C   UNL     1       5.130  26.529 111.245  1.00  0.00     0.000 C 
BRANCH   7   8
ATOM      8  C   UNL     1       4.279  25.255 111.401  1.00  0.00    -0.000 C 
BRANCH   8   9
ATOM      9  C   UNL     1       5.089  24.051 111.910  1.00  0.00    -0.000 C 
BRANCH   9  10
ATOM     10  C   UNL     1       4.439  23.377 113.129  1.00  0.00    -0.003 C 
ATOM     11  C   UNL     1       3.134  24.052 113.553  1.00  0.00     0.004 C 
ENDBRANCH   9  10
ENDBRANCH   8   9
ENDBRANCH   7   8
ENDBRANCH   1   7
TORSDOF 7
ENDMDL
MODEL 6
REMARK VINA RESULT:    -3.445      2.229      4.473
REMARK INTER + INTRA:          -5.349
REMARK INTER:                  -4.965
REMARK INTRA:                  -0.384
REMARK UNBOUND:                -0.494
REMARK SMILES CCCCCCCCC(=O)[O-]
REMARK SMILES IDX 6 1 7 2 8 3 9 4 10 5 11 6 5 7 4 8 3 9 2 10 1 11
REMARK H PARENT
REMARK Flexibility Score: inf
ROOT
ATOM      1  C   UNL     1       5.326  25.337 112.162  1.00  0.00     0.000 C 
ENDROOT
BRANCH   1   2
ATOM      2  C   UNL     1       6.445  24.539 111.471  1.00  0.00     0.006 C 
BRANCH   2   3
ATOM      3  C   UNL     1       7.696  25.393 111.222  1.00  0.00     0.053 C 
BRANCH   3   4
ATOM      4  C   UNL     1       7.359  26.704 110.582  1.00  0.00     0.041 C 
ATOM      5  O   UNL     1       7.519  27.779 111.219  1.00  0.00    -0.550 OA
ATOM      6  O   UNL     1       6.893  26.742 109.274  1.00  0.00    -0.550 OA
ENDBRANCH   3   4
ENDBRANCH   2   3
ENDBRANCH   1   2
BRANCH   1   7
ATOM      7  C   UNL     1       3.957  25.164 111.480  1.00  0.00     0.000 C 
BRANCH   7   8
ATOM      8  C   UNL     1       3.596  26.245 110.445  1.00  0.00    -0.000 C 
BRANCH   8   9
ATOM      9  C   UNL     1       3.230  27.593 111.088  1.00  0.00    -0.000 C 
BRANCH   9  10
ATOM     10  C   UNL     1       2.584  28.566 110.089  1.00  0.00    -0.003 C 
ATOM     11  C   UNL     1       2.606  30.015 110.574  1.00  0.00     0.004 C 
ENDBRANCH   9  10
ENDBRANCH   8   9
ENDBRANCH   7   8
ENDBRANCH   1   7
TORSDOF 7
ENDMDL
MODEL 7
REMARK VINA RESULT:    -3.416      2.601      5.578
REMARK INTER + INTRA:          -5.308
REMARK INTER:                  -4.979
REMARK INTRA:                  -0.329
REMARK UNBOUND:                -0.494
REMARK SMILES CCCCCCCCC(=O)[O-]
REMARK SMILES IDX 6 1 7 2 8 3 9 4 10 5 11 6 5 7 4 8 3 9 2 10 1 11
REMARK H PARENT
REMARK Flexibility Score: inf
ROOT
ATOM      1  C   UNL     1       5.517  24.961 112.592  1.00  0.00     0.000 C 
ENDROOT
BRANCH   1   2
ATOM      2  C   UNL     1       6.334  24.316 111.459  1.00  0.00     0.006 C 
BRANCH   2   3
ATOM      3  C   UNL     1       7.526  25.188 111.036  1.00  0.00     0.053 C 
BRANCH   3   4
ATOM      4  C   UNL     1       7.088  26.541 110.568  1.00  0.00     0.041 C 
ATOM      5  O   UNL     1       7.506  27.577 111.149  1.00  0.00    -0.550 OA
ATOM      6  O   UNL     1       6.241  26.660 109.473  1.00  0.00    -0.550 OA
ENDBRANCH   3   4
ENDBRANCH   2   3
ENDBRANCH   1   2
BRANCH   1   7
ATOM      7  C   UNL     1       4.060  24.464 112.637  1.00  0.00     0.000 C 
BRANCH   7   8
ATOM      8  C   UNL     1       3.678  23.663 113.895  1.00  0.00    -0.000 C 
BRANCH   8   9
ATOM      9  C   UNL     1       3.748  22.141 113.682  1.00  0.00    -0.000 C 
BRANCH   9  10
ATOM     10  C   UNL     1       2.390  21.454 113.896  1.00  0.00    -0.003 C 
ATOM     11  C   UNL     1       1.243  22.450 114.071  1.00  0.00     0.004 C 
ENDBRANCH   9  10
ENDBRANCH   8   9
ENDBRANCH   7   8
ENDBRANCH   1   7
TORSDOF 7
ENDMDL
MODEL 8
REMARK VINA RESULT:    -3.386      2.796      4.994
REMARK INTER + INTRA:          -5.266
REMARK INTER:                  -4.789
REMARK INTRA:                  -0.477
REMARK UNBOUND:                -0.494
REMARK SMILES CCCCCCCCC(=O)[O-]
REMARK SMILES IDX 6 1 7 2 8 3 9 4 10 5 11 6 5 7 4 8 3 9 2 10 1 11
REMARK H PARENT
REMARK Flexibility Score: inf
ROOT
ATOM      1  C   UNL     1       5.874  27.313 112.051  1.00  0.00     0.000 C 
ENDROOT
BRANCH   1   2
ATOM      2  C   UNL     1       6.557  26.473 110.957  1.00  0.00     0.006 C 
BRANCH   2   3
ATOM      3  C   UNL     1       7.879  25.860 111.439  1.00  0.00     0.053 C 
BRANCH   3   4
ATOM      4  C   UNL     1       7.672  24.524 112.086  1.00  0.00     0.041 C 
ATOM      5  O   UNL     1       6.661  23.831 111.797  1.00  0.00    -0.550 OA
ATOM      6  O   UNL     1       8.608  24.034 112.987  1.00  0.00    -0.550 OA
ENDBRANCH   3   4
ENDBRANCH   2   3
ENDBRANCH   1   2
BRANCH   1   7
ATOM      7  C   UNL     1       4.429  27.703 111.691  1.00  0.00     0.000 C 
BRANCH   7   8
ATOM      8  C   UNL     1       3.855  27.016 110.438  1.00  0.00    -0.000 C 
BRANCH   8   9
ATOM      9  C   UNL     1       3.028  25.762 110.767  1.00  0.00    -0.000 C 
BRANCH   9  10
ATOM     10  C   UNL     1       2.459  25.790 112.195  1.00  0.00    -0.003 C 
ATOM     11  C   UNL     1       3.024  24.680 113.081  1.00  0.00     0.004 C 
ENDBRANCH   9  10
ENDBRANCH   8   9
ENDBRANCH   7   8
ENDBRANCH   1   7
TORSDOF 7
ENDMDL
MODEL 9
REMARK VINA RESULT:    -3.381      3.035      5.513
REMARK INTER + INTRA:          -5.259
REMARK INTER:                  -4.653
REMARK INTRA:                  -0.606
REMARK UNBOUND:                -0.494
REMARK SMILES CCCCCCCCC(=O)[O-]
REMARK SMILES IDX 6 1 7 2 8 3 9 4 10 5 11 6 5 7 4 8 3 9 2 10 1 11
REMARK H PARENT
REMARK Flexibility Score: inf
ROOT
ATOM      1  C   UNL     1       4.183  24.995 113.429  1.00  0.00     0.000 C 
ENDROOT
BRANCH   1   2
ATOM      2  C   UNL     1       3.373  25.843 112.433  1.00  0.00     0.006 C 
BRANCH   2   3
ATOM      3  C   UNL     1       3.690  25.485 110.974  1.00  0.00     0.053 C 
BRANCH   3   4
ATOM      4  C   UNL     1       4.286  26.642 110.232  1.00  0.00     0.041 C 
ATOM      5  O   UNL     1       3.569  27.627 109.916  1.00  0.00    -0.550 OA
ATOM      6  O   UNL     1       5.638  26.644 109.914  1.00  0.00    -0.550 OA
ENDBRANCH   3   4
ENDBRANCH   2   3
ENDBRANCH   1   2
BRANCH   1   7
ATOM      7  C   UNL     1       4.290  23.518 113.010  1.00  0.00     0.000 C 
BRANCH   7   8
ATOM      8  C   UNL     1       3.817  22.500 114.064  1.00  0.00    -0.000 C 
BRANCH   8   9
ATOM      9  C   UNL     1       2.422  21.927 113.762  1.00  0.00    -0.000 C 
BRANCH   9  10
ATOM     10  C   UNL     1       1.297  22.737 114.426  1.00  0.00    -0.003 C 
ATOM     11  C   UNL     1       0.558  23.644 113.442  1.00  0.00     0.004 C 
ENDBRANCH   9  10
ENDBRANCH   8   9
ENDBRANCH   7   8
ENDBRANCH   1   7
TORSDOF 7
ENDMDL
