MODEL 1
REMARK VINA RESULT:    -4.562      0.000      0.000
REMARK INTER + INTRA:          -6.977
REMARK INTER:                  -6.162
REMARK INTRA:                  -0.815
REMARK UNBOUND:                -0.815
REMARK SMILES CC(=O)CCC=C(C)CCC=C(C)C
REMARK SMILES IDX 7 1 6 2 8 3 9 4 10 5 11 6 13 7 12 8 14 9 5 10 4 11 2 12 3 13
REMARK SMILES IDX 1 14
REMARK H PARENT
REMARK Flexibility Score: inf
ROOT
ATOM      1  C   UNL     1      20.576  23.929  26.184  1.00  0.00    -0.077 C 
ATOM      2  C   UNL     1      19.376  23.358  26.440  1.00  0.00    -0.028 C 
ATOM      3  C   UNL     1      21.242  23.810  24.834  1.00  0.00     0.039 C 
ENDROOT
BRANCH   1   4
ATOM      4  C   UNL     1      21.259  24.718  27.280  1.00  0.00     0.034 C 
BRANCH   4   5
ATOM      5  C   UNL     1      20.258  25.088  28.381  1.00  0.00     0.032 C 
BRANCH   5   6
ATOM      6  C   UNL     1      20.324  26.558  28.715  1.00  0.00    -0.028 C 
ATOM      7  C   UNL     1      18.196  27.015  27.491  1.00  0.00     0.039 C 
ATOM      8  C   UNL     1      19.387  27.444  28.313  1.00  0.00    -0.080 C 
ATOM      9  C   UNL     1      19.513  28.900  28.680  1.00  0.00     0.039 C 
ENDBRANCH   5   6
ENDBRANCH   4   5
ENDBRANCH   1   4
BRANCH   2  10
ATOM     10  C   UNL     1      18.637  22.452  25.484  1.00  0.00     0.035 C 
BRANCH  10  11
ATOM     11  C   UNL     1      17.297  21.990  26.072  1.00  0.00     0.079 C 
BRANCH  11  12
ATOM     12  C   UNL     1      16.240  23.060  25.956  1.00  0.00     0.130 C 
ATOM     13  O   UNL     1      15.613  23.174  24.913  1.00  0.00    -0.300 OA
ATOM     14  C   UNL     1      15.946  23.991  27.094  1.00  0.00     0.087 C 
ENDBRANCH  11  12
ENDBRANCH  10  11
ENDBRANCH   2  10
TORSDOF 6
ENDMDL
MODEL 2
REMARK VINA RESULT:    -4.548      4.019      7.065
REMARK INTER + INTRA:          -6.958
REMARK INTER:                  -6.190
REMARK INTRA:                  -0.768
REMARK UNBOUND:                -0.815
REMARK SMILES CC(=O)CCC=C(C)CCC=C(C)C
REMARK SMILES IDX 7 1 6 2 8 3 9 4 10 5 11 6 13 7 12 8 14 9 5 10 4 11 2 12 3 13
REMARK SMILES IDX 1 14
REMARK H PARENT
REMARK Flexibility Score: inf
ROOT
ATOM      1  C   UNL     1      17.995  28.740  28.615  1.00  0.00    -0.077 C 
ATOM      2  C   UNL     1      16.831  28.736  29.304  1.00  0.00    -0.028 C 
ATOM      3  C   UNL     1      19.085  29.747  28.899  1.00  0.00     0.039 C 
ENDROOT
BRANCH   1   4
ATOM      4  C   UNL     1      18.212  27.698  27.539  1.00  0.00     0.034 C 
BRANCH   4   5
ATOM      5  C   UNL     1      18.076  26.286  28.121  1.00  0.00     0.032 C 
BRANCH   5   6
ATOM      6  C   UNL     1      19.063  25.332  27.493  1.00  0.00    -0.028 C 
ATOM      7  C   UNL     1      20.835  25.953  29.139  1.00  0.00     0.039 C 
ATOM      8  C   UNL     1      20.324  25.175  27.952  1.00  0.00    -0.080 C 
ATOM      9  C   UNL     1      21.260  24.206  27.277  1.00  0.00     0.039 C 
ENDBRANCH   5   6
ENDBRANCH   4   5
ENDBRANCH   1   4
BRANCH   2  10
ATOM     10  C   UNL     1      16.433  29.780  30.320  1.00  0.00     0.035 C 
BRANCH  10  11
ATOM     11  C   UNL     1      15.537  30.858  29.695  1.00  0.00     0.079 C 
BRANCH  11  12
ATOM     12  C   UNL     1      16.102  32.240  29.904  1.00  0.00     0.130 C 
ATOM     13  O   UNL     1      15.857  32.839  30.941  1.00  0.00    -0.300 OA
ATOM     14  C   UNL     1      16.955  32.898  28.861  1.00  0.00     0.087 C 
ENDBRANCH  11  12
ENDBRANCH  10  11
ENDBRANCH   2  10
TORSDOF 6
ENDMDL
MODEL 3
REMARK VINA RESULT:    -4.492      1.648      3.892
REMARK INTER + INTRA:          -6.882
REMARK INTER:                  -5.920
REMARK INTRA:                  -0.962
REMARK UNBOUND:                -0.815
REMARK SMILES CC(=O)CCC=C(C)CCC=C(C)C
REMARK SMILES IDX 7 1 6 2 8 3 9 4 10 5 11 6 13 7 12 8 14 9 5 10 4 11 2 12 3 13
REMARK SMILES IDX 1 14
REMARK H PARENT
REMARK Flexibility Score: inf
ROOT
ATOM      1  C   UNL     1      16.160  25.997  28.784  1.00  0.00    -0.077 C 
ATOM      2  C   UNL     1      16.014  25.464  27.549  1.00  0.00    -0.028 C 
ATOM      3  C   UNL     1      15.613  25.315  30.015  1.00  0.00     0.039 C 
ENDROOT
BRANCH   1   4
ATOM      4  C   UNL     1      16.903  27.307  28.932  1.00  0.00     0.034 C 
BRANCH   4   5
ATOM      5  C   UNL     1      18.067  27.381  27.936  1.00  0.00     0.032 C 
BRANCH   5   6
ATOM      6  C   UNL     1      19.380  27.029  28.593  1.00  0.00    -0.028 C 
ATOM      7  C   UNL     1      19.581  24.932  27.252  1.00  0.00     0.039 C 
ATOM      8  C   UNL     1      20.076  25.913  28.286  1.00  0.00    -0.080 C 
ATOM      9  C   UNL     1      21.381  25.620  28.982  1.00  0.00     0.039 C 
ENDBRANCH   5   6
ENDBRANCH   4   5
ENDBRANCH   1   4
BRANCH   2  10
ATOM     10  C   UNL     1      15.202  24.229  27.239  1.00  0.00     0.035 C 
BRANCH  10  11
ATOM     11  C   UNL     1      15.659  23.571  25.931  1.00  0.00     0.079 C 
BRANCH  11  12
ATOM     12  C   UNL     1      16.461  22.320  26.188  1.00  0.00     0.130 C 
ATOM     13  O   UNL     1      16.021  21.469  26.946  1.00  0.00    -0.300 OA
ATOM     14  C   UNL     1      17.792  22.101  25.533  1.00  0.00     0.087 C 
ENDBRANCH  11  12
ENDBRANCH  10  11
ENDBRANCH   2  10
TORSDOF 6
ENDMDL
MODEL 4
REMARK VINA RESULT:    -4.454      4.330      7.933
REMARK INTER + INTRA:          -6.832
REMARK INTER:                  -6.231
REMARK INTRA:                  -0.601
REMARK UNBOUND:                -0.815
REMARK SMILES CC(=O)CCC=C(C)CCC=C(C)C
REMARK SMILES IDX 7 1 6 2 8 3 9 4 10 5 11 6 13 7 12 8 14 9 5 10 4 11 2 12 3 13
REMARK SMILES IDX 1 14
REMARK H PARENT
REMARK Flexibility Score: inf
ROOT
ATOM      1  C   UNL     1      19.314  29.145  28.614  1.00  0.00    -0.077 C 
ATOM      2  C   UNL     1      18.621  30.246  28.984  1.00  0.00    -0.028 C 
ATOM      3  C   UNL     1      20.773  28.968  28.964  1.00  0.00     0.039 C 
ENDROOT
BRANCH   1   4
ATOM      4  C   UNL     1      18.601  28.058  27.839  1.00  0.00     0.034 C 
BRANCH   4   5
ATOM      5  C   UNL     1      18.768  26.702  28.536  1.00  0.00     0.032 C 
BRANCH   5   6
ATOM      6  C   UNL     1      19.058  25.603  27.542  1.00  0.00    -0.028 C 
ATOM      7  C   UNL     1      21.376  25.307  28.422  1.00  0.00     0.039 C 
ATOM      8  C   UNL     1      20.245  24.962  27.484  1.00  0.00    -0.080 C 
ATOM      9  C   UNL     1      20.470  23.874  26.467  1.00  0.00     0.039 C 
ENDBRANCH   5   6
ENDBRANCH   4   5
ENDBRANCH   1   4
BRANCH   2  10
ATOM     10  C   UNL     1      19.227  31.455  29.657  1.00  0.00     0.035 C 
BRANCH  10  11
ATOM     11  C   UNL     1      18.421  32.726  29.360  1.00  0.00     0.079 C 
BRANCH  11  12
ATOM     12  C   UNL     1      19.250  33.969  29.556  1.00  0.00     0.130 C 
ATOM     13  O   UNL     1      18.694  35.048  29.696  1.00  0.00    -0.300 OA
ATOM     14  C   UNL     1      20.749  33.910  29.579  1.00  0.00     0.087 C 
ENDBRANCH  11  12
ENDBRANCH  10  11
ENDBRANCH   2  10
TORSDOF 6
ENDMDL
MODEL 5
REMARK VINA RESULT:    -4.453     13.196     15.498
REMARK INTER + INTRA:          -6.830
REMARK INTER:                  -5.398
REMARK INTRA:                  -1.432
REMARK UNBOUND:                -0.815
REMARK SMILES CC(=O)CCC=C(C)CCC=C(C)C
REMARK SMILES IDX 7 1 6 2 8 3 9 4 10 5 11 6 13 7 12 8 14 9 5 10 4 11 2 12 3 13
REMARK SMILES IDX 1 14
REMARK H PARENT
REMARK Flexibility Score: inf
ROOT
ATOM      1  C   UNL     1      32.255  33.958  28.696  1.00  0.00    -0.077 C 
ATOM      2  C   UNL     1      31.189  33.917  27.864  1.00  0.00    -0.028 C 
ATOM      3  C   UNL     1      32.108  33.770  30.188  1.00  0.00     0.039 C 
ENDROOT
BRANCH   1   4
ATOM      4  C   UNL     1      33.632  34.186  28.111  1.00  0.00     0.034 C 
BRANCH   4   5
ATOM      5  C   UNL     1      34.010  33.042  27.162  1.00  0.00     0.032 C 
BRANCH   5   6
ATOM      6  C   UNL     1      34.118  31.728  27.897  1.00  0.00    -0.028 C 
ATOM      7  C   UNL     1      32.560  30.611  26.297  1.00  0.00     0.039 C 
ATOM      8  C   UNL     1      33.460  30.615  27.509  1.00  0.00    -0.080 C 
ATOM      9  C   UNL     1      33.611  29.334  28.289  1.00  0.00     0.039 C 
ENDBRANCH   5   6
ENDBRANCH   4   5
ENDBRANCH   1   4
BRANCH   2  10
ATOM     10  C   UNL     1      29.752  33.813  28.316  1.00  0.00     0.035 C 
BRANCH  10  11
ATOM     11  C   UNL     1      29.169  32.425  28.017  1.00  0.00     0.079 C 
BRANCH  11  12
ATOM     12  C   UNL     1      29.177  31.543  29.239  1.00  0.00     0.130 C 
ATOM     13  O   UNL     1      28.234  31.581  30.015  1.00  0.00    -0.300 OA
ATOM     14  C   UNL     1      30.324  30.620  29.525  1.00  0.00     0.087 C 
ENDBRANCH  11  12
ENDBRANCH  10  11
ENDBRANCH   2  10
TORSDOF 6
ENDMDL
MODEL 6
REMARK VINA RESULT:    -4.438      3.635      6.007
REMARK INTER + INTRA:          -6.810
REMARK INTER:                  -6.011
REMARK INTRA:                  -0.799
REMARK UNBOUND:                -0.815
REMARK SMILES CC(=O)CCC=C(C)CCC=C(C)C
REMARK SMILES IDX 7 1 6 2 8 3 9 4 10 5 11 6 13 7 12 8 14 9 5 10 4 11 2 12 3 13
REMARK SMILES IDX 1 14
REMARK H PARENT
REMARK Flexibility Score: inf
ROOT
ATOM      1  C   UNL     1      19.816  25.620  27.882  1.00  0.00    -0.077 C 
ATOM      2  C   UNL     1      20.612  26.368  28.680  1.00  0.00    -0.028 C 
ATOM      3  C   UNL     1      20.384  24.609  26.914  1.00  0.00     0.039 C 
ENDROOT
BRANCH   1   4
ATOM      4  C   UNL     1      18.315  25.796  27.973  1.00  0.00     0.034 C 
BRANCH   4   5
ATOM      5  C   UNL     1      17.912  27.210  27.537  1.00  0.00     0.032 C 
BRANCH   5   6
ATOM      6  C   UNL     1      17.308  27.989  28.680  1.00  0.00    -0.028 C 
ATOM      7  C   UNL     1      19.149  29.676  28.609  1.00  0.00     0.039 C 
ATOM      8  C   UNL     1      17.867  29.115  29.175  1.00  0.00    -0.080 C 
ATOM      9  C   UNL     1      17.213  29.845  30.319  1.00  0.00     0.039 C 
ENDBRANCH   5   6
ENDBRANCH   4   5
ENDBRANCH   1   4
BRANCH   2  10
ATOM     10  C   UNL     1      22.120  26.382  28.616  1.00  0.00     0.035 C 
BRANCH  10  11
ATOM     11  C   UNL     1      22.665  27.813  28.522  1.00  0.00     0.079 C 
BRANCH  11  12
ATOM     12  C   UNL     1      24.144  27.865  28.810  1.00  0.00     0.130 C 
ATOM     13  O   UNL     1      24.842  26.897  28.548  1.00  0.00    -0.300 OA
ATOM     14  C   UNL     1      24.777  29.081  29.417  1.00  0.00     0.087 C 
ENDBRANCH  11  12
ENDBRANCH  10  11
ENDBRANCH   2  10
TORSDOF 6
ENDMDL
MODEL 7
REMARK VINA RESULT:    -4.407      3.461      5.453
REMARK INTER + INTRA:          -6.768
REMARK INTER:                  -5.750
REMARK INTRA:                  -1.018
REMARK UNBOUND:                -0.815
REMARK SMILES CC(=O)CCC=C(C)CCC=C(C)C
REMARK SMILES IDX 7 1 6 2 8 3 9 4 10 5 11 6 13 7 12 8 14 9 5 10 4 11 2 12 3 13
REMARK SMILES IDX 1 14
REMARK H PARENT
REMARK Flexibility Score: inf
ROOT
ATOM      1  C   UNL     1      17.824  26.993  28.147  1.00  0.00    -0.077 C 
ATOM      2  C   UNL     1      18.362  25.761  28.301  1.00  0.00    -0.028 C 
ATOM      3  C   UNL     1      18.430  28.014  27.214  1.00  0.00     0.039 C 
ENDROOT
BRANCH   1   4
ATOM      4  C   UNL     1      16.576  27.349  28.924  1.00  0.00     0.034 C 
BRANCH   4   5
ATOM      5  C   UNL     1      16.901  28.356  30.034  1.00  0.00     0.032 C 
BRANCH   5   6
ATOM      6  C   UNL     1      16.235  29.687  29.784  1.00  0.00    -0.028 C 
ATOM      7  C   UNL     1      18.439  30.840  29.560  1.00  0.00     0.039 C 
ATOM      8  C   UNL     1      16.930  30.825  29.567  1.00  0.00    -0.080 C 
ATOM      9  C   UNL     1      16.202  32.122  29.325  1.00  0.00     0.039 C 
ENDBRANCH   5   6
ENDBRANCH   4   5
ENDBRANCH   1   4
BRANCH   2  10
ATOM     10  C   UNL     1      19.663  25.309  27.682  1.00  0.00     0.035 C 
BRANCH  10  11
ATOM     11  C   UNL     1      20.764  25.155  28.739  1.00  0.00     0.079 C 
BRANCH  11  12
ATOM     12  C   UNL     1      21.655  26.370  28.796  1.00  0.00     0.130 C 
ATOM     13  O   UNL     1      22.724  26.360  28.205  1.00  0.00    -0.300 OA
ATOM     14  C   UNL     1      21.256  27.592  29.569  1.00  0.00     0.087 C 
ENDBRANCH  11  12
ENDBRANCH  10  11
ENDBRANCH   2  10
TORSDOF 6
ENDMDL
MODEL 8
REMARK VINA RESULT:    -4.374      4.149      7.537
REMARK INTER + INTRA:          -6.723
REMARK INTER:                  -5.809
REMARK INTRA:                  -0.914
REMARK UNBOUND:                -0.815
REMARK SMILES CC(=O)CCC=C(C)CCC=C(C)C
REMARK SMILES IDX 7 1 6 2 8 3 9 4 10 5 11 6 13 7 12 8 14 9 5 10 4 11 2 12 3 13
REMARK SMILES IDX 1 14
REMARK H PARENT
REMARK Flexibility Score: inf
ROOT
ATOM      1  C   UNL     1      18.860  30.122  29.880  1.00  0.00    -0.077 C 
ATOM      2  C   UNL     1      18.498  31.098  29.016  1.00  0.00    -0.028 C 
ATOM      3  C   UNL     1      18.630  30.251  31.367  1.00  0.00     0.039 C 
ENDROOT
BRANCH   1   4
ATOM      4  C   UNL     1      19.502  28.865  29.335  1.00  0.00     0.034 C 
BRANCH   4   5
ATOM      5  C   UNL     1      18.902  28.501  27.971  1.00  0.00     0.032 C 
BRANCH   5   6
ATOM      6  C   UNL     1      17.708  27.590  28.118  1.00  0.00    -0.028 C 
ATOM      7  C   UNL     1      19.070  25.578  27.538  1.00  0.00     0.039 C 
ATOM      8  C   UNL     1      17.777  26.255  27.922  1.00  0.00    -0.080 C 
ATOM      9  C   UNL     1      16.545  25.402  28.083  1.00  0.00     0.039 C 
ENDBRANCH   5   6
ENDBRANCH   4   5
ENDBRANCH   1   4
BRANCH   2  10
ATOM     10  C   UNL     1      17.956  32.448  29.424  1.00  0.00     0.035 C 
BRANCH  10  11
ATOM     11  C   UNL     1      16.467  32.582  29.081  1.00  0.00     0.079 C 
BRANCH  11  12
ATOM     12  C   UNL     1      15.599  31.858  30.079  1.00  0.00     0.130 C 
ATOM     13  O   UNL     1      15.425  32.342  31.187  1.00  0.00    -0.300 OA
ATOM     14  C   UNL     1      14.948  30.550  29.741  1.00  0.00     0.087 C 
ENDBRANCH  11  12
ENDBRANCH  10  11
ENDBRANCH   2  10
TORSDOF 6
ENDMDL
MODEL 9
REMARK VINA RESULT:    -4.335      5.488      9.220
REMARK INTER + INTRA:          -6.670
REMARK INTER:                  -5.611
REMARK INTRA:                  -1.059
REMARK UNBOUND:                -0.815
REMARK SMILES CC(=O)CCC=C(C)CCC=C(C)C
REMARK SMILES IDX 7 1 6 2 8 3 9 4 10 5 11 6 13 7 12 8 14 9 5 10 4 11 2 12 3 13
REMARK SMILES IDX 1 14
REMARK H PARENT
REMARK Flexibility Score: inf
ROOT
ATOM      1  C   UNL     1      15.372  31.174  30.457  1.00  0.00    -0.077 C 
ATOM      2  C   UNL     1      15.935  31.730  29.360  1.00  0.00    -0.028 C 
ATOM      3  C   UNL     1      15.004  31.999  31.668  1.00  0.00     0.039 C 
ENDROOT
BRANCH   1   4
ATOM      4  C   UNL     1      15.097  29.686  30.464  1.00  0.00     0.034 C 
BRANCH   4   5
ATOM      5  C   UNL     1      16.396  28.898  30.672  1.00  0.00     0.032 C 
BRANCH   5   6
ATOM      6  C   UNL     1      16.777  28.125  29.433  1.00  0.00    -0.028 C 
ATOM      7  C   UNL     1      18.843  29.491  29.116  1.00  0.00     0.039 C 
ATOM      8  C   UNL     1      17.892  28.389  28.718  1.00  0.00    -0.080 C 
ATOM      9  C   UNL     1      18.213  27.578  27.489  1.00  0.00     0.039 C 
ENDBRANCH   5   6
ENDBRANCH   4   5
ENDBRANCH   1   4
BRANCH   2  10
ATOM     10  C   UNL     1      16.370  33.172  29.257  1.00  0.00     0.035 C 
BRANCH  10  11
ATOM     11  C   UNL     1      17.873  33.286  28.974  1.00  0.00     0.079 C 
BRANCH  11  12
ATOM     12  C   UNL     1      18.590  34.034  30.069  1.00  0.00     0.130 C 
ATOM     13  O   UNL     1      19.195  35.061  29.800  1.00  0.00    -0.300 OA
ATOM     14  C   UNL     1      18.580  33.540  31.485  1.00  0.00     0.087 C 
ENDBRANCH  11  12
ENDBRANCH  10  11
ENDBRANCH   2  10
TORSDOF 6
ENDMDL
