MODEL 1
REMARK VINA RESULT:     8.975      0.000      0.000
REMARK INTER + INTRA:          14.622
REMARK INTER:                  12.123
REMARK INTRA:                   2.498
REMARK UNBOUND:                 2.498
REMARK SMILES O=c1c(-c2ccc(O)cc2)coc2c([C@H]3O[C@@H](CO)[C@H](O)[C@@H](O)[C@H]3O)c(O)ccc12
REMARK SMILES IDX 3 1 11 2 12 3 13 4 30 5 2 6 1 7 29 8 28 9 26 10 14 11 4 12
REMARK SMILES IDX 5 13 6 14 7 15 10 16 9 17 8 18 15 20 24 21 16 22 22 23 17 24
REMARK SMILES IDX 20 25 25 26 23 28 18 30 19 31 21 33 27 35
REMARK H PARENT 8 19 25 27 23 29 19 32 21 34 27 36
REMARK Flexibility Score: inf
ROOT
ATOM      1  C   UNL     1       8.148  -1.312 -14.968  1.00  0.00     0.065 A 
ATOM      2  C   UNL     1       6.861  -1.579 -14.478  1.00  0.00     0.208 A 
ATOM      3  O   UNL     1       6.578  -2.742 -13.904  1.00  0.00    -0.463 OA
ATOM      4  C   UNL     1       7.471  -3.717 -13.755  1.00  0.00     0.147 A 
ATOM      5  C   UNL     1       8.797  -3.529 -14.210  1.00  0.00     0.066 A 
ATOM      6  C   UNL     1       9.132  -2.306 -14.820  1.00  0.00     0.200 A 
ATOM      7  O   UNL     1      10.314  -2.094 -15.212  1.00  0.00    -0.288 OA
ATOM      8  C   UNL     1       9.742  -4.549 -14.031  1.00  0.00     0.020 A 
ATOM      9  C   UNL     1       9.382  -5.737 -13.399  1.00  0.00     0.047 A 
ATOM     10  C   UNL     1       8.074  -5.935 -12.942  1.00  0.00     0.125 A 
ATOM     11  C   UNL     1       7.092  -4.933 -13.138  1.00  0.00     0.069 A 
ENDROOT
BRANCH   1  12
ATOM     12  C   UNL     1       8.439  -0.007 -15.613  1.00  0.00    -0.011 A 
ATOM     13  C   UNL     1       7.410   0.932 -15.809  1.00  0.00     0.013 A 
ATOM     14  C   UNL     1       7.680   2.158 -16.425  1.00  0.00     0.047 A 
ATOM     15  C   UNL     1       8.975   2.460 -16.855  1.00  0.00     0.115 A 
ATOM     16  C   UNL     1       9.738   0.300 -16.054  1.00  0.00     0.013 A 
ATOM     17  C   UNL     1      10.004   1.527 -16.670  1.00  0.00     0.047 A 
BRANCH  15  18
ATOM     18  O   UNL     1       9.229   3.686 -17.467  1.00  0.00    -0.508 OA
ATOM     19  H   UNL     1       9.101   3.816 -18.464  1.00  0.00     0.293 HD
ENDBRANCH  15  18
ENDBRANCH   1  12
BRANCH  11  20
ATOM     20  C   UNL     1       5.666  -5.109 -12.629  1.00  0.00     0.188 C 
ATOM     21  C   UNL     1       5.457  -6.538 -12.090  1.00  0.00     0.179 C 
ATOM     22  O   UNL     1       4.734  -4.824 -13.659  1.00  0.00    -0.362 OA
ATOM     23  C   UNL     1       4.018  -6.670 -11.559  1.00  0.00     0.177 C 
ATOM     24  C   UNL     1       3.407  -4.806 -13.155  1.00  0.00     0.176 C 
ATOM     25  C   UNL     1       3.007  -6.205 -12.623  1.00  0.00     0.177 C 
BRANCH  21  26
ATOM     26  O   UNL     1       5.686  -7.476 -13.112  1.00  0.00    -0.387 OA
ATOM     27  H   UNL     1       4.843  -7.987 -13.231  1.00  0.00     0.211 HD
ENDBRANCH  21  26
BRANCH  23  28
ATOM     28  O   UNL     1       3.747  -8.001 -11.199  1.00  0.00    -0.387 OA
ATOM     29  H   UNL     1       2.814  -8.189 -11.479  1.00  0.00     0.211 HD
ENDBRANCH  23  28
BRANCH  24  30
ATOM     30  C   UNL     1       2.482  -4.354 -14.295  1.00  0.00     0.191 C 
BRANCH  30  31
ATOM     31  O   UNL     1       2.358  -2.956 -14.317  1.00  0.00    -0.394 OA
ATOM     32  H   UNL     1       3.227  -2.581 -14.017  1.00  0.00     0.210 HD
ENDBRANCH  30  31
ENDBRANCH  24  30
BRANCH  25  33
ATOM     33  O   UNL     1       1.725  -6.149 -12.050  1.00  0.00    -0.388 OA
ATOM     34  H   UNL     1       1.664  -6.901 -11.405  1.00  0.00     0.211 HD
ENDBRANCH  25  33
ENDBRANCH  11  20
BRANCH  10  35
ATOM     35  O   UNL     1       7.754  -7.125 -12.288  1.00  0.00    -0.507 OA
ATOM     36  H   UNL     1       7.170  -7.831 -12.721  1.00  0.00     0.293 HD
ENDBRANCH  10  35
TORSDOF 9
ENDMDL
MODEL 2
REMARK VINA RESULT:    11.167      4.909      6.849
REMARK INTER + INTRA:          17.582
REMARK INTER:                  15.016
REMARK INTRA:                   2.566
REMARK UNBOUND:                 2.498
REMARK SMILES O=c1c(-c2ccc(O)cc2)coc2c([C@H]3O[C@@H](CO)[C@H](O)[C@@H](O)[C@H]3O)c(O)ccc12
REMARK SMILES IDX 3 1 11 2 12 3 13 4 30 5 2 6 1 7 29 8 28 9 26 10 14 11 4 12
REMARK SMILES IDX 5 13 6 14 7 15 10 16 9 17 8 18 15 20 24 21 16 22 22 23 17 24
REMARK SMILES IDX 20 25 25 26 23 28 18 30 19 31 21 33 27 35
REMARK H PARENT 8 19 25 27 23 29 19 32 21 34 27 36
REMARK Flexibility Score: inf
ROOT
ATOM      1  C   UNL     1       4.581  -6.138 -18.500  1.00  0.00     0.065 A 
ATOM      2  C   UNL     1       5.180  -7.026 -17.595  1.00  0.00     0.208 A 
ATOM      3  O   UNL     1       4.974  -6.911 -16.289  1.00  0.00    -0.463 OA
ATOM      4  C   UNL     1       4.204  -5.967 -15.754  1.00  0.00     0.147 A 
ATOM      5  C   UNL     1       3.551  -5.036 -16.594  1.00  0.00     0.066 A 
ATOM      6  C   UNL     1       3.745  -5.132 -17.985  1.00  0.00     0.200 A 
ATOM      7  O   UNL     1       3.155  -4.333 -18.766  1.00  0.00    -0.288 OA
ATOM      8  C   UNL     1       2.722  -4.056 -16.030  1.00  0.00     0.020 A 
ATOM      9  C   UNL     1       2.531  -4.006 -14.651  1.00  0.00     0.047 A 
ATOM     10  C   UNL     1       3.169  -4.924 -13.808  1.00  0.00     0.125 A 
ATOM     11  C   UNL     1       4.037  -5.904 -14.349  1.00  0.00     0.069 A 
ENDROOT
BRANCH   1  12
ATOM     12  C   UNL     1       4.833  -6.282 -19.956  1.00  0.00    -0.011 A 
ATOM     13  C   UNL     1       4.164  -5.456 -20.877  1.00  0.00     0.013 A 
ATOM     14  C   UNL     1       4.393  -5.596 -22.249  1.00  0.00     0.047 A 
ATOM     15  C   UNL     1       5.287  -6.562 -22.719  1.00  0.00     0.115 A 
ATOM     16  C   UNL     1       5.727  -7.256 -20.436  1.00  0.00     0.013 A 
ATOM     17  C   UNL     1       5.953  -7.394 -21.809  1.00  0.00     0.047 A 
BRANCH  15  18
ATOM     18  O   UNL     1       5.505  -6.689 -24.089  1.00  0.00    -0.508 OA
ATOM     19  H   UNL     1       4.771  -6.998 -24.715  1.00  0.00     0.293 HD
ENDBRANCH  15  18
ENDBRANCH   1  12
BRANCH  11  20
ATOM     20  C   UNL     1       4.726  -6.932 -13.460  1.00  0.00     0.188 C 
ATOM     21  C   UNL     1       3.724  -7.536 -12.457  1.00  0.00     0.179 C 
ATOM     22  O   UNL     1       5.820  -6.342 -12.778  1.00  0.00    -0.362 OA
ATOM     23  C   UNL     1       4.447  -8.590 -11.597  1.00  0.00     0.177 C 
ATOM     24  C   UNL     1       6.581  -7.324 -12.089  1.00  0.00     0.176 C 
ATOM     25  C   UNL     1       5.728  -7.997 -10.983  1.00  0.00     0.177 C 
BRANCH  21  26
ATOM     26  O   UNL     1       3.192  -6.523 -11.639  1.00  0.00    -0.387 OA
ATOM     27  H   UNL     1       2.875  -5.801 -12.241  1.00  0.00     0.211 HD
ENDBRANCH  21  26
BRANCH  23  28
ATOM     28  O   UNL     1       3.602  -9.051 -10.573  1.00  0.00    -0.387 OA
ATOM     29  H   UNL     1       3.638 -10.043 -10.599  1.00  0.00     0.211 HD
ENDBRANCH  23  28
BRANCH  24  30
ATOM     30  C   UNL     1       7.816  -6.628 -11.500  1.00  0.00     0.191 C 
BRANCH  30  31
ATOM     31  O   UNL     1       8.623  -6.093 -12.516  1.00  0.00    -0.394 OA
ATOM     32  H   UNL     1       9.424  -6.674 -12.590  1.00  0.00     0.210 HD
ENDBRANCH  30  31
ENDBRANCH  24  30
BRANCH  25  33
ATOM     33  O   UNL     1       6.466  -9.023 -10.370  1.00  0.00    -0.388 OA
ATOM     34  H   UNL     1       5.819  -9.734 -10.122  1.00  0.00     0.211 HD
ENDBRANCH  25  33
ENDBRANCH  11  20
BRANCH  10  35
ATOM     35  O   UNL     1       2.935  -4.863 -12.434  1.00  0.00    -0.507 OA
ATOM     36  H   UNL     1       1.996  -4.856 -12.053  1.00  0.00     0.293 HD
ENDBRANCH  10  35
TORSDOF 9
ENDMDL
