MODEL 1
REMARK VINA RESULT:    -4.440      0.000      0.000
REMARK INTER + INTRA:          -4.795
REMARK INTER:                  -4.699
REMARK INTRA:                  -0.096
REMARK UNBOUND:                -0.096
REMARK SMILES C=C(C)[C@H]1CC=C(C)C(=O)C1
REMARK SMILES IDX 8 1 7 2 6 3 5 4 4 5 11 6 9 7 10 8 2 9 1 10 3 11
REMARK H PARENT
REMARK Flexibility Score: inf
ROOT
ATOM      1  C   UNL     1       1.967   7.458  -8.325  1.00  0.00     0.048 C 
ATOM      2  C   UNL     1       0.618   7.541  -8.985  1.00  0.00    -0.012 C 
ATOM      3  C   UNL     1      -0.480   7.783  -8.248  1.00  0.00    -0.019 C 
ATOM      4  C   UNL     1      -1.861   7.797  -8.851  1.00  0.00     0.036 C 
ATOM      5  C   UNL     1      -1.821   8.257 -10.321  1.00  0.00     0.025 C 
ATOM      6  C   UNL     1      -0.839   7.389 -11.129  1.00  0.00     0.089 C 
ATOM      7  C   UNL     1       0.502   7.331 -10.449  1.00  0.00     0.158 C 
ATOM      8  O   UNL     1       1.525   7.056 -11.132  1.00  0.00    -0.295 OA
ENDROOT
BRANCH   5   9
ATOM      9  C   UNL     1      -3.210   8.264 -10.946  1.00  0.00    -0.077 C 
ATOM     10  C   UNL     1      -3.558   7.367 -11.885  1.00  0.00     0.008 C 
ATOM     11  C   UNL     1      -4.228   9.288 -10.516  1.00  0.00     0.039 C 
ENDBRANCH   5   9
TORSDOF 1
ENDMDL
MODEL 2
REMARK VINA RESULT:    -4.220      1.680      4.410
REMARK INTER + INTRA:          -4.562
REMARK INTER:                  -4.474
REMARK INTRA:                  -0.088
REMARK UNBOUND:                -0.096
REMARK SMILES C=C(C)[C@H]1CC=C(C)C(=O)C1
REMARK SMILES IDX 8 1 7 2 6 3 5 4 4 5 11 6 9 7 10 8 2 9 1 10 3 11
REMARK H PARENT
REMARK Flexibility Score: inf
ROOT
ATOM      1  C   UNL     1      -4.039   7.787 -11.871  1.00  0.00     0.048 C 
ATOM      2  C   UNL     1      -2.648   7.804 -11.297  1.00  0.00    -0.012 C 
ATOM      3  C   UNL     1      -2.200   8.892 -10.647  1.00  0.00    -0.019 C 
ATOM      4  C   UNL     1      -0.790   8.986 -10.125  1.00  0.00     0.036 C 
ATOM      5  C   UNL     1      -0.246   7.598  -9.739  1.00  0.00     0.025 C 
ATOM      6  C   UNL     1      -0.365   6.625 -10.926  1.00  0.00     0.089 C 
ATOM      7  C   UNL     1      -1.766   6.623 -11.474  1.00  0.00     0.158 C 
ATOM      8  O   UNL     1      -2.170   5.624 -12.125  1.00  0.00    -0.295 OA
ENDROOT
BRANCH   5   9
ATOM      9  C   UNL     1       1.184   7.678  -9.220  1.00  0.00    -0.077 C 
ATOM     10  C   UNL     1       1.491   7.326  -7.959  1.00  0.00     0.008 C 
ATOM     11  C   UNL     1       2.291   8.158 -10.123  1.00  0.00     0.039 C 
ENDBRANCH   5   9
TORSDOF 1
ENDMDL
MODEL 3
REMARK VINA RESULT:    -4.173      1.847      4.499
REMARK INTER + INTRA:          -4.512
REMARK INTER:                  -4.416
REMARK INTRA:                  -0.096
REMARK UNBOUND:                -0.096
REMARK SMILES C=C(C)[C@H]1CC=C(C)C(=O)C1
REMARK SMILES IDX 8 1 7 2 6 3 5 4 4 5 11 6 9 7 10 8 2 9 1 10 3 11
REMARK H PARENT
REMARK Flexibility Score: inf
ROOT
ATOM      1  C   UNL     1      -4.031   8.079 -11.449  1.00  0.00     0.048 C 
ATOM      2  C   UNL     1      -2.690   8.054 -10.768  1.00  0.00    -0.012 C 
ATOM      3  C   UNL     1      -2.335   6.998 -10.015  1.00  0.00    -0.019 C 
ATOM      4  C   UNL     1      -1.038   6.962  -9.250  1.00  0.00     0.036 C 
ATOM      5  C   UNL     1       0.054   7.779  -9.968  1.00  0.00     0.025 C 
ATOM      6  C   UNL     1      -0.433   9.217 -10.225  1.00  0.00     0.089 C 
ATOM      7  C   UNL     1      -1.771   9.210 -10.912  1.00  0.00     0.158 C 
ATOM      8  O   UNL     1      -2.124  10.220 -11.579  1.00  0.00    -0.295 OA
ENDROOT
BRANCH   5   9
ATOM      9  C   UNL     1       1.368   7.759  -9.199  1.00  0.00    -0.077 C 
ATOM     10  C   UNL     1       1.453   7.210  -7.974  1.00  0.00     0.008 C 
ATOM     11  C   UNL     1       2.609   8.361  -9.806  1.00  0.00     0.039 C 
ENDBRANCH   5   9
TORSDOF 1
ENDMDL
MODEL 4
REMARK VINA RESULT:    -4.124      2.412      3.562
REMARK INTER + INTRA:          -4.461
REMARK INTER:                  -4.364
REMARK INTRA:                  -0.097
REMARK UNBOUND:                -0.096
REMARK SMILES C=C(C)[C@H]1CC=C(C)C(=O)C1
REMARK SMILES IDX 8 1 7 2 6 3 5 4 4 5 11 6 9 7 10 8 2 9 1 10 3 11
REMARK H PARENT
REMARK Flexibility Score: inf
ROOT
ATOM      1  C   UNL     1       4.420   8.768 -11.840  1.00  0.00     0.048 C 
ATOM      2  C   UNL     1       2.999   8.509 -11.419  1.00  0.00    -0.012 C 
ATOM      3  C   UNL     1       2.277   7.555 -12.031  1.00  0.00    -0.019 C 
ATOM      4  C   UNL     1       0.828   7.313 -11.699  1.00  0.00     0.036 C 
ATOM      5  C   UNL     1       0.529   7.658 -10.228  1.00  0.00     0.025 C 
ATOM      6  C   UNL     1       0.967   9.100  -9.915  1.00  0.00     0.089 C 
ATOM      7  C   UNL     1       2.392   9.327 -10.340  1.00  0.00     0.158 C 
ATOM      8  O   UNL     1       3.054  10.253  -9.800  1.00  0.00    -0.295 OA
ENDROOT
BRANCH   5   9
ATOM      9  C   UNL     1      -0.936   7.428  -9.882  1.00  0.00    -0.077 C 
ATOM     10  C   UNL     1      -1.438   7.793  -8.689  1.00  0.00     0.008 C 
ATOM     11  C   UNL     1      -1.858   6.782 -10.884  1.00  0.00     0.039 C 
ENDBRANCH   5   9
TORSDOF 1
ENDMDL
MODEL 5
REMARK VINA RESULT:    -4.035      1.487      1.971
REMARK INTER + INTRA:          -4.367
REMARK INTER:                  -4.278
REMARK INTRA:                  -0.088
REMARK UNBOUND:                -0.096
REMARK SMILES C=C(C)[C@H]1CC=C(C)C(=O)C1
REMARK SMILES IDX 8 1 7 2 6 3 5 4 4 5 11 6 9 7 10 8 2 9 1 10 3 11
REMARK H PARENT
REMARK Flexibility Score: inf
ROOT
ATOM      1  C   UNL     1       2.250   8.151  -9.489  1.00  0.00     0.048 C 
ATOM      2  C   UNL     1       0.794   8.401  -9.772  1.00  0.00    -0.012 C 
ATOM      3  C   UNL     1       0.433   9.237 -10.761  1.00  0.00    -0.019 C 
ATOM      4  C   UNL     1      -1.009   9.579 -11.031  1.00  0.00     0.036 C 
ATOM      5  C   UNL     1      -1.938   8.410 -10.654  1.00  0.00     0.025 C 
ATOM      6  C   UNL     1      -1.702   7.986  -9.193  1.00  0.00     0.089 C 
ATOM      7  C   UNL     1      -0.240   7.737  -8.941  1.00  0.00     0.158 C 
ATOM      8  O   UNL     1       0.100   6.991  -7.984  1.00  0.00    -0.295 OA
ENDROOT
BRANCH   5   9
ATOM      9  C   UNL     1      -3.401   8.747 -10.912  1.00  0.00    -0.077 C 
ATOM     10  C   UNL     1      -4.143   8.028 -11.772  1.00  0.00     0.008 C 
ATOM     11  C   UNL     1      -4.048   9.906 -10.197  1.00  0.00     0.039 C 
ENDBRANCH   5   9
TORSDOF 1
ENDMDL
MODEL 6
REMARK VINA RESULT:    -3.906     15.830     16.541
REMARK INTER + INTRA:          -4.230
REMARK INTER:                  -4.135
REMARK INTRA:                  -0.095
REMARK UNBOUND:                -0.096
REMARK SMILES C=C(C)[C@H]1CC=C(C)C(=O)C1
REMARK SMILES IDX 8 1 7 2 6 3 5 4 4 5 11 6 9 7 10 8 2 9 1 10 3 11
REMARK H PARENT
REMARK Flexibility Score: inf
ROOT
ATOM      1  C   UNL     1       3.925  13.719   5.463  1.00  0.00     0.048 C 
ATOM      2  C   UNL     1       2.500  13.238   5.453  1.00  0.00    -0.012 C 
ATOM      3  C   UNL     1       1.665  13.623   4.473  1.00  0.00    -0.019 C 
ATOM      4  C   UNL     1       0.210  13.233   4.463  1.00  0.00     0.036 C 
ATOM      5  C   UNL     1      -0.004  11.867   5.143  1.00  0.00     0.025 C 
ATOM      6  C   UNL     1       0.588  11.877   6.564  1.00  0.00     0.089 C 
ATOM      7  C   UNL     1       2.014  12.354   6.542  1.00  0.00     0.158 C 
ATOM      8  O   UNL     1       2.784  12.033   7.486  1.00  0.00    -0.295 OA
ENDROOT
BRANCH   5   9
ATOM      9  C   UNL     1      -1.474  11.466   5.150  1.00  0.00    -0.077 C 
ATOM     10  C   UNL     1      -2.450  12.390   5.162  1.00  0.00     0.008 C 
ATOM     11  C   UNL     1      -1.861  10.010   5.140  1.00  0.00     0.039 C 
ENDBRANCH   5   9
TORSDOF 1
ENDMDL
MODEL 7
REMARK VINA RESULT:    -3.846      3.149      5.426
REMARK INTER + INTRA:          -4.166
REMARK INTER:                  -4.078
REMARK INTRA:                  -0.088
REMARK UNBOUND:                -0.096
REMARK SMILES C=C(C)[C@H]1CC=C(C)C(=O)C1
REMARK SMILES IDX 8 1 7 2 6 3 5 4 4 5 11 6 9 7 10 8 2 9 1 10 3 11
REMARK H PARENT
REMARK Flexibility Score: inf
ROOT
ATOM      1  C   UNL     1      -4.922  12.824 -11.378  1.00  0.00     0.048 C 
ATOM      2  C   UNL     1      -4.251  11.492 -11.178  1.00  0.00    -0.012 C 
ATOM      3  C   UNL     1      -2.922  11.376 -11.341  1.00  0.00    -0.019 C 
ATOM      4  C   UNL     1      -2.217  10.048 -11.230  1.00  0.00     0.036 C 
ATOM      5  C   UNL     1      -2.942   9.114 -10.243  1.00  0.00     0.025 C 
ATOM      6  C   UNL     1      -4.421   8.958 -10.640  1.00  0.00     0.089 C 
ATOM      7  C   UNL     1      -5.067  10.304 -10.824  1.00  0.00     0.158 C 
ATOM      8  O   UNL     1      -6.318  10.405 -10.720  1.00  0.00    -0.295 OA
ENDROOT
BRANCH   5   9
ATOM      9  C   UNL     1      -2.245   7.764 -10.131  1.00  0.00    -0.077 C 
ATOM     10  C   UNL     1      -1.523   7.439  -9.044  1.00  0.00     0.008 C 
ATOM     11  C   UNL     1      -2.357   6.759 -11.249  1.00  0.00     0.039 C 
ENDBRANCH   5   9
TORSDOF 1
ENDMDL
MODEL 8
REMARK VINA RESULT:    -3.842     15.879     16.269
REMARK INTER + INTRA:          -4.163
REMARK INTER:                  -4.067
REMARK INTRA:                  -0.095
REMARK UNBOUND:                -0.096
REMARK SMILES C=C(C)[C@H]1CC=C(C)C(=O)C1
REMARK SMILES IDX 8 1 7 2 6 3 5 4 4 5 11 6 9 7 10 8 2 9 1 10 3 11
REMARK H PARENT
REMARK Flexibility Score: inf
ROOT
ATOM      1  C   UNL     1       2.694  13.405   5.038  1.00  0.00     0.048 C 
ATOM      2  C   UNL     1       1.255  12.987   5.172  1.00  0.00    -0.012 C 
ATOM      3  C   UNL     1       0.318  13.527   4.375  1.00  0.00    -0.019 C 
ATOM      4  C   UNL     1      -1.145  13.199   4.526  1.00  0.00     0.036 C 
ATOM      5  C   UNL     1      -1.342  11.768   5.060  1.00  0.00     0.025 C 
ATOM      6  C   UNL     1      -0.562  11.573   6.373  1.00  0.00     0.089 C 
ATOM      7  C   UNL     1       0.873  11.992   6.205  1.00  0.00     0.158 C 
ATOM      8  O   UNL     1       1.745  11.522   6.984  1.00  0.00    -0.295 OA
ENDROOT
BRANCH   5   9
ATOM      9  C   UNL     1      -2.818  11.428   5.227  1.00  0.00    -0.077 C 
ATOM     10  C   UNL     1      -3.764  12.383   5.186  1.00  0.00     0.008 C 
ATOM     11  C   UNL     1      -3.246   9.999   5.442  1.00  0.00     0.039 C 
ENDBRANCH   5   9
TORSDOF 1
ENDMDL
MODEL 9
REMARK VINA RESULT:    -3.728      2.737      4.895
REMARK INTER + INTRA:          -4.041
REMARK INTER:                  -3.953
REMARK INTRA:                  -0.088
REMARK UNBOUND:                -0.096
REMARK SMILES C=C(C)[C@H]1CC=C(C)C(=O)C1
REMARK SMILES IDX 8 1 7 2 6 3 5 4 4 5 11 6 9 7 10 8 2 9 1 10 3 11
REMARK H PARENT
REMARK Flexibility Score: inf
ROOT
ATOM      1  C   UNL     1      -1.611   7.745  -8.724  1.00  0.00     0.048 C 
ATOM      2  C   UNL     1      -0.338   8.108  -9.439  1.00  0.00    -0.012 C 
ATOM      3  C   UNL     1      -0.384   8.611 -10.684  1.00  0.00    -0.019 C 
ATOM      4  C   UNL     1       0.866   8.914 -11.470  1.00  0.00     0.036 C 
ATOM      5  C   UNL     1       2.026   9.311 -10.538  1.00  0.00     0.025 C 
ATOM      6  C   UNL     1       2.256   8.222  -9.474  1.00  0.00     0.089 C 
ATOM      7  C   UNL     1       0.969   7.886  -8.771  1.00  0.00     0.158 C 
ATOM      8  O   UNL     1       1.013   7.370  -7.623  1.00  0.00    -0.295 OA
ENDROOT
BRANCH   5   9
ATOM      9  C   UNL     1       3.299   9.609 -11.320  1.00  0.00    -0.077 C 
ATOM     10  C   UNL     1       3.828  10.845 -11.348  1.00  0.00     0.008 C 
ATOM     11  C   UNL     1       3.995   8.511 -12.082  1.00  0.00     0.039 C 
ENDBRANCH   5   9
TORSDOF 1
ENDMDL
