MODEL 1
REMARK VINA RESULT:    -5.143      0.000      0.000
REMARK INTER + INTRA:          -5.143
REMARK INTER:                  -5.143
REMARK INTRA:                   0.000
REMARK UNBOUND:                 0.000
REMARK SMILES CC1(C)[C@H]2CC[C@]1(C)C(=O)C2
REMARK SMILES IDX 1 1 2 2 4 3 5 4 6 5 7 6 9 7 10 8 11 9 8 10 3 11
REMARK H PARENT
REMARK Flexibility Score: inf
ROOT
ATOM      1  C   UNL     1      22.149 203.147  14.448  1.00  0.00     0.012 C 
ATOM      2  C   UNL     1      20.933 203.500  15.361  1.00  0.00    -0.020 C 
ATOM      3  C   UNL     1      20.638 202.430  16.440  1.00  0.00     0.003 C 
ATOM      4  C   UNL     1      19.313 202.940  17.071  1.00  0.00     0.005 C 
ATOM      5  C   UNL     1      18.560 203.544  15.860  1.00  0.00     0.015 C 
ATOM      6  C   UNL     1      19.553 203.315  14.694  1.00  0.00     0.032 C 
ATOM      7  C   UNL     1      19.547 201.822  14.474  1.00  0.00     0.139 C 
ATOM      8  O   UNL     1      18.977 201.232  13.569  1.00  0.00    -0.299 OA
ATOM      9  C   UNL     1      20.270 201.168  15.610  1.00  0.00     0.080 C 
ATOM     10  C   UNL     1      19.279 204.156  13.443  1.00  0.00     0.020 C 
ATOM     11  C   UNL     1      21.214 204.918  15.940  1.00  0.00     0.012 C 
ENDROOT
TORSDOF 0
ENDMDL
MODEL 2
REMARK VINA RESULT:    -5.105      1.936      3.316
REMARK INTER + INTRA:          -5.105
REMARK INTER:                  -5.105
REMARK INTRA:                   0.000
REMARK UNBOUND:                 0.000
REMARK SMILES CC1(C)[C@H]2CC[C@]1(C)C(=O)C2
REMARK SMILES IDX 1 1 2 2 4 3 5 4 6 5 7 6 9 7 10 8 11 9 8 10 3 11
REMARK H PARENT
REMARK Flexibility Score: inf
ROOT
ATOM      1  C   UNL     1      18.957 204.668  13.564  1.00  0.00     0.012 C 
ATOM      2  C   UNL     1      19.393 203.593  14.608  1.00  0.00    -0.020 C 
ATOM      3  C   UNL     1      18.682 203.735  15.976  1.00  0.00     0.003 C 
ATOM      4  C   UNL     1      19.412 202.679  16.851  1.00  0.00     0.005 C 
ATOM      5  C   UNL     1      20.872 202.749  16.335  1.00  0.00     0.015 C 
ATOM      6  C   UNL     1      20.789 203.825  15.227  1.00  0.00     0.032 C 
ATOM      7  C   UNL     1      20.555 205.120  15.966  1.00  0.00     0.139 C 
ATOM      8  O   UNL     1      21.390 205.985  16.180  1.00  0.00    -0.299 OA
ATOM      9  C   UNL     1      19.151 205.126  16.487  1.00  0.00     0.080 C 
ATOM     10  C   UNL     1      21.973 203.838  14.255  1.00  0.00     0.020 C 
ATOM     11  C   UNL     1      19.182 202.207  13.930  1.00  0.00     0.012 C 
ENDROOT
TORSDOF 0
ENDMDL
MODEL 3
REMARK VINA RESULT:    -5.041      1.623      2.093
REMARK INTER + INTRA:          -5.041
REMARK INTER:                  -5.041
REMARK INTRA:                   0.000
REMARK UNBOUND:                 0.000
REMARK SMILES CC1(C)[C@H]2CC[C@]1(C)C(=O)C2
REMARK SMILES IDX 1 1 2 2 4 3 5 4 6 5 7 6 9 7 10 8 11 9 8 10 3 11
REMARK H PARENT
REMARK Flexibility Score: inf
ROOT
ATOM      1  C   UNL     1      21.613 202.935  14.328  1.00  0.00     0.012 C 
ATOM      2  C   UNL     1      20.748 203.528  15.484  1.00  0.00    -0.020 C 
ATOM      3  C   UNL     1      19.424 202.763  15.721  1.00  0.00     0.003 C 
ATOM      4  C   UNL     1      18.704 203.647  16.777  1.00  0.00     0.005 C 
ATOM      5  C   UNL     1      19.107 205.083  16.362  1.00  0.00     0.015 C 
ATOM      6  C   UNL     1      20.013 204.839  15.131  1.00  0.00     0.032 C 
ATOM      7  C   UNL     1      19.075 204.352  14.054  1.00  0.00     0.139 C 
ATOM      8  O   UNL     1      18.661 205.010  13.112  1.00  0.00    -0.299 OA
ATOM      9  C   UNL     1      18.648 202.956  14.388  1.00  0.00     0.080 C 
ATOM     10  C   UNL     1      20.892 206.030  14.735  1.00  0.00     0.020 C 
ATOM     11  C   UNL     1      21.671 203.592  16.737  1.00  0.00     0.012 C 
ENDROOT
TORSDOF 0
ENDMDL
MODEL 4
REMARK VINA RESULT:    -5.002      1.513      3.011
REMARK INTER + INTRA:          -5.002
REMARK INTER:                  -5.002
REMARK INTRA:                   0.000
REMARK UNBOUND:                 0.000
REMARK SMILES CC1(C)[C@H]2CC[C@]1(C)C(=O)C2
REMARK SMILES IDX 1 1 2 2 4 3 5 4 6 5 7 6 9 7 10 8 11 9 8 10 3 11
REMARK H PARENT
REMARK Flexibility Score: inf
ROOT
ATOM      1  C   UNL     1      21.401 204.909  15.349  1.00  0.00     0.012 C 
ATOM      2  C   UNL     1      20.933 203.475  14.947  1.00  0.00    -0.020 C 
ATOM      3  C   UNL     1      19.711 203.464  13.998  1.00  0.00     0.003 C 
ATOM      4  C   UNL     1      19.364 201.953  13.906  1.00  0.00     0.005 C 
ATOM      5  C   UNL     1      19.677 201.437  15.332  1.00  0.00     0.015 C 
ATOM      6  C   UNL     1      20.173 202.713  16.054  1.00  0.00     0.032 C 
ATOM      7  C   UNL     1      18.943 203.577  16.194  1.00  0.00     0.139 C 
ATOM      8  O   UNL     1      18.294 203.740  17.215  1.00  0.00    -0.299 OA
ATOM      9  C   UNL     1      18.586 204.121  14.846  1.00  0.00     0.080 C 
ATOM     10  C   UNL     1      20.937 202.457  17.357  1.00  0.00     0.020 C 
ATOM     11  C   UNL     1      22.185 202.749  14.371  1.00  0.00     0.012 C 
ENDROOT
TORSDOF 0
ENDMDL
MODEL 5
REMARK VINA RESULT:    -4.933      1.860      3.164
REMARK INTER + INTRA:          -4.933
REMARK INTER:                  -4.933
REMARK INTRA:                   0.000
REMARK UNBOUND:                 0.000
REMARK SMILES CC1(C)[C@H]2CC[C@]1(C)C(=O)C2
REMARK SMILES IDX 1 1 2 2 4 3 5 4 6 5 7 6 9 7 10 8 11 9 8 10 3 11
REMARK H PARENT
REMARK Flexibility Score: inf
ROOT
ATOM      1  C   UNL     1      21.290 202.386  17.266  1.00  0.00     0.012 C 
ATOM      2  C   UNL     1      20.351 202.271  16.026  1.00  0.00    -0.020 C 
ATOM      3  C   UNL     1      21.058 202.573  14.682  1.00  0.00     0.003 C 
ATOM      4  C   UNL     1      19.882 202.557  13.667  1.00  0.00     0.005 C 
ATOM      5  C   UNL     1      18.713 203.169  14.478  1.00  0.00     0.015 C 
ATOM      6  C   UNL     1      19.364 203.446  15.855  1.00  0.00     0.032 C 
ATOM      7  C   UNL     1      20.324 204.583  15.603  1.00  0.00     0.139 C 
ATOM      8  O   UNL     1      20.146 205.753  15.905  1.00  0.00    -0.299 OA
ATOM      9  C   UNL     1      21.492 204.059  14.826  1.00  0.00     0.080 C 
ATOM     10  C   UNL     1      18.371 203.678  16.999  1.00  0.00     0.020 C 
ATOM     11  C   UNL     1      19.704 200.856  16.092  1.00  0.00     0.012 C 
ENDROOT
TORSDOF 0
ENDMDL
MODEL 6
REMARK VINA RESULT:    -4.823      1.468      3.102
REMARK INTER + INTRA:          -4.823
REMARK INTER:                  -4.823
REMARK INTRA:                   0.000
REMARK UNBOUND:                 0.000
REMARK SMILES CC1(C)[C@H]2CC[C@]1(C)C(=O)C2
REMARK SMILES IDX 1 1 2 2 4 3 5 4 6 5 7 6 9 7 10 8 11 9 8 10 3 11
REMARK H PARENT
REMARK Flexibility Score: inf
ROOT
ATOM      1  C   UNL     1      18.428 203.735  16.756  1.00  0.00     0.012 C 
ATOM      2  C   UNL     1      19.830 203.539  16.098  1.00  0.00    -0.020 C 
ATOM      3  C   UNL     1      20.650 204.847  15.986  1.00  0.00     0.003 C 
ATOM      4  C   UNL     1      21.889 204.402  15.161  1.00  0.00     0.005 C 
ATOM      5  C   UNL     1      21.296 203.365  14.174  1.00  0.00     0.015 C 
ATOM      6  C   UNL     1      19.800 203.339  14.567  1.00  0.00     0.032 C 
ATOM      7  C   UNL     1      19.263 204.678  14.122  1.00  0.00     0.139 C 
ATOM      8  O   UNL     1      18.582 204.883  13.129  1.00  0.00    -0.299 OA
ATOM      9  C   UNL     1      19.791 205.735  15.042  1.00  0.00     0.080 C 
ATOM     10  C   UNL     1      19.022 202.125  14.051  1.00  0.00     0.020 C 
ATOM     11  C   UNL     1      20.544 202.415  16.907  1.00  0.00     0.012 C 
ENDROOT
TORSDOF 0
ENDMDL
MODEL 7
REMARK VINA RESULT:    -4.740      1.622      2.933
REMARK INTER + INTRA:          -4.740
REMARK INTER:                  -4.740
REMARK INTRA:                   0.000
REMARK UNBOUND:                 0.000
REMARK SMILES CC1(C)[C@H]2CC[C@]1(C)C(=O)C2
REMARK SMILES IDX 1 1 2 2 4 3 5 4 6 5 7 6 9 7 10 8 11 9 8 10 3 11
REMARK H PARENT
REMARK Flexibility Score: inf
ROOT
ATOM      1  C   UNL     1      19.001 202.517  13.909  1.00  0.00     0.012 C 
ATOM      2  C   UNL     1      19.647 203.843  14.419  1.00  0.00    -0.020 C 
ATOM      3  C   UNL     1      21.181 203.902  14.221  1.00  0.00     0.003 C 
ATOM      4  C   UNL     1      21.569 205.215  14.954  1.00  0.00     0.005 C 
ATOM      5  C   UNL     1      20.595 205.243  16.158  1.00  0.00     0.015 C 
ATOM      6  C   UNL     1      19.767 203.951  15.955  1.00  0.00     0.032 C 
ATOM      7  C   UNL     1      20.734 202.827  16.239  1.00  0.00     0.139 C 
ATOM      8  O   UNL     1      20.776 202.157  17.259  1.00  0.00    -0.299 OA
ATOM      9  C   UNL     1      21.707 202.735  15.104  1.00  0.00     0.080 C 
ATOM     10  C   UNL     1      18.458 203.895  16.749  1.00  0.00     0.020 C 
ATOM     11  C   UNL     1      18.877 205.004  13.724  1.00  0.00     0.012 C 
ENDROOT
TORSDOF 0
ENDMDL
MODEL 8
REMARK VINA RESULT:    -4.717      1.529      2.820
REMARK INTER + INTRA:          -4.717
REMARK INTER:                  -4.717
REMARK INTRA:                   0.000
REMARK UNBOUND:                 0.000
REMARK SMILES CC1(C)[C@H]2CC[C@]1(C)C(=O)C2
REMARK SMILES IDX 1 1 2 2 4 3 5 4 6 5 7 6 9 7 10 8 11 9 8 10 3 11
REMARK H PARENT
REMARK Flexibility Score: inf
ROOT
ATOM      1  C   UNL     1      20.098 202.411  17.053  1.00  0.00     0.012 C 
ATOM      2  C   UNL     1      19.544 203.447  16.026  1.00  0.00    -0.020 C 
ATOM      3  C   UNL     1      19.030 202.807  14.715  1.00  0.00     0.003 C 
ATOM      4  C   UNL     1      18.709 204.045  13.833  1.00  0.00     0.005 C 
ATOM      5  C   UNL     1      19.820 205.050  14.227  1.00  0.00     0.015 C 
ATOM      6  C   UNL     1      20.627 204.265  15.289  1.00  0.00     0.032 C 
ATOM      7  C   UNL     1      21.321 203.172  14.513  1.00  0.00     0.139 C 
ATOM      8  O   UNL     1      22.500 203.157  14.194  1.00  0.00    -0.299 OA
ATOM      9  C   UNL     1      20.302 202.154  14.105  1.00  0.00     0.080 C 
ATOM     10  C   UNL     1      21.547 205.125  16.161  1.00  0.00     0.020 C 
ATOM     11  C   UNL     1      18.470 204.285  16.782  1.00  0.00     0.012 C 
ENDROOT
TORSDOF 0
ENDMDL
MODEL 9
REMARK VINA RESULT:    -4.698      1.577      2.769
REMARK INTER + INTRA:          -4.698
REMARK INTER:                  -4.698
REMARK INTRA:                   0.000
REMARK UNBOUND:                 0.000
REMARK SMILES CC1(C)[C@H]2CC[C@]1(C)C(=O)C2
REMARK SMILES IDX 1 1 2 2 4 3 5 4 6 5 7 6 9 7 10 8 11 9 8 10 3 11
REMARK H PARENT
REMARK Flexibility Score: inf
ROOT
ATOM      1  C   UNL     1      21.393 205.678  16.282  1.00  0.00     0.012 C 
ATOM      2  C   UNL     1      20.544 205.032  15.143  1.00  0.00    -0.020 C 
ATOM      3  C   UNL     1      19.047 204.871  15.501  1.00  0.00     0.003 C 
ATOM      4  C   UNL     1      18.492 204.067  14.293  1.00  0.00     0.005 C 
ATOM      5  C   UNL     1      19.665 203.121  13.936  1.00  0.00     0.015 C 
ATOM      6  C   UNL     1      20.744 203.510  14.975  1.00  0.00     0.032 C 
ATOM      7  C   UNL     1      20.204 203.011  16.293  1.00  0.00     0.139 C 
ATOM      8  O   UNL     1      20.573 202.009  16.885  1.00  0.00    -0.299 OA
ATOM      9  C   UNL     1      19.066 203.890  16.707  1.00  0.00     0.080 C 
ATOM     10  C   UNL     1      22.162 203.040  14.635  1.00  0.00     0.020 C 
ATOM     11  C   UNL     1      20.797 205.887  13.866  1.00  0.00     0.012 C 
ENDROOT
TORSDOF 0
ENDMDL
