MODEL 1
REMARK VINA RESULT:    -8.902      0.000      0.000
REMARK INTER + INTRA:         -13.006
REMARK INTER:                 -12.284
REMARK INTRA:                  -0.722
REMARK UNBOUND:                -0.722
REMARK SMILES C[C@@H]1OC(=O)[C@@H](C)[C@@H]1C[C@@H](O)[C@@](C)(O)[C@H]1CC[C@@]2(O)C3=CC(=O)[C@H]4C[C@@H](O)[C@H](O)C[C@]4(C)[C@H]3CC[C@]12C
REMARK SMILES IDX 12 1 13 2 10 3 9 4 8 5 7 6 6 7 4 8 2 9 3 10 5 11 1 12 11 13
REMARK SMILES IDX 15 15 16 16 36 17 17 18 18 19 35 20 37 21 20 22 34 23 33 24
REMARK SMILES IDX 21 25 31 26 22 27 24 28 30 29 32 30 23 31 25 32 28 33 26 34
REMARK SMILES IDX 19 35 29 37 27 39 14 41
REMARK H PARENT 11 14 19 36 29 38 27 40 14 42
REMARK Flexibility Score: inf
ROOT
ATOM      1  C   UNL     1      11.183   4.424  59.709  1.00  0.00     0.091 C 
ATOM      2  C   UNL     1      10.855   5.865  60.180  1.00  0.00     0.045 C 
ENDROOT
BRANCH   1   3
ATOM      3  C   UNL     1      12.700   4.304  59.244  1.00  0.00     0.146 C 
BRANCH   3   4
ATOM      4  C   UNL     1      13.022   4.822  57.810  1.00  0.00     0.043 C 
BRANCH   4   5
ATOM      5  C   UNL     1      13.911   3.883  56.927  1.00  0.00     0.046 C 
ATOM      6  C   UNL     1      13.181   1.445  57.299  1.00  0.00     0.020 C 
ATOM      7  C   UNL     1      13.135   2.662  56.369  1.00  0.00     0.103 C 
ATOM      8  C   UNL     1      13.842   2.410  55.091  1.00  0.00     0.309 C 
ATOM      9  C   UNL     1      14.611   4.509  55.672  1.00  0.00     0.177 C 
ATOM     10  O   UNL     1      14.683   3.440  54.739  1.00  0.00    -0.462 OA
ATOM     11  O   UNL     1      13.667   1.394  54.365  1.00  0.00    -0.252 OA
ATOM     12  C   UNL     1      13.868   5.676  55.008  1.00  0.00     0.053 C 
ENDBRANCH   4   5
ENDBRANCH   3   4
BRANCH   3  13
ATOM     13  O   UNL     1      13.622   4.815  60.179  1.00  0.00    -0.390 OA
ATOM     14  H   UNL     1      14.131   5.548  59.751  1.00  0.00     0.211 HD
ENDBRANCH   3  13
ENDBRANCH   1   3
BRANCH   1  15
ATOM     15  C   UNL     1      10.754   3.377  60.823  1.00  0.00     0.032 C 
ATOM     16  C   UNL     1       9.306   3.584  61.354  1.00  0.00     0.010 C 
ATOM     17  C   UNL     1      10.907   1.825  60.663  1.00  0.00     0.006 C 
ATOM     18  C   UNL     1       8.775   2.195  61.740  1.00  0.00     0.041 C 
ATOM     19  C   UNL     1      10.038   1.331  61.849  1.00  0.00     0.092 C 
ATOM     20  C   UNL     1      12.341   1.260  60.879  1.00  0.00     0.011 C 
ATOM     21  C   UNL     1      10.366   1.331  59.284  1.00  0.00     0.015 C 
ATOM     22  C   UNL     1       9.916  -0.181  61.805  1.00  0.00    -0.031 C 
ATOM     23  C   UNL     1      12.353  -0.290  60.927  1.00  0.00     0.009 C 
ATOM     24  C   UNL     1      11.251  -0.948  61.825  1.00  0.00     0.025 C 
ATOM     25  C   UNL     1       8.752  -0.796  62.096  1.00  0.00     0.050 C 
ATOM     26  C   UNL     1      11.060  -2.491  61.566  1.00  0.00    -0.013 C 
ATOM     27  C   UNL     1       8.697  -2.237  62.382  1.00  0.00     0.159 C 
ATOM     28  C   UNL     1       9.987  -2.989  62.585  1.00  0.00     0.070 C 
ATOM     29  C   UNL     1      12.390  -3.253  61.842  1.00  0.00     0.042 C 
ATOM     30  C   UNL     1      10.604  -2.750  60.094  1.00  0.00     0.013 C 
ATOM     31  O   UNL     1       7.581  -2.796  62.545  1.00  0.00    -0.295 OA
ATOM     32  C   UNL     1       9.808  -4.522  62.585  1.00  0.00     0.047 C 
ATOM     33  C   UNL     1      12.220  -4.787  61.839  1.00  0.00     0.143 C 
ATOM     34  C   UNL     1      11.148  -5.229  62.850  1.00  0.00     0.143 C 
BRANCH  19  35
ATOM     35  O   UNL     1      10.668   1.664  63.074  1.00  0.00    -0.385 OA
ATOM     36  H   UNL     1      10.556   0.897  63.697  1.00  0.00     0.211 HD
ENDBRANCH  19  35
BRANCH  33  37
ATOM     37  O   UNL     1      13.441  -5.394  62.180  1.00  0.00    -0.390 OA
ATOM     38  H   UNL     1      14.143  -4.948  61.640  1.00  0.00     0.211 HD
ENDBRANCH  33  37
BRANCH  34  39
ATOM     39  O   UNL     1      10.973  -6.619  62.757  1.00  0.00    -0.390 OA
ATOM     40  H   UNL     1      11.110  -6.988  63.669  1.00  0.00     0.211 HD
ENDBRANCH  34  39
ENDBRANCH   1  15
BRANCH   1  41
ATOM     41  O   UNL     1      10.370   4.158  58.585  1.00  0.00    -0.387 OA
ATOM     42  H   UNL     1      10.675   4.712  57.818  1.00  0.00     0.211 HD
ENDBRANCH   1  41
TORSDOF 9
ENDMDL
MODEL 2
REMARK VINA RESULT:    -8.778     10.275     12.750
REMARK INTER + INTRA:         -12.835
REMARK INTER:                 -12.274
REMARK INTRA:                  -0.561
REMARK UNBOUND:                -0.722
REMARK SMILES C[C@@H]1OC(=O)[C@@H](C)[C@@H]1C[C@@H](O)[C@@](C)(O)[C@H]1CC[C@@]2(O)C3=CC(=O)[C@H]4C[C@@H](O)[C@H](O)C[C@]4(C)[C@H]3CC[C@]12C
REMARK SMILES IDX 12 1 13 2 10 3 9 4 8 5 7 6 6 7 4 8 2 9 3 10 5 11 1 12 11 13
REMARK SMILES IDX 15 15 16 16 36 17 17 18 18 19 35 20 37 21 20 22 34 23 33 24
REMARK SMILES IDX 21 25 31 26 22 27 24 28 30 29 32 30 23 31 25 32 28 33 26 34
REMARK SMILES IDX 19 35 29 37 27 39 14 41
REMARK H PARENT 11 14 19 36 29 38 27 40 14 42
REMARK Flexibility Score: inf
ROOT
ATOM      1  C   UNL     1      12.942 -11.318  59.700  1.00  0.00     0.091 C 
ATOM      2  C   UNL     1      12.364 -12.756  59.635  1.00  0.00     0.045 C 
ENDROOT
BRANCH   1   3
ATOM      3  C   UNL     1      12.097 -10.321  58.793  1.00  0.00     0.146 C 
BRANCH   3   4
ATOM      4  C   UNL     1      12.539 -10.206  57.303  1.00  0.00     0.043 C 
BRANCH   4   5
ATOM      5  C   UNL     1      12.925  -8.771  56.811  1.00  0.00     0.046 C 
ATOM      6  C   UNL     1      14.957  -7.945  58.155  1.00  0.00     0.020 C 
ATOM      7  C   UNL     1      14.456  -8.518  56.826  1.00  0.00     0.103 C 
ATOM      8  C   UNL     1      14.615  -7.553  55.712  1.00  0.00     0.309 C 
ATOM      9  C   UNL     1      12.472  -8.345  55.372  1.00  0.00     0.177 C 
ATOM     10  O   UNL     1      13.485  -7.451  54.934  1.00  0.00    -0.462 OA
ATOM     11  O   UNL     1      15.678  -6.924  55.456  1.00  0.00    -0.252 OA
ATOM     12  C   UNL     1      12.358  -9.481  54.347  1.00  0.00     0.053 C 
ENDBRANCH   4   5
ENDBRANCH   3   4
BRANCH   3  13
ATOM     13  O   UNL     1      10.704 -10.506  58.889  1.00  0.00    -0.390 OA
ATOM     14  H   UNL     1      10.340  -9.834  59.519  1.00  0.00     0.211 HD
ENDBRANCH   3  13
ENDBRANCH   1   3
BRANCH   1  15
ATOM     15  C   UNL     1      13.092 -10.860  61.213  1.00  0.00     0.032 C 
ATOM     16  C   UNL     1      11.980 -11.414  62.150  1.00  0.00     0.010 C 
ATOM     17  C   UNL     1      14.419 -11.001  62.036  1.00  0.00     0.006 C 
ATOM     18  C   UNL     1      12.618 -11.591  63.535  1.00  0.00     0.041 C 
ATOM     19  C   UNL     1      13.892 -10.739  63.470  1.00  0.00     0.092 C 
ATOM     20  C   UNL     1      15.513  -9.931  61.747  1.00  0.00     0.011 C 
ATOM     21  C   UNL     1      15.044 -12.424  61.884  1.00  0.00     0.015 C 
ATOM     22  C   UNL     1      15.001 -10.973  64.479  1.00  0.00    -0.031 C 
ATOM     23  C   UNL     1      16.685 -10.011  62.758  1.00  0.00     0.009 C 
ATOM     24  C   UNL     1      16.272 -10.131  64.265  1.00  0.00     0.025 C 
ATOM     25  C   UNL     1      14.756 -11.581  65.657  1.00  0.00     0.050 C 
ATOM     26  C   UNL     1      17.451 -10.574  65.212  1.00  0.00    -0.013 C 
ATOM     27  C   UNL     1      15.719 -11.520  66.766  1.00  0.00     0.159 C 
ATOM     28  C   UNL     1      16.885 -10.572  66.667  1.00  0.00     0.070 C 
ATOM     29  C   UNL     1      18.617  -9.545  65.138  1.00  0.00     0.042 C 
ATOM     30  C   UNL     1      17.977 -11.990  64.812  1.00  0.00     0.013 C 
ATOM     31  O   UNL     1      15.505 -12.187  67.813  1.00  0.00    -0.295 OA
ATOM     32  C   UNL     1      17.964 -10.813  67.744  1.00  0.00     0.047 C 
ATOM     33  C   UNL     1      19.704  -9.783  66.209  1.00  0.00     0.143 C 
ATOM     34  C   UNL     1      19.098  -9.781  67.624  1.00  0.00     0.143 C 
BRANCH  19  35
ATOM     35  O   UNL     1      13.495  -9.384  63.593  1.00  0.00    -0.385 OA
ATOM     36  H   UNL     1      14.315  -8.828  63.670  1.00  0.00     0.211 HD
ENDBRANCH  19  35
BRANCH  33  37
ATOM     37  O   UNL     1      20.670  -8.766  66.130  1.00  0.00    -0.390 OA
ATOM     38  H   UNL     1      21.034  -8.644  67.044  1.00  0.00     0.211 HD
ENDBRANCH  33  37
BRANCH  34  39
ATOM     39  O   UNL     1      20.105 -10.077  68.556  1.00  0.00    -0.390 OA
ATOM     40  H   UNL     1      20.940 -10.229  68.039  1.00  0.00     0.211 HD
ENDBRANCH  34  39
ENDBRANCH   1  15
BRANCH   1  41
ATOM     41  O   UNL     1      14.251 -11.371  59.172  1.00  0.00    -0.387 OA
ATOM     42  H   UNL     1      14.893 -11.576  59.902  1.00  0.00     0.211 HD
ENDBRANCH   1  41
TORSDOF 9
ENDMDL
MODEL 3
REMARK VINA RESULT:    -8.771      6.308     10.192
REMARK INTER + INTRA:         -12.826
REMARK INTER:                 -12.128
REMARK INTRA:                  -0.697
REMARK UNBOUND:                -0.722
REMARK SMILES C[C@@H]1OC(=O)[C@@H](C)[C@@H]1C[C@@H](O)[C@@](C)(O)[C@H]1CC[C@@]2(O)C3=CC(=O)[C@H]4C[C@@H](O)[C@H](O)C[C@]4(C)[C@H]3CC[C@]12C
REMARK SMILES IDX 12 1 13 2 10 3 9 4 8 5 7 6 6 7 4 8 2 9 3 10 5 11 1 12 11 13
REMARK SMILES IDX 15 15 16 16 36 17 17 18 18 19 35 20 37 21 20 22 34 23 33 24
REMARK SMILES IDX 21 25 31 26 22 27 24 28 30 29 32 30 23 31 25 32 28 33 26 34
REMARK SMILES IDX 19 35 29 37 27 39 14 41
REMARK H PARENT 11 14 19 36 29 38 27 40 14 42
REMARK Flexibility Score: inf
ROOT
ATOM      1  C   UNL     1      13.589  -6.003  59.679  1.00  0.00     0.091 C 
ATOM      2  C   UNL     1      12.131  -5.493  59.537  1.00  0.00     0.045 C 
ENDROOT
BRANCH   1   3
ATOM      3  C   UNL     1      14.513  -4.908  60.370  1.00  0.00     0.146 C 
BRANCH   3   4
ATOM      4  C   UNL     1      15.634  -4.293  59.479  1.00  0.00     0.043 C 
BRANCH   4   5
ATOM      5  C   UNL     1      15.263  -2.970  58.729  1.00  0.00     0.046 C 
ATOM      6  C   UNL     1      15.850  -0.965  60.230  1.00  0.00     0.020 C 
ATOM      7  C   UNL     1      16.254  -1.811  59.019  1.00  0.00     0.103 C 
ATOM      8  C   UNL     1      16.194  -1.037  57.757  1.00  0.00     0.309 C 
ATOM      9  C   UNL     1      15.166  -3.018  57.165  1.00  0.00     0.177 C 
ATOM     10  O   UNL     1      15.555  -1.718  56.747  1.00  0.00    -0.462 OA
ATOM     11  O   UNL     1      16.712   0.101  57.590  1.00  0.00    -0.252 OA
ATOM     12  C   UNL     1      16.079  -4.039  56.473  1.00  0.00     0.053 C 
ENDBRANCH   4   5
ENDBRANCH   3   4
BRANCH   3  13
ATOM     13  O   UNL     1      13.795  -3.898  61.040  1.00  0.00    -0.390 OA
ATOM     14  H   UNL     1      14.405  -3.136  61.207  1.00  0.00     0.211 HD
ENDBRANCH   3  13
ENDBRANCH   1   3
BRANCH   1  15
ATOM     15  C   UNL     1      13.602  -7.420  60.396  1.00  0.00     0.032 C 
ATOM     16  C   UNL     1      13.321  -8.611  59.435  1.00  0.00     0.010 C 
ATOM     17  C   UNL     1      14.765  -7.914  61.323  1.00  0.00     0.006 C 
ATOM     18  C   UNL     1      14.099  -9.815  59.986  1.00  0.00     0.041 C 
ATOM     19  C   UNL     1      14.416  -9.421  61.435  1.00  0.00     0.092 C 
ATOM     20  C   UNL     1      14.772  -7.337  62.768  1.00  0.00     0.011 C 
ATOM     21  C   UNL     1      16.163  -7.676  60.670  1.00  0.00     0.015 C 
ATOM     22  C   UNL     1      15.515 -10.151  62.186  1.00  0.00    -0.031 C 
ATOM     23  C   UNL     1      15.811  -8.048  63.673  1.00  0.00     0.009 C 
ATOM     24  C   UNL     1      15.815  -9.613  63.596  1.00  0.00     0.025 C 
ATOM     25  C   UNL     1      15.926 -11.376  61.802  1.00  0.00     0.050 C 
ATOM     26  C   UNL     1      17.098 -10.274  64.229  1.00  0.00    -0.013 C 
ATOM     27  C   UNL     1      16.733 -12.226  62.690  1.00  0.00     0.159 C 
ATOM     28  C   UNL     1      16.903 -11.820  64.131  1.00  0.00     0.070 C 
ATOM     29  C   UNL     1      17.216  -9.890  65.734  1.00  0.00     0.042 C 
ATOM     30  C   UNL     1      18.385  -9.818  63.470  1.00  0.00     0.013 C 
ATOM     31  O   UNL     1      17.188 -13.319  62.260  1.00  0.00    -0.295 OA
ATOM     32  C   UNL     1      17.995 -12.624  64.868  1.00  0.00     0.047 C 
ATOM     33  C   UNL     1      18.310 -10.686  66.478  1.00  0.00     0.143 C 
ATOM     34  C   UNL     1      18.081 -12.202  66.345  1.00  0.00     0.143 C 
BRANCH  19  35
ATOM     35  O   UNL     1      13.223  -9.581  62.182  1.00  0.00    -0.385 OA
ATOM     36  H   UNL     1      12.525  -9.944  61.575  1.00  0.00     0.211 HD
ENDBRANCH  19  35
BRANCH  33  37
ATOM     37  O   UNL     1      18.293 -10.344  67.840  1.00  0.00    -0.390 OA
ATOM     38  H   UNL     1      18.134  -9.366  67.889  1.00  0.00     0.211 HD
ENDBRANCH  33  37
BRANCH  34  39
ATOM     39  O   UNL     1      19.138 -12.883  66.969  1.00  0.00    -0.390 OA
ATOM     40  H   UNL     1      19.976 -12.576  66.534  1.00  0.00     0.211 HD
ENDBRANCH  34  39
ENDBRANCH   1  15
BRANCH   1  41
ATOM     41  O   UNL     1      14.084  -6.217  58.373  1.00  0.00    -0.387 OA
ATOM     42  H   UNL     1      13.451  -6.796  57.871  1.00  0.00     0.211 HD
ENDBRANCH   1  41
TORSDOF 9
ENDMDL
MODEL 4
REMARK VINA RESULT:    -8.749      6.092     11.548
REMARK INTER + INTRA:         -12.796
REMARK INTER:                 -12.177
REMARK INTRA:                  -0.618
REMARK UNBOUND:                -0.722
REMARK SMILES C[C@@H]1OC(=O)[C@@H](C)[C@@H]1C[C@@H](O)[C@@](C)(O)[C@H]1CC[C@@]2(O)C3=CC(=O)[C@H]4C[C@@H](O)[C@H](O)C[C@]4(C)[C@H]3CC[C@]12C
REMARK SMILES IDX 12 1 13 2 10 3 9 4 8 5 7 6 6 7 4 8 2 9 3 10 5 11 1 12 11 13
REMARK SMILES IDX 15 15 16 16 36 17 17 18 18 19 35 20 37 21 20 22 34 23 33 24
REMARK SMILES IDX 21 25 31 26 22 27 24 28 30 29 32 30 23 31 25 32 28 33 26 34
REMARK SMILES IDX 19 35 29 37 27 39 14 41
REMARK H PARENT 11 14 19 36 29 38 27 40 14 42
REMARK Flexibility Score: inf
ROOT
ATOM      1  C   UNL     1      11.097  -8.333  59.390  1.00  0.00     0.091 C 
ATOM      2  C   UNL     1      10.183  -8.874  58.260  1.00  0.00     0.045 C 
ENDROOT
BRANCH   1   3
ATOM      3  C   UNL     1      10.341  -7.241  60.266  1.00  0.00     0.146 C 
BRANCH   3   4
ATOM      4  C   UNL     1      11.190  -6.017  60.721  1.00  0.00     0.043 C 
BRANCH   4   5
ATOM      5  C   UNL     1      10.576  -5.144  61.866  1.00  0.00     0.046 C 
ATOM      6  C   UNL     1      11.236  -6.158  64.137  1.00  0.00     0.020 C 
ATOM      7  C   UNL     1      11.494  -5.047  63.113  1.00  0.00     0.103 C 
ATOM      8  C   UNL     1      11.142  -3.709  63.646  1.00  0.00     0.309 C 
ATOM      9  C   UNL     1      10.208  -3.657  61.535  1.00  0.00     0.177 C 
ATOM     10  O   UNL     1      10.398  -2.965  62.760  1.00  0.00    -0.462 OA
ATOM     11  O   UNL     1      11.518  -3.264  64.764  1.00  0.00    -0.252 OA
ATOM     12  C   UNL     1      11.072  -2.981  60.462  1.00  0.00     0.053 C 
ENDBRANCH   4   5
ENDBRANCH   3   4
BRANCH   3  13
ATOM     13  O   UNL     1       9.113  -6.822  59.715  1.00  0.00    -0.390 OA
ATOM     14  H   UNL     1       8.590  -6.368  60.422  1.00  0.00     0.211 HD
ENDBRANCH   3  13
ENDBRANCH   1   3
BRANCH   1  15
ATOM     15  C   UNL     1      11.700  -9.541  60.226  1.00  0.00     0.032 C 
ATOM     16  C   UNL     1      11.805 -10.869  59.423  1.00  0.00     0.010 C 
ATOM     17  C   UNL     1      13.038  -9.454  61.039  1.00  0.00     0.006 C 
ATOM     18  C   UNL     1      13.020 -11.626  59.979  1.00  0.00     0.041 C 
ATOM     19  C   UNL     1      13.289 -10.956  61.332  1.00  0.00     0.092 C 
ATOM     20  C   UNL     1      12.952  -8.726  62.412  1.00  0.00     0.011 C 
ATOM     21  C   UNL     1      14.185  -8.815  60.193  1.00  0.00     0.015 C 
ATOM     22  C   UNL     1      14.641 -11.133  62.000  1.00  0.00    -0.031 C 
ATOM     23  C   UNL     1      14.254  -8.888  63.237  1.00  0.00     0.009 C 
ATOM     24  C   UNL     1      14.837 -10.341  63.304  1.00  0.00     0.025 C 
ATOM     25  C   UNL     1      15.446 -12.166  61.681  1.00  0.00     0.050 C 
ATOM     26  C   UNL     1      16.323 -10.403  63.826  1.00  0.00    -0.013 C 
ATOM     27  C   UNL     1      16.584 -12.541  62.532  1.00  0.00     0.159 C 
ATOM     28  C   UNL     1      16.712 -11.913  63.896  1.00  0.00     0.070 C 
ATOM     29  C   UNL     1      16.416  -9.806  65.261  1.00  0.00     0.042 C 
ATOM     30  C   UNL     1      17.277  -9.617  62.869  1.00  0.00     0.013 C 
ATOM     31  O   UNL     1      17.376 -13.442  62.149  1.00  0.00    -0.295 OA
ATOM     32  C   UNL     1      18.084 -12.163  64.558  1.00  0.00     0.047 C 
ATOM     33  C   UNL     1      17.788 -10.046  65.929  1.00  0.00     0.143 C 
ATOM     34  C   UNL     1      18.131 -11.546  65.966  1.00  0.00     0.143 C 
BRANCH  19  35
ATOM     35  O   UNL     1      12.311 -11.435  62.238  1.00  0.00    -0.385 OA
ATOM     36  H   UNL     1      12.097 -10.704  62.877  1.00  0.00     0.211 HD
ENDBRANCH  19  35
BRANCH  33  37
ATOM     37  O   UNL     1      17.759  -9.556  67.246  1.00  0.00    -0.390 OA
ATOM     38  H   UNL     1      17.015  -8.902  67.293  1.00  0.00     0.211 HD
ENDBRANCH  33  37
BRANCH  34  39
ATOM     39  O   UNL     1      19.415 -11.710  66.510  1.00  0.00    -0.390 OA
ATOM     40  H   UNL     1      19.797 -12.532  66.104  1.00  0.00     0.211 HD
ENDBRANCH  34  39
ENDBRANCH   1  15
BRANCH   1  41
ATOM     41  O   UNL     1      12.195  -7.697  58.769  1.00  0.00    -0.387 OA
ATOM     42  H   UNL     1      12.169  -7.874  57.792  1.00  0.00     0.211 HD
ENDBRANCH   1  41
TORSDOF 9
ENDMDL
MODEL 5
REMARK VINA RESULT:    -8.725      7.696     10.491
REMARK INTER + INTRA:         -12.763
REMARK INTER:                 -11.807
REMARK INTRA:                  -0.956
REMARK UNBOUND:                -0.722
REMARK SMILES C[C@@H]1OC(=O)[C@@H](C)[C@@H]1C[C@@H](O)[C@@](C)(O)[C@H]1CC[C@@]2(O)C3=CC(=O)[C@H]4C[C@@H](O)[C@H](O)C[C@]4(C)[C@H]3CC[C@]12C
REMARK SMILES IDX 12 1 13 2 10 3 9 4 8 5 7 6 6 7 4 8 2 9 3 10 5 11 1 12 11 13
REMARK SMILES IDX 15 15 16 16 36 17 17 18 18 19 35 20 37 21 20 22 34 23 33 24
REMARK SMILES IDX 21 25 31 26 22 27 24 28 30 29 32 30 23 31 25 32 28 33 26 34
REMARK SMILES IDX 19 35 29 37 27 39 14 41
REMARK H PARENT 11 14 19 36 29 38 27 40 14 42
REMARK Flexibility Score: inf
ROOT
ATOM      1  C   UNL     1      13.395  -5.617  57.497  1.00  0.00     0.091 C 
ATOM      2  C   UNL     1      14.741  -4.846  57.490  1.00  0.00     0.045 C 
ENDROOT
BRANCH   1   3
ATOM      3  C   UNL     1      13.388  -6.766  56.397  1.00  0.00     0.146 C 
BRANCH   3   4
ATOM      4  C   UNL     1      12.023  -7.041  55.698  1.00  0.00     0.043 C 
BRANCH   4   5
ATOM      5  C   UNL     1      11.304  -8.372  56.099  1.00  0.00     0.046 C 
ATOM      6  C   UNL     1       8.863  -7.851  56.722  1.00  0.00     0.020 C 
ATOM      7  C   UNL     1       9.816  -8.413  55.662  1.00  0.00     0.103 C 
ATOM      8  C   UNL     1       9.604  -9.862  55.438  1.00  0.00     0.309 C 
ATOM      9  C   UNL     1      11.905  -9.717  55.563  1.00  0.00     0.177 C 
ATOM     10  O   UNL     1      10.782 -10.573  55.418  1.00  0.00    -0.462 OA
ATOM     11  O   UNL     1       8.481 -10.398  55.233  1.00  0.00    -0.252 OA
ATOM     12  C   UNL     1      12.623  -9.632  54.209  1.00  0.00     0.053 C 
ENDBRANCH   4   5
ENDBRANCH   3   4
BRANCH   3  13
ATOM     13  O   UNL     1      14.422  -6.650  55.446  1.00  0.00    -0.390 OA
ATOM     14  H   UNL     1      14.615  -7.549  55.080  1.00  0.00     0.211 HD
ENDBRANCH   3  13
ENDBRANCH   1   3
BRANCH   1  15
ATOM     15  C   UNL     1      13.062  -6.115  58.968  1.00  0.00     0.032 C 
ATOM     16  C   UNL     1      11.576  -6.533  59.166  1.00  0.00     0.010 C 
ATOM     17  C   UNL     1      13.893  -7.207  59.725  1.00  0.00     0.006 C 
ATOM     18  C   UNL     1      11.569  -7.647  60.223  1.00  0.00     0.041 C 
ATOM     19  C   UNL     1      12.938  -7.522  60.905  1.00  0.00     0.092 C 
ATOM     20  C   UNL     1      15.240  -6.728  60.341  1.00  0.00     0.011 C 
ATOM     21  C   UNL     1      14.157  -8.456  58.827  1.00  0.00     0.015 C 
ATOM     22  C   UNL     1      13.481  -8.686  61.713  1.00  0.00    -0.031 C 
ATOM     23  C   UNL     1      15.876  -7.806  61.256  1.00  0.00     0.009 C 
ATOM     24  C   UNL     1      14.901  -8.490  62.273  1.00  0.00     0.025 C 
ATOM     25  C   UNL     1      12.661  -9.638  62.202  1.00  0.00     0.050 C 
ATOM     26  C   UNL     1      15.479  -9.809  62.915  1.00  0.00    -0.013 C 
ATOM     27  C   UNL     1      13.108 -10.571  63.247  1.00  0.00     0.159 C 
ATOM     28  C   UNL     1      14.418 -10.311  63.945  1.00  0.00     0.070 C 
ATOM     29  C   UNL     1      16.798  -9.501  63.683  1.00  0.00     0.042 C 
ATOM     30  C   UNL     1      15.752 -10.884  61.815  1.00  0.00     0.013 C 
ATOM     31  O   UNL     1      12.352 -11.513  63.603  1.00  0.00    -0.295 OA
ATOM     32  C   UNL     1      14.905 -11.503  64.795  1.00  0.00     0.047 C 
ATOM     33  C   UNL     1      17.296 -10.690  64.533  1.00  0.00     0.143 C 
ATOM     34  C   UNL     1      16.215 -11.156  65.523  1.00  0.00     0.143 C 
BRANCH  19  35
ATOM     35  O   UNL     1      12.870  -6.405  61.776  1.00  0.00    -0.385 OA
ATOM     36  H   UNL     1      12.709  -5.594  61.225  1.00  0.00     0.211 HD
ENDBRANCH  19  35
BRANCH  33  37
ATOM     37  O   UNL     1      18.437 -10.304  65.256  1.00  0.00    -0.390 OA
ATOM     38  H   UNL     1      18.420 -10.809  66.110  1.00  0.00     0.211 HD
ENDBRANCH  33  37
BRANCH  34  39
ATOM     39  O   UNL     1      16.681 -12.283  66.218  1.00  0.00    -0.390 OA
ATOM     40  H   UNL     1      16.262 -13.077  65.793  1.00  0.00     0.211 HD
ENDBRANCH  34  39
ENDBRANCH   1  15
BRANCH   1  41
ATOM     41  O   UNL     1      12.384  -4.692  57.155  1.00  0.00    -0.387 OA
ATOM     42  H   UNL     1      12.271  -4.038  57.894  1.00  0.00     0.211 HD
ENDBRANCH   1  41
TORSDOF 9
ENDMDL
MODEL 6
REMARK VINA RESULT:    -8.713      7.959     11.347
REMARK INTER + INTRA:         -12.746
REMARK INTER:                 -11.954
REMARK INTRA:                  -0.792
REMARK UNBOUND:                -0.722
REMARK SMILES C[C@@H]1OC(=O)[C@@H](C)[C@@H]1C[C@@H](O)[C@@](C)(O)[C@H]1CC[C@@]2(O)C3=CC(=O)[C@H]4C[C@@H](O)[C@H](O)C[C@]4(C)[C@H]3CC[C@]12C
REMARK SMILES IDX 12 1 13 2 10 3 9 4 8 5 7 6 6 7 4 8 2 9 3 10 5 11 1 12 11 13
REMARK SMILES IDX 15 15 16 16 36 17 17 18 18 19 35 20 37 21 20 22 34 23 33 24
REMARK SMILES IDX 21 25 31 26 22 27 24 28 30 29 32 30 23 31 25 32 28 33 26 34
REMARK SMILES IDX 19 35 29 37 27 39 14 41
REMARK H PARENT 11 14 19 36 29 38 27 40 14 42
REMARK Flexibility Score: inf
ROOT
ATOM      1  C   UNL     1      13.526  -6.326  59.754  1.00  0.00     0.091 C 
ATOM      2  C   UNL     1      14.345  -5.272  60.545  1.00  0.00     0.045 C 
ENDROOT
BRANCH   1   3
ATOM      3  C   UNL     1      13.981  -6.377  58.231  1.00  0.00     0.146 C 
BRANCH   3   4
ATOM      4  C   UNL     1      13.009  -5.726  57.201  1.00  0.00     0.043 C 
BRANCH   4   5
ATOM      5  C   UNL     1      12.528  -6.651  56.033  1.00  0.00     0.046 C 
ATOM      6  C   UNL     1      14.543  -7.969  55.126  1.00  0.00     0.020 C 
ATOM      7  C   UNL     1      13.277  -8.009  55.989  1.00  0.00     0.103 C 
ATOM      8  C   UNL     1      12.246  -8.907  55.418  1.00  0.00     0.309 C 
ATOM      9  C   UNL     1      11.010  -7.041  55.987  1.00  0.00     0.177 C 
ATOM     10  O   UNL     1      10.995  -8.333  55.399  1.00  0.00    -0.462 OA
ATOM     11  O   UNL     1      12.459 -10.089  55.034  1.00  0.00    -0.252 OA
ATOM     12  C   UNL     1      10.302  -7.124  57.346  1.00  0.00     0.053 C 
ENDBRANCH   4   5
ENDBRANCH   3   4
BRANCH   3  13
ATOM     13  O   UNL     1      15.303  -5.940  58.017  1.00  0.00    -0.390 OA
ATOM     14  H   UNL     1      15.291  -4.960  57.873  1.00  0.00     0.211 HD
ENDBRANCH   3  13
ENDBRANCH   1   3
BRANCH   1  15
ATOM     15  C   UNL     1      13.576  -7.726  60.502  1.00  0.00     0.032 C 
ATOM     16  C   UNL     1      13.316  -8.944  59.569  1.00  0.00     0.010 C 
ATOM     17  C   UNL     1      14.756  -8.174  61.431  1.00  0.00     0.006 C 
ATOM     18  C   UNL     1      14.124 -10.118  60.141  1.00  0.00     0.041 C 
ATOM     19  C   UNL     1      14.443  -9.685  61.578  1.00  0.00     0.092 C 
ATOM     20  C   UNL     1      14.761  -7.565  62.863  1.00  0.00     0.011 C 
ATOM     21  C   UNL     1      16.145  -7.919  60.763  1.00  0.00     0.015 C 
ATOM     22  C   UNL     1      15.562 -10.374  62.336  1.00  0.00    -0.031 C 
ATOM     23  C   UNL     1      15.821  -8.233  63.775  1.00  0.00     0.009 C 
ATOM     24  C   UNL     1      15.861  -9.799  63.732  1.00  0.00     0.025 C 
ATOM     25  C   UNL     1      15.998 -11.598  61.976  1.00  0.00     0.050 C 
ATOM     26  C   UNL     1      17.163 -10.418  64.370  1.00  0.00    -0.013 C 
ATOM     27  C   UNL     1      16.830 -12.410  62.876  1.00  0.00     0.159 C 
ATOM     28  C   UNL     1      17.001 -11.969  64.307  1.00  0.00     0.070 C 
ATOM     29  C   UNL     1      17.282  -9.998  65.865  1.00  0.00     0.042 C 
ATOM     30  C   UNL     1      18.434  -9.949  63.591  1.00  0.00     0.013 C 
ATOM     31  O   UNL     1      17.306 -13.502  62.466  1.00  0.00    -0.295 OA
ATOM     32  C   UNL     1      18.115 -12.732  65.053  1.00  0.00     0.047 C 
ATOM     33  C   UNL     1      18.399 -10.753  66.618  1.00  0.00     0.143 C 
ATOM     34  C   UNL     1      18.203 -12.276  66.519  1.00  0.00     0.143 C 
BRANCH  19  35
ATOM     35  O   UNL     1      13.259  -9.855  62.338  1.00  0.00    -0.385 OA
ATOM     36  H   UNL     1      13.510  -9.890  63.299  1.00  0.00     0.211 HD
ENDBRANCH  19  35
BRANCH  33  37
ATOM     37  O   UNL     1      18.383 -10.381  67.973  1.00  0.00    -0.390 OA
ATOM     38  H   UNL     1      17.767  -9.608  68.051  1.00  0.00     0.211 HD
ENDBRANCH  33  37
BRANCH  34  39
ATOM     39  O   UNL     1      19.279 -12.920  67.150  1.00  0.00    -0.390 OA
ATOM     40  H   UNL     1      19.185 -13.890  66.960  1.00  0.00     0.211 HD
ENDBRANCH  34  39
ENDBRANCH   1  15
BRANCH   1  41
ATOM     41  O   UNL     1      12.176  -5.911  59.783  1.00  0.00    -0.387 OA
ATOM     42  H   UNL     1      11.652  -6.534  60.353  1.00  0.00     0.211 HD
ENDBRANCH   1  41
TORSDOF 9
ENDMDL
MODEL 7
REMARK VINA RESULT:    -8.710      6.088     12.845
REMARK INTER + INTRA:         -12.741
REMARK INTER:                 -12.244
REMARK INTRA:                  -0.497
REMARK UNBOUND:                -0.722
REMARK SMILES C[C@@H]1OC(=O)[C@@H](C)[C@@H]1C[C@@H](O)[C@@](C)(O)[C@H]1CC[C@@]2(O)C3=CC(=O)[C@H]4C[C@@H](O)[C@H](O)C[C@]4(C)[C@H]3CC[C@]12C
REMARK SMILES IDX 12 1 13 2 10 3 9 4 8 5 7 6 6 7 4 8 2 9 3 10 5 11 1 12 11 13
REMARK SMILES IDX 15 15 16 16 36 17 17 18 18 19 35 20 37 21 20 22 34 23 33 24
REMARK SMILES IDX 21 25 31 26 22 27 24 28 30 29 32 30 23 31 25 32 28 33 26 34
REMARK SMILES IDX 19 35 29 37 27 39 14 41
REMARK H PARENT 11 14 19 36 29 38 27 40 14 42
REMARK Flexibility Score: inf
ROOT
ATOM      1  C   UNL     1      14.525 -10.903  63.581  1.00  0.00     0.091 C 
ATOM      2  C   UNL     1      14.615 -11.855  62.359  1.00  0.00     0.045 C 
ENDROOT
BRANCH   1   3
ATOM      3  C   UNL     1      15.359 -11.471  64.811  1.00  0.00     0.146 C 
BRANCH   3   4
ATOM      4  C   UNL     1      16.487 -10.547  65.361  1.00  0.00     0.043 C 
BRANCH   4   5
ATOM      5  C   UNL     1      17.935 -11.142  65.332  1.00  0.00     0.046 C 
ATOM      6  C   UNL     1      19.489  -9.503  64.101  1.00  0.00     0.020 C 
ATOM      7  C   UNL     1      19.038 -10.058  65.456  1.00  0.00     0.103 C 
ATOM      8  C   UNL     1      20.122 -10.805  66.138  1.00  0.00     0.309 C 
ATOM      9  C   UNL     1      18.309 -12.207  66.419  1.00  0.00     0.177 C 
ATOM     10  O   UNL     1      19.699 -12.014  66.639  1.00  0.00    -0.462 OA
ATOM     11  O   UNL     1      21.296 -10.374  66.297  1.00  0.00    -0.252 OA
ATOM     12  C   UNL     1      17.586 -12.067  67.765  1.00  0.00     0.053 C 
ENDBRANCH   4   5
ENDBRANCH   3   4
BRANCH   3  13
ATOM     13  O   UNL     1      14.559 -11.963  65.861  1.00  0.00    -0.390 OA
ATOM     14  H   UNL     1      13.773 -11.369  65.964  1.00  0.00     0.211 HD
ENDBRANCH   3  13
ENDBRANCH   1   3
BRANCH   1  15
ATOM     15  C   UNL     1      14.916  -9.426  63.149  1.00  0.00     0.032 C 
ATOM     16  C   UNL     1      16.268  -9.333  62.384  1.00  0.00     0.010 C 
ATOM     17  C   UNL     1      13.950  -8.461  62.379  1.00  0.00     0.006 C 
ATOM     18  C   UNL     1      16.142  -8.157  61.406  1.00  0.00     0.041 C 
ATOM     19  C   UNL     1      14.946  -7.357  61.938  1.00  0.00     0.092 C 
ATOM     20  C   UNL     1      12.853  -7.771  63.241  1.00  0.00     0.011 C 
ATOM     21  C   UNL     1      13.275  -9.170  61.163  1.00  0.00     0.015 C 
ATOM     22  C   UNL     1      14.246  -6.362  61.030  1.00  0.00    -0.031 C 
ATOM     23  C   UNL     1      12.098  -6.672  62.449  1.00  0.00     0.009 C 
ATOM     24  C   UNL     1      13.002  -5.686  61.632  1.00  0.00     0.025 C 
ATOM     25  C   UNL     1      14.866  -5.850  59.948  1.00  0.00     0.050 C 
ATOM     26  C   UNL     1      12.209  -4.834  60.569  1.00  0.00    -0.013 C 
ATOM     27  C   UNL     1      14.345  -4.661  59.258  1.00  0.00     0.159 C 
ATOM     28  C   UNL     1      13.241  -3.867  59.907  1.00  0.00     0.070 C 
ATOM     29  C   UNL     1      11.116  -3.976  61.272  1.00  0.00     0.042 C 
ATOM     30  C   UNL     1      11.541  -5.763  59.505  1.00  0.00     0.013 C 
ATOM     31  O   UNL     1      14.889  -4.274  58.190  1.00  0.00    -0.295 OA
ATOM     32  C   UNL     1      12.593  -2.834  58.961  1.00  0.00     0.047 C 
ATOM     33  C   UNL     1      10.458  -2.943  60.332  1.00  0.00     0.143 C 
ATOM     34  C   UNL     1      11.514  -2.021  59.697  1.00  0.00     0.143 C 
BRANCH  19  35
ATOM     35  O   UNL     1      15.396  -6.638  63.074  1.00  0.00    -0.385 OA
ATOM     36  H   UNL     1      15.061  -7.103  63.886  1.00  0.00     0.211 HD
ENDBRANCH  19  35
BRANCH  33  37
ATOM     37  O   UNL     1       9.551  -2.157  61.061  1.00  0.00    -0.390 OA
ATOM     38  H   UNL     1       9.338  -2.659  61.890  1.00  0.00     0.211 HD
ENDBRANCH  33  37
BRANCH  34  39
ATOM     39  O   UNL     1      10.882  -1.152  58.794  1.00  0.00    -0.390 OA
ATOM     40  H   UNL     1      11.599  -0.636  58.340  1.00  0.00     0.211 HD
ENDBRANCH  34  39
ENDBRANCH   1  15
BRANCH   1  41
ATOM     41  O   UNL     1      13.168 -10.853  63.972  1.00  0.00    -0.387 OA
ATOM     42  H   UNL     1      13.112 -10.682  64.948  1.00  0.00     0.211 HD
ENDBRANCH   1  41
TORSDOF 9
ENDMDL
MODEL 8
REMARK VINA RESULT:    -8.634      5.324     10.000
REMARK INTER + INTRA:         -12.636
REMARK INTER:                 -11.666
REMARK INTRA:                  -0.971
REMARK UNBOUND:                -0.722
REMARK SMILES C[C@@H]1OC(=O)[C@@H](C)[C@@H]1C[C@@H](O)[C@@](C)(O)[C@H]1CC[C@@]2(O)C3=CC(=O)[C@H]4C[C@@H](O)[C@H](O)C[C@]4(C)[C@H]3CC[C@]12C
REMARK SMILES IDX 12 1 13 2 10 3 9 4 8 5 7 6 6 7 4 8 2 9 3 10 5 11 1 12 11 13
REMARK SMILES IDX 15 15 16 16 36 17 17 18 18 19 35 20 37 21 20 22 34 23 33 24
REMARK SMILES IDX 21 25 31 26 22 27 24 28 30 29 32 30 23 31 25 32 28 33 26 34
REMARK SMILES IDX 19 35 29 37 27 39 14 41
REMARK H PARENT 11 14 19 36 29 38 27 40 14 42
REMARK Flexibility Score: inf
ROOT
ATOM      1  C   UNL     1      11.764  -6.477  59.005  1.00  0.00     0.091 C 
ATOM      2  C   UNL     1      10.898  -7.282  58.000  1.00  0.00     0.045 C 
ENDROOT
BRANCH   1   3
ATOM      3  C   UNL     1      11.291  -4.960  59.080  1.00  0.00     0.146 C 
BRANCH   3   4
ATOM      4  C   UNL     1      12.255  -3.974  59.807  1.00  0.00     0.043 C 
BRANCH   4   5
ATOM      5  C   UNL     1      11.655  -3.208  61.033  1.00  0.00     0.046 C 
ATOM      6  C   UNL     1      10.333  -4.864  62.491  1.00  0.00     0.020 C 
ATOM      7  C   UNL     1      11.628  -4.062  62.327  1.00  0.00     0.103 C 
ATOM      8  C   UNL     1      11.776  -3.027  63.378  1.00  0.00     0.309 C 
ATOM      9  C   UNL     1      12.343  -1.867  61.464  1.00  0.00     0.177 C 
ATOM     10  O   UNL     1      12.144  -1.803  62.868  1.00  0.00    -0.462 OA
ATOM     11  O   UNL     1      11.634  -3.236  64.613  1.00  0.00    -0.252 OA
ATOM     12  C   UNL     1      13.850  -1.773  61.187  1.00  0.00     0.053 C 
ENDBRANCH   4   5
ENDBRANCH   3   4
BRANCH   3  13
ATOM     13  O   UNL     1      10.875  -4.431  57.842  1.00  0.00    -0.390 OA
ATOM     14  H   UNL     1       9.964  -4.767  57.647  1.00  0.00     0.211 HD
ENDBRANCH   3  13
ENDBRANCH   1   3
BRANCH   1  15
ATOM     15  C   UNL     1      11.804  -7.222  60.407  1.00  0.00     0.032 C 
ATOM     16  C   UNL     1      10.662  -8.262  60.597  1.00  0.00     0.010 C 
ATOM     17  C   UNL     1      13.084  -7.917  60.985  1.00  0.00     0.006 C 
ATOM     18  C   UNL     1      11.224  -9.373  61.497  1.00  0.00     0.041 C 
ATOM     19  C   UNL     1      12.461  -8.738  62.144  1.00  0.00     0.092 C 
ATOM     20  C   UNL     1      14.146  -6.968  61.614  1.00  0.00     0.011 C 
ATOM     21  C   UNL     1      13.778  -8.825  59.921  1.00  0.00     0.015 C 
ATOM     22  C   UNL     1      13.518  -9.628  62.773  1.00  0.00    -0.031 C 
ATOM     23  C   UNL     1      15.258  -7.752  62.357  1.00  0.00     0.009 C 
ATOM     24  C   UNL     1      14.761  -8.895  63.306  1.00  0.00     0.025 C 
ATOM     25  C   UNL     1      13.229 -10.887  63.158  1.00  0.00     0.050 C 
ATOM     26  C   UNL     1      15.900  -9.891  63.749  1.00  0.00    -0.013 C 
ATOM     27  C   UNL     1      14.120 -11.638  64.054  1.00  0.00     0.159 C 
ATOM     28  C   UNL     1      15.249 -10.909  64.737  1.00  0.00     0.070 C 
ATOM     29  C   UNL     1      17.023  -9.123  64.507  1.00  0.00     0.042 C 
ATOM     30  C   UNL     1      16.509 -10.619  62.507  1.00  0.00     0.013 C 
ATOM     31  O   UNL     1      13.873 -12.846  64.308  1.00  0.00    -0.295 OA
ATOM     32  C   UNL     1      16.270 -11.853  65.405  1.00  0.00     0.047 C 
ATOM     33  C   UNL     1      18.053 -10.060  65.174  1.00  0.00     0.143 C 
ATOM     34  C   UNL     1      17.364 -11.050  66.130  1.00  0.00     0.143 C 
BRANCH  19  35
ATOM     35  O   UNL     1      12.000  -7.860  63.156  1.00  0.00    -0.385 OA
ATOM     36  H   UNL     1      11.267  -8.315  63.649  1.00  0.00     0.211 HD
ENDBRANCH  19  35
BRANCH  33  37
ATOM     37  O   UNL     1      18.977  -9.295  65.905  1.00  0.00    -0.390 OA
ATOM     38  H   UNL     1      19.040  -8.414  65.454  1.00  0.00     0.211 HD
ENDBRANCH  33  37
BRANCH  34  39
ATOM     39  O   UNL     1      18.326 -11.929  66.653  1.00  0.00    -0.390 OA
ATOM     40  H   UNL     1      17.890 -12.424  67.395  1.00  0.00     0.211 HD
ENDBRANCH  34  39
ENDBRANCH   1  15
BRANCH   1  41
ATOM     41  O   UNL     1      13.089  -6.487  58.515  1.00  0.00    -0.387 OA
ATOM     42  H   UNL     1      13.690  -6.885  59.198  1.00  0.00     0.211 HD
ENDBRANCH   1  41
TORSDOF 9
ENDMDL
MODEL 9
REMARK VINA RESULT:    -8.612      7.269     14.007
REMARK INTER + INTRA:         -12.607
REMARK INTER:                 -11.964
REMARK INTRA:                  -0.643
REMARK UNBOUND:                -0.722
REMARK SMILES C[C@@H]1OC(=O)[C@@H](C)[C@@H]1C[C@@H](O)[C@@](C)(O)[C@H]1CC[C@@]2(O)C3=CC(=O)[C@H]4C[C@@H](O)[C@H](O)C[C@]4(C)[C@H]3CC[C@]12C
REMARK SMILES IDX 12 1 13 2 10 3 9 4 8 5 7 6 6 7 4 8 2 9 3 10 5 11 1 12 11 13
REMARK SMILES IDX 15 15 16 16 36 17 17 18 18 19 35 20 37 21 20 22 34 23 33 24
REMARK SMILES IDX 21 25 31 26 22 27 24 28 30 29 32 30 23 31 25 32 28 33 26 34
REMARK SMILES IDX 19 35 29 37 27 39 14 41
REMARK H PARENT 11 14 19 36 29 38 27 40 14 42
REMARK Flexibility Score: inf
ROOT
ATOM      1  C   UNL     1      16.258 -12.015  63.804  1.00  0.00     0.091 C 
ATOM      2  C   UNL     1      17.264 -13.068  63.268  1.00  0.00     0.045 C 
ENDROOT
BRANCH   1   3
ATOM      3  C   UNL     1      16.984 -10.957  64.744  1.00  0.00     0.146 C 
BRANCH   3   4
ATOM      4  C   UNL     1      17.191 -11.384  66.229  1.00  0.00     0.043 C 
BRANCH   4   5
ATOM      5  C   UNL     1      18.673 -11.425  66.730  1.00  0.00     0.046 C 
ATOM      6  C   UNL     1      19.011  -9.585  68.495  1.00  0.00     0.020 C 
ATOM      7  C   UNL     1      18.813 -11.082  68.236  1.00  0.00     0.103 C 
ATOM      8  C   UNL     1      20.006 -11.873  68.619  1.00  0.00     0.309 C 
ATOM      9  C   UNL     1      19.465 -12.768  66.560  1.00  0.00     0.177 C 
ATOM     10  O   UNL     1      20.369 -12.785  67.655  1.00  0.00    -0.462 OA
ATOM     11  O   UNL     1      20.606 -11.775  69.724  1.00  0.00    -0.252 OA
ATOM     12  C   UNL     1      18.622 -14.049  66.613  1.00  0.00     0.053 C 
ENDBRANCH   4   5
ENDBRANCH   3   4
BRANCH   3  13
ATOM     13  O   UNL     1      18.177 -10.439  64.202  1.00  0.00    -0.390 OA
ATOM     14  H   UNL     1      18.025 -10.235  63.245  1.00  0.00     0.211 HD
ENDBRANCH   3  13
ENDBRANCH   1   3
BRANCH   1  15
ATOM     15  C   UNL     1      15.448 -11.375  62.598  1.00  0.00     0.032 C 
ATOM     16  C   UNL     1      14.634 -12.410  61.770  1.00  0.00     0.010 C 
ATOM     17  C   UNL     1      14.494 -10.140  62.751  1.00  0.00     0.006 C 
ATOM     18  C   UNL     1      13.392 -11.675  61.244  1.00  0.00     0.041 C 
ATOM     19  C   UNL     1      13.747 -10.190  61.393  1.00  0.00     0.092 C 
ATOM     20  C   UNL     1      15.191  -8.752  62.840  1.00  0.00     0.011 C 
ATOM     21  C   UNL     1      13.527 -10.305  63.966  1.00  0.00     0.015 C 
ATOM     22  C   UNL     1      12.641  -9.150  61.373  1.00  0.00    -0.031 C 
ATOM     23  C   UNL     1      14.173  -7.584  62.759  1.00  0.00     0.009 C 
ATOM     24  C   UNL     1      13.097  -7.703  61.626  1.00  0.00     0.025 C 
ATOM     25  C   UNL     1      11.442  -9.419  60.820  1.00  0.00     0.050 C 
ATOM     26  C   UNL     1      11.883  -6.713  61.801  1.00  0.00    -0.013 C 
ATOM     27  C   UNL     1      10.491  -8.347  60.494  1.00  0.00     0.159 C 
ATOM     28  C   UNL     1      10.956  -6.915  60.561  1.00  0.00     0.070 C 
ATOM     29  C   UNL     1      12.384  -5.239  61.803  1.00  0.00     0.042 C 
ATOM     30  C   UNL     1      11.118  -7.009  63.131  1.00  0.00     0.013 C 
ATOM     31  O   UNL     1       9.339  -8.642  60.078  1.00  0.00    -0.295 OA
ATOM     32  C   UNL     1       9.803  -5.893  60.485  1.00  0.00     0.047 C 
ATOM     33  C   UNL     1      11.236  -4.209  61.733  1.00  0.00     0.143 C 
ATOM     34  C   UNL     1      10.346  -4.453  60.502  1.00  0.00     0.143 C 
BRANCH  19  35
ATOM     35  O   UNL     1      14.643  -9.867  60.343  1.00  0.00    -0.385 OA
ATOM     36  H   UNL     1      14.197  -9.207  59.749  1.00  0.00     0.211 HD
ENDBRANCH  19  35
BRANCH  33  37
ATOM     37  O   UNL     1      11.774  -2.914  61.653  1.00  0.00    -0.390 OA
ATOM     38  H   UNL     1      12.701  -3.008  61.313  1.00  0.00     0.211 HD
ENDBRANCH  33  37
BRANCH  34  39
ATOM     39  O   UNL     1       9.275  -3.546  60.521  1.00  0.00    -0.390 OA
ATOM     40  H   UNL     1       8.813  -3.627  59.646  1.00  0.00     0.211 HD
ENDBRANCH  34  39
ENDBRANCH   1  15
BRANCH   1  41
ATOM     41  O   UNL     1      15.311 -12.707  64.592  1.00  0.00    -0.387 OA
ATOM     42  H   UNL     1      14.743 -12.052  65.076  1.00  0.00     0.211 HD
ENDBRANCH   1  41
TORSDOF 9
ENDMDL
