MODEL 1
REMARK VINA RESULT:    -4.946      0.000      0.000
REMARK INTER + INTRA:          -6.427
REMARK INTER:                  -6.102
REMARK INTRA:                  -0.325
REMARK UNBOUND:                -0.325
REMARK SMILES CCOC(=O)c1ccc(O)c(O)c1
REMARK SMILES IDX 4 1 5 2 3 3 2 4 1 5 6 6 13 7 7 8 11 9 8 10 9 11 12 12 10 14
REMARK H PARENT 12 13 10 15
REMARK Flexibility Score: inf
ROOT
ATOM      1  C   UNL     1       9.801  -7.686  -9.348  1.00  0.00     0.338 C 
ATOM      2  O   UNL     1      10.690  -8.564  -9.170  1.00  0.00    -0.246 OA
ENDROOT
BRANCH   1   3
ATOM      3  O   UNL     1       9.298  -7.448 -10.634  1.00  0.00    -0.462 OA
BRANCH   3   4
ATOM      4  C   UNL     1       9.548  -6.251 -11.368  1.00  0.00     0.230 C 
ATOM      5  C   UNL     1       8.259  -5.464 -11.571  1.00  0.00     0.049 C 
ENDBRANCH   3   4
ENDBRANCH   1   3
BRANCH   1   6
ATOM      6  C   UNL     1       9.283  -6.911  -8.199  1.00  0.00     0.064 A 
ATOM      7  C   UNL     1      10.159  -6.197  -7.361  1.00  0.00     0.065 A 
ATOM      8  C   UNL     1       7.905  -6.878  -7.931  1.00  0.00     0.020 A 
ATOM      9  C   UNL     1       9.664  -5.462  -6.273  1.00  0.00     0.158 A 
ATOM     10  C   UNL     1       7.411  -6.146  -6.847  1.00  0.00     0.051 A 
ATOM     11  C   UNL     1       8.283  -5.438  -6.016  1.00  0.00     0.157 A 
BRANCH   9  12
ATOM     12  O   UNL     1      10.540  -4.758  -5.448  1.00  0.00    -0.504 OA
ATOM     13  H   UNL     1      10.676  -3.759  -5.546  1.00  0.00     0.293 HD
ENDBRANCH   9  12
BRANCH  11  14
ATOM     14  O   UNL     1       7.762  -4.717  -4.942  1.00  0.00    -0.504 OA
ATOM     15  H   UNL     1       7.778  -5.076  -3.995  1.00  0.00     0.293 HD
ENDBRANCH  11  14
ENDBRANCH   1   6
TORSDOF 5
ENDMDL
MODEL 2
REMARK VINA RESULT:    -4.610      1.560      2.026
REMARK INTER + INTRA:          -6.012
REMARK INTER:                  -5.834
REMARK INTRA:                  -0.178
REMARK UNBOUND:                -0.325
REMARK SMILES CCOC(=O)c1ccc(O)c(O)c1
REMARK SMILES IDX 4 1 5 2 3 3 2 4 1 5 6 6 13 7 7 8 11 9 8 10 9 11 12 12 10 14
REMARK H PARENT 12 13 10 15
REMARK Flexibility Score: inf
ROOT
ATOM      1  C   UNL     1       8.458  -6.803  -9.222  1.00  0.00     0.338 C 
ATOM      2  O   UNL     1       8.338  -7.821  -9.958  1.00  0.00    -0.246 OA
ENDROOT
BRANCH   1   3
ATOM      3  O   UNL     1       8.780  -5.562  -9.788  1.00  0.00    -0.462 OA
BRANCH   3   4
ATOM      4  C   UNL     1       9.095  -5.383 -11.167  1.00  0.00     0.230 C 
ATOM      5  C   UNL     1       7.889  -4.847 -11.930  1.00  0.00     0.049 C 
ENDBRANCH   3   4
ENDBRANCH   1   3
BRANCH   1   6
ATOM      6  C   UNL     1       8.253  -6.915  -7.761  1.00  0.00     0.064 A 
ATOM      7  C   UNL     1       8.148  -5.763  -6.960  1.00  0.00     0.065 A 
ATOM      8  C   UNL     1       8.159  -8.178  -7.154  1.00  0.00     0.020 A 
ATOM      9  C   UNL     1       7.951  -5.873  -5.575  1.00  0.00     0.158 A 
ATOM     10  C   UNL     1       7.963  -8.289  -5.774  1.00  0.00     0.051 A 
ATOM     11  C   UNL     1       7.860  -7.143  -4.981  1.00  0.00     0.157 A 
BRANCH   9  12
ATOM     12  O   UNL     1       7.849  -4.726  -4.789  1.00  0.00    -0.504 OA
ATOM     13  H   UNL     1       7.907  -3.799  -5.193  1.00  0.00     0.293 HD
ENDBRANCH   9  12
BRANCH  11  14
ATOM     14  O   UNL     1       7.666  -7.285  -3.607  1.00  0.00    -0.504 OA
ATOM     15  H   UNL     1       7.403  -6.503  -3.017  1.00  0.00     0.293 HD
ENDBRANCH  11  14
ENDBRANCH   1   6
TORSDOF 5
ENDMDL
MODEL 3
REMARK VINA RESULT:    -4.562      1.945      2.810
REMARK INTER + INTRA:          -5.954
REMARK INTER:                  -5.634
REMARK INTRA:                  -0.319
REMARK UNBOUND:                -0.325
REMARK SMILES CCOC(=O)c1ccc(O)c(O)c1
REMARK SMILES IDX 4 1 5 2 3 3 2 4 1 5 6 6 13 7 7 8 11 9 8 10 9 11 12 12 10 14
REMARK H PARENT 12 13 10 15
REMARK Flexibility Score: inf
ROOT
ATOM      1  C   UNL     1       9.803  -6.676 -10.555  1.00  0.00     0.338 C 
ATOM      2  O   UNL     1       9.267  -6.395 -11.662  1.00  0.00    -0.246 OA
ENDROOT
BRANCH   1   3
ATOM      3  O   UNL     1      11.001  -7.403 -10.519  1.00  0.00    -0.462 OA
BRANCH   3   4
ATOM      4  C   UNL     1      12.232  -6.918 -11.051  1.00  0.00     0.230 C 
ATOM      5  C   UNL     1      12.733  -5.724 -10.248  1.00  0.00     0.049 C 
ENDBRANCH   3   4
ENDBRANCH   1   3
BRANCH   1   6
ATOM      6  C   UNL     1       9.172  -6.234  -9.291  1.00  0.00     0.064 A 
ATOM      7  C   UNL     1       7.947  -5.542  -9.303  1.00  0.00     0.065 A 
ATOM      8  C   UNL     1       9.791  -6.502  -8.059  1.00  0.00     0.020 A 
ATOM      9  C   UNL     1       7.351  -5.126  -8.104  1.00  0.00     0.158 A 
ATOM     10  C   UNL     1       9.198  -6.087  -6.863  1.00  0.00     0.051 A 
ATOM     11  C   UNL     1       7.982  -5.400  -6.878  1.00  0.00     0.157 A 
BRANCH   9  12
ATOM     12  O   UNL     1       6.137  -4.441  -8.126  1.00  0.00    -0.504 OA
ATOM     13  H   UNL     1       6.001  -3.620  -8.704  1.00  0.00     0.293 HD
ENDBRANCH   9  12
BRANCH  11  14
ATOM     14  O   UNL     1       7.415  -4.998  -5.670  1.00  0.00    -0.504 OA
ATOM     15  H   UNL     1       6.939  -4.109  -5.567  1.00  0.00     0.293 HD
ENDBRANCH  11  14
ENDBRANCH   1   6
TORSDOF 5
ENDMDL
MODEL 4
REMARK VINA RESULT:    -4.562      1.804      2.476
REMARK INTER + INTRA:          -5.953
REMARK INTER:                  -5.790
REMARK INTRA:                  -0.163
REMARK UNBOUND:                -0.325
REMARK SMILES CCOC(=O)c1ccc(O)c(O)c1
REMARK SMILES IDX 4 1 5 2 3 3 2 4 1 5 6 6 13 7 7 8 11 9 8 10 9 11 12 12 10 14
REMARK H PARENT 12 13 10 15
REMARK Flexibility Score: inf
ROOT
ATOM      1  C   UNL     1       8.705  -6.727  -9.166  1.00  0.00     0.338 C 
ATOM      2  O   UNL     1       7.929  -7.233 -10.023  1.00  0.00    -0.246 OA
ENDROOT
BRANCH   1   3
ATOM      3  O   UNL     1       9.848  -6.030  -9.578  1.00  0.00    -0.462 OA
BRANCH   3   4
ATOM      4  C   UNL     1      11.144  -6.240  -9.020  1.00  0.00     0.230 C 
ATOM      5  C   UNL     1      12.224  -6.028 -10.074  1.00  0.00     0.049 C 
ENDBRANCH   3   4
ENDBRANCH   1   3
BRANCH   1   6
ATOM      6  C   UNL     1       8.407  -6.864  -7.722  1.00  0.00     0.064 A 
ATOM      7  C   UNL     1       8.243  -5.725  -6.912  1.00  0.00     0.065 A 
ATOM      8  C   UNL     1       8.283  -8.137  -7.142  1.00  0.00     0.020 A 
ATOM      9  C   UNL     1       7.958  -5.858  -5.545  1.00  0.00     0.158 A 
ATOM     10  C   UNL     1       8.000  -8.270  -5.780  1.00  0.00     0.051 A 
ATOM     11  C   UNL     1       7.838  -7.138  -4.977  1.00  0.00     0.157 A 
BRANCH   9  12
ATOM     12  O   UNL     1       7.798  -4.724  -4.750  1.00  0.00    -0.504 OA
ATOM     13  H   UNL     1       7.594  -4.793  -3.761  1.00  0.00     0.293 HD
ENDBRANCH   9  12
BRANCH  11  14
ATOM     14  O   UNL     1       7.557  -7.302  -3.622  1.00  0.00    -0.504 OA
ATOM     15  H   UNL     1       8.088  -6.828  -2.900  1.00  0.00     0.293 HD
ENDBRANCH  11  14
ENDBRANCH   1   6
TORSDOF 5
ENDMDL
MODEL 5
REMARK VINA RESULT:    -4.529      1.865      2.815
REMARK INTER + INTRA:          -5.913
REMARK INTER:                  -5.604
REMARK INTRA:                  -0.309
REMARK UNBOUND:                -0.325
REMARK SMILES CCOC(=O)c1ccc(O)c(O)c1
REMARK SMILES IDX 4 1 5 2 3 3 2 4 1 5 6 6 13 7 7 8 11 9 8 10 9 11 12 12 10 14
REMARK H PARENT 12 13 10 15
REMARK Flexibility Score: inf
ROOT
ATOM      1  C   UNL     1       8.079  -8.560 -10.431  1.00  0.00     0.338 C 
ATOM      2  O   UNL     1       6.845  -8.824 -10.381  1.00  0.00    -0.246 OA
ENDROOT
BRANCH   1   3
ATOM      3  O   UNL     1       8.864  -9.068 -11.474  1.00  0.00    -0.462 OA
BRANCH   3   4
ATOM      4  C   UNL     1       9.334  -8.277 -12.564  1.00  0.00     0.230 C 
ATOM      5  C   UNL     1      10.854  -8.180 -12.543  1.00  0.00     0.049 C 
ENDBRANCH   3   4
ENDBRANCH   1   3
BRANCH   1   6
ATOM      6  C   UNL     1       8.697  -7.708  -9.391  1.00  0.00     0.064 A 
ATOM      7  C   UNL     1       8.021  -6.580  -8.890  1.00  0.00     0.065 A 
ATOM      8  C   UNL     1       9.972  -8.017  -8.888  1.00  0.00     0.020 A 
ATOM      9  C   UNL     1       8.610  -5.775  -7.903  1.00  0.00     0.158 A 
ATOM     10  C   UNL     1      10.559  -7.215  -7.905  1.00  0.00     0.051 A 
ATOM     11  C   UNL     1       9.886  -6.095  -7.410  1.00  0.00     0.157 A 
BRANCH   9  12
ATOM     12  O   UNL     1       7.932  -4.660  -7.414  1.00  0.00    -0.504 OA
ATOM     13  H   UNL     1       7.156  -4.246  -7.917  1.00  0.00     0.293 HD
ENDBRANCH   9  12
BRANCH  11  14
ATOM     14  O   UNL     1      10.497  -5.314  -6.430  1.00  0.00    -0.504 OA
ATOM     15  H   UNL     1      10.997  -4.462  -6.656  1.00  0.00     0.293 HD
ENDBRANCH  11  14
ENDBRANCH   1   6
TORSDOF 5
ENDMDL
MODEL 6
REMARK VINA RESULT:    -4.394     13.796     16.050
REMARK INTER + INTRA:          -5.745
REMARK INTER:                  -5.625
REMARK INTRA:                  -0.120
REMARK UNBOUND:                -0.325
REMARK SMILES CCOC(=O)c1ccc(O)c(O)c1
REMARK SMILES IDX 4 1 5 2 3 3 2 4 1 5 6 6 13 7 7 8 11 9 8 10 9 11 12 12 10 14
REMARK H PARENT 12 13 10 15
REMARK Flexibility Score: inf
ROOT
ATOM      1  C   UNL     1      18.744  -1.315 -16.650  1.00  0.00     0.338 C 
ATOM      2  O   UNL     1      18.479  -0.492 -15.731  1.00  0.00    -0.246 OA
ENDROOT
BRANCH   1   3
ATOM      3  O   UNL     1      18.411  -2.668 -16.497  1.00  0.00    -0.462 OA
BRANCH   3   4
ATOM      4  C   UNL     1      17.717  -3.185 -15.364  1.00  0.00     0.230 C 
ATOM      5  C   UNL     1      17.257  -4.615 -15.622  1.00  0.00     0.049 C 
ENDBRANCH   3   4
ENDBRANCH   1   3
BRANCH   1   6
ATOM      6  C   UNL     1      19.400  -0.854 -17.894  1.00  0.00     0.064 A 
ATOM      7  C   UNL     1      20.594  -0.112 -17.843  1.00  0.00     0.065 A 
ATOM      8  C   UNL     1      18.836  -1.154 -19.145  1.00  0.00     0.020 A 
ATOM      9  C   UNL     1      21.214   0.322 -19.024  1.00  0.00     0.158 A 
ATOM     10  C   UNL     1      19.453  -0.721 -20.322  1.00  0.00     0.051 A 
ATOM     11  C   UNL     1      20.639   0.016 -20.269  1.00  0.00     0.157 A 
BRANCH   9  12
ATOM     12  O   UNL     1      22.397   1.057 -18.964  1.00  0.00    -0.504 OA
ATOM     13  H   UNL     1      23.282   0.665 -19.261  1.00  0.00     0.293 HD
ENDBRANCH   9  12
BRANCH  11  14
ATOM     14  O   UNL     1      21.231   0.434 -21.460  1.00  0.00    -0.504 OA
ATOM     15  H   UNL     1      21.266   1.410 -21.730  1.00  0.00     0.293 HD
ENDBRANCH  11  14
ENDBRANCH   1   6
TORSDOF 5
ENDMDL
MODEL 7
REMARK VINA RESULT:    -4.369      1.390      1.661
REMARK INTER + INTRA:          -5.715
REMARK INTER:                  -5.575
REMARK INTRA:                  -0.140
REMARK UNBOUND:                -0.325
REMARK SMILES CCOC(=O)c1ccc(O)c(O)c1
REMARK SMILES IDX 4 1 5 2 3 3 2 4 1 5 6 6 13 7 7 8 11 9 8 10 9 11 12 12 10 14
REMARK H PARENT 12 13 10 15
REMARK Flexibility Score: inf
ROOT
ATOM      1  C   UNL     1      10.347  -7.267 -10.076  1.00  0.00     0.338 C 
ATOM      2  O   UNL     1      10.759  -8.450 -10.224  1.00  0.00    -0.246 OA
ENDROOT
BRANCH   1   3
ATOM      3  O   UNL     1      10.501  -6.335 -11.112  1.00  0.00    -0.462 OA
BRANCH   3   4
ATOM      4  C   UNL     1      11.445  -5.266 -11.076  1.00  0.00     0.230 C 
ATOM      5  C   UNL     1      12.793  -5.755 -10.559  1.00  0.00     0.049 C 
ENDBRANCH   3   4
ENDBRANCH   1   3
BRANCH   1   6
ATOM      6  C   UNL     1       9.694  -6.860  -8.812  1.00  0.00     0.064 A 
ATOM      7  C   UNL     1      10.391  -6.100  -7.855  1.00  0.00     0.065 A 
ATOM      8  C   UNL     1       8.364  -7.228  -8.552  1.00  0.00     0.020 A 
ATOM      9  C   UNL     1       9.769  -5.715  -6.658  1.00  0.00     0.158 A 
ATOM     10  C   UNL     1       7.743  -6.845  -7.359  1.00  0.00     0.051 A 
ATOM     11  C   UNL     1       8.438  -6.091  -6.411  1.00  0.00     0.157 A 
BRANCH   9  12
ATOM     12  O   UNL     1      10.469  -4.963  -5.716  1.00  0.00    -0.504 OA
ATOM     13  H   UNL     1      11.371  -5.258  -5.364  1.00  0.00     0.293 HD
ENDBRANCH   9  12
BRANCH  11  14
ATOM     14  O   UNL     1       7.792  -5.725  -5.231  1.00  0.00    -0.504 OA
ATOM     15  H   UNL     1       7.344  -6.406  -4.628  1.00  0.00     0.293 HD
ENDBRANCH  11  14
ENDBRANCH   1   6
TORSDOF 5
ENDMDL
MODEL 8
REMARK VINA RESULT:    -4.351     14.695     16.566
REMARK INTER + INTRA:          -5.693
REMARK INTER:                  -5.370
REMARK INTRA:                  -0.323
REMARK UNBOUND:                -0.325
REMARK SMILES CCOC(=O)c1ccc(O)c(O)c1
REMARK SMILES IDX 4 1 5 2 3 3 2 4 1 5 6 6 13 7 7 8 11 9 8 10 9 11 12 12 10 14
REMARK H PARENT 12 13 10 15
REMARK Flexibility Score: inf
ROOT
ATOM      1  C   UNL     1      12.768   6.512 -17.626  1.00  0.00     0.338 C 
ATOM      2  O   UNL     1      12.322   6.606 -16.449  1.00  0.00    -0.246 OA
ENDROOT
BRANCH   1   3
ATOM      3  O   UNL     1      13.792   7.364 -18.059  1.00  0.00    -0.462 OA
BRANCH   3   4
ATOM      4  C   UNL     1      15.023   6.900 -18.610  1.00  0.00     0.230 C 
ATOM      5  C   UNL     1      15.716   5.943 -17.649  1.00  0.00     0.049 C 
ENDBRANCH   3   4
ENDBRANCH   1   3
BRANCH   1   6
ATOM      6  C   UNL     1      12.215   5.496 -18.549  1.00  0.00     0.064 A 
ATOM      7  C   UNL     1      12.315   4.125 -18.252  1.00  0.00     0.065 A 
ATOM      8  C   UNL     1      11.580   5.891 -19.738  1.00  0.00     0.020 A 
ATOM      9  C   UNL     1      11.788   3.164 -19.129  1.00  0.00     0.158 A 
ATOM     10  C   UNL     1      11.055   4.935 -20.613  1.00  0.00     0.051 A 
ATOM     11  C   UNL     1      11.156   3.574 -20.316  1.00  0.00     0.157 A 
BRANCH   9  12
ATOM     12  O   UNL     1      11.893   1.808 -18.826  1.00  0.00    -0.504 OA
ATOM     13  H   UNL     1      12.375   1.484 -17.997  1.00  0.00     0.293 HD
ENDBRANCH   9  12
BRANCH  11  14
ATOM     14  O   UNL     1      10.624   2.644 -21.207  1.00  0.00    -0.504 OA
ATOM     15  H   UNL     1       9.641   2.397 -21.204  1.00  0.00     0.293 HD
ENDBRANCH  11  14
ENDBRANCH   1   6
TORSDOF 5
ENDMDL
MODEL 9
REMARK VINA RESULT:    -4.285      2.246      5.354
REMARK INTER + INTRA:          -5.611
REMARK INTER:                  -5.445
REMARK INTRA:                  -0.166
REMARK UNBOUND:                -0.325
REMARK SMILES CCOC(=O)c1ccc(O)c(O)c1
REMARK SMILES IDX 4 1 5 2 3 3 2 4 1 5 6 6 13 7 7 8 11 9 8 10 9 11 12 12 10 14
REMARK H PARENT 12 13 10 15
REMARK Flexibility Score: inf
ROOT
ATOM      1  C   UNL     1       9.377  -6.108  -8.739  1.00  0.00     0.338 C 
ATOM      2  O   UNL     1      10.623  -6.216  -8.568  1.00  0.00    -0.246 OA
ENDROOT
BRANCH   1   3
ATOM      3  O   UNL     1       8.602  -5.393  -7.817  1.00  0.00    -0.462 OA
BRANCH   3   4
ATOM      4  C   UNL     1       7.874  -6.007  -6.755  1.00  0.00     0.230 C 
ATOM      5  C   UNL     1       8.210  -5.350  -5.422  1.00  0.00     0.049 C 
ENDBRANCH   3   4
ENDBRANCH   1   3
BRANCH   1   6
ATOM      6  C   UNL     1       8.733  -6.731  -9.917  1.00  0.00     0.064 A 
ATOM      7  C   UNL     1       8.544  -5.999 -11.103  1.00  0.00     0.065 A 
ATOM      8  C   UNL     1       8.301  -8.066  -9.864  1.00  0.00     0.020 A 
ATOM      9  C   UNL     1       7.935  -6.593 -12.219  1.00  0.00     0.158 A 
ATOM     10  C   UNL     1       7.693  -8.659 -10.975  1.00  0.00     0.051 A 
ATOM     11  C   UNL     1       7.506  -7.929 -12.152  1.00  0.00     0.157 A 
BRANCH   9  12
ATOM     12  O   UNL     1       7.751  -5.859 -13.390  1.00  0.00    -0.504 OA
ATOM     13  H   UNL     1       8.289  -5.022 -13.582  1.00  0.00     0.293 HD
ENDBRANCH   9  12
BRANCH  11  14
ATOM     14  O   UNL     1       6.897  -8.547 -13.243  1.00  0.00    -0.504 OA
ATOM     15  H   UNL     1       6.287  -8.042 -13.876  1.00  0.00     0.293 HD
ENDBRANCH  11  14
ENDBRANCH   1   6
TORSDOF 5
ENDMDL
