MODEL 1
REMARK VINA RESULT:    -5.338      0.000      0.000
REMARK INTER + INTRA:          -5.494
REMARK INTER:                  -5.494
REMARK INTRA:                   0.000
REMARK UNBOUND:                 0.000
REMARK SMILES Oc1ccc2[nH]ccc2c1
REMARK SMILES IDX 3 1 4 2 5 3 9 4 8 5 7 6 6 7 10 8 2 9 1 11
REMARK H PARENT 6 10 1 12
REMARK Flexibility Score: inf
ROOT
ATOM      1  C   UNL     1      -1.001   2.427  11.157  1.00  0.00     0.048 A 
ATOM      2  C   UNL     1      -1.008   1.020  11.163  1.00  0.00     0.030 A 
ATOM      3  C   UNL     1      -1.260   0.376  12.373  1.00  0.00     0.046 A 
ATOM      4  C   UNL     1      -1.493   1.078  13.526  1.00  0.00     0.003 A 
ATOM      5  C   UNL     1      -1.703   0.158  14.531  1.00  0.00     0.028 A 
ATOM      6  C   UNL     1      -1.584  -1.085  13.919  1.00  0.00     0.083 A 
ATOM      7  N   UNL     1      -1.313  -0.946  12.600  1.00  0.00    -0.361 N 
ATOM      8  C   UNL     1      -1.492   2.470  13.555  1.00  0.00     0.056 A 
ATOM      9  C   UNL     1      -1.241   3.154  12.346  1.00  0.00     0.116 A 
ATOM     10  H   UNL     1      -1.174  -1.713  11.905  1.00  0.00     0.166 HD
ENDROOT
BRANCH   9  11
ATOM     11  O   UNL     1      -1.227   4.546  12.312  1.00  0.00    -0.508 OA
ATOM     12  H   UNL     1      -0.499   5.054  11.823  1.00  0.00     0.293 HD
ENDBRANCH   9  11
TORSDOF 1
ENDMDL
MODEL 2
REMARK VINA RESULT:    -5.316      2.617      3.994
REMARK INTER + INTRA:          -5.472
REMARK INTER:                  -5.472
REMARK INTRA:                   0.000
REMARK UNBOUND:                 0.000
REMARK SMILES Oc1ccc2[nH]ccc2c1
REMARK SMILES IDX 3 1 4 2 5 3 9 4 8 5 7 6 6 7 10 8 2 9 1 11
REMARK H PARENT 6 10 1 12
REMARK Flexibility Score: inf
ROOT
ATOM      1  C   UNL     1      -2.166  -0.111  14.089  1.00  0.00     0.048 A 
ATOM      2  C   UNL     1      -2.481   1.090  14.752  1.00  0.00     0.030 A 
ATOM      3  C   UNL     1      -2.028   2.282  14.188  1.00  0.00     0.046 A 
ATOM      4  C   UNL     1      -1.299   2.298  13.029  1.00  0.00     0.003 A 
ATOM      5  C   UNL     1      -1.009   3.616  12.744  1.00  0.00     0.028 A 
ATOM      6  C   UNL     1      -1.594   4.348  13.772  1.00  0.00     0.083 A 
ATOM      7  N   UNL     1      -2.215   3.528  14.652  1.00  0.00    -0.361 N 
ATOM      8  C   UNL     1      -0.970   1.129  12.349  1.00  0.00     0.056 A 
ATOM      9  C   UNL     1      -1.413  -0.096  12.892  1.00  0.00     0.116 A 
ATOM     10  H   UNL     1      -2.732   3.812  15.514  1.00  0.00     0.166 HD
ENDROOT
BRANCH   9  11
ATOM     11  O   UNL     1      -1.115  -1.299  12.257  1.00  0.00    -0.508 OA
ATOM     12  H   UNL     1      -0.976  -2.154  12.784  1.00  0.00     0.293 HD
ENDBRANCH   9  11
TORSDOF 1
ENDMDL
MODEL 3
REMARK VINA RESULT:    -5.273      2.689      3.638
REMARK INTER + INTRA:          -5.427
REMARK INTER:                  -5.427
REMARK INTRA:                   0.000
REMARK UNBOUND:                 0.000
REMARK SMILES Oc1ccc2[nH]ccc2c1
REMARK SMILES IDX 3 1 4 2 5 3 9 4 8 5 7 6 6 7 10 8 2 9 1 11
REMARK H PARENT 6 10 1 12
REMARK Flexibility Score: inf
ROOT
ATOM      1  C   UNL     1      -1.339  -0.138  12.364  1.00  0.00     0.048 A 
ATOM      2  C   UNL     1      -1.085   1.208  12.040  1.00  0.00     0.030 A 
ATOM      3  C   UNL     1      -1.224   2.158  13.050  1.00  0.00     0.046 A 
ATOM      4  C   UNL     1      -1.598   1.808  14.320  1.00  0.00     0.003 A 
ATOM      5  C   UNL     1      -1.645   2.965  15.068  1.00  0.00     0.028 A 
ATOM      6  C   UNL     1      -1.287   3.981  14.190  1.00  0.00     0.083 A 
ATOM      7  N   UNL     1      -1.031   3.484  12.957  1.00  0.00    -0.361 N 
ATOM      8  C   UNL     1      -1.858   0.486  14.674  1.00  0.00     0.056 A 
ATOM      9  C   UNL     1      -1.725  -0.502  13.675  1.00  0.00     0.116 A 
ATOM     10  H   UNL     1      -0.744   4.024  12.111  1.00  0.00     0.166 HD
ENDROOT
BRANCH   9  11
ATOM     11  O   UNL     1      -1.972  -1.840  13.968  1.00  0.00    -0.508 OA
ATOM     12  H   UNL     1      -1.480  -2.586  13.489  1.00  0.00     0.293 HD
ENDBRANCH   9  11
TORSDOF 1
ENDMDL
MODEL 4
REMARK VINA RESULT:    -5.093      1.571      2.399
REMARK INTER + INTRA:          -5.242
REMARK INTER:                  -5.242
REMARK INTRA:                   0.000
REMARK UNBOUND:                 0.000
REMARK SMILES Oc1ccc2[nH]ccc2c1
REMARK SMILES IDX 3 1 4 2 5 3 9 4 8 5 7 6 6 7 10 8 2 9 1 11
REMARK H PARENT 6 10 1 12
REMARK Flexibility Score: inf
ROOT
ATOM      1  C   UNL     1      -0.295   3.349  14.567  1.00  0.00     0.048 A 
ATOM      2  C   UNL     1      -1.074   2.351  15.181  1.00  0.00     0.030 A 
ATOM      3  C   UNL     1      -1.410   1.230  14.423  1.00  0.00     0.046 A 
ATOM      4  C   UNL     1      -1.003   1.094  13.122  1.00  0.00     0.003 A 
ATOM      5  C   UNL     1      -1.496  -0.109  12.662  1.00  0.00     0.028 A 
ATOM      6  C   UNL     1      -2.194  -0.651  13.736  1.00  0.00     0.083 A 
ATOM      7  N   UNL     1      -2.139   0.171  14.809  1.00  0.00    -0.361 N 
ATOM      8  C   UNL     1      -0.231   2.062  12.486  1.00  0.00     0.056 A 
ATOM      9  C   UNL     1       0.127   3.209  13.225  1.00  0.00     0.116 A 
ATOM     10  H   UNL     1      -2.575   0.010  15.744  1.00  0.00     0.166 HD
ENDROOT
BRANCH   9  11
ATOM     11  O   UNL     1       0.897   4.213  12.642  1.00  0.00    -0.508 OA
ATOM     12  H   UNL     1       1.474   4.030  11.828  1.00  0.00     0.293 HD
ENDBRANCH   9  11
TORSDOF 1
ENDMDL
MODEL 5
REMARK VINA RESULT:    -4.923      2.969      4.057
REMARK INTER + INTRA:          -5.067
REMARK INTER:                  -5.067
REMARK INTRA:                   0.000
REMARK UNBOUND:                 0.000
REMARK SMILES Oc1ccc2[nH]ccc2c1
REMARK SMILES IDX 3 1 4 2 5 3 9 4 8 5 7 6 6 7 10 8 2 9 1 11
REMARK H PARENT 6 10 1 12
REMARK Flexibility Score: inf
ROOT
ATOM      1  C   UNL     1      -1.364   1.021  13.561  1.00  0.00     0.048 A 
ATOM      2  C   UNL     1      -0.276   1.847  13.224  1.00  0.00     0.030 A 
ATOM      3  C   UNL     1      -0.176   3.082  13.863  1.00  0.00     0.046 A 
ATOM      4  C   UNL     1      -1.099   3.490  14.788  1.00  0.00     0.003 A 
ATOM      5  C   UNL     1      -0.717   4.741  15.225  1.00  0.00     0.028 A 
ATOM      6  C   UNL     1       0.447   5.032  14.523  1.00  0.00     0.083 A 
ATOM      7  N   UNL     1       0.774   4.016  13.692  1.00  0.00    -0.361 N 
ATOM      8  C   UNL     1      -2.186   2.697  15.144  1.00  0.00     0.056 A 
ATOM      9  C   UNL     1      -2.319   1.440  14.517  1.00  0.00     0.116 A 
ATOM     10  H   UNL     1       1.597   3.971  13.050  1.00  0.00     0.166 HD
ENDROOT
BRANCH   9  11
ATOM     11  O   UNL     1      -3.386   0.602  14.831  1.00  0.00    -0.508 OA
ATOM     12  H   UNL     1      -4.299   0.729  14.408  1.00  0.00     0.293 HD
ENDBRANCH   9  11
TORSDOF 1
ENDMDL
MODEL 6
REMARK VINA RESULT:    -4.857      1.632      1.981
REMARK INTER + INTRA:          -4.999
REMARK INTER:                  -4.999
REMARK INTRA:                   0.000
REMARK UNBOUND:                 0.000
REMARK SMILES Oc1ccc2[nH]ccc2c1
REMARK SMILES IDX 3 1 4 2 5 3 9 4 8 5 7 6 6 7 10 8 2 9 1 11
REMARK H PARENT 6 10 1 12
REMARK Flexibility Score: inf
ROOT
ATOM      1  C   UNL     1      -0.141   3.696  13.523  1.00  0.00     0.048 A 
ATOM      2  C   UNL     1      -0.140   2.616  12.621  1.00  0.00     0.030 A 
ATOM      3  C   UNL     1      -0.740   1.426  13.030  1.00  0.00     0.046 A 
ATOM      4  C   UNL     1      -1.312   1.298  14.267  1.00  0.00     0.003 A 
ATOM      5  C   UNL     1      -1.808   0.015  14.360  1.00  0.00     0.028 A 
ATOM      6  C   UNL     1      -1.503  -0.582  13.142  1.00  0.00     0.083 A 
ATOM      7  N   UNL     1      -0.850   0.284  12.332  1.00  0.00    -0.361 N 
ATOM      8  C   UNL     1      -1.330   2.347  15.184  1.00  0.00     0.056 A 
ATOM      9  C   UNL     1      -0.732   3.566  14.801  1.00  0.00     0.116 A 
ATOM     10  H   UNL     1      -0.503   0.098  11.365  1.00  0.00     0.166 HD
ENDROOT
BRANCH   9  11
ATOM     11  O   UNL     1      -0.717   4.650  15.675  1.00  0.00    -0.508 OA
ATOM     12  H   UNL     1      -0.360   4.562  16.619  1.00  0.00     0.293 HD
ENDBRANCH   9  11
TORSDOF 1
ENDMDL
MODEL 7
REMARK VINA RESULT:    -4.799      1.459      2.755
REMARK INTER + INTRA:          -4.940
REMARK INTER:                  -4.940
REMARK INTRA:                   0.000
REMARK UNBOUND:                 0.000
REMARK SMILES Oc1ccc2[nH]ccc2c1
REMARK SMILES IDX 3 1 4 2 5 3 9 4 8 5 7 6 6 7 10 8 2 9 1 11
REMARK H PARENT 6 10 1 12
REMARK Flexibility Score: inf
ROOT
ATOM      1  C   UNL     1      -1.481   2.913  15.434  1.00  0.00     0.048 A 
ATOM      2  C   UNL     1      -1.457   1.582  14.978  1.00  0.00     0.030 A 
ATOM      3  C   UNL     1      -1.309   1.366  13.609  1.00  0.00     0.046 A 
ATOM      4  C   UNL     1      -1.194   2.406  12.725  1.00  0.00     0.003 A 
ATOM      5  C   UNL     1      -1.066   1.862  11.465  1.00  0.00     0.028 A 
ATOM      6  C   UNL     1      -1.112   0.486  11.656  1.00  0.00     0.083 A 
ATOM      7  N   UNL     1      -1.261   0.188  12.968  1.00  0.00    -0.361 N 
ATOM      8  C   UNL     1      -1.215   3.735  13.143  1.00  0.00     0.056 A 
ATOM      9  C   UNL     1      -1.362   3.989  14.524  1.00  0.00     0.116 A 
ATOM     10  H   UNL     1      -1.325  -0.765  13.390  1.00  0.00     0.166 HD
ENDROOT
BRANCH   9  11
ATOM     11  O   UNL     1      -1.391   5.296  15.002  1.00  0.00    -0.508 OA
ATOM     12  H   UNL     1      -0.588   5.707  15.466  1.00  0.00     0.293 HD
ENDBRANCH   9  11
TORSDOF 1
ENDMDL
MODEL 8
REMARK VINA RESULT:    -4.636      9.533     10.015
REMARK INTER + INTRA:          -4.772
REMARK INTER:                  -4.772
REMARK INTRA:                   0.000
REMARK UNBOUND:                 0.000
REMARK SMILES Oc1ccc2[nH]ccc2c1
REMARK SMILES IDX 3 1 4 2 5 3 9 4 8 5 7 6 6 7 10 8 2 9 1 11
REMARK H PARENT 6 10 1 12
REMARK Flexibility Score: inf
ROOT
ATOM      1  C   UNL     1      -9.956  -0.297   9.821  1.00  0.00     0.048 A 
ATOM      2  C   UNL     1     -10.291   0.023   8.492  1.00  0.00     0.030 A 
ATOM      3  C   UNL     1     -10.272   1.367   8.122  1.00  0.00     0.046 A 
ATOM      4  C   UNL     1      -9.942   2.353   9.013  1.00  0.00     0.003 A 
ATOM      5  C   UNL     1     -10.019   3.555   8.342  1.00  0.00     0.028 A 
ATOM      6  C   UNL     1     -10.401   3.225   7.046  1.00  0.00     0.083 A 
ATOM      7  N   UNL     1     -10.554   1.887   6.917  1.00  0.00    -0.361 N 
ATOM      8  C   UNL     1      -9.607   2.070  10.335  1.00  0.00     0.056 A 
ATOM      9  C   UNL     1      -9.615   0.720  10.743  1.00  0.00     0.116 A 
ATOM     10  H   UNL     1     -10.835   1.369   6.055  1.00  0.00     0.166 HD
ENDROOT
BRANCH   9  11
ATOM     11  O   UNL     1      -9.290   0.375  12.052  1.00  0.00    -0.508 OA
ATOM     12  H   UNL     1      -8.906  -0.536  12.278  1.00  0.00     0.293 HD
ENDBRANCH   9  11
TORSDOF 1
ENDMDL
MODEL 9
REMARK VINA RESULT:    -4.563      2.544      3.801
REMARK INTER + INTRA:          -4.696
REMARK INTER:                  -4.696
REMARK INTRA:                   0.000
REMARK UNBOUND:                 0.000
REMARK SMILES Oc1ccc2[nH]ccc2c1
REMARK SMILES IDX 3 1 4 2 5 3 9 4 8 5 7 6 6 7 10 8 2 9 1 11
REMARK H PARENT 6 10 1 12
REMARK Flexibility Score: inf
ROOT
ATOM      1  C   UNL     1      -1.241   0.777  13.185  1.00  0.00     0.048 A 
ATOM      2  C   UNL     1      -1.315   1.364  14.463  1.00  0.00     0.030 A 
ATOM      3  C   UNL     1      -1.033   2.725  14.571  1.00  0.00     0.046 A 
ATOM      4  C   UNL     1      -0.691   3.477  13.479  1.00  0.00     0.003 A 
ATOM      5  C   UNL     1      -0.477   4.766  13.918  1.00  0.00     0.028 A 
ATOM      6  C   UNL     1      -0.706   4.726  15.289  1.00  0.00     0.083 A 
ATOM      7  N   UNL     1      -1.046   3.476  15.683  1.00  0.00    -0.361 N 
ATOM      8  C   UNL     1      -0.608   2.928  12.202  1.00  0.00     0.056 A 
ATOM      9  C   UNL     1      -0.888   1.552  12.056  1.00  0.00     0.116 A 
ATOM     10  H   UNL     1      -1.270   3.165  16.655  1.00  0.00     0.166 HD
ENDROOT
BRANCH   9  11
ATOM     11  O   UNL     1      -0.821   0.946  10.805  1.00  0.00    -0.508 OA
ATOM     12  H   UNL     1      -0.004   0.418  10.517  1.00  0.00     0.293 HD
ENDBRANCH   9  11
TORSDOF 1
ENDMDL
