MODEL 1
REMARK VINA RESULT:    -3.803      0.000      0.000
REMARK INTER + INTRA:          -4.571
REMARK INTER:                  -4.470
REMARK INTRA:                  -0.101
REMARK UNBOUND:                -0.101
REMARK SMILES O=C([O-])CCC(=O)[O-]
REMARK SMILES IDX 4 1 2 2 1 3 3 4 5 5 6 6 7 7 8 8
REMARK H PARENT
REMARK Flexibility Score: inf
ROOT
ATOM      1  C   UNL     1       9.346   6.641  79.042  1.00  0.00     0.059 C 
ENDROOT
BRANCH   1   2
ATOM      2  C   UNL     1       8.919   5.334  79.634  1.00  0.00     0.042 C 
ATOM      3  O   UNL     1       7.712   5.139  79.936  1.00  0.00    -0.550 OA
ATOM      4  O   UNL     1       9.860   4.345  79.888  1.00  0.00    -0.550 OA
ENDBRANCH   1   2
BRANCH   1   5
ATOM      5  C   UNL     1       8.233   7.692  79.131  1.00  0.00     0.059 C 
BRANCH   5   6
ATOM      6  C   UNL     1       8.396   8.568  80.336  1.00  0.00     0.042 C 
ATOM      7  O   UNL     1       7.448   8.699  81.155  1.00  0.00    -0.550 OA
ATOM      8  O   UNL     1       9.605   9.206  80.575  1.00  0.00    -0.550 OA
ENDBRANCH   5   6
ENDBRANCH   1   5
TORSDOF 3
ENDMDL
MODEL 2
REMARK VINA RESULT:    -3.771      0.167      3.877
REMARK INTER + INTRA:          -4.534
REMARK INTER:                  -4.429
REMARK INTRA:                  -0.104
REMARK UNBOUND:                -0.101
REMARK SMILES O=C([O-])CCC(=O)[O-]
REMARK SMILES IDX 4 1 2 2 1 3 3 4 5 5 6 6 7 7 8 8
REMARK H PARENT
REMARK Flexibility Score: inf
ROOT
ATOM      1  C   UNL     1       8.112   7.675  79.173  1.00  0.00     0.059 C 
ENDROOT
BRANCH   1   2
ATOM      2  C   UNL     1       8.282   8.532  80.389  1.00  0.00     0.042 C 
ATOM      3  O   UNL     1       9.375   9.120  80.602  1.00  0.00    -0.550 OA
ATOM      4  O   UNL     1       7.246   8.652  81.307  1.00  0.00    -0.550 OA
ENDBRANCH   1   2
BRANCH   1   5
ATOM      5  C   UNL     1       9.254   6.661  79.033  1.00  0.00     0.059 C 
BRANCH   5   6
ATOM      6  C   UNL     1       8.890   5.334  79.628  1.00  0.00     0.042 C 
ATOM      7  O   UNL     1       9.778   4.462  79.820  1.00  0.00    -0.550 OA
ATOM      8  O   UNL     1       7.579   5.077  80.006  1.00  0.00    -0.550 OA
ENDBRANCH   5   6
ENDBRANCH   1   5
TORSDOF 3
ENDMDL
MODEL 3
REMARK VINA RESULT:    -3.761      0.174      3.596
REMARK INTER + INTRA:          -4.522
REMARK INTER:                  -4.419
REMARK INTRA:                  -0.103
REMARK UNBOUND:                -0.101
REMARK SMILES O=C([O-])CCC(=O)[O-]
REMARK SMILES IDX 4 1 2 2 1 3 3 4 5 5 6 6 7 7 8 8
REMARK H PARENT
REMARK Flexibility Score: inf
ROOT
ATOM      1  C   UNL     1       8.009   7.702  79.199  1.00  0.00     0.059 C 
ENDROOT
BRANCH   1   2
ATOM      2  C   UNL     1       8.235   8.522  80.431  1.00  0.00     0.042 C 
ATOM      3  O   UNL     1       7.326   8.631  81.296  1.00  0.00    -0.550 OA
ATOM      4  O   UNL     1       9.436   9.198  80.606  1.00  0.00    -0.550 OA
ENDBRANCH   1   2
BRANCH   1   5
ATOM      5  C   UNL     1       9.137   6.685  78.984  1.00  0.00     0.059 C 
BRANCH   5   6
ATOM      6  C   UNL     1       8.819   5.365  79.619  1.00  0.00     0.042 C 
ATOM      7  O   UNL     1       7.632   5.085  79.935  1.00  0.00    -0.550 OA
ATOM      8  O   UNL     1       9.825   4.432  79.825  1.00  0.00    -0.550 OA
ENDBRANCH   5   6
ENDBRANCH   1   5
TORSDOF 3
ENDMDL
MODEL 4
REMARK VINA RESULT:    -3.697      1.439      2.138
REMARK INTER + INTRA:          -4.447
REMARK INTER:                  -4.329
REMARK INTRA:                  -0.118
REMARK UNBOUND:                -0.101
REMARK SMILES O=C([O-])CCC(=O)[O-]
REMARK SMILES IDX 4 1 2 2 1 3 3 4 5 5 6 6 7 7 8 8
REMARK H PARENT
REMARK Flexibility Score: inf
ROOT
ATOM      1  C   UNL     1       7.532   5.704  79.916  1.00  0.00     0.059 C 
ENDROOT
BRANCH   1   2
ATOM      2  C   UNL     1       8.980   5.574  79.556  1.00  0.00     0.042 C 
ATOM      3  O   UNL     1       9.621   4.536  79.869  1.00  0.00    -0.550 OA
ATOM      4  O   UNL     1       9.632   6.616  78.910  1.00  0.00    -0.550 OA
ENDBRANCH   1   2
BRANCH   1   5
ATOM      5  C   UNL     1       6.981   7.086  79.549  1.00  0.00     0.059 C 
BRANCH   5   6
ATOM      6  C   UNL     1       6.959   8.004  80.733  1.00  0.00     0.042 C 
ATOM      7  O   UNL     1       7.963   8.715  81.002  1.00  0.00    -0.550 OA
ATOM      8  O   UNL     1       5.816   8.103  81.515  1.00  0.00    -0.550 OA
ENDBRANCH   5   6
ENDBRANCH   1   5
TORSDOF 3
ENDMDL
MODEL 5
REMARK VINA RESULT:    -3.674      1.422      3.836
REMARK INTER + INTRA:          -4.420
REMARK INTER:                  -4.303
REMARK INTRA:                  -0.118
REMARK UNBOUND:                -0.101
REMARK SMILES O=C([O-])CCC(=O)[O-]
REMARK SMILES IDX 4 1 2 2 1 3 3 4 5 5 6 6 7 7 8 8
REMARK H PARENT
REMARK Flexibility Score: inf
ROOT
ATOM      1  C   UNL     1       7.013   7.124  79.545  1.00  0.00     0.059 C 
ENDROOT
BRANCH   1   2
ATOM      2  C   UNL     1       6.914   8.013  80.746  1.00  0.00     0.042 C 
ATOM      3  O   UNL     1       7.901   8.709  81.103  1.00  0.00    -0.550 OA
ATOM      4  O   UNL     1       5.745   8.042  81.495  1.00  0.00    -0.550 OA
ENDBRANCH   1   2
BRANCH   1   5
ATOM      5  C   UNL     1       7.546   5.734  79.913  1.00  0.00     0.059 C 
BRANCH   5   6
ATOM      6  C   UNL     1       8.997   5.589  79.567  1.00  0.00     0.042 C 
ATOM      7  O   UNL     1       9.616   6.544  79.027  1.00  0.00    -0.550 OA
ATOM      8  O   UNL     1       9.673   4.417  79.878  1.00  0.00    -0.550 OA
ENDBRANCH   5   6
ENDBRANCH   1   5
TORSDOF 3
ENDMDL
MODEL 6
REMARK VINA RESULT:    -3.494      2.128      4.323
REMARK INTER + INTRA:          -4.208
REMARK INTER:                  -4.178
REMARK INTRA:                  -0.030
REMARK UNBOUND:                -0.101
REMARK SMILES O=C([O-])CCC(=O)[O-]
REMARK SMILES IDX 4 1 2 2 1 3 3 4 5 5 6 6 7 7 8 8
REMARK H PARENT
REMARK Flexibility Score: inf
ROOT
ATOM      1  C   UNL     1       7.075   8.475  81.115  1.00  0.00     0.059 C 
ENDROOT
BRANCH   1   2
ATOM      2  C   UNL     1       5.773   9.023  81.612  1.00  0.00     0.042 C 
ATOM      3  O   UNL     1       5.527  10.255  81.519  1.00  0.00    -0.550 OA
ATOM      4  O   UNL     1       4.847   8.180  82.212  1.00  0.00    -0.550 OA
ENDBRANCH   1   2
BRANCH   1   5
ATOM      5  C   UNL     1       6.866   7.252  80.215  1.00  0.00     0.059 C 
BRANCH   5   6
ATOM      6  C   UNL     1       8.148   6.808  79.580  1.00  0.00     0.042 C 
ATOM      7  O   UNL     1       8.869   7.636  78.963  1.00  0.00    -0.550 OA
ATOM      8  O   UNL     1       8.567   5.490  79.704  1.00  0.00    -0.550 OA
ENDBRANCH   5   6
ENDBRANCH   1   5
TORSDOF 3
ENDMDL
MODEL 7
REMARK VINA RESULT:    -3.475      2.168      2.938
REMARK INTER + INTRA:          -4.186
REMARK INTER:                  -4.150
REMARK INTRA:                  -0.037
REMARK UNBOUND:                -0.101
REMARK SMILES O=C([O-])CCC(=O)[O-]
REMARK SMILES IDX 4 1 2 2 1 3 3 4 5 5 6 6 7 7 8 8
REMARK H PARENT
REMARK Flexibility Score: inf
ROOT
ATOM      1  C   UNL     1       6.850   7.275  80.370  1.00  0.00     0.059 C 
ENDROOT
BRANCH   1   2
ATOM      2  C   UNL     1       8.133   6.910  79.689  1.00  0.00     0.042 C 
ATOM      3  O   UNL     1       8.886   7.809  79.231  1.00  0.00    -0.550 OA
ATOM      4  O   UNL     1       8.477   5.574  79.527  1.00  0.00    -0.550 OA
ENDBRANCH   1   2
BRANCH   1   5
ATOM      5  C   UNL     1       6.963   8.617  81.103  1.00  0.00     0.059 C 
BRANCH   5   6
ATOM      6  C   UNL     1       5.716   8.932  81.873  1.00  0.00     0.042 C 
ATOM      7  O   UNL     1       4.848   8.039  82.064  1.00  0.00    -0.550 OA
ATOM      8  O   UNL     1       5.532  10.198  82.412  1.00  0.00    -0.550 OA
ENDBRANCH   5   6
ENDBRANCH   1   5
TORSDOF 3
ENDMDL
MODEL 8
REMARK VINA RESULT:    -3.470      1.494      1.751
REMARK INTER + INTRA:          -4.180
REMARK INTER:                  -4.079
REMARK INTRA:                  -0.101
REMARK UNBOUND:                -0.101
REMARK SMILES O=C([O-])CCC(=O)[O-]
REMARK SMILES IDX 4 1 2 2 1 3 3 4 5 5 6 6 7 7 8 8
REMARK H PARENT
REMARK Flexibility Score: inf
ROOT
ATOM      1  C   UNL     1       7.051   7.124  79.833  1.00  0.00     0.059 C 
ENDROOT
BRANCH   1   2
ATOM      2  C   UNL     1       8.152   6.122  79.667  1.00  0.00     0.042 C 
ATOM      3  O   UNL     1       8.025   4.957  80.130  1.00  0.00    -0.550 OA
ATOM      4  O   UNL     1       9.334   6.486  79.035  1.00  0.00    -0.550 OA
ENDBRANCH   1   2
BRANCH   1   5
ATOM      5  C   UNL     1       7.478   8.286  80.738  1.00  0.00     0.059 C 
BRANCH   5   6
ATOM      6  C   UNL     1       7.872   9.491  79.939  1.00  0.00     0.042 C 
ATOM      7  O   UNL     1       6.990  10.278  79.504  1.00  0.00    -0.550 OA
ATOM      8  O   UNL     1       9.214   9.766  79.710  1.00  0.00    -0.550 OA
ENDBRANCH   5   6
ENDBRANCH   1   5
TORSDOF 3
ENDMDL
MODEL 9
REMARK VINA RESULT:    -3.236      1.972      2.630
REMARK INTER + INTRA:          -3.905
REMARK INTER:                  -3.843
REMARK INTRA:                  -0.062
REMARK UNBOUND:                -0.101
REMARK SMILES O=C([O-])CCC(=O)[O-]
REMARK SMILES IDX 4 1 2 2 1 3 3 4 5 5 6 6 7 7 8 8
REMARK H PARENT
REMARK Flexibility Score: inf
ROOT
ATOM      1  C   UNL     1       9.279   8.624  80.011  1.00  0.00     0.059 C 
ENDROOT
BRANCH   1   2
ATOM      2  C   UNL     1       9.837   7.449  79.269  1.00  0.00     0.042 C 
ATOM      3  O   UNL     1      11.075   7.218  79.286  1.00  0.00    -0.550 OA
ATOM      4  O   UNL     1       8.995   6.630  78.527  1.00  0.00    -0.550 OA
ENDBRANCH   1   2
BRANCH   1   5
ATOM      5  C   UNL     1       7.799   8.849  79.679  1.00  0.00     0.059 C 
BRANCH   5   6
ATOM      6  C   UNL     1       6.902   8.190  80.683  1.00  0.00     0.042 C 
ATOM      7  O   UNL     1       6.619   8.778  81.760  1.00  0.00    -0.550 OA
ATOM      8  O   UNL     1       6.348   6.946  80.410  1.00  0.00    -0.550 OA
ENDBRANCH   5   6
ENDBRANCH   1   5
TORSDOF 3
ENDMDL
