MODEL 1
REMARK VINA RESULT:    -3.486      0.000      0.000
REMARK INTER + INTRA:         -12.495
REMARK INTER:                  -7.969
REMARK INTRA:                  -4.526
REMARK UNBOUND:                -4.526
REMARK SMILES CCCCCCCCCCCCCCCCCCCCCCCC(=O)[O-]
REMARK SMILES IDX 13 1 14 2 15 3 16 4 17 5 18 6 19 7 20 8 21 9 22 10 23 11
REMARK SMILES IDX 24 12 25 13 26 14 12 15 11 16 10 17 9 18 8 19 7 20 6 21 5 22
REMARK SMILES IDX 4 23 3 24 2 25 1 26
REMARK H PARENT
REMARK Flexibility Score: inf
ROOT
ATOM      1  C   UNL     1       6.727   4.865  -5.724  1.00  0.00     0.000 C 
ENDROOT
BRANCH   1   2
ATOM      2  C   UNL     1       6.709   5.891  -6.872  1.00  0.00     0.000 C 
BRANCH   2   3
ATOM      3  C   UNL     1       6.334   5.249  -8.219  1.00  0.00     0.000 C 
BRANCH   3   4
ATOM      4  C   UNL     1       5.744   6.271  -9.209  1.00  0.00     0.000 C 
BRANCH   4   5
ATOM      5  C   UNL     1       6.013   5.891 -10.680  1.00  0.00     0.000 C 
BRANCH   5   6
ATOM      6  C   UNL     1       7.392   5.246 -10.917  1.00  0.00     0.000 C 
BRANCH   6   7
ATOM      7  C   UNL     1       8.560   6.237 -11.055  1.00  0.00     0.000 C 
BRANCH   7   8
ATOM      8  C   UNL     1       9.463   6.360  -9.810  1.00  0.00     0.000 C 
BRANCH   8   9
ATOM      9  C   UNL     1       9.251   7.663  -9.011  1.00  0.00     0.000 C 
BRANCH   9  10
ATOM     10  C   UNL     1       8.593   8.770  -9.854  1.00  0.00     0.006 C 
BRANCH  10  11
ATOM     11  C   UNL     1       7.397   9.416  -9.141  1.00  0.00     0.053 C 
BRANCH  11  12
ATOM     12  C   UNL     1       7.424  10.911  -9.241  1.00  0.00     0.041 C 
ATOM     13  O   UNL     1       7.580  11.616  -8.208  1.00  0.00    -0.550 OA
ATOM     14  O   UNL     1       7.285  11.528 -10.479  1.00  0.00    -0.550 OA
ENDBRANCH  11  12
ENDBRANCH  10  11
ENDBRANCH   9  10
ENDBRANCH   8   9
ENDBRANCH   7   8
ENDBRANCH   6   7
ENDBRANCH   5   6
ENDBRANCH   4   5
ENDBRANCH   3   4
ENDBRANCH   2   3
ENDBRANCH   1   2
BRANCH   1  15
ATOM     15  C   UNL     1       5.950   3.583  -6.061  1.00  0.00     0.000 C 
BRANCH  15  16
ATOM     16  C   UNL     1       6.803   2.314  -5.922  1.00  0.00     0.000 C 
BRANCH  16  17
ATOM     17  C   UNL     1       8.297   2.664  -5.903  1.00  0.00     0.000 C 
BRANCH  17  18
ATOM     18  C   UNL     1       9.028   2.050  -7.105  1.00  0.00    -0.000 C 
BRANCH  18  19
ATOM     19  C   UNL     1       8.989   3.001  -8.311  1.00  0.00    -0.000 C 
BRANCH  19  20
ATOM     20  C   UNL     1       9.860   2.519  -9.483  1.00  0.00    -0.000 C 
BRANCH  20  21
ATOM     21  C   UNL     1       9.086   2.131 -10.760  1.00  0.00    -0.000 C 
BRANCH  21  22
ATOM     22  C   UNL     1       7.995   1.061 -10.563  1.00  0.00    -0.000 C 
BRANCH  22  23
ATOM     23  C   UNL     1       6.601   1.454 -11.092  1.00  0.00    -0.000 C 
BRANCH  23  24
ATOM     24  C   UNL     1       5.699   2.119 -10.027  1.00  0.00    -0.000 C 
BRANCH  24  25
ATOM     25  C   UNL     1       4.344   2.601 -10.575  1.00  0.00    -0.003 C 
ATOM     26  C   UNL     1       3.465   3.226  -9.492  1.00  0.00     0.004 C 
ENDBRANCH  24  25
ENDBRANCH  23  24
ENDBRANCH  22  23
ENDBRANCH  21  22
ENDBRANCH  20  21
ENDBRANCH  19  20
ENDBRANCH  18  19
ENDBRANCH  17  18
ENDBRANCH  16  17
ENDBRANCH  15  16
ENDBRANCH   1  15
TORSDOF 22
ENDMDL
MODEL 2
REMARK VINA RESULT:    -3.461      3.399      6.838
REMARK INTER + INTRA:         -12.438
REMARK INTER:                  -8.621
REMARK INTRA:                  -3.818
REMARK UNBOUND:                -4.526
REMARK SMILES CCCCCCCCCCCCCCCCCCCCCCCC(=O)[O-]
REMARK SMILES IDX 13 1 14 2 15 3 16 4 17 5 18 6 19 7 20 8 21 9 22 10 23 11
REMARK SMILES IDX 24 12 25 13 26 14 12 15 11 16 10 17 9 18 8 19 7 20 6 21 5 22
REMARK SMILES IDX 4 23 3 24 2 25 1 26
REMARK H PARENT
REMARK Flexibility Score: inf
ROOT
ATOM      1  C   UNL     1       6.641   4.253  -6.213  1.00  0.00     0.000 C 
ENDROOT
BRANCH   1   2
ATOM      2  C   UNL     1       5.851   3.221  -7.037  1.00  0.00     0.000 C 
BRANCH   2   3
ATOM      3  C   UNL     1       5.835   3.564  -8.538  1.00  0.00     0.000 C 
BRANCH   3   4
ATOM      4  C   UNL     1       5.447   2.355  -9.409  1.00  0.00     0.000 C 
BRANCH   4   5
ATOM      5  C   UNL     1       5.955   2.487 -10.861  1.00  0.00     0.000 C 
BRANCH   5   6
ATOM      6  C   UNL     1       7.302   3.225 -10.987  1.00  0.00     0.000 C 
BRANCH   6   7
ATOM      7  C   UNL     1       8.533   2.313 -11.123  1.00  0.00     0.000 C 
BRANCH   7   8
ATOM      8  C   UNL     1       9.476   2.302  -9.902  1.00  0.00     0.000 C 
BRANCH   8   9
ATOM      9  C   UNL     1       8.970   1.434  -8.730  1.00  0.00     0.000 C 
BRANCH   9  10
ATOM     10  C   UNL     1       9.378   2.000  -7.358  1.00  0.00     0.006 C 
BRANCH  10  11
ATOM     11  C   UNL     1       9.509   0.907  -6.290  1.00  0.00     0.053 C 
BRANCH  11  12
ATOM     12  C   UNL     1       8.402   0.970  -5.282  1.00  0.00     0.041 C 
ATOM     13  O   UNL     1       7.272   0.476  -5.545  1.00  0.00    -0.550 OA
ATOM     14  O   UNL     1       8.620   1.568  -4.046  1.00  0.00    -0.550 OA
ENDBRANCH  11  12
ENDBRANCH  10  11
ENDBRANCH   9  10
ENDBRANCH   8   9
ENDBRANCH   7   8
ENDBRANCH   6   7
ENDBRANCH   5   6
ENDBRANCH   4   5
ENDBRANCH   3   4
ENDBRANCH   2   3
ENDBRANCH   1   2
BRANCH   1  15
ATOM     15  C   UNL     1       7.093   5.460  -7.050  1.00  0.00     0.000 C 
BRANCH  15  16
ATOM     16  C   UNL     1       6.472   6.782  -6.574  1.00  0.00     0.000 C 
BRANCH  16  17
ATOM     17  C   UNL     1       6.038   7.639  -7.770  1.00  0.00     0.000 C 
BRANCH  17  18
ATOM     18  C   UNL     1       5.827   6.781  -9.023  1.00  0.00    -0.000 C 
BRANCH  18  19
ATOM     19  C   UNL     1       6.559   7.388 -10.230  1.00  0.00    -0.000 C 
BRANCH  19  20
ATOM     20  C   UNL     1       7.967   6.805 -10.434  1.00  0.00    -0.000 C 
BRANCH  20  21
ATOM     21  C   UNL     1       9.129   7.775 -10.131  1.00  0.00    -0.000 C 
BRANCH  21  22
ATOM     22  C   UNL     1       9.601   7.792  -8.664  1.00  0.00    -0.000 C 
BRANCH  22  23
ATOM     23  C   UNL     1       9.299   9.098  -7.904  1.00  0.00    -0.000 C 
BRANCH  23  24
ATOM     24  C   UNL     1       9.043  10.309  -8.830  1.00  0.00    -0.000 C 
BRANCH  24  25
ATOM     25  C   UNL     1       7.648  10.937  -8.658  1.00  0.00    -0.003 C 
ATOM     26  C   UNL     1       7.707  12.456  -8.498  1.00  0.00     0.004 C 
ENDBRANCH  24  25
ENDBRANCH  23  24
ENDBRANCH  22  23
ENDBRANCH  21  22
ENDBRANCH  20  21
ENDBRANCH  19  20
ENDBRANCH  18  19
ENDBRANCH  17  18
ENDBRANCH  16  17
ENDBRANCH  15  16
ENDBRANCH   1  15
TORSDOF 22
ENDMDL
MODEL 3
REMARK VINA RESULT:    -3.403     14.008     16.637
REMARK INTER + INTRA:         -12.305
REMARK INTER:                  -9.090
REMARK INTRA:                  -3.216
REMARK UNBOUND:                -4.526
REMARK SMILES CCCCCCCCCCCCCCCCCCCCCCCC(=O)[O-]
REMARK SMILES IDX 13 1 14 2 15 3 16 4 17 5 18 6 19 7 20 8 21 9 22 10 23 11
REMARK SMILES IDX 24 12 25 13 26 14 12 15 11 16 10 17 9 18 8 19 7 20 6 21 5 22
REMARK SMILES IDX 4 23 3 24 2 25 1 26
REMARK H PARENT
REMARK Flexibility Score: inf
ROOT
ATOM      1  C   UNL     1      -7.319  11.508  -6.641  1.00  0.00     0.000 C 
ENDROOT
BRANCH   1   2
ATOM      2  C   UNL     1      -7.580  12.935  -7.156  1.00  0.00     0.000 C 
BRANCH   2   3
ATOM      3  C   UNL     1      -9.076  13.200  -7.400  1.00  0.00     0.000 C 
BRANCH   3   4
ATOM      4  C   UNL     1      -9.474  12.991  -8.873  1.00  0.00     0.000 C 
BRANCH   4   5
ATOM      5  C   UNL     1      -8.742  13.960  -9.826  1.00  0.00     0.000 C 
BRANCH   5   6
ATOM      6  C   UNL     1      -8.225  13.296 -11.116  1.00  0.00     0.000 C 
BRANCH   6   7
ATOM      7  C   UNL     1      -7.482  11.965 -10.911  1.00  0.00     0.000 C 
BRANCH   7   8
ATOM      8  C   UNL     1      -5.948  12.044 -11.055  1.00  0.00     0.000 C 
BRANCH   8   9
ATOM      9  C   UNL     1      -5.186  11.855  -9.727  1.00  0.00     0.000 C 
BRANCH   9  10
ATOM     10  C   UNL     1      -3.733  11.393  -9.942  1.00  0.00     0.006 C 
BRANCH  10  11
ATOM     11  C   UNL     1      -2.810  11.810  -8.790  1.00  0.00     0.053 C 
BRANCH  11  12
ATOM     12  C   UNL     1      -1.515  11.055  -8.806  1.00  0.00     0.041 C 
ATOM     13  O   UNL     1      -0.418  11.673  -8.871  1.00  0.00    -0.550 OA
ATOM     14  O   UNL     1      -1.518   9.667  -8.739  1.00  0.00    -0.550 OA
ENDBRANCH  11  12
ENDBRANCH  10  11
ENDBRANCH   9  10
ENDBRANCH   8   9
ENDBRANCH   7   8
ENDBRANCH   6   7
ENDBRANCH   5   6
ENDBRANCH   4   5
ENDBRANCH   3   4
ENDBRANCH   2   3
ENDBRANCH   1   2
BRANCH   1  15
ATOM     15  C   UNL     1      -8.381  10.503  -7.114  1.00  0.00     0.000 C 
BRANCH  15  16
ATOM     16  C   UNL     1      -8.649   9.391  -6.088  1.00  0.00     0.000 C 
BRANCH  16  17
ATOM     17  C   UNL     1      -8.520   9.931  -4.657  1.00  0.00     0.000 C 
BRANCH  17  18
ATOM     18  C   UNL     1      -9.853  10.498  -4.153  1.00  0.00    -0.000 C 
BRANCH  18  19
ATOM     19  C   UNL     1      -9.619  11.597  -3.107  1.00  0.00    -0.000 C 
BRANCH  19  20
ATOM     20  C   UNL     1      -9.806  13.015  -3.673  1.00  0.00    -0.000 C 
BRANCH  20  21
ATOM     21  C   UNL     1      -8.511  13.843  -3.811  1.00  0.00    -0.000 C 
BRANCH  21  22
ATOM     22  C   UNL     1      -7.227  13.132  -3.342  1.00  0.00    -0.000 C 
BRANCH  22  23
ATOM     23  C   UNL     1      -5.953  13.999  -3.395  1.00  0.00    -0.000 C 
BRANCH  23  24
ATOM     24  C   UNL     1      -4.662  13.225  -3.042  1.00  0.00    -0.000 C 
BRANCH  24  25
ATOM     25  C   UNL     1      -3.570  13.315  -4.124  1.00  0.00    -0.003 C 
ATOM     26  C   UNL     1      -3.744  12.261  -5.217  1.00  0.00     0.004 C 
ENDBRANCH  24  25
ENDBRANCH  23  24
ENDBRANCH  22  23
ENDBRANCH  21  22
ENDBRANCH  20  21
ENDBRANCH  19  20
ENDBRANCH  18  19
ENDBRANCH  17  18
ENDBRANCH  16  17
ENDBRANCH  15  16
ENDBRANCH   1  15
TORSDOF 22
ENDMDL
MODEL 4
REMARK VINA RESULT:    -3.374      4.027      7.327
REMARK INTER + INTRA:         -12.239
REMARK INTER:                  -8.594
REMARK INTRA:                  -3.645
REMARK UNBOUND:                -4.526
REMARK SMILES CCCCCCCCCCCCCCCCCCCCCCCC(=O)[O-]
REMARK SMILES IDX 13 1 14 2 15 3 16 4 17 5 18 6 19 7 20 8 21 9 22 10 23 11
REMARK SMILES IDX 24 12 25 13 26 14 12 15 11 16 10 17 9 18 8 19 7 20 6 21 5 22
REMARK SMILES IDX 4 23 3 24 2 25 1 26
REMARK H PARENT
REMARK Flexibility Score: inf
ROOT
ATOM      1  C   UNL     1       8.320   2.884  -5.634  1.00  0.00     0.000 C 
ENDROOT
BRANCH   1   2
ATOM      2  C   UNL     1       8.243   1.535  -6.370  1.00  0.00     0.000 C 
BRANCH   2   3
ATOM      3  C   UNL     1       8.415   1.692  -7.891  1.00  0.00     0.000 C 
BRANCH   3   4
ATOM      4  C   UNL     1       7.089   2.029  -8.598  1.00  0.00     0.000 C 
BRANCH   4   5
ATOM      5  C   UNL     1       7.299   2.866  -9.878  1.00  0.00     0.000 C 
BRANCH   5   6
ATOM      6  C   UNL     1       6.076   3.716 -10.276  1.00  0.00     0.000 C 
BRANCH   6   7
ATOM      7  C   UNL     1       4.927   3.722  -9.254  1.00  0.00     0.000 C 
BRANCH   7   8
ATOM      8  C   UNL     1       3.619   3.062  -9.737  1.00  0.00     0.000 C 
BRANCH   8   9
ATOM      9  C   UNL     1       3.771   2.263 -11.048  1.00  0.00     0.000 C 
BRANCH   9  10
ATOM     10  C   UNL     1       3.619   0.746 -10.835  1.00  0.00     0.006 C 
BRANCH  10  11
ATOM     11  C   UNL     1       4.962   0.007 -10.908  1.00  0.00     0.053 C 
BRANCH  11  12
ATOM     12  C   UNL     1       5.019  -1.149  -9.956  1.00  0.00     0.041 C 
ATOM     13  O   UNL     1       4.040  -1.404  -9.204  1.00  0.00    -0.550 OA
ATOM     14  O   UNL     1       6.151  -1.953  -9.907  1.00  0.00    -0.550 OA
ENDBRANCH  11  12
ENDBRANCH  10  11
ENDBRANCH   9  10
ENDBRANCH   8   9
ENDBRANCH   7   8
ENDBRANCH   6   7
ENDBRANCH   5   6
ENDBRANCH   4   5
ENDBRANCH   3   4
ENDBRANCH   2   3
ENDBRANCH   1   2
BRANCH   1  15
ATOM     15  C   UNL     1       7.021   3.231  -4.890  1.00  0.00     0.000 C 
BRANCH  15  16
ATOM     16  C   UNL     1       6.124   4.199  -5.676  1.00  0.00     0.000 C 
BRANCH  16  17
ATOM     17  C   UNL     1       6.971   5.169  -6.510  1.00  0.00     0.000 C 
BRANCH  17  18
ATOM     18  C   UNL     1       6.377   6.583  -6.495  1.00  0.00    -0.000 C 
BRANCH  18  19
ATOM     19  C   UNL     1       6.066   7.060  -7.921  1.00  0.00    -0.000 C 
BRANCH  19  20
ATOM     20  C   UNL     1       7.219   6.803  -8.905  1.00  0.00    -0.000 C 
BRANCH  20  21
ATOM     21  C   UNL     1       7.132   7.578 -10.236  1.00  0.00    -0.000 C 
BRANCH  21  22
ATOM     22  C   UNL     1       8.437   8.266 -10.680  1.00  0.00    -0.000 C 
BRANCH  22  23
ATOM     23  C   UNL     1       8.734   9.604  -9.975  1.00  0.00    -0.000 C 
BRANCH  23  24
ATOM     24  C   UNL     1       7.463  10.396  -9.589  1.00  0.00    -0.000 C 
BRANCH  24  25
ATOM     25  C   UNL     1       7.288  10.586  -8.071  1.00  0.00    -0.003 C 
ATOM     26  C   UNL     1       8.431   9.963  -7.269  1.00  0.00     0.004 C 
ENDBRANCH  24  25
ENDBRANCH  23  24
ENDBRANCH  22  23
ENDBRANCH  21  22
ENDBRANCH  20  21
ENDBRANCH  19  20
ENDBRANCH  18  19
ENDBRANCH  17  18
ENDBRANCH  16  17
ENDBRANCH  15  16
ENDBRANCH   1  15
TORSDOF 22
ENDMDL
MODEL 5
REMARK VINA RESULT:    -3.241      3.510      6.885
REMARK INTER + INTRA:         -11.936
REMARK INTER:                  -8.001
REMARK INTRA:                  -3.936
REMARK UNBOUND:                -4.526
REMARK SMILES CCCCCCCCCCCCCCCCCCCCCCCC(=O)[O-]
REMARK SMILES IDX 13 1 14 2 15 3 16 4 17 5 18 6 19 7 20 8 21 9 22 10 23 11
REMARK SMILES IDX 24 12 25 13 26 14 12 15 11 16 10 17 9 18 8 19 7 20 6 21 5 22
REMARK SMILES IDX 4 23 3 24 2 25 1 26
REMARK H PARENT
REMARK Flexibility Score: inf
ROOT
ATOM      1  C   UNL     1       5.965   3.410  -5.715  1.00  0.00     0.000 C 
ENDROOT
BRANCH   1   2
ATOM      2  C   UNL     1       6.911   2.228  -5.439  1.00  0.00     0.000 C 
BRANCH   2   3
ATOM      3  C   UNL     1       8.271   2.688  -4.884  1.00  0.00     0.000 C 
BRANCH   3   4
ATOM      4  C   UNL     1       9.360   1.611  -5.038  1.00  0.00     0.000 C 
BRANCH   4   5
ATOM      5  C   UNL     1       9.393   1.005  -6.458  1.00  0.00     0.000 C 
BRANCH   5   6
ATOM      6  C   UNL     1       9.836   1.998  -7.551  1.00  0.00     0.000 C 
BRANCH   6   7
ATOM      7  C   UNL     1      10.074   1.377  -8.937  1.00  0.00     0.000 C 
BRANCH   7   8
ATOM      8  C   UNL     1       9.065   1.801 -10.025  1.00  0.00     0.000 C 
BRANCH   8   9
ATOM      9  C   UNL     1       8.115   2.935  -9.586  1.00  0.00     0.000 C 
BRANCH   9  10
ATOM     10  C   UNL     1       6.641   2.490  -9.557  1.00  0.00     0.006 C 
BRANCH  10  11
ATOM     11  C   UNL     1       6.448   1.155  -8.825  1.00  0.00     0.053 C 
BRANCH  11  12
ATOM     12  C   UNL     1       5.712   0.155  -9.664  1.00  0.00     0.041 C 
ATOM     13  O   UNL     1       5.157  -0.842  -9.128  1.00  0.00    -0.550 OA
ATOM     14  O   UNL     1       5.630   0.329 -11.041  1.00  0.00    -0.550 OA
ENDBRANCH  11  12
ENDBRANCH  10  11
ENDBRANCH   9  10
ENDBRANCH   8   9
ENDBRANCH   7   8
ENDBRANCH   6   7
ENDBRANCH   5   6
ENDBRANCH   4   5
ENDBRANCH   3   4
ENDBRANCH   2   3
ENDBRANCH   1   2
BRANCH   1  15
ATOM     15  C   UNL     1       6.681   4.769  -5.660  1.00  0.00     0.000 C 
BRANCH  15  16
ATOM     16  C   UNL     1       7.057   5.302  -7.051  1.00  0.00     0.000 C 
BRANCH  16  17
ATOM     17  C   UNL     1       7.056   6.836  -7.062  1.00  0.00     0.000 C 
BRANCH  17  18
ATOM     18  C   UNL     1       5.865   7.386  -7.857  1.00  0.00    -0.000 C 
BRANCH  18  19
ATOM     19  C   UNL     1       5.618   6.549  -9.121  1.00  0.00    -0.000 C 
BRANCH  19  20
ATOM     20  C   UNL     1       6.320   7.119 -10.365  1.00  0.00    -0.000 C 
BRANCH  20  21
ATOM     21  C   UNL     1       7.626   6.402 -10.767  1.00  0.00    -0.000 C 
BRANCH  21  22
ATOM     22  C   UNL     1       8.920   7.178 -10.457  1.00  0.00    -0.000 C 
BRANCH  22  23
ATOM     23  C   UNL     1       8.732   8.696 -10.259  1.00  0.00    -0.000 C 
BRANCH  23  24
ATOM     24  C   UNL     1       9.192   9.202  -8.873  1.00  0.00    -0.000 C 
BRANCH  24  25
ATOM     25  C   UNL     1       8.226  10.213  -8.230  1.00  0.00    -0.003 C 
ATOM     26  C   UNL     1       7.305  10.874  -9.255  1.00  0.00     0.004 C 
ENDBRANCH  24  25
ENDBRANCH  23  24
ENDBRANCH  22  23
ENDBRANCH  21  22
ENDBRANCH  20  21
ENDBRANCH  19  20
ENDBRANCH  18  19
ENDBRANCH  17  18
ENDBRANCH  16  17
ENDBRANCH  15  16
ENDBRANCH   1  15
TORSDOF 22
ENDMDL
MODEL 6
REMARK VINA RESULT:    -3.240      1.115      3.740
REMARK INTER + INTRA:         -11.933
REMARK INTER:                  -8.217
REMARK INTRA:                  -3.716
REMARK UNBOUND:                -4.526
REMARK SMILES CCCCCCCCCCCCCCCCCCCCCCCC(=O)[O-]
REMARK SMILES IDX 13 1 14 2 15 3 16 4 17 5 18 6 19 7 20 8 21 9 22 10 23 11
REMARK SMILES IDX 24 12 25 13 26 14 12 15 11 16 10 17 9 18 8 19 7 20 6 21 5 22
REMARK SMILES IDX 4 23 3 24 2 25 1 26
REMARK H PARENT
REMARK Flexibility Score: inf
ROOT
ATOM      1  C   UNL     1       5.140   2.371  -9.734  1.00  0.00     0.000 C 
ENDROOT
BRANCH   1   2
ATOM      2  C   UNL     1       3.695   2.825 -10.011  1.00  0.00     0.000 C 
BRANCH   2   3
ATOM      3  C   UNL     1       3.633   3.984 -11.021  1.00  0.00     0.000 C 
BRANCH   3   4
ATOM      4  C   UNL     1       4.969   4.744 -11.120  1.00  0.00     0.000 C 
BRANCH   4   5
ATOM      5  C   UNL     1       4.852   6.208 -10.644  1.00  0.00     0.000 C 
BRANCH   5   6
ATOM      6  C   UNL     1       5.367   6.442  -9.210  1.00  0.00     0.000 C 
BRANCH   6   7
ATOM      7  C   UNL     1       6.588   5.597  -8.811  1.00  0.00     0.000 C 
BRANCH   7   8
ATOM      8  C   UNL     1       7.938   6.342  -8.847  1.00  0.00     0.000 C 
BRANCH   8   9
ATOM      9  C   UNL     1       8.415   6.701 -10.271  1.00  0.00     0.000 C 
BRANCH   9  10
ATOM     10  C   UNL     1       8.676   8.208 -10.442  1.00  0.00     0.006 C 
BRANCH  10  11
ATOM     11  C   UNL     1       7.378   9.016 -10.571  1.00  0.00     0.053 C 
BRANCH  11  12
ATOM     12  C   UNL     1       7.334  10.167  -9.611  1.00  0.00     0.041 C 
ATOM     13  O   UNL     1       7.463   9.969  -8.373  1.00  0.00    -0.550 OA
ATOM     14  O   UNL     1       7.160  11.461 -10.086  1.00  0.00    -0.550 OA
ENDBRANCH  11  12
ENDBRANCH  10  11
ENDBRANCH   9  10
ENDBRANCH   8   9
ENDBRANCH   7   8
ENDBRANCH   6   7
ENDBRANCH   5   6
ENDBRANCH   4   5
ENDBRANCH   3   4
ENDBRANCH   2   3
ENDBRANCH   1   2
BRANCH   1  15
ATOM     15  C   UNL     1       5.417   0.941 -10.223  1.00  0.00     0.000 C 
BRANCH  15  16
ATOM     16  C   UNL     1       6.805   0.787 -10.861  1.00  0.00     0.000 C 
BRANCH  16  17
ATOM     17  C   UNL     1       7.438   2.160 -11.121  1.00  0.00     0.000 C 
BRANCH  17  18
ATOM     18  C   UNL     1       8.954   2.129 -10.885  1.00  0.00    -0.000 C 
BRANCH  18  19
ATOM     19  C   UNL     1       9.336   2.995  -9.675  1.00  0.00    -0.000 C 
BRANCH  19  20
ATOM     20  C   UNL     1       9.944   2.180  -8.521  1.00  0.00    -0.000 C 
BRANCH  20  21
ATOM     21  C   UNL     1       8.923   1.578  -7.534  1.00  0.00    -0.000 C 
BRANCH  21  22
ATOM     22  C   UNL     1       7.552   2.279  -7.501  1.00  0.00    -0.000 C 
BRANCH  22  23
ATOM     23  C   UNL     1       6.792   2.150  -6.165  1.00  0.00    -0.000 C 
BRANCH  23  24
ATOM     24  C   UNL     1       6.029   3.432  -5.760  1.00  0.00    -0.000 C 
BRANCH  24  25
ATOM     25  C   UNL     1       6.848   4.389  -4.876  1.00  0.00    -0.003 C 
ATOM     26  C   UNL     1       7.881   3.654  -4.021  1.00  0.00     0.004 C 
ENDBRANCH  24  25
ENDBRANCH  23  24
ENDBRANCH  22  23
ENDBRANCH  21  22
ENDBRANCH  20  21
ENDBRANCH  19  20
ENDBRANCH  18  19
ENDBRANCH  17  18
ENDBRANCH  16  17
ENDBRANCH  15  16
ENDBRANCH   1  15
TORSDOF 22
ENDMDL
MODEL 7
REMARK VINA RESULT:    -3.227      1.662      2.398
REMARK INTER + INTRA:         -11.904
REMARK INTER:                  -8.366
REMARK INTRA:                  -3.538
REMARK UNBOUND:                -4.526
REMARK SMILES CCCCCCCCCCCCCCCCCCCCCCCC(=O)[O-]
REMARK SMILES IDX 13 1 14 2 15 3 16 4 17 5 18 6 19 7 20 8 21 9 22 10 23 11
REMARK SMILES IDX 24 12 25 13 26 14 12 15 11 16 10 17 9 18 8 19 7 20 6 21 5 22
REMARK SMILES IDX 4 23 3 24 2 25 1 26
REMARK H PARENT
REMARK Flexibility Score: inf
ROOT
ATOM      1  C   UNL     1       6.885   5.803  -7.081  1.00  0.00     0.000 C 
ENDROOT
BRANCH   1   2
ATOM      2  C   UNL     1       7.198   4.764  -8.172  1.00  0.00     0.000 C 
BRANCH   2   3
ATOM      3  C   UNL     1       5.921   4.190  -8.812  1.00  0.00     0.000 C 
BRANCH   3   4
ATOM      4  C   UNL     1       5.254   5.186  -9.779  1.00  0.00     0.000 C 
BRANCH   4   5
ATOM      5  C   UNL     1       6.169   5.559 -10.966  1.00  0.00     0.000 C 
BRANCH   5   6
ATOM      6  C   UNL     1       6.430   7.072 -11.103  1.00  0.00     0.000 C 
BRANCH   6   7
ATOM      7  C   UNL     1       7.874   7.512 -10.809  1.00  0.00     0.000 C 
BRANCH   7   8
ATOM      8  C   UNL     1       8.158   9.012 -11.034  1.00  0.00     0.000 C 
BRANCH   8   9
ATOM      9  C   UNL     1       7.043   9.943 -10.513  1.00  0.00     0.000 C 
BRANCH   9  10
ATOM     10  C   UNL     1       7.454  10.695  -9.234  1.00  0.00     0.006 C 
BRANCH  10  11
ATOM     11  C   UNL     1       7.302   9.833  -7.974  1.00  0.00     0.053 C 
BRANCH  11  12
ATOM     12  C   UNL     1       8.627   9.499  -7.359  1.00  0.00     0.041 C 
ATOM     13  O   UNL     1       9.169  10.293  -6.544  1.00  0.00    -0.550 OA
ATOM     14  O   UNL     1       9.261   8.304  -7.678  1.00  0.00    -0.550 OA
ENDBRANCH  11  12
ENDBRANCH  10  11
ENDBRANCH   9  10
ENDBRANCH   8   9
ENDBRANCH   7   8
ENDBRANCH   6   7
ENDBRANCH   5   6
ENDBRANCH   4   5
ENDBRANCH   3   4
ENDBRANCH   2   3
ENDBRANCH   1   2
BRANCH   1  15
ATOM     15  C   UNL     1       6.454   5.159  -5.754  1.00  0.00     0.000 C 
BRANCH  15  16
ATOM     16  C   UNL     1       7.336   3.967  -5.355  1.00  0.00     0.000 C 
BRANCH  16  17
ATOM     17  C   UNL     1       6.541   2.656  -5.428  1.00  0.00     0.000 C 
BRANCH  17  18
ATOM     18  C   UNL     1       7.278   1.604  -6.266  1.00  0.00    -0.000 C 
BRANCH  18  19
ATOM     19  C   UNL     1       8.791   1.872  -6.272  1.00  0.00    -0.000 C 
BRANCH  19  20
ATOM     20  C   UNL     1       9.511   1.222  -7.465  1.00  0.00    -0.000 C 
BRANCH  20  21
ATOM     21  C   UNL     1       9.886   2.186  -8.610  1.00  0.00    -0.000 C 
BRANCH  21  22
ATOM     22  C   UNL     1       9.786   1.589 -10.027  1.00  0.00    -0.000 C 
BRANCH  22  23
ATOM     23  C   UNL     1       8.934   2.411 -11.015  1.00  0.00    -0.000 C 
BRANCH  23  24
ATOM     24  C   UNL     1       7.458   1.958 -11.086  1.00  0.00    -0.000 C 
BRANCH  24  25
ATOM     25  C   UNL     1       7.158   0.690 -10.266  1.00  0.00    -0.003 C 
ATOM     26  C   UNL     1       5.726   0.665  -9.733  1.00  0.00     0.004 C 
ENDBRANCH  24  25
ENDBRANCH  23  24
ENDBRANCH  22  23
ENDBRANCH  21  22
ENDBRANCH  20  21
ENDBRANCH  19  20
ENDBRANCH  18  19
ENDBRANCH  17  18
ENDBRANCH  16  17
ENDBRANCH  15  16
ENDBRANCH   1  15
TORSDOF 22
ENDMDL
MODEL 8
REMARK VINA RESULT:    -3.188      3.053      5.567
REMARK INTER + INTRA:         -11.815
REMARK INTER:                  -8.672
REMARK INTRA:                  -3.143
REMARK UNBOUND:                -4.526
REMARK SMILES CCCCCCCCCCCCCCCCCCCCCCCC(=O)[O-]
REMARK SMILES IDX 13 1 14 2 15 3 16 4 17 5 18 6 19 7 20 8 21 9 22 10 23 11
REMARK SMILES IDX 24 12 25 13 26 14 12 15 11 16 10 17 9 18 8 19 7 20 6 21 5 22
REMARK SMILES IDX 4 23 3 24 2 25 1 26
REMARK H PARENT
REMARK Flexibility Score: inf
ROOT
ATOM      1  C   UNL     1       7.707   8.437 -10.828  1.00  0.00     0.000 C 
ENDROOT
BRANCH   1   2
ATOM      2  C   UNL     1       8.442   9.332  -9.815  1.00  0.00     0.000 C 
BRANCH   2   3
ATOM      3  C   UNL     1       7.500  10.347  -9.144  1.00  0.00     0.000 C 
BRANCH   3   4
ATOM      4  C   UNL     1       7.123   9.934  -7.709  1.00  0.00     0.000 C 
BRANCH   4   5
ATOM      5  C   UNL     1       7.489   8.466  -7.402  1.00  0.00     0.000 C 
BRANCH   5   6
ATOM      6  C   UNL     1       6.290   7.500  -7.451  1.00  0.00     0.000 C 
BRANCH   6   7
ATOM      7  C   UNL     1       6.267   6.433  -6.343  1.00  0.00     0.000 C 
BRANCH   7   8
ATOM      8  C   UNL     1       6.940   5.094  -6.712  1.00  0.00     0.000 C 
BRANCH   8   9
ATOM      9  C   UNL     1       6.053   3.858  -6.454  1.00  0.00     0.000 C 
BRANCH   9  10
ATOM     10  C   UNL     1       6.360   3.183  -5.106  1.00  0.00     0.006 C 
BRANCH  10  11
ATOM     11  C   UNL     1       7.692   3.654  -4.506  1.00  0.00     0.053 C 
BRANCH  11  12
ATOM     12  C   UNL     1       8.784   2.645  -4.701  1.00  0.00     0.041 C 
ATOM     13  O   UNL     1       9.746   2.891  -5.476  1.00  0.00    -0.550 OA
ATOM     14  O   UNL     1       8.743   1.436  -4.017  1.00  0.00    -0.550 OA
ENDBRANCH  11  12
ENDBRANCH  10  11
ENDBRANCH   9  10
ENDBRANCH   8   9
ENDBRANCH   7   8
ENDBRANCH   6   7
ENDBRANCH   5   6
ENDBRANCH   4   5
ENDBRANCH   3   4
ENDBRANCH   2   3
ENDBRANCH   1   2
BRANCH   1  15
ATOM     15  C   UNL     1       8.432   7.106 -11.080  1.00  0.00     0.000 C 
BRANCH  15  16
ATOM     16  C   UNL     1       9.401   6.730  -9.949  1.00  0.00     0.000 C 
BRANCH  16  17
ATOM     17  C   UNL     1       9.075   5.337  -9.396  1.00  0.00     0.000 C 
BRANCH  17  18
ATOM     18  C   UNL     1       9.460   4.237 -10.393  1.00  0.00    -0.000 C 
BRANCH  18  19
ATOM     19  C   UNL     1       9.701   2.904  -9.670  1.00  0.00    -0.000 C 
BRANCH  19  20
ATOM     20  C   UNL     1       9.455   1.680 -10.568  1.00  0.00    -0.000 C 
BRANCH  20  21
ATOM     21  C   UNL     1       8.299   0.760 -10.124  1.00  0.00    -0.000 C 
BRANCH  21  22
ATOM     22  C   UNL     1       6.897   1.202 -10.586  1.00  0.00    -0.000 C 
BRANCH  22  23
ATOM     23  C   UNL     1       6.054   1.908  -9.506  1.00  0.00    -0.000 C 
BRANCH  23  24
ATOM     24  C   UNL     1       4.680   2.401 -10.016  1.00  0.00    -0.000 C 
BRANCH  24  25
ATOM     25  C   UNL     1       4.409   3.889  -9.730  1.00  0.00    -0.003 C 
ATOM     26  C   UNL     1       5.574   4.785 -10.151  1.00  0.00     0.004 C 
ENDBRANCH  24  25
ENDBRANCH  23  24
ENDBRANCH  22  23
ENDBRANCH  21  22
ENDBRANCH  20  21
ENDBRANCH  19  20
ENDBRANCH  18  19
ENDBRANCH  17  18
ENDBRANCH  16  17
ENDBRANCH  15  16
ENDBRANCH   1  15
TORSDOF 22
ENDMDL
MODEL 9
REMARK VINA RESULT:    -3.079      2.719      4.806
REMARK INTER + INTRA:         -11.566
REMARK INTER:                  -8.530
REMARK INTRA:                  -3.036
REMARK UNBOUND:                -4.526
REMARK SMILES CCCCCCCCCCCCCCCCCCCCCCCC(=O)[O-]
REMARK SMILES IDX 13 1 14 2 15 3 16 4 17 5 18 6 19 7 20 8 21 9 22 10 23 11
REMARK SMILES IDX 24 12 25 13 26 14 12 15 11 16 10 17 9 18 8 19 7 20 6 21 5 22
REMARK SMILES IDX 4 23 3 24 2 25 1 26
REMARK H PARENT
REMARK Flexibility Score: inf
ROOT
ATOM      1  C   UNL     1       7.094   4.150  -5.151  1.00  0.00     0.000 C 
ENDROOT
BRANCH   1   2
ATOM      2  C   UNL     1       8.149   3.091  -4.784  1.00  0.00     0.000 C 
BRANCH   2   3
ATOM      3  C   UNL     1       7.956   1.782  -5.570  1.00  0.00     0.000 C 
BRANCH   3   4
ATOM      4  C   UNL     1       9.010   1.605  -6.678  1.00  0.00     0.000 C 
BRANCH   4   5
ATOM      5  C   UNL     1       8.373   1.377  -8.066  1.00  0.00     0.000 C 
BRANCH   5   6
ATOM      6  C   UNL     1       9.301   0.663  -9.069  1.00  0.00     0.000 C 
BRANCH   6   7
ATOM      7  C   UNL     1       9.200   1.164 -10.520  1.00  0.00     0.000 C 
BRANCH   7   8
ATOM      8  C   UNL     1       9.521   2.660 -10.718  1.00  0.00     0.000 C 
BRANCH   8   9
ATOM      9  C   UNL     1       8.293   3.520 -11.081  1.00  0.00     0.000 C 
BRANCH   9  10
ATOM     10  C   UNL     1       8.530   5.021 -10.833  1.00  0.00     0.006 C 
BRANCH  10  11
ATOM     11  C   UNL     1       8.949   5.315  -9.386  1.00  0.00     0.053 C 
BRANCH  11  12
ATOM     12  C   UNL     1       8.374   6.606  -8.886  1.00  0.00     0.041 C 
ATOM     13  O   UNL     1       9.012   7.308  -8.057  1.00  0.00    -0.550 OA
ATOM     14  O   UNL     1       7.135   7.039  -9.345  1.00  0.00    -0.550 OA
ENDBRANCH  11  12
ENDBRANCH  10  11
ENDBRANCH   9  10
ENDBRANCH   8   9
ENDBRANCH   7   8
ENDBRANCH   6   7
ENDBRANCH   5   6
ENDBRANCH   4   5
ENDBRANCH   3   4
ENDBRANCH   2   3
ENDBRANCH   1   2
BRANCH   1  15
ATOM     15  C   UNL     1       5.991   3.597  -6.067  1.00  0.00     0.000 C 
BRANCH  15  16
ATOM     16  C   UNL     1       6.032   4.200  -7.479  1.00  0.00     0.000 C 
BRANCH  16  17
ATOM     17  C   UNL     1       5.366   3.257  -8.490  1.00  0.00     0.000 C 
BRANCH  17  18
ATOM     18  C   UNL     1       4.864   4.024  -9.720  1.00  0.00    -0.000 C 
BRANCH  18  19
ATOM     19  C   UNL     1       4.621   3.068 -10.898  1.00  0.00    -0.000 C 
BRANCH  19  20
ATOM     20  C   UNL     1       5.009   1.614 -10.581  1.00  0.00    -0.000 C 
BRANCH  20  21
ATOM     21  C   UNL     1       3.926   0.562 -10.898  1.00  0.00    -0.000 C 
BRANCH  21  22
ATOM     22  C   UNL     1       3.885  -0.644  -9.940  1.00  0.00    -0.000 C 
BRANCH  22  23
ATOM     23  C   UNL     1       3.147  -1.881 -10.490  1.00  0.00    -0.000 C 
BRANCH  23  24
ATOM     24  C   UNL     1       3.905  -3.209 -10.256  1.00  0.00    -0.000 C 
BRANCH  24  25
ATOM     25  C   UNL     1       5.415  -3.119 -10.537  1.00  0.00    -0.003 C 
ATOM     26  C   UNL     1       6.179  -4.339 -10.022  1.00  0.00     0.004 C 
ENDBRANCH  24  25
ENDBRANCH  23  24
ENDBRANCH  22  23
ENDBRANCH  21  22
ENDBRANCH  20  21
ENDBRANCH  19  20
ENDBRANCH  18  19
ENDBRANCH  17  18
ENDBRANCH  16  17
ENDBRANCH  15  16
ENDBRANCH   1  15
TORSDOF 22
ENDMDL
