MODEL 1
REMARK VINA RESULT:    -4.675      0.000      0.000
REMARK INTER + INTRA:         -11.693
REMARK INTER:                 -10.141
REMARK INTRA:                  -1.552
REMARK UNBOUND:                -1.552
REMARK SMILES CCCCCCCCCCCCCCCCCCCCCC(=O)[O-]
REMARK SMILES IDX 12 1 11 2 10 3 9 4 8 5 7 6 6 7 5 8 4 9 3 10 2 11 1 12 13 13
REMARK SMILES IDX 14 14 15 15 16 16 17 17 18 18 19 19 20 20 21 21 22 22 23 23
REMARK SMILES IDX 24 24
REMARK H PARENT
REMARK Flexibility Score: inf
ROOT
ATOM      1  C   UNL     1     -23.383 -12.296  33.997  1.00  0.00     0.000 C 
ENDROOT
BRANCH   1   2
ATOM      2  C   UNL     1     -23.663 -11.866  35.446  1.00  0.00     0.000 C 
BRANCH   2   3
ATOM      3  C   UNL     1     -22.518 -12.255  36.404  1.00  0.00     0.000 C 
BRANCH   3   4
ATOM      4  C   UNL     1     -21.535 -13.277  35.807  1.00  0.00    -0.000 C 
BRANCH   4   5
ATOM      5  C   UNL     1     -20.146 -13.225  36.465  1.00  0.00    -0.000 C 
BRANCH   5   6
ATOM      6  C   UNL     1     -20.227 -13.197  38.007  1.00  0.00    -0.000 C 
BRANCH   6   7
ATOM      7  C   UNL     1     -19.747 -11.873  38.632  1.00  0.00    -0.000 C 
BRANCH   7   8
ATOM      8  C   UNL     1     -20.609 -11.359  39.796  1.00  0.00    -0.000 C 
BRANCH   8   9
ATOM      9  C   UNL     1     -21.594 -12.415  40.322  1.00  0.00    -0.000 C 
BRANCH   9  10
ATOM     10  C   UNL     1     -23.044 -11.932  40.169  1.00  0.00    -0.000 C 
BRANCH  10  11
ATOM     11  C   UNL     1     -23.135 -10.508  39.601  1.00  0.00    -0.003 C 
ATOM     12  C   UNL     1     -24.323  -9.724  40.158  1.00  0.00     0.004 C 
ENDBRANCH  10  11
ENDBRANCH   9  10
ENDBRANCH   8   9
ENDBRANCH   7   8
ENDBRANCH   6   7
ENDBRANCH   5   6
ENDBRANCH   4   5
ENDBRANCH   3   4
ENDBRANCH   2   3
ENDBRANCH   1   2
BRANCH   1  13
ATOM     13  C   UNL     1     -24.238 -11.493  33.010  1.00  0.00     0.000 C 
BRANCH  13  14
ATOM     14  C   UNL     1     -25.660 -12.060  32.923  1.00  0.00     0.000 C 
BRANCH  14  15
ATOM     15  C   UNL     1     -26.701 -10.980  33.246  1.00  0.00     0.000 C 
BRANCH  15  16
ATOM     16  C   UNL     1     -27.439 -11.239  34.570  1.00  0.00     0.000 C 
BRANCH  16  17
ATOM     17  C   UNL     1     -28.247 -10.043  35.112  1.00  0.00     0.000 C 
BRANCH  17  18
ATOM     18  C   UNL     1     -28.800  -9.112  34.012  1.00  0.00     0.000 C 
BRANCH  18  19
ATOM     19  C   UNL     1     -30.309  -8.846  34.174  1.00  0.00     0.000 C 
BRANCH  19  20
ATOM     20  C   UNL     1     -30.852  -7.861  33.127  1.00  0.00     0.006 C 
BRANCH  20  21
ATOM     21  C   UNL     1     -31.979  -8.466  32.279  1.00  0.00     0.053 C 
BRANCH  21  22
ATOM     22  C   UNL     1     -33.265  -8.470  33.043  1.00  0.00     0.041 C 
ATOM     23  O   UNL     1     -33.480  -9.349  33.917  1.00  0.00    -0.550 OA
ATOM     24  O   UNL     1     -34.245  -7.526  32.760  1.00  0.00    -0.550 OA
ENDBRANCH  21  22
ENDBRANCH  20  21
ENDBRANCH  19  20
ENDBRANCH  18  19
ENDBRANCH  17  18
ENDBRANCH  16  17
ENDBRANCH  15  16
ENDBRANCH  14  15
ENDBRANCH  13  14
ENDBRANCH   1  13
TORSDOF 20
ENDMDL
MODEL 2
REMARK VINA RESULT:    -4.524      3.847      9.812
REMARK INTER + INTRA:         -11.365
REMARK INTER:                  -9.999
REMARK INTRA:                  -1.366
REMARK UNBOUND:                -1.552
REMARK SMILES CCCCCCCCCCCCCCCCCCCCCC(=O)[O-]
REMARK SMILES IDX 12 1 11 2 10 3 9 4 8 5 7 6 6 7 5 8 4 9 3 10 2 11 1 12 13 13
REMARK SMILES IDX 14 14 15 15 16 16 17 17 18 18 19 19 20 20 21 21 22 22 23 23
REMARK SMILES IDX 24 24
REMARK H PARENT
REMARK Flexibility Score: inf
ROOT
ATOM      1  C   UNL     1     -24.913 -12.333  32.216  1.00  0.00     0.000 C 
ENDROOT
BRANCH   1   2
ATOM      2  C   UNL     1     -25.483 -11.483  33.363  1.00  0.00     0.000 C 
BRANCH   2   3
ATOM      3  C   UNL     1     -27.025 -11.450  33.358  1.00  0.00     0.000 C 
BRANCH   3   4
ATOM      4  C   UNL     1     -27.647 -11.456  34.765  1.00  0.00    -0.000 C 
BRANCH   4   5
ATOM      5  C   UNL     1     -28.253 -10.098  35.157  1.00  0.00    -0.000 C 
BRANCH   5   6
ATOM      6  C   UNL     1     -28.242  -9.091  33.986  1.00  0.00    -0.000 C 
BRANCH   6   7
ATOM      7  C   UNL     1     -29.642  -8.771  33.426  1.00  0.00    -0.000 C 
BRANCH   7   8
ATOM      8  C   UNL     1     -30.793  -8.948  34.428  1.00  0.00    -0.000 C 
BRANCH   8   9
ATOM      9  C   UNL     1     -31.880  -7.871  34.287  1.00  0.00    -0.000 C 
BRANCH   9  10
ATOM     10  C   UNL     1     -32.769  -8.150  33.066  1.00  0.00    -0.000 C 
BRANCH  10  11
ATOM     11  C   UNL     1     -33.085  -6.879  32.263  1.00  0.00    -0.003 C 
ATOM     12  C   UNL     1     -32.169  -5.710  32.622  1.00  0.00     0.004 C 
ENDBRANCH  10  11
ENDBRANCH   9  10
ENDBRANCH   8   9
ENDBRANCH   7   8
ENDBRANCH   6   7
ENDBRANCH   5   6
ENDBRANCH   4   5
ENDBRANCH   3   4
ENDBRANCH   2   3
ENDBRANCH   1   2
BRANCH   1  13
ATOM     13  C   UNL     1     -23.381 -12.279  32.201  1.00  0.00     0.000 C 
BRANCH  13  14
ATOM     14  C   UNL     1     -22.778 -13.574  32.758  1.00  0.00     0.000 C 
BRANCH  14  15
ATOM     15  C   UNL     1     -21.485 -13.287  33.535  1.00  0.00     0.000 C 
BRANCH  15  16
ATOM     16  C   UNL     1     -21.670 -13.384  35.058  1.00  0.00     0.000 C 
BRANCH  16  17
ATOM     17  C   UNL     1     -20.366 -13.332  35.877  1.00  0.00     0.000 C 
BRANCH  17  18
ATOM     18  C   UNL     1     -20.570 -13.533  37.394  1.00  0.00     0.000 C 
BRANCH  18  19
ATOM     19  C   UNL     1     -22.041 -13.809  37.756  1.00  0.00     0.000 C 
BRANCH  19  20
ATOM     20  C   UNL     1     -22.400 -13.339  39.174  1.00  0.00     0.006 C 
BRANCH  20  21
ATOM     21  C   UNL     1     -23.404 -12.178  39.173  1.00  0.00     0.053 C 
BRANCH  21  22
ATOM     22  C   UNL     1     -22.731 -10.904  39.578  1.00  0.00     0.041 C 
ATOM     23  O   UNL     1     -23.413  -9.869  39.795  1.00  0.00    -0.550 OA
ATOM     24  O   UNL     1     -21.346 -10.851  39.676  1.00  0.00    -0.550 OA
ENDBRANCH  21  22
ENDBRANCH  20  21
ENDBRANCH  19  20
ENDBRANCH  18  19
ENDBRANCH  17  18
ENDBRANCH  16  17
ENDBRANCH  15  16
ENDBRANCH  14  15
ENDBRANCH  13  14
ENDBRANCH   1  13
TORSDOF 20
ENDMDL
MODEL 3
REMARK VINA RESULT:    -4.475      6.551     10.437
REMARK INTER + INTRA:         -11.258
REMARK INTER:                  -8.284
REMARK INTRA:                  -2.975
REMARK UNBOUND:                -1.552
REMARK SMILES CCCCCCCCCCCCCCCCCCCCCC(=O)[O-]
REMARK SMILES IDX 12 1 11 2 10 3 9 4 8 5 7 6 6 7 5 8 4 9 3 10 2 11 1 12 13 13
REMARK SMILES IDX 14 14 15 15 16 16 17 17 18 18 19 19 20 20 21 21 22 22 23 23
REMARK SMILES IDX 24 24
REMARK H PARENT
REMARK Flexibility Score: inf
ROOT
ATOM      1  C   UNL     1     -23.299 -14.636  43.128  1.00  0.00     0.000 C 
ENDROOT
BRANCH   1   2
ATOM      2  C   UNL     1     -23.006 -14.185  41.688  1.00  0.00     0.000 C 
BRANCH   2   3
ATOM      3  C   UNL     1     -21.678 -14.759  41.153  1.00  0.00     0.000 C 
BRANCH   3   4
ATOM      4  C   UNL     1     -21.721 -15.122  39.658  1.00  0.00    -0.000 C 
BRANCH   4   5
ATOM      5  C   UNL     1     -20.509 -14.587  38.878  1.00  0.00    -0.000 C 
BRANCH   5   6
ATOM      6  C   UNL     1     -19.410 -14.029  39.810  1.00  0.00    -0.000 C 
BRANCH   6   7
ATOM      7  C   UNL     1     -19.034 -12.562  39.521  1.00  0.00    -0.000 C 
BRANCH   7   8
ATOM      8  C   UNL     1     -20.195 -11.684  39.027  1.00  0.00    -0.000 C 
BRANCH   8   9
ATOM      9  C   UNL     1     -21.079 -11.163  40.170  1.00  0.00    -0.000 C 
BRANCH   9  10
ATOM     10  C   UNL     1     -22.539 -11.027  39.712  1.00  0.00    -0.000 C 
BRANCH  10  11
ATOM     11  C   UNL     1     -22.781 -11.636  38.323  1.00  0.00    -0.003 C 
ATOM     12  C   UNL     1     -23.995 -12.563  38.288  1.00  0.00     0.004 C 
ENDBRANCH  10  11
ENDBRANCH   9  10
ENDBRANCH   8   9
ENDBRANCH   7   8
ENDBRANCH   6   7
ENDBRANCH   5   6
ENDBRANCH   4   5
ENDBRANCH   3   4
ENDBRANCH   2   3
ENDBRANCH   1   2
BRANCH   1  13
ATOM     13  C   UNL     1     -22.515 -15.907  43.476  1.00  0.00     0.000 C 
BRANCH  13  14
ATOM     14  C   UNL     1     -21.915 -15.816  44.883  1.00  0.00     0.000 C 
BRANCH  14  15
ATOM     15  C   UNL     1     -20.829 -14.732  44.946  1.00  0.00     0.000 C 
BRANCH  15  16
ATOM     16  C   UNL     1     -20.798 -13.997  46.297  1.00  0.00     0.000 C 
BRANCH  16  17
ATOM     17  C   UNL     1     -21.938 -14.365  47.266  1.00  0.00     0.000 C 
BRANCH  17  18
ATOM     18  C   UNL     1     -22.879 -13.188  47.602  1.00  0.00     0.000 C 
BRANCH  18  19
ATOM     19  C   UNL     1     -24.364 -13.595  47.566  1.00  0.00     0.000 C 
BRANCH  19  20
ATOM     20  C   UNL     1     -25.245 -12.561  46.849  1.00  0.00     0.006 C 
BRANCH  20  21
ATOM     21  C   UNL     1     -25.752 -13.062  45.489  1.00  0.00     0.053 C 
BRANCH  21  22
ATOM     22  C   UNL     1     -26.448 -11.961  44.753  1.00  0.00     0.041 C 
ATOM     23  O   UNL     1     -25.908 -10.829  44.648  1.00  0.00    -0.550 OA
ATOM     24  O   UNL     1     -27.712 -12.174  44.217  1.00  0.00    -0.550 OA
ENDBRANCH  21  22
ENDBRANCH  20  21
ENDBRANCH  19  20
ENDBRANCH  18  19
ENDBRANCH  17  18
ENDBRANCH  16  17
ENDBRANCH  15  16
ENDBRANCH  14  15
ENDBRANCH  13  14
ENDBRANCH   1  13
TORSDOF 20
ENDMDL
MODEL 4
REMARK VINA RESULT:    -4.275      6.302      8.490
REMARK INTER + INTRA:         -10.825
REMARK INTER:                  -8.652
REMARK INTRA:                  -2.173
REMARK UNBOUND:                -1.552
REMARK SMILES CCCCCCCCCCCCCCCCCCCCCC(=O)[O-]
REMARK SMILES IDX 12 1 11 2 10 3 9 4 8 5 7 6 6 7 5 8 4 9 3 10 2 11 1 12 13 13
REMARK SMILES IDX 14 14 15 15 16 16 17 17 18 18 19 19 20 20 21 21 22 22 23 23
REMARK SMILES IDX 24 24
REMARK H PARENT
REMARK Flexibility Score: inf
ROOT
ATOM      1  C   UNL     1     -24.145  -9.517  40.059  1.00  0.00     0.000 C 
ENDROOT
BRANCH   1   2
ATOM      2  C   UNL     1     -23.581 -10.941  39.933  1.00  0.00     0.000 C 
BRANCH   2   3
ATOM      3  C   UNL     1     -23.023 -11.228  38.524  1.00  0.00     0.000 C 
BRANCH   3   4
ATOM      4  C   UNL     1     -21.760 -12.107  38.527  1.00  0.00    -0.000 C 
BRANCH   4   5
ATOM      5  C   UNL     1     -20.683 -11.601  39.501  1.00  0.00    -0.000 C 
BRANCH   5   6
ATOM      6  C   UNL     1     -19.451 -12.531  39.548  1.00  0.00    -0.000 C 
BRANCH   6   7
ATOM      7  C   UNL     1     -19.643 -13.858  38.787  1.00  0.00    -0.000 C 
BRANCH   7   8
ATOM      8  C   UNL     1     -19.731 -15.106  39.679  1.00  0.00    -0.000 C 
BRANCH   8   9
ATOM      9  C   UNL     1     -21.178 -15.506  40.007  1.00  0.00    -0.000 C 
BRANCH   9  10
ATOM     10  C   UNL     1     -21.504 -15.219  41.480  1.00  0.00    -0.000 C 
BRANCH  10  11
ATOM     11  C   UNL     1     -22.526 -14.085  41.649  1.00  0.00    -0.003 C 
ATOM     12  C   UNL     1     -23.541 -14.366  42.756  1.00  0.00     0.004 C 
ENDBRANCH  10  11
ENDBRANCH   9  10
ENDBRANCH   8   9
ENDBRANCH   7   8
ENDBRANCH   6   7
ENDBRANCH   5   6
ENDBRANCH   4   5
ENDBRANCH   3   4
ENDBRANCH   2   3
ENDBRANCH   1   2
BRANCH   1  13
ATOM     13  C   UNL     1     -25.421  -9.504  40.908  1.00  0.00     0.000 C 
BRANCH  13  14
ATOM     14  C   UNL     1     -25.310 -10.479  42.085  1.00  0.00     0.000 C 
BRANCH  14  15
ATOM     15  C   UNL     1     -25.738  -9.805  43.397  1.00  0.00     0.000 C 
BRANCH  15  16
ATOM     16  C   UNL     1     -26.637 -10.703  44.264  1.00  0.00     0.000 C 
BRANCH  16  17
ATOM     17  C   UNL     1     -25.941 -11.943  44.858  1.00  0.00     0.000 C 
BRANCH  17  18
ATOM     18  C   UNL     1     -26.624 -13.279  44.495  1.00  0.00     0.000 C 
BRANCH  18  19
ATOM     19  C   UNL     1     -27.562 -13.780  45.609  1.00  0.00     0.000 C 
BRANCH  19  20
ATOM     20  C   UNL     1     -28.967 -14.124  45.091  1.00  0.00     0.006 C 
BRANCH  20  21
ATOM     21  C   UNL     1     -29.433 -13.174  43.979  1.00  0.00     0.053 C 
BRANCH  21  22
ATOM     22  C   UNL     1     -30.805 -12.656  44.276  1.00  0.00     0.041 C 
ATOM     23  O   UNL     1     -31.118 -12.326  45.449  1.00  0.00    -0.550 OA
ATOM     24  O   UNL     1     -31.752 -12.576  43.262  1.00  0.00    -0.550 OA
ENDBRANCH  21  22
ENDBRANCH  20  21
ENDBRANCH  19  20
ENDBRANCH  18  19
ENDBRANCH  17  18
ENDBRANCH  16  17
ENDBRANCH  15  16
ENDBRANCH  14  15
ENDBRANCH  13  14
ENDBRANCH   1  13
TORSDOF 20
ENDMDL
MODEL 5
REMARK VINA RESULT:    -4.191      7.278      9.858
REMARK INTER + INTRA:         -10.644
REMARK INTER:                  -8.032
REMARK INTRA:                  -2.612
REMARK UNBOUND:                -1.552
REMARK SMILES CCCCCCCCCCCCCCCCCCCCCC(=O)[O-]
REMARK SMILES IDX 12 1 11 2 10 3 9 4 8 5 7 6 6 7 5 8 4 9 3 10 2 11 1 12 13 13
REMARK SMILES IDX 14 14 15 15 16 16 17 17 18 18 19 19 20 20 21 21 22 22 23 23
REMARK SMILES IDX 24 24
REMARK H PARENT
REMARK Flexibility Score: inf
ROOT
ATOM      1  C   UNL     1     -23.556 -10.657  40.199  1.00  0.00     0.000 C 
ENDROOT
BRANCH   1   2
ATOM      2  C   UNL     1     -22.655 -10.905  38.979  1.00  0.00     0.000 C 
BRANCH   2   3
ATOM      3  C   UNL     1     -23.218 -11.997  38.046  1.00  0.00     0.000 C 
BRANCH   3   4
ATOM      4  C   UNL     1     -22.179 -12.566  37.064  1.00  0.00    -0.000 C 
BRANCH   4   5
ATOM      5  C   UNL     1     -21.463 -13.814  37.607  1.00  0.00    -0.000 C 
BRANCH   5   6
ATOM      6  C   UNL     1     -22.429 -14.774  38.336  1.00  0.00    -0.000 C 
BRANCH   6   7
ATOM      7  C   UNL     1     -22.023 -15.079  39.792  1.00  0.00    -0.000 C 
BRANCH   7   8
ATOM      8  C   UNL     1     -21.095 -14.036  40.435  1.00  0.00    -0.000 C 
BRANCH   8   9
ATOM      9  C   UNL     1     -21.650 -13.475  41.754  1.00  0.00    -0.000 C 
BRANCH   9  10
ATOM     10  C   UNL     1     -23.129 -13.851  41.928  1.00  0.00    -0.000 C 
BRANCH  10  11
ATOM     11  C   UNL     1     -23.371 -14.738  43.158  1.00  0.00    -0.003 C 
ATOM     12  C   UNL     1     -22.115 -14.924  44.009  1.00  0.00     0.004 C 
ENDBRANCH  10  11
ENDBRANCH   9  10
ENDBRANCH   8   9
ENDBRANCH   7   8
ENDBRANCH   6   7
ENDBRANCH   5   6
ENDBRANCH   4   5
ENDBRANCH   3   4
ENDBRANCH   2   3
ENDBRANCH   1   2
BRANCH   1  13
ATOM     13  C   UNL     1     -24.443  -9.425  39.986  1.00  0.00     0.000 C 
BRANCH  13  14
ATOM     14  C   UNL     1     -25.630  -9.425  40.956  1.00  0.00     0.000 C 
BRANCH  14  15
ATOM     15  C   UNL     1     -25.328 -10.287  42.190  1.00  0.00     0.000 C 
BRANCH  15  16
ATOM     16  C   UNL     1     -25.944  -9.720  43.480  1.00  0.00     0.000 C 
BRANCH  16  17
ATOM     17  C   UNL     1     -26.103 -10.735  44.628  1.00  0.00     0.000 C 
BRANCH  17  18
ATOM     18  C   UNL     1     -27.087 -11.883  44.318  1.00  0.00     0.000 C 
BRANCH  18  19
ATOM     19  C   UNL     1     -26.710 -13.190  45.040  1.00  0.00     0.000 C 
BRANCH  19  20
ATOM     20  C   UNL     1     -25.374 -13.088  45.791  1.00  0.00     0.006 C 
BRANCH  20  21
ATOM     21  C   UNL     1     -25.555 -13.080  47.316  1.00  0.00     0.053 C 
BRANCH  21  22
ATOM     22  C   UNL     1     -24.381 -12.430  47.979  1.00  0.00     0.041 C 
ATOM     23  O   UNL     1     -23.710 -13.059  48.837  1.00  0.00    -0.550 OA
ATOM     24  O   UNL     1     -24.056 -11.113  47.679  1.00  0.00    -0.550 OA
ENDBRANCH  21  22
ENDBRANCH  20  21
ENDBRANCH  19  20
ENDBRANCH  18  19
ENDBRANCH  17  18
ENDBRANCH  16  17
ENDBRANCH  15  16
ENDBRANCH  14  15
ENDBRANCH  13  14
ENDBRANCH   1  13
TORSDOF 20
ENDMDL
MODEL 6
REMARK VINA RESULT:    -4.137      7.391     11.123
REMARK INTER + INTRA:         -10.526
REMARK INTER:                  -7.586
REMARK INTRA:                  -2.940
REMARK UNBOUND:                -1.552
REMARK SMILES CCCCCCCCCCCCCCCCCCCCCC(=O)[O-]
REMARK SMILES IDX 12 1 11 2 10 3 9 4 8 5 7 6 6 7 5 8 4 9 3 10 2 11 1 12 13 13
REMARK SMILES IDX 14 14 15 15 16 16 17 17 18 18 19 19 20 20 21 21 22 22 23 23
REMARK SMILES IDX 24 24
REMARK H PARENT
REMARK Flexibility Score: inf
ROOT
ATOM      1  C   UNL     1     -21.497 -14.296  41.872  1.00  0.00     0.000 C 
ENDROOT
BRANCH   1   2
ATOM      2  C   UNL     1     -21.138 -15.168  40.659  1.00  0.00     0.000 C 
BRANCH   2   3
ATOM      3  C   UNL     1     -19.832 -14.712  39.976  1.00  0.00     0.000 C 
BRANCH   3   4
ATOM      4  C   UNL     1     -20.000 -14.378  38.483  1.00  0.00    -0.000 C 
BRANCH   4   5
ATOM      5  C   UNL     1     -21.473 -14.263  38.058  1.00  0.00    -0.000 C 
BRANCH   5   6
ATOM      6  C   UNL     1     -21.694 -13.162  36.998  1.00  0.00    -0.000 C 
BRANCH   6   7
ATOM      7  C   UNL     1     -22.740 -12.106  37.404  1.00  0.00    -0.000 C 
BRANCH   7   8
ATOM      8  C   UNL     1     -23.554 -12.455  38.660  1.00  0.00    -0.000 C 
BRANCH   8   9
ATOM      9  C   UNL     1     -23.348 -11.450  39.805  1.00  0.00    -0.000 C 
BRANCH   9  10
ATOM     10  C   UNL     1     -22.050 -10.654  39.605  1.00  0.00    -0.000 C 
BRANCH  10  11
ATOM     11  C   UNL     1     -20.877 -11.223  40.417  1.00  0.00    -0.003 C 
ATOM     12  C   UNL     1     -19.524 -10.976  39.753  1.00  0.00     0.004 C 
ENDBRANCH  10  11
ENDBRANCH   9  10
ENDBRANCH   8   9
ENDBRANCH   7   8
ENDBRANCH   6   7
ENDBRANCH   5   6
ENDBRANCH   4   5
ENDBRANCH   3   4
ENDBRANCH   2   3
ENDBRANCH   1   2
BRANCH   1  13
ATOM     13  C   UNL     1     -23.016 -14.217  42.063  1.00  0.00     0.000 C 
BRANCH  13  14
ATOM     14  C   UNL     1     -23.431 -14.787  43.424  1.00  0.00     0.000 C 
BRANCH  14  15
ATOM     15  C   UNL     1     -22.499 -15.931  43.846  1.00  0.00     0.000 C 
BRANCH  15  16
ATOM     16  C   UNL     1     -22.103 -15.862  45.330  1.00  0.00     0.000 C 
BRANCH  16  17
ATOM     17  C   UNL     1     -21.343 -14.587  45.744  1.00  0.00     0.000 C 
BRANCH  17  18
ATOM     18  C   UNL     1     -21.581 -14.163  47.209  1.00  0.00     0.000 C 
BRANCH  18  19
ATOM     19  C   UNL     1     -23.059 -14.285  47.622  1.00  0.00     0.000 C 
BRANCH  19  20
ATOM     20  C   UNL     1     -23.807 -12.945  47.552  1.00  0.00     0.006 C 
BRANCH  20  21
ATOM     21  C   UNL     1     -25.264 -13.107  47.099  1.00  0.00     0.053 C 
BRANCH  21  22
ATOM     22  C   UNL     1     -26.130 -13.502  48.254  1.00  0.00     0.041 C 
ATOM     23  O   UNL     1     -26.830 -14.546  48.193  1.00  0.00    -0.550 OA
ATOM     24  O   UNL     1     -26.197 -12.693  49.382  1.00  0.00    -0.550 OA
ENDBRANCH  21  22
ENDBRANCH  20  21
ENDBRANCH  19  20
ENDBRANCH  18  19
ENDBRANCH  17  18
ENDBRANCH  16  17
ENDBRANCH  15  16
ENDBRANCH  14  15
ENDBRANCH  13  14
ENDBRANCH   1  13
TORSDOF 20
ENDMDL
MODEL 7
REMARK VINA RESULT:    -4.083      7.349     11.516
REMARK INTER + INTRA:         -10.410
REMARK INTER:                  -7.483
REMARK INTRA:                  -2.927
REMARK UNBOUND:                -1.552
REMARK SMILES CCCCCCCCCCCCCCCCCCCCCC(=O)[O-]
REMARK SMILES IDX 12 1 11 2 10 3 9 4 8 5 7 6 6 7 5 8 4 9 3 10 2 11 1 12 13 13
REMARK SMILES IDX 14 14 15 15 16 16 17 17 18 18 19 19 20 20 21 21 22 22 23 23
REMARK SMILES IDX 24 24
REMARK H PARENT
REMARK Flexibility Score: inf
ROOT
ATOM      1  C   UNL     1     -23.003 -14.127  41.864  1.00  0.00     0.000 C 
ENDROOT
BRANCH   1   2
ATOM      2  C   UNL     1     -21.679 -14.641  41.277  1.00  0.00     0.000 C 
BRANCH   2   3
ATOM      3  C   UNL     1     -21.834 -15.132  39.823  1.00  0.00     0.000 C 
BRANCH   3   4
ATOM      4  C   UNL     1     -20.723 -14.634  38.882  1.00  0.00    -0.000 C 
BRANCH   4   5
ATOM      5  C   UNL     1     -19.700 -13.731  39.590  1.00  0.00    -0.000 C 
BRANCH   5   6
ATOM      6  C   UNL     1     -19.607 -12.330  38.945  1.00  0.00    -0.000 C 
BRANCH   6   7
ATOM      7  C   UNL     1     -19.955 -11.178  39.907  1.00  0.00    -0.000 C 
BRANCH   7   8
ATOM      8  C   UNL     1     -21.433 -11.108  40.323  1.00  0.00    -0.000 C 
BRANCH   8   9
ATOM      9  C   UNL     1     -22.377 -10.862  39.135  1.00  0.00    -0.000 C 
BRANCH   9  10
ATOM     10  C   UNL     1     -23.584 -11.811  39.193  1.00  0.00    -0.000 C 
BRANCH  10  11
ATOM     11  C   UNL     1     -23.756 -12.627  37.903  1.00  0.00    -0.003 C 
ATOM     12  C   UNL     1     -22.769 -12.219  36.810  1.00  0.00     0.004 C 
ENDBRANCH  10  11
ENDBRANCH   9  10
ENDBRANCH   8   9
ENDBRANCH   7   8
ENDBRANCH   6   7
ENDBRANCH   5   6
ENDBRANCH   4   5
ENDBRANCH   3   4
ENDBRANCH   2   3
ENDBRANCH   1   2
BRANCH   1  13
ATOM     13  C   UNL     1     -23.301 -14.791  43.213  1.00  0.00     0.000 C 
BRANCH  13  14
ATOM     14  C   UNL     1     -22.336 -15.952  43.481  1.00  0.00     0.000 C 
BRANCH  14  15
ATOM     15  C   UNL     1     -22.004 -16.055  44.977  1.00  0.00     0.000 C 
BRANCH  15  16
ATOM     16  C   UNL     1     -21.047 -14.950  45.453  1.00  0.00     0.000 C 
BRANCH  16  17
ATOM     17  C   UNL     1     -21.589 -14.063  46.590  1.00  0.00     0.000 C 
BRANCH  17  18
ATOM     18  C   UNL     1     -23.106 -14.210  46.831  1.00  0.00     0.000 C 
BRANCH  18  19
ATOM     19  C   UNL     1     -23.435 -14.596  48.285  1.00  0.00     0.000 C 
BRANCH  19  20
ATOM     20  C   UNL     1     -24.271 -13.529  49.007  1.00  0.00     0.006 C 
BRANCH  20  21
ATOM     21  C   UNL     1     -24.595 -12.328  48.109  1.00  0.00     0.053 C 
BRANCH  21  22
ATOM     22  C   UNL     1     -23.898 -11.100  48.605  1.00  0.00     0.041 C 
ATOM     23  O   UNL     1     -24.128 -10.666  49.764  1.00  0.00    -0.550 OA
ATOM     24  O   UNL     1     -23.026 -10.411  47.772  1.00  0.00    -0.550 OA
ENDBRANCH  21  22
ENDBRANCH  20  21
ENDBRANCH  19  20
ENDBRANCH  18  19
ENDBRANCH  17  18
ENDBRANCH  16  17
ENDBRANCH  15  16
ENDBRANCH  14  15
ENDBRANCH  13  14
ENDBRANCH   1  13
TORSDOF 20
ENDMDL
MODEL 8
REMARK VINA RESULT:    -4.037      8.086     12.265
REMARK INTER + INTRA:         -10.309
REMARK INTER:                  -7.853
REMARK INTRA:                  -2.456
REMARK UNBOUND:                -1.552
REMARK SMILES CCCCCCCCCCCCCCCCCCCCCC(=O)[O-]
REMARK SMILES IDX 12 1 11 2 10 3 9 4 8 5 7 6 6 7 5 8 4 9 3 10 2 11 1 12 13 13
REMARK SMILES IDX 14 14 15 15 16 16 17 17 18 18 19 19 20 20 21 21 22 22 23 23
REMARK SMILES IDX 24 24
REMARK H PARENT
REMARK Flexibility Score: inf
ROOT
ATOM      1  C   UNL     1     -22.055 -13.880  42.157  1.00  0.00     0.000 C 
ENDROOT
BRANCH   1   2
ATOM      2  C   UNL     1     -20.786 -14.508  41.558  1.00  0.00     0.000 C 
BRANCH   2   3
ATOM      3  C   UNL     1     -21.106 -15.546  40.463  1.00  0.00     0.000 C 
BRANCH   3   4
ATOM      4  C   UNL     1     -21.318 -14.927  39.070  1.00  0.00    -0.000 C 
BRANCH   4   5
ATOM      5  C   UNL     1     -22.739 -15.153  38.526  1.00  0.00    -0.000 C 
BRANCH   5   6
ATOM      6  C   UNL     1     -23.702 -14.007  38.906  1.00  0.00    -0.000 C 
BRANCH   6   7
ATOM      7  C   UNL     1     -23.227 -12.615  38.443  1.00  0.00    -0.000 C 
BRANCH   7   8
ATOM      8  C   UNL     1     -23.330 -11.511  39.508  1.00  0.00    -0.000 C 
BRANCH   8   9
ATOM      9  C   UNL     1     -21.964 -10.919  39.890  1.00  0.00    -0.000 C 
BRANCH   9  10
ATOM     10  C   UNL     1     -20.841 -11.562  39.063  1.00  0.00    -0.000 C 
BRANCH  10  11
ATOM     11  C   UNL     1     -19.478 -11.497  39.768  1.00  0.00    -0.003 C 
ATOM     12  C   UNL     1     -19.527 -10.710  41.077  1.00  0.00     0.004 C 
ENDBRANCH  10  11
ENDBRANCH   9  10
ENDBRANCH   8   9
ENDBRANCH   7   8
ENDBRANCH   6   7
ENDBRANCH   5   6
ENDBRANCH   4   5
ENDBRANCH   3   4
ENDBRANCH   2   3
ENDBRANCH   1   2
BRANCH   1  13
ATOM     13  C   UNL     1     -22.876 -14.924  42.922  1.00  0.00     0.000 C 
BRANCH  13  14
ATOM     14  C   UNL     1     -22.000 -15.695  43.915  1.00  0.00     0.000 C 
BRANCH  14  15
ATOM     15  C   UNL     1     -21.488 -14.769  45.028  1.00  0.00     0.000 C 
BRANCH  15  16
ATOM     16  C   UNL     1     -22.090 -15.099  46.403  1.00  0.00     0.000 C 
BRANCH  16  17
ATOM     17  C   UNL     1     -22.920 -13.967  47.040  1.00  0.00     0.000 C 
BRANCH  17  18
ATOM     18  C   UNL     1     -22.190 -13.217  48.175  1.00  0.00     0.000 C 
BRANCH  18  19
ATOM     19  C   UNL     1     -21.282 -12.093  47.645  1.00  0.00     0.000 C 
BRANCH  19  20
ATOM     20  C   UNL     1     -21.804 -10.692  48.000  1.00  0.00     0.006 C 
BRANCH  20  21
ATOM     21  C   UNL     1     -21.293 -10.200  49.361  1.00  0.00     0.053 C 
BRANCH  21  22
ATOM     22  C   UNL     1     -22.417 -10.125  50.346  1.00  0.00     0.041 C 
ATOM     23  O   UNL     1     -23.579 -10.473  50.009  1.00  0.00    -0.550 OA
ATOM     24  O   UNL     1     -22.189  -9.631  51.624  1.00  0.00    -0.550 OA
ENDBRANCH  21  22
ENDBRANCH  20  21
ENDBRANCH  19  20
ENDBRANCH  18  19
ENDBRANCH  17  18
ENDBRANCH  16  17
ENDBRANCH  15  16
ENDBRANCH  14  15
ENDBRANCH  13  14
ENDBRANCH   1  13
TORSDOF 20
ENDMDL
MODEL 9
REMARK VINA RESULT:    -3.957      6.233      9.893
REMARK INTER + INTRA:         -10.135
REMARK INTER:                  -7.596
REMARK INTRA:                  -2.539
REMARK UNBOUND:                -1.552
REMARK SMILES CCCCCCCCCCCCCCCCCCCCCC(=O)[O-]
REMARK SMILES IDX 12 1 11 2 10 3 9 4 8 5 7 6 6 7 5 8 4 9 3 10 2 11 1 12 13 13
REMARK SMILES IDX 14 14 15 15 16 16 17 17 18 18 19 19 20 20 21 21 22 22 23 23
REMARK SMILES IDX 24 24
REMARK H PARENT
REMARK Flexibility Score: inf
ROOT
ATOM      1  C   UNL     1     -22.528 -14.386  42.282  1.00  0.00     0.000 C 
ENDROOT
BRANCH   1   2
ATOM      2  C   UNL     1     -23.315 -14.832  43.524  1.00  0.00     0.000 C 
BRANCH   2   3
ATOM      3  C   UNL     1     -22.419 -15.533  44.565  1.00  0.00     0.000 C 
BRANCH   3   4
ATOM      4  C   UNL     1     -21.724 -14.561  45.535  1.00  0.00    -0.000 C 
BRANCH   4   5
ATOM      5  C   UNL     1     -22.228 -14.697  46.981  1.00  0.00    -0.000 C 
BRANCH   5   6
ATOM      6  C   UNL     1     -22.289 -13.338  47.713  1.00  0.00    -0.000 C 
BRANCH   6   7
ATOM      7  C   UNL     1     -23.721 -12.812  47.932  1.00  0.00    -0.000 C 
BRANCH   7   8
ATOM      8  C   UNL     1     -24.805 -13.900  47.994  1.00  0.00    -0.000 C 
BRANCH   8   9
ATOM      9  C   UNL     1     -26.035 -13.568  47.134  1.00  0.00    -0.000 C 
BRANCH   9  10
ATOM     10  C   UNL     1     -25.629 -12.775  45.883  1.00  0.00    -0.000 C 
BRANCH  10  11
ATOM     11  C   UNL     1     -26.480 -13.132  44.655  1.00  0.00    -0.003 C 
ATOM     12  C   UNL     1     -27.868 -13.651  45.030  1.00  0.00     0.004 C 
ENDBRANCH  10  11
ENDBRANCH   9  10
ENDBRANCH   8   9
ENDBRANCH   7   8
ENDBRANCH   6   7
ENDBRANCH   5   6
ENDBRANCH   4   5
ENDBRANCH   3   4
ENDBRANCH   2   3
ENDBRANCH   1   2
BRANCH   1  13
ATOM     13  C   UNL     1     -21.501 -15.448  41.871  1.00  0.00     0.000 C 
BRANCH  13  14
ATOM     14  C   UNL     1     -20.361 -14.826  41.056  1.00  0.00     0.000 C 
BRANCH  14  15
ATOM     15  C   UNL     1     -20.548 -15.098  39.557  1.00  0.00     0.000 C 
BRANCH  15  16
ATOM     16  C   UNL     1     -19.732 -14.142  38.671  1.00  0.00     0.000 C 
BRANCH  16  17
ATOM     17  C   UNL     1     -19.165 -12.906  39.395  1.00  0.00     0.000 C 
BRANCH  17  18
ATOM     18  C   UNL     1     -19.892 -11.589  39.049  1.00  0.00     0.000 C 
BRANCH  18  19
ATOM     19  C   UNL     1     -20.821 -11.116  40.183  1.00  0.00     0.000 C 
BRANCH  19  20
ATOM     20  C   UNL     1     -22.274 -10.933  39.721  1.00  0.00     0.006 C 
BRANCH  20  21
ATOM     21  C   UNL     1     -22.964 -12.267  39.405  1.00  0.00     0.053 C 
BRANCH  21  22
ATOM     22  C   UNL     1     -23.504 -12.260  38.009  1.00  0.00     0.041 C 
ATOM     23  O   UNL     1     -24.681 -12.642  37.784  1.00  0.00    -0.550 OA
ATOM     24  O   UNL     1     -22.691 -11.870  36.952  1.00  0.00    -0.550 OA
ENDBRANCH  21  22
ENDBRANCH  20  21
ENDBRANCH  19  20
ENDBRANCH  18  19
ENDBRANCH  17  18
ENDBRANCH  16  17
ENDBRANCH  15  16
ENDBRANCH  14  15
ENDBRANCH  13  14
ENDBRANCH   1  13
TORSDOF 20
ENDMDL
