MODEL 1
REMARK VINA RESULT:    -2.593      0.000      0.000
REMARK INTER + INTRA:          -2.593
REMARK INTER:                  -2.593
REMARK INTRA:                   0.000
REMARK UNBOUND:                 0.000
REMARK SMILES CC(=O)[O-]
REMARK SMILES IDX 1 1 2 2 3 3 4 4
REMARK H PARENT
REMARK Flexibility Score: inf
ROOT
ATOM      1  C   UNL     1       8.668  -9.719  15.730  1.00  0.00     0.063 C 
ATOM      2  C   UNL     1       7.425  -9.349  14.991  1.00  0.00     0.038 C 
ATOM      3  O   UNL     1       6.433 -10.123  14.998  1.00  0.00    -0.550 OA
ATOM      4  O   UNL     1       7.382  -8.175  14.249  1.00  0.00    -0.550 OA
ENDROOT
TORSDOF 0
ENDMDL
MODEL 2
REMARK VINA RESULT:    -2.405      1.412      1.764
REMARK INTER + INTRA:          -2.405
REMARK INTER:                  -2.405
REMARK INTRA:                   0.000
REMARK UNBOUND:                 0.000
REMARK SMILES CC(=O)[O-]
REMARK SMILES IDX 1 1 2 2 3 3 4 4
REMARK H PARENT
REMARK Flexibility Score: inf
ROOT
ATOM      1  C   UNL     1       7.534  -8.277  14.094  1.00  0.00     0.063 C 
ATOM      2  C   UNL     1       7.557  -9.429  15.040  1.00  0.00     0.038 C 
ATOM      3  O   UNL     1       6.572 -10.210  15.109  1.00  0.00    -0.550 OA
ATOM      4  O   UNL     1       8.642  -9.611  15.889  1.00  0.00    -0.550 OA
ENDROOT
TORSDOF 0
ENDMDL
MODEL 3
REMARK VINA RESULT:    -2.363     16.062     16.591
REMARK INTER + INTRA:          -2.363
REMARK INTER:                  -2.363
REMARK INTRA:                   0.000
REMARK UNBOUND:                 0.000
REMARK SMILES CC(=O)[O-]
REMARK SMILES IDX 1 1 2 2 3 3 4 4
REMARK H PARENT
REMARK Flexibility Score: inf
ROOT
ATOM      1  C   UNL     1     -10.107  -8.297  16.044  1.00  0.00     0.063 C 
ATOM      2  C   UNL     1      -8.815  -8.111  16.766  1.00  0.00     0.038 C 
ATOM      3  O   UNL     1      -7.963  -9.037  16.785  1.00  0.00    -0.550 OA
ATOM      4  O   UNL     1      -8.573  -6.935  17.466  1.00  0.00    -0.550 OA
ENDROOT
TORSDOF 0
ENDMDL
MODEL 4
REMARK VINA RESULT:    -2.225     16.075     16.584
REMARK INTER + INTRA:          -2.225
REMARK INTER:                  -2.225
REMARK INTRA:                   0.000
REMARK UNBOUND:                 0.000
REMARK SMILES CC(=O)[O-]
REMARK SMILES IDX 1 1 2 2 3 3 4 4
REMARK H PARENT
REMARK Flexibility Score: inf
ROOT
ATOM      1  C   UNL     1      -8.567  -6.961  17.462  1.00  0.00     0.063 C 
ATOM      2  C   UNL     1      -8.888  -8.215  16.721  1.00  0.00     0.038 C 
ATOM      3  O   UNL     1      -8.049  -9.151  16.670  1.00  0.00    -0.550 OA
ATOM      4  O   UNL     1     -10.092  -8.330  16.037  1.00  0.00    -0.550 OA
ENDROOT
TORSDOF 0
ENDMDL
MODEL 5
REMARK VINA RESULT:    -2.077     20.137     20.616
REMARK INTER + INTRA:          -2.077
REMARK INTER:                  -2.077
REMARK INTRA:                   0.000
REMARK UNBOUND:                 0.000
REMARK SMILES CC(=O)[O-]
REMARK SMILES IDX 1 1 2 2 3 3 4 4
REMARK H PARENT
REMARK Flexibility Score: inf
ROOT
ATOM      1  C   UNL     1      -9.938 -17.900  20.844  1.00  0.00     0.063 C 
ATOM      2  C   UNL     1      -9.484 -18.275  22.215  1.00  0.00     0.038 C 
ATOM      3  O   UNL     1      -8.841 -17.451  22.914  1.00  0.00    -0.550 OA
ATOM      4  O   UNL     1      -9.723 -19.555  22.700  1.00  0.00    -0.550 OA
ENDROOT
TORSDOF 0
ENDMDL
MODEL 6
REMARK VINA RESULT:    -1.994     20.183     20.524
REMARK INTER + INTRA:          -1.994
REMARK INTER:                  -1.994
REMARK INTRA:                   0.000
REMARK UNBOUND:                 0.000
REMARK SMILES CC(=O)[O-]
REMARK SMILES IDX 1 1 2 2 3 3 4 4
REMARK H PARENT
REMARK Flexibility Score: inf
ROOT
ATOM      1  C   UNL     1     -10.117 -19.439  22.527  1.00  0.00     0.063 C 
ATOM      2  C   UNL     1      -9.544 -18.127  22.106  1.00  0.00     0.038 C 
ATOM      3  O   UNL     1      -9.706 -17.716  20.928  1.00  0.00    -0.550 OA
ATOM      4  O   UNL     1      -8.782 -17.383  22.998  1.00  0.00    -0.550 OA
ENDROOT
TORSDOF 0
ENDMDL
MODEL 7
REMARK VINA RESULT:    -1.968     16.088     16.611
REMARK INTER + INTRA:          -1.968
REMARK INTER:                  -1.968
REMARK INTRA:                   0.000
REMARK UNBOUND:                 0.000
REMARK SMILES CC(=O)[O-]
REMARK SMILES IDX 1 1 2 2 3 3 4 4
REMARK H PARENT
REMARK Flexibility Score: inf
ROOT
ATOM      1  C   UNL     1      -7.844  -9.030  16.868  1.00  0.00     0.063 C 
ATOM      2  C   UNL     1      -8.921  -7.998  16.841  1.00  0.00     0.038 C 
ATOM      3  O   UNL     1      -8.820  -6.961  17.547  1.00  0.00    -0.550 OA
ATOM      4  O   UNL     1     -10.063  -8.205  16.078  1.00  0.00    -0.550 OA
ENDROOT
TORSDOF 0
ENDMDL
MODEL 8
REMARK VINA RESULT:    -1.931     11.966     12.557
REMARK INTER + INTRA:          -1.931
REMARK INTER:                  -1.931
REMARK INTRA:                   0.000
REMARK UNBOUND:                 0.000
REMARK SMILES CC(=O)[O-]
REMARK SMILES IDX 1 1 2 2 3 3 4 4
REMARK H PARENT
REMARK Flexibility Score: inf
ROOT
ATOM      1  C   UNL     1       6.295 -21.365  17.237  1.00  0.00     0.063 C 
ATOM      2  C   UNL     1       7.432 -21.625  16.306  1.00  0.00     0.038 C 
ATOM      3  O   UNL     1       7.645 -20.849  15.338  1.00  0.00    -0.550 OA
ATOM      4  O   UNL     1       8.223 -22.754  16.473  1.00  0.00    -0.550 OA
ENDROOT
TORSDOF 0
ENDMDL
MODEL 9
REMARK VINA RESULT:    -1.893     20.030     20.693
REMARK INTER + INTRA:          -1.893
REMARK INTER:                  -1.893
REMARK INTRA:                   0.000
REMARK UNBOUND:                 0.000
REMARK SMILES CC(=O)[O-]
REMARK SMILES IDX 1 1 2 2 3 3 4 4
REMARK H PARENT
REMARK Flexibility Score: inf
ROOT
ATOM      1  C   UNL     1      -8.881 -17.573  22.778  1.00  0.00     0.063 C 
ATOM      2  C   UNL     1      -9.859 -18.182  21.830  1.00  0.00     0.038 C 
ATOM      3  O   UNL     1      -9.638 -18.156  20.592  1.00  0.00    -0.550 OA
ATOM      4  O   UNL     1     -11.043 -18.729  22.309  1.00  0.00    -0.550 OA
ENDROOT
TORSDOF 0
ENDMDL
