MODEL 1
REMARK VINA RESULT:    -4.894      0.000      0.000
REMARK INTER + INTRA:          -6.276
REMARK INTER:                  -5.895
REMARK INTRA:                  -0.381
REMARK UNBOUND:                -0.381
REMARK SMILES O=c1ccn([C@H]2O[C@@H](CO)[C@H](O)[C@H]2O)c(=O)[nH]1
REMARK SMILES IDX 6 1 13 2 11 3 8 4 7 5 5 6 3 7 4 8 2 9 17 10 1 11 15 12 16 14
REMARK SMILES IDX 14 15 12 17 9 19 10 20
REMARK H PARENT 17 13 14 16 12 18 10 21
REMARK Flexibility Score: inf
ROOT
ATOM      1  C   UNL     1     140.738 136.499 122.067  1.00  0.00     0.255 C 
ATOM      2  C   UNL     1     139.545 135.766 121.427  1.00  0.00     0.196 C 
ATOM      3  C   UNL     1     139.528 136.313 120.023  1.00  0.00     0.179 C 
ATOM      4  C   UNL     1     140.191 137.677 120.191  1.00  0.00     0.178 C 
ATOM      5  O   UNL     1     141.134 137.574 121.233  1.00  0.00    -0.347 OA
ENDROOT
BRANCH   1   6
ATOM      6  N   UNL     1     141.886 135.594 122.304  1.00  0.00    -0.271 N 
ATOM      7  C   UNL     1     143.954 134.635 121.553  1.00  0.00     0.090 A 
ATOM      8  C   UNL     1     142.877 135.499 121.365  1.00  0.00     0.099 A 
ATOM      9  C   UNL     1     143.994 133.862 122.707  1.00  0.00     0.253 A 
ATOM     10  N   UNL     1     142.992 133.956 123.619  1.00  0.00    -0.274 N 
ATOM     11  O   UNL     1     144.957 133.074 122.904  1.00  0.00    -0.269 OA
ATOM     12  C   UNL     1     141.941 134.802 123.427  1.00  0.00     0.330 A 
ATOM     13  H   UNL     1     143.025 133.365 124.481  1.00  0.00     0.175 HD
ATOM     14  O   UNL     1     141.022 134.843 124.290  1.00  0.00    -0.248 OA
ENDBRANCH   1   6
BRANCH   2  15
ATOM     15  O   UNL     1     139.701 134.369 121.412  1.00  0.00    -0.386 OA
ATOM     16  H   UNL     1     138.937 134.006 120.892  1.00  0.00     0.211 HD
ENDBRANCH   2  15
BRANCH   3  17
ATOM     17  O   UNL     1     138.226 136.400 119.492  1.00  0.00    -0.387 OA
ATOM     18  H   UNL     1     137.745 137.130 119.961  1.00  0.00     0.211 HD
ENDBRANCH   3  17
BRANCH   4  19
ATOM     19  C   UNL     1     140.890 138.148 118.907  1.00  0.00     0.191 C 
BRANCH  19  20
ATOM     20  O   UNL     1     140.810 137.169 117.908  1.00  0.00    -0.394 OA
ATOM     21  H   UNL     1     141.738 136.855 117.742  1.00  0.00     0.210 HD
ENDBRANCH  19  20
ENDBRANCH   4  19
TORSDOF 5
ENDMDL
MODEL 2
REMARK VINA RESULT:    -4.855      2.323      3.648
REMARK INTER + INTRA:          -6.229
REMARK INTER:                  -5.835
REMARK INTRA:                  -0.394
REMARK UNBOUND:                -0.381
REMARK SMILES O=c1ccn([C@H]2O[C@@H](CO)[C@H](O)[C@H]2O)c(=O)[nH]1
REMARK SMILES IDX 6 1 13 2 11 3 8 4 7 5 5 6 3 7 4 8 2 9 17 10 1 11 15 12 16 14
REMARK SMILES IDX 14 15 12 17 9 19 10 20
REMARK H PARENT 17 13 14 16 12 18 10 21
REMARK Flexibility Score: inf
ROOT
ATOM      1  C   UNL     1     140.266 138.631 119.902  1.00  0.00     0.255 C 
ATOM      2  C   UNL     1     140.248 138.589 118.363  1.00  0.00     0.196 C 
ATOM      3  C   UNL     1     141.160 139.728 117.984  1.00  0.00     0.179 C 
ATOM      4  C   UNL     1     141.055 140.652 119.194  1.00  0.00     0.178 C 
ATOM      5  O   UNL     1     140.845 139.850 120.334  1.00  0.00    -0.347 OA
ENDROOT
BRANCH   1   6
ATOM      6  N   UNL     1     141.006 137.487 120.481  1.00  0.00    -0.271 N 
ATOM      7  C   UNL     1     143.050 136.566 121.339  1.00  0.00     0.090 A 
ATOM      8  C   UNL     1     142.325 137.634 120.817  1.00  0.00     0.099 A 
ATOM      9  C   UNL     1     142.410 135.342 121.501  1.00  0.00     0.253 A 
ATOM     10  N   UNL     1     141.106 135.210 121.146  1.00  0.00    -0.274 N 
ATOM     11  O   UNL     1     143.041 134.360 121.973  1.00  0.00    -0.269 OA
ATOM     12  C   UNL     1     140.405 136.260 120.633  1.00  0.00     0.330 A 
ATOM     13  H   UNL     1     140.633 134.284 121.262  1.00  0.00     0.175 HD
ATOM     14  O   UNL     1     139.201 136.087 120.298  1.00  0.00    -0.248 OA
ENDBRANCH   1   6
BRANCH   2  15
ATOM     15  O   UNL     1     140.727 137.376 117.840  1.00  0.00    -0.386 OA
ATOM     16  H   UNL     1     139.954 136.753 117.821  1.00  0.00     0.211 HD
ENDBRANCH   2  15
BRANCH   3  17
ATOM     17  O   UNL     1     140.773 140.354 116.783  1.00  0.00    -0.387 OA
ATOM     18  H   UNL     1     141.300 139.959 116.041  1.00  0.00     0.211 HD
ENDBRANCH   3  17
BRANCH   4  19
ATOM     19  C   UNL     1     142.317 141.504 119.388  1.00  0.00     0.191 C 
BRANCH  19  20
ATOM     20  O   UNL     1     143.145 141.434 118.259  1.00  0.00    -0.394 OA
ATOM     21  H   UNL     1     142.693 141.952 117.542  1.00  0.00     0.210 HD
ENDBRANCH  19  20
ENDBRANCH   4  19
TORSDOF 5
ENDMDL
MODEL 3
REMARK VINA RESULT:    -4.808      2.075      5.418
REMARK INTER + INTRA:          -6.172
REMARK INTER:                  -5.785
REMARK INTRA:                  -0.388
REMARK UNBOUND:                -0.381
REMARK SMILES O=c1ccn([C@H]2O[C@@H](CO)[C@H](O)[C@H]2O)c(=O)[nH]1
REMARK SMILES IDX 6 1 13 2 11 3 8 4 7 5 5 6 3 7 4 8 2 9 17 10 1 11 15 12 16 14
REMARK SMILES IDX 14 15 12 17 9 19 10 20
REMARK H PARENT 17 13 14 16 12 18 10 21
REMARK Flexibility Score: inf
ROOT
ATOM      1  C   UNL     1     142.862 136.286 123.496  1.00  0.00     0.255 C 
ATOM      2  C   UNL     1     142.894 134.761 123.703  1.00  0.00     0.196 C 
ATOM      3  C   UNL     1     141.926 134.555 124.840  1.00  0.00     0.179 C 
ATOM      4  C   UNL     1     141.972 135.898 125.561  1.00  0.00     0.178 C 
ATOM      5  O   UNL     1     142.216 136.898 124.598  1.00  0.00    -0.347 OA
ENDROOT
BRANCH   1   6
ATOM      6  N   UNL     1     142.179 136.662 122.237  1.00  0.00    -0.271 N 
ATOM      7  C   UNL     1     140.170 137.282 121.078  1.00  0.00     0.090 A 
ATOM      8  C   UNL     1     140.840 136.950 122.253  1.00  0.00     0.099 A 
ATOM      9  C   UNL     1     140.885 137.301 119.886  1.00  0.00     0.253 A 
ATOM     10  N   UNL     1     142.208 136.995 119.886  1.00  0.00    -0.274 N 
ATOM     11  O   UNL     1     140.304 137.599 118.809  1.00  0.00    -0.269 OA
ATOM     12  C   UNL     1     142.856 136.670 121.040  1.00  0.00     0.330 A 
ATOM     13  H   UNL     1     142.738 137.004 118.985  1.00  0.00     0.175 HD
ATOM     14  O   UNL     1     144.081 136.373 120.992  1.00  0.00    -0.248 OA
ENDBRANCH   1   6
BRANCH   2  15
ATOM     15  O   UNL     1     142.484 134.042 122.567  1.00  0.00    -0.386 OA
ATOM     16  H   UNL     1     141.570 133.707 122.761  1.00  0.00     0.211 HD
ENDBRANCH   2  15
BRANCH   3  17
ATOM     17  O   UNL     1     142.289 133.476 125.670  1.00  0.00    -0.387 OA
ATOM     18  H   UNL     1     141.660 133.446 126.437  1.00  0.00     0.211 HD
ENDBRANCH   3  17
BRANCH   4  19
ATOM     19  C   UNL     1     140.665 136.206 126.306  1.00  0.00     0.191 C 
BRANCH  19  20
ATOM     20  O   UNL     1     140.288 135.128 127.118  1.00  0.00    -0.394 OA
ATOM     21  H   UNL     1     139.578 134.636 126.627  1.00  0.00     0.210 HD
ENDBRANCH  19  20
ENDBRANCH   4  19
TORSDOF 5
ENDMDL
MODEL 4
REMARK VINA RESULT:    -4.795      2.253      5.729
REMARK INTER + INTRA:          -6.157
REMARK INTER:                  -5.786
REMARK INTRA:                  -0.371
REMARK UNBOUND:                -0.381
REMARK SMILES O=c1ccn([C@H]2O[C@@H](CO)[C@H](O)[C@H]2O)c(=O)[nH]1
REMARK SMILES IDX 6 1 13 2 11 3 8 4 7 5 5 6 3 7 4 8 2 9 17 10 1 11 15 12 16 14
REMARK SMILES IDX 14 15 12 17 9 19 10 20
REMARK H PARENT 17 13 14 16 12 18 10 21
REMARK Flexibility Score: inf
ROOT
ATOM      1  C   UNL     1     141.053 136.276 122.559  1.00  0.00     0.255 C 
ATOM      2  C   UNL     1     141.286 134.761 122.708  1.00  0.00     0.196 C 
ATOM      3  C   UNL     1     140.843 134.489 124.122  1.00  0.00     0.179 C 
ATOM      4  C   UNL     1     141.050 135.841 124.800  1.00  0.00     0.178 C 
ATOM      5  O   UNL     1     140.827 136.846 123.837  1.00  0.00    -0.347 OA
ENDROOT
BRANCH   1   6
ATOM      6  N   UNL     1     139.915 136.579 121.662  1.00  0.00    -0.271 N 
ATOM      7  C   UNL     1     137.580 137.048 121.369  1.00  0.00     0.090 A 
ATOM      8  C   UNL     1     138.671 136.787 122.194  1.00  0.00     0.099 A 
ATOM      9  C   UNL     1     137.777 137.080 119.993  1.00  0.00     0.253 A 
ATOM     10  N   UNL     1     139.015 136.853 119.482  1.00  0.00    -0.274 N 
ATOM     11  O   UNL     1     136.808 137.315 119.223  1.00  0.00    -0.269 OA
ATOM     12  C   UNL     1     140.077 136.596 120.297  1.00  0.00     0.330 A 
ATOM     13  H   UNL     1     139.154 136.871 118.446  1.00  0.00     0.175 HD
ATOM     14  O   UNL     1     141.205 136.372 119.779  1.00  0.00    -0.248 OA
ENDBRANCH   1   6
BRANCH   2  15
ATOM     15  O   UNL     1     140.535 133.997 121.798  1.00  0.00    -0.386 OA
ATOM     16  H   UNL     1     139.790 133.595 122.316  1.00  0.00     0.211 HD
ENDBRANCH   2  15
BRANCH   3  17
ATOM     17  O   UNL     1     141.580 133.454 124.731  1.00  0.00    -0.387 OA
ATOM     18  H   UNL     1     140.946 132.752 125.028  1.00  0.00     0.211 HD
ENDBRANCH   3  17
BRANCH   4  19
ATOM     19  C   UNL     1     140.103 136.048 125.991  1.00  0.00     0.191 C 
BRANCH  19  20
ATOM     20  O   UNL     1     140.366 135.116 127.005  1.00  0.00    -0.394 OA
ATOM     21  H   UNL     1     140.613 135.637 127.813  1.00  0.00     0.210 HD
ENDBRANCH  19  20
ENDBRANCH   4  19
TORSDOF 5
ENDMDL
MODEL 5
REMARK VINA RESULT:    -4.751     12.999     15.103
REMARK INTER + INTRA:          -6.103
REMARK INTER:                  -5.769
REMARK INTRA:                  -0.335
REMARK UNBOUND:                -0.381
REMARK SMILES O=c1ccn([C@H]2O[C@@H](CO)[C@H](O)[C@H]2O)c(=O)[nH]1
REMARK SMILES IDX 6 1 13 2 11 3 8 4 7 5 5 6 3 7 4 8 2 9 17 10 1 11 15 12 16 14
REMARK SMILES IDX 14 15 12 17 9 19 10 20
REMARK H PARENT 17 13 14 16 12 18 10 21
REMARK Flexibility Score: inf
ROOT
ATOM      1  C   UNL     1     128.419 141.980 116.505  1.00  0.00     0.255 C 
ATOM      2  C   UNL     1     127.573 142.637 115.399  1.00  0.00     0.196 C 
ATOM      3  C   UNL     1     128.204 143.999 115.258  1.00  0.00     0.179 C 
ATOM      4  C   UNL     1     128.822 144.222 116.635  1.00  0.00     0.178 C 
ATOM      5  O   UNL     1     129.211 142.966 117.143  1.00  0.00    -0.347 OA
ENDROOT
BRANCH   1   6
ATOM      6  N   UNL     1     129.285 140.901 115.976  1.00  0.00    -0.271 N 
ATOM      7  C   UNL     1     131.398 140.195 115.083  1.00  0.00     0.090 A 
ATOM      8  C   UNL     1     130.573 141.186 115.607  1.00  0.00     0.099 A 
ATOM      9  C   UNL     1     130.885 138.912 114.929  1.00  0.00     0.253 A 
ATOM     10  N   UNL     1     129.599 138.652 115.283  1.00  0.00    -0.274 N 
ATOM     11  O   UNL     1     131.610 137.996 114.459  1.00  0.00    -0.269 OA
ATOM     12  C   UNL     1     128.797 139.629 115.793  1.00  0.00     0.330 A 
ATOM     13  H   UNL     1     129.217 137.687 115.157  1.00  0.00     0.175 HD
ATOM     14  O   UNL     1     127.604 139.348 116.090  1.00  0.00    -0.248 OA
ENDBRANCH   1   6
BRANCH   2  15
ATOM     15  O   UNL     1     127.622 141.940 114.180  1.00  0.00    -0.386 OA
ATOM     16  H   UNL     1     128.019 141.052 114.380  1.00  0.00     0.211 HD
ENDBRANCH   2  15
BRANCH   3  17
ATOM     17  O   UNL     1     127.270 144.994 114.910  1.00  0.00    -0.387 OA
ATOM     18  H   UNL     1     126.771 145.254 115.727  1.00  0.00     0.211 HD
ENDBRANCH   3  17
BRANCH   4  19
ATOM     19  C   UNL     1     130.039 145.157 116.584  1.00  0.00     0.191 C 
BRANCH  19  20
ATOM     20  O   UNL     1     129.637 146.488 116.402  1.00  0.00    -0.394 OA
ATOM     21  H   UNL     1     129.159 146.525 115.532  1.00  0.00     0.210 HD
ENDBRANCH  19  20
ENDBRANCH   4  19
TORSDOF 5
ENDMDL
MODEL 6
REMARK VINA RESULT:    -4.656     12.692     14.288
REMARK INTER + INTRA:          -5.989
REMARK INTER:                  -5.828
REMARK INTRA:                  -0.161
REMARK UNBOUND:                -0.381
REMARK SMILES O=c1ccn([C@H]2O[C@@H](CO)[C@H](O)[C@H]2O)c(=O)[nH]1
REMARK SMILES IDX 6 1 13 2 11 3 8 4 7 5 5 6 3 7 4 8 2 9 17 10 1 11 15 12 16 14
REMARK SMILES IDX 14 15 12 17 9 19 10 20
REMARK H PARENT 17 13 14 16 12 18 10 21
REMARK Flexibility Score: inf
ROOT
ATOM      1  C   UNL     1     131.056 141.940 115.284  1.00  0.00     0.255 C 
ATOM      2  C   UNL     1     131.763 142.276 116.610  1.00  0.00     0.196 C 
ATOM      3  C   UNL     1     130.961 143.441 117.133  1.00  0.00     0.179 C 
ATOM      4  C   UNL     1     130.382 144.044 115.856  1.00  0.00     0.178 C 
ATOM      5  O   UNL     1     130.177 142.995 114.937  1.00  0.00    -0.347 OA
ENDROOT
BRANCH   1   6
ATOM      6  N   UNL     1     130.309 140.664 115.359  1.00  0.00    -0.271 N 
ATOM      7  C   UNL     1     128.241 139.494 115.702  1.00  0.00     0.090 A 
ATOM      8  C   UNL     1     128.961 140.682 115.601  1.00  0.00     0.099 A 
ATOM      9  C   UNL     1     128.921 138.289 115.566  1.00  0.00     0.253 A 
ATOM     10  N   UNL     1     130.261 138.290 115.344  1.00  0.00    -0.274 N 
ATOM     11  O   UNL     1     128.294 137.200 115.651  1.00  0.00    -0.269 OA
ATOM     12  C   UNL     1     130.958 139.457 115.249  1.00  0.00     0.330 A 
ATOM     13  H   UNL     1     130.767 137.380 115.251  1.00  0.00     0.175 HD
ATOM     14  O   UNL     1     132.205 139.412 115.062  1.00  0.00    -0.248 OA
ENDBRANCH   1   6
BRANCH   2  15
ATOM     15  O   UNL     1     131.746 141.212 117.528  1.00  0.00    -0.386 OA
ATOM     16  H   UNL     1     131.392 140.424 117.039  1.00  0.00     0.211 HD
ENDBRANCH   2  15
BRANCH   3  17
ATOM     17  O   UNL     1     131.747 144.355 117.862  1.00  0.00    -0.387 OA
ATOM     18  H   UNL     1     132.417 144.751 117.247  1.00  0.00     0.211 HD
ENDBRANCH   3  17
BRANCH   4  19
ATOM     19  C   UNL     1     129.057 144.779 116.106  1.00  0.00     0.191 C 
BRANCH  19  20
ATOM     20  O   UNL     1     129.224 146.165 115.978  1.00  0.00    -0.394 OA
ATOM     21  H   UNL     1     128.445 146.588 116.425  1.00  0.00     0.210 HD
ENDBRANCH  19  20
ENDBRANCH   4  19
TORSDOF 5
ENDMDL
MODEL 7
REMARK VINA RESULT:    -4.649      1.953      5.753
REMARK INTER + INTRA:          -5.980
REMARK INTER:                  -5.741
REMARK INTRA:                  -0.239
REMARK UNBOUND:                -0.381
REMARK SMILES O=c1ccn([C@H]2O[C@@H](CO)[C@H](O)[C@H]2O)c(=O)[nH]1
REMARK SMILES IDX 6 1 13 2 11 3 8 4 7 5 5 6 3 7 4 8 2 9 17 10 1 11 15 12 16 14
REMARK SMILES IDX 14 15 12 17 9 19 10 20
REMARK H PARENT 17 13 14 16 12 18 10 21
REMARK Flexibility Score: inf
ROOT
ATOM      1  C   UNL     1     142.713 135.244 123.224  1.00  0.00     0.255 C 
ATOM      2  C   UNL     1     143.746 134.354 122.508  1.00  0.00     0.196 C 
ATOM      3  C   UNL     1     144.093 133.329 123.557  1.00  0.00     0.179 C 
ATOM      4  C   UNL     1     143.796 134.073 124.857  1.00  0.00     0.178 C 
ATOM      5  O   UNL     1     142.729 134.961 124.612  1.00  0.00    -0.347 OA
ENDROOT
BRANCH   1   6
ATOM      6  N   UNL     1     141.347 135.056 122.685  1.00  0.00    -0.271 N 
ATOM      7  C   UNL     1     139.194 134.003 122.826  1.00  0.00     0.090 A 
ATOM      8  C   UNL     1     140.476 134.217 123.327  1.00  0.00     0.099 A 
ATOM      9  C   UNL     1     138.822 134.649 121.652  1.00  0.00     0.253 A 
ATOM     10  N   UNL     1     139.706 135.463 121.019  1.00  0.00    -0.274 N 
ATOM     11  O   UNL     1     137.668 134.476 121.177  1.00  0.00    -0.269 OA
ATOM     12  C   UNL     1     140.958 135.665 121.516  1.00  0.00     0.330 A 
ATOM     13  H   UNL     1     139.421 135.939 120.133  1.00  0.00     0.175 HD
ATOM     14  O   UNL     1     141.754 136.414 120.885  1.00  0.00    -0.248 OA
ENDBRANCH   1   6
BRANCH   2  15
ATOM     15  O   UNL     1     143.231 133.731 121.359  1.00  0.00    -0.386 OA
ATOM     16  H   UNL     1     142.249 133.872 121.377  1.00  0.00     0.211 HD
ENDBRANCH   2  15
BRANCH   3  17
ATOM     17  O   UNL     1     145.431 132.897 123.469  1.00  0.00    -0.387 OA
ATOM     18  H   UNL     1     145.621 132.659 122.525  1.00  0.00     0.211 HD
ENDBRANCH   3  17
BRANCH   4  19
ATOM     19  C   UNL     1     143.423 133.120 126.002  1.00  0.00     0.191 C 
BRANCH  19  20
ATOM     20  O   UNL     1     142.447 132.202 125.589  1.00  0.00    -0.394 OA
ATOM     21  H   UNL     1     142.746 131.308 125.902  1.00  0.00     0.210 HD
ENDBRANCH  19  20
ENDBRANCH   4  19
TORSDOF 5
ENDMDL
MODEL 8
REMARK VINA RESULT:    -4.646      2.357      4.857
REMARK INTER + INTRA:          -5.978
REMARK INTER:                  -5.814
REMARK INTRA:                  -0.163
REMARK UNBOUND:                -0.381
REMARK SMILES O=c1ccn([C@H]2O[C@@H](CO)[C@H](O)[C@H]2O)c(=O)[nH]1
REMARK SMILES IDX 6 1 13 2 11 3 8 4 7 5 5 6 3 7 4 8 2 9 17 10 1 11 15 12 16 14
REMARK SMILES IDX 14 15 12 17 9 19 10 20
REMARK H PARENT 17 13 14 16 12 18 10 21
REMARK Flexibility Score: inf
ROOT
ATOM      1  C   UNL     1     141.516 134.269 122.544  1.00  0.00     0.255 C 
ATOM      2  C   UNL     1     141.687 134.817 123.972  1.00  0.00     0.196 C 
ATOM      3  C   UNL     1     142.686 135.931 123.787  1.00  0.00     0.179 C 
ATOM      4  C   UNL     1     143.441 135.494 122.536  1.00  0.00     0.178 C 
ATOM      5  O   UNL     1     142.543 134.784 121.714  1.00  0.00    -0.347 OA
ENDROOT
BRANCH   1   6
ATOM      6  N   UNL     1     140.191 134.602 121.974  1.00  0.00    -0.271 N 
ATOM      7  C   UNL     1     138.814 136.055 120.651  1.00  0.00     0.090 A 
ATOM      8  C   UNL     1     140.055 135.707 121.177  1.00  0.00     0.099 A 
ATOM      9  C   UNL     1     137.712 135.267 120.962  1.00  0.00     0.253 A 
ATOM     10  N   UNL     1     137.863 134.185 121.769  1.00  0.00    -0.274 N 
ATOM     11  O   UNL     1     136.578 135.558 120.498  1.00  0.00    -0.269 OA
ATOM     12  C   UNL     1     139.080 133.852 122.282  1.00  0.00     0.330 A 
ATOM     13  H   UNL     1     137.028 133.600 122.006  1.00  0.00     0.175 HD
ATOM     14  O   UNL     1     139.171 132.850 123.044  1.00  0.00    -0.248 OA
ENDBRANCH   1   6
BRANCH   2  15
ATOM     15  O   UNL     1     140.491 135.311 124.519  1.00  0.00    -0.386 OA
ATOM     16  H   UNL     1     140.086 134.563 125.031  1.00  0.00     0.211 HD
ENDBRANCH   2  15
BRANCH   3  17
ATOM     17  O   UNL     1     143.528 136.094 124.905  1.00  0.00    -0.387 OA
ATOM     18  H   UNL     1     144.449 135.835 124.643  1.00  0.00     0.211 HD
ENDBRANCH   3  17
BRANCH   4  19
ATOM     19  C   UNL     1     144.021 136.685 121.758  1.00  0.00     0.191 C 
BRANCH  19  20
ATOM     20  O   UNL     1     144.620 136.257 120.565  1.00  0.00    -0.394 OA
ATOM     21  H   UNL     1     145.602 136.292 120.712  1.00  0.00     0.210 HD
ENDBRANCH  19  20
ENDBRANCH   4  19
TORSDOF 5
ENDMDL
MODEL 9
REMARK VINA RESULT:    -4.645      1.636      2.095
REMARK INTER + INTRA:          -5.976
REMARK INTER:                  -5.767
REMARK INTRA:                  -0.209
REMARK UNBOUND:                -0.381
REMARK SMILES O=c1ccn([C@H]2O[C@@H](CO)[C@H](O)[C@H]2O)c(=O)[nH]1
REMARK SMILES IDX 6 1 13 2 11 3 8 4 7 5 5 6 3 7 4 8 2 9 17 10 1 11 15 12 16 14
REMARK SMILES IDX 14 15 12 17 9 19 10 20
REMARK H PARENT 17 13 14 16 12 18 10 21
REMARK Flexibility Score: inf
ROOT
ATOM      1  C   UNL     1     141.038 135.310 123.537  1.00  0.00     0.255 C 
ATOM      2  C   UNL     1     139.884 134.294 123.456  1.00  0.00     0.196 C 
ATOM      3  C   UNL     1     139.334 134.520 122.071  1.00  0.00     0.179 C 
ATOM      4  C   UNL     1     139.724 135.969 121.792  1.00  0.00     0.178 C 
ATOM      5  O   UNL     1     140.937 136.226 122.462  1.00  0.00    -0.347 OA
ENDROOT
BRANCH   1   6
ATOM      6  N   UNL     1     142.363 134.649 123.515  1.00  0.00    -0.271 N 
ATOM      7  C   UNL     1     144.244 133.827 122.271  1.00  0.00     0.090 A 
ATOM      8  C   UNL     1     143.009 134.468 122.321  1.00  0.00     0.099 A 
ATOM      9  C   UNL     1     144.802 133.362 123.457  1.00  0.00     0.253 A 
ATOM     10  N   UNL     1     144.139 133.534 124.629  1.00  0.00    -0.274 N 
ATOM     11  O   UNL     1     145.919 132.779 123.441  1.00  0.00    -0.269 OA
ATOM     12  C   UNL     1     142.929 134.161 124.669  1.00  0.00     0.330 A 
ATOM     13  H   UNL     1     144.560 133.174 125.516  1.00  0.00     0.175 HD
ATOM     14  O   UNL     1     142.338 134.282 125.777  1.00  0.00    -0.248 OA
ENDBRANCH   1   6
BRANCH   2  15
ATOM     15  O   UNL     1     140.310 132.964 123.609  1.00  0.00    -0.386 OA
ATOM     16  H   UNL     1     140.638 132.669 122.720  1.00  0.00     0.211 HD
ENDBRANCH   2  15
BRANCH   3  17
ATOM     17  O   UNL     1     137.943 134.305 122.000  1.00  0.00    -0.387 OA
ATOM     18  H   UNL     1     137.548 134.516 122.885  1.00  0.00     0.211 HD
ENDBRANCH   3  17
BRANCH   4  19
ATOM     19  C   UNL     1     139.892 136.249 120.292  1.00  0.00     0.191 C 
BRANCH  19  20
ATOM     20  O   UNL     1     141.229 136.085 119.901  1.00  0.00    -0.394 OA
ATOM     21  H   UNL     1     141.219 135.514 119.089  1.00  0.00     0.210 HD
ENDBRANCH  19  20
ENDBRANCH   4  19
TORSDOF 5
ENDMDL
