MODEL 1
REMARK VINA RESULT:    -5.823      0.000      0.000
REMARK INTER + INTRA:         -10.744
REMARK INTER:                 -10.248
REMARK INTRA:                  -0.496
REMARK UNBOUND:                -0.496
REMARK SMILES CCCCCCCCCCCCCCC(=O)[O-]
REMARK SMILES IDX 9 1 10 2 11 3 12 4 13 5 14 6 15 7 16 8 17 9 8 10 7 11 6 12
REMARK SMILES IDX 5 13 4 14 3 15 2 16 1 17
REMARK H PARENT
REMARK Flexibility Score: inf
ROOT
ATOM      1  C   UNL     1       2.183 -28.237   0.228  1.00  0.00     0.000 C 
ENDROOT
BRANCH   1   2
ATOM      2  C   UNL     1       2.418 -29.369   1.236  1.00  0.00     0.000 C 
BRANCH   2   3
ATOM      3  C   UNL     1       3.123 -28.848   2.494  1.00  0.00     0.000 C 
BRANCH   3   4
ATOM      4  C   UNL     1       4.336 -29.717   2.846  1.00  0.00     0.000 C 
BRANCH   4   5
ATOM      5  C   UNL     1       4.372 -30.031   4.348  1.00  0.00     0.006 C 
BRANCH   5   6
ATOM      6  C   UNL     1       3.104 -29.556   5.071  1.00  0.00     0.053 C 
BRANCH   6   7
ATOM      7  C   UNL     1       2.657 -30.536   6.112  1.00  0.00     0.041 C 
ATOM      8  O   UNL     1       1.601 -30.327   6.767  1.00  0.00    -0.550 OA
ATOM      9  O   UNL     1       3.387 -31.696   6.337  1.00  0.00    -0.550 OA
ENDBRANCH   6   7
ENDBRANCH   5   6
ENDBRANCH   4   5
ENDBRANCH   3   4
ENDBRANCH   2   3
ENDBRANCH   1   2
BRANCH   1  10
ATOM     10  C   UNL     1       0.989 -27.370   0.644  1.00  0.00     0.000 C 
BRANCH  10  11
ATOM     11  C   UNL     1       0.575 -26.422  -0.487  1.00  0.00    -0.000 C 
BRANCH  11  12
ATOM     12  C   UNL     1      -0.912 -26.053  -0.378  1.00  0.00    -0.000 C 
BRANCH  12  13
ATOM     13  C   UNL     1      -1.342 -25.002  -1.414  1.00  0.00    -0.000 C 
BRANCH  13  14
ATOM     14  C   UNL     1      -2.702 -24.333  -1.133  1.00  0.00    -0.000 C 
BRANCH  14  15
ATOM     15  C   UNL     1      -2.847 -23.801   0.310  1.00  0.00    -0.000 C 
BRANCH  15  16
ATOM     16  C   UNL     1      -4.007 -24.468   1.062  1.00  0.00    -0.003 C 
ATOM     17  C   UNL     1      -4.856 -23.432   1.794  1.00  0.00     0.004 C 
ENDBRANCH  15  16
ENDBRANCH  14  15
ENDBRANCH  13  14
ENDBRANCH  12  13
ENDBRANCH  11  12
ENDBRANCH  10  11
ENDBRANCH   1  10
TORSDOF 13
ENDMDL
MODEL 2
REMARK VINA RESULT:    -5.741      1.116      1.373
REMARK INTER + INTRA:         -10.600
REMARK INTER:                  -9.941
REMARK INTRA:                  -0.659
REMARK UNBOUND:                -0.496
REMARK SMILES CCCCCCCCCCCCCCC(=O)[O-]
REMARK SMILES IDX 9 1 10 2 11 3 12 4 13 5 14 6 15 7 16 8 17 9 8 10 7 11 6 12
REMARK SMILES IDX 5 13 4 14 3 15 2 16 1 17
REMARK H PARENT
REMARK Flexibility Score: inf
ROOT
ATOM      1  C   UNL     1       1.319 -27.741   1.088  1.00  0.00     0.000 C 
ENDROOT
BRANCH   1   2
ATOM      2  C   UNL     1       2.144 -29.022   0.913  1.00  0.00     0.000 C 
BRANCH   2   3
ATOM      3  C   UNL     1       3.541 -28.866   1.525  1.00  0.00     0.000 C 
BRANCH   3   4
ATOM      4  C   UNL     1       3.780 -29.905   2.626  1.00  0.00     0.000 C 
BRANCH   4   5
ATOM      5  C   UNL     1       3.363 -29.359   3.999  1.00  0.00     0.006 C 
BRANCH   5   6
ATOM      6  C   UNL     1       2.984 -30.477   4.979  1.00  0.00     0.053 C 
BRANCH   6   7
ATOM      7  C   UNL     1       2.167 -29.961   6.124  1.00  0.00     0.041 C 
ATOM      8  O   UNL     1       2.506 -28.902   6.716  1.00  0.00    -0.550 OA
ATOM      9  O   UNL     1       1.014 -30.629   6.515  1.00  0.00    -0.550 OA
ENDBRANCH   6   7
ENDBRANCH   5   6
ENDBRANCH   4   5
ENDBRANCH   3   4
ENDBRANCH   2   3
ENDBRANCH   1   2
BRANCH   1  10
ATOM     10  C   UNL     1       0.686 -27.308  -0.240  1.00  0.00     0.000 C 
BRANCH  10  11
ATOM     11  C   UNL     1       0.082 -25.904  -0.130  1.00  0.00    -0.000 C 
BRANCH  11  12
ATOM     12  C   UNL     1      -0.833 -25.606  -1.328  1.00  0.00    -0.000 C 
BRANCH  12  13
ATOM     13  C   UNL     1      -2.303 -25.414  -0.922  1.00  0.00    -0.000 C 
BRANCH  13  14
ATOM     14  C   UNL     1      -2.769 -26.288   0.259  1.00  0.00    -0.000 C 
BRANCH  14  15
ATOM     15  C   UNL     1      -3.844 -25.619   1.143  1.00  0.00    -0.000 C 
BRANCH  15  16
ATOM     16  C   UNL     1      -4.396 -24.331   0.515  1.00  0.00    -0.003 C 
ATOM     17  C   UNL     1      -4.215 -23.140   1.452  1.00  0.00     0.004 C 
ENDBRANCH  15  16
ENDBRANCH  14  15
ENDBRANCH  13  14
ENDBRANCH  12  13
ENDBRANCH  11  12
ENDBRANCH  10  11
ENDBRANCH   1  10
TORSDOF 13
ENDMDL
MODEL 3
REMARK VINA RESULT:    -5.728      0.933      1.211
REMARK INTER + INTRA:         -10.577
REMARK INTER:                  -9.998
REMARK INTRA:                  -0.579
REMARK UNBOUND:                -0.496
REMARK SMILES CCCCCCCCCCCCCCC(=O)[O-]
REMARK SMILES IDX 9 1 10 2 11 3 12 4 13 5 14 6 15 7 16 8 17 9 8 10 7 11 6 12
REMARK SMILES IDX 5 13 4 14 3 15 2 16 1 17
REMARK H PARENT
REMARK Flexibility Score: inf
ROOT
ATOM      1  C   UNL     1       2.192 -28.106  -0.392  1.00  0.00     0.000 C 
ENDROOT
BRANCH   1   2
ATOM      2  C   UNL     1       1.908 -28.106   1.115  1.00  0.00     0.000 C 
BRANCH   2   3
ATOM      3  C   UNL     1       2.410 -29.398   1.771  1.00  0.00     0.000 C 
BRANCH   3   4
ATOM      4  C   UNL     1       3.829 -29.220   2.323  1.00  0.00     0.000 C 
BRANCH   4   5
ATOM      5  C   UNL     1       3.879 -29.538   3.825  1.00  0.00     0.006 C 
BRANCH   5   6
ATOM      6  C   UNL     1       2.761 -30.499   4.253  1.00  0.00     0.053 C 
BRANCH   6   7
ATOM      7  C   UNL     1       2.348 -30.272   5.674  1.00  0.00     0.041 C 
ATOM      8  O   UNL     1       1.708 -31.161   6.297  1.00  0.00    -0.550 OA
ATOM      9  O   UNL     1       2.697 -29.095   6.324  1.00  0.00    -0.550 OA
ENDBRANCH   6   7
ENDBRANCH   5   6
ENDBRANCH   4   5
ENDBRANCH   3   4
ENDBRANCH   2   3
ENDBRANCH   1   2
BRANCH   1  10
ATOM     10  C   UNL     1       1.571 -26.879  -1.069  1.00  0.00     0.000 C 
BRANCH  10  11
ATOM     11  C   UNL     1       0.222 -26.522  -0.434  1.00  0.00    -0.000 C 
BRANCH  11  12
ATOM     12  C   UNL     1      -0.603 -25.624  -1.368  1.00  0.00    -0.000 C 
BRANCH  12  13
ATOM     13  C   UNL     1      -1.837 -25.020  -0.677  1.00  0.00    -0.000 C 
BRANCH  13  14
ATOM     14  C   UNL     1      -1.588 -23.679   0.039  1.00  0.00    -0.000 C 
BRANCH  14  15
ATOM     15  C   UNL     1      -2.852 -23.079   0.695  1.00  0.00    -0.000 C 
BRANCH  15  16
ATOM     16  C   UNL     1      -3.863 -24.159   1.106  1.00  0.00    -0.003 C 
ATOM     17  C   UNL     1      -5.007 -23.560   1.919  1.00  0.00     0.004 C 
ENDBRANCH  15  16
ENDBRANCH  14  15
ENDBRANCH  13  14
ENDBRANCH  12  13
ENDBRANCH  11  12
ENDBRANCH  10  11
ENDBRANCH   1  10
TORSDOF 13
ENDMDL
MODEL 4
REMARK VINA RESULT:    -5.619      1.003      1.456
REMARK INTER + INTRA:         -10.385
REMARK INTER:                  -9.885
REMARK INTRA:                  -0.500
REMARK UNBOUND:                -0.496
REMARK SMILES CCCCCCCCCCCCCCC(=O)[O-]
REMARK SMILES IDX 9 1 10 2 11 3 12 4 13 5 14 6 15 7 16 8 17 9 8 10 7 11 6 12
REMARK SMILES IDX 5 13 4 14 3 15 2 16 1 17
REMARK H PARENT
REMARK Flexibility Score: inf
ROOT
ATOM      1  C   UNL     1       1.321 -27.713   0.353  1.00  0.00     0.000 C 
ENDROOT
BRANCH   1   2
ATOM      2  C   UNL     1       2.695 -28.055  -0.235  1.00  0.00     0.000 C 
BRANCH   2   3
ATOM      3  C   UNL     1       3.538 -28.857   0.764  1.00  0.00     0.000 C 
BRANCH   3   4
ATOM      4  C   UNL     1       2.890 -28.861   2.153  1.00  0.00     0.000 C 
BRANCH   4   5
ATOM      5  C   UNL     1       3.848 -29.438   3.206  1.00  0.00     0.006 C 
BRANCH   5   6
ATOM      6  C   UNL     1       3.160 -29.656   4.560  1.00  0.00     0.053 C 
BRANCH   6   7
ATOM      7  C   UNL     1       4.033 -30.416   5.511  1.00  0.00     0.041 C 
ATOM      8  O   UNL     1       3.521 -31.052   6.470  1.00  0.00    -0.550 OA
ATOM      9  O   UNL     1       5.409 -30.450   5.320  1.00  0.00    -0.550 OA
ENDBRANCH   6   7
ENDBRANCH   5   6
ENDBRANCH   4   5
ENDBRANCH   3   4
ENDBRANCH   2   3
ENDBRANCH   1   2
BRANCH   1  10
ATOM     10  C   UNL     1       0.928 -26.267   0.029  1.00  0.00     0.000 C 
BRANCH  10  11
ATOM     11  C   UNL     1      -0.269 -26.221  -0.927  1.00  0.00    -0.000 C 
BRANCH  11  12
ATOM     12  C   UNL     1      -1.433 -25.431  -0.312  1.00  0.00    -0.000 C 
BRANCH  12  13
ATOM     13  C   UNL     1      -2.201 -24.596  -1.350  1.00  0.00    -0.000 C 
BRANCH  13  14
ATOM     14  C   UNL     1      -3.704 -24.422  -1.059  1.00  0.00    -0.000 C 
BRANCH  14  15
ATOM     15  C   UNL     1      -4.078 -24.619   0.426  1.00  0.00    -0.000 C 
BRANCH  15  16
ATOM     16  C   UNL     1      -4.116 -23.293   1.199  1.00  0.00    -0.003 C 
ATOM     17  C   UNL     1      -5.216 -23.302   2.256  1.00  0.00     0.004 C 
ENDBRANCH  15  16
ENDBRANCH  14  15
ENDBRANCH  13  14
ENDBRANCH  12  13
ENDBRANCH  11  12
ENDBRANCH  10  11
ENDBRANCH   1  10
TORSDOF 13
ENDMDL
MODEL 5
REMARK VINA RESULT:    -5.527      3.943      8.513
REMARK INTER + INTRA:         -10.222
REMARK INTER:                  -9.634
REMARK INTRA:                  -0.588
REMARK UNBOUND:                -0.496
REMARK SMILES CCCCCCCCCCCCCCC(=O)[O-]
REMARK SMILES IDX 9 1 10 2 11 3 12 4 13 5 14 6 15 7 16 8 17 9 8 10 7 11 6 12
REMARK SMILES IDX 5 13 4 14 3 15 2 16 1 17
REMARK H PARENT
REMARK Flexibility Score: inf
ROOT
ATOM      1  C   UNL     1       1.072 -27.889  -0.364  1.00  0.00     0.000 C 
ENDROOT
BRANCH   1   2
ATOM      2  C   UNL     1       0.739 -26.444   0.027  1.00  0.00     0.000 C 
BRANCH   2   3
ATOM      3  C   UNL     1      -0.740 -26.130  -0.230  1.00  0.00     0.000 C 
BRANCH   3   4
ATOM      4  C   UNL     1      -0.922 -25.378  -1.553  1.00  0.00     0.000 C 
BRANCH   4   5
ATOM      5  C   UNL     1      -2.076 -24.369  -1.459  1.00  0.00     0.006 C 
BRANCH   5   6
ATOM      6  C   UNL     1      -2.910 -24.558  -0.184  1.00  0.00     0.053 C 
BRANCH   6   7
ATOM      7  C   UNL     1      -2.884 -23.337   0.683  1.00  0.00     0.041 C 
ATOM      8  O   UNL     1      -3.901 -23.014   1.352  1.00  0.00    -0.550 OA
ATOM      9  O   UNL     1      -1.727 -22.574   0.779  1.00  0.00    -0.550 OA
ENDBRANCH   6   7
ENDBRANCH   5   6
ENDBRANCH   4   5
ENDBRANCH   3   4
ENDBRANCH   2   3
ENDBRANCH   1   2
BRANCH   1  10
ATOM     10  C   UNL     1       2.462 -28.289   0.143  1.00  0.00     0.000 C 
BRANCH  10  11
ATOM     11  C   UNL     1       2.469 -28.451   1.667  1.00  0.00    -0.000 C 
BRANCH  11  12
ATOM     12  C   UNL     1       3.651 -29.319   2.121  1.00  0.00    -0.000 C 
BRANCH  12  13
ATOM     13  C   UNL     1       3.768 -29.414   3.652  1.00  0.00    -0.000 C 
BRANCH  13  14
ATOM     14  C   UNL     1       3.693 -30.844   4.221  1.00  0.00    -0.000 C 
BRANCH  14  15
ATOM     15  C   UNL     1       3.497 -30.895   5.752  1.00  0.00    -0.000 C 
BRANCH  15  16
ATOM     16  C   UNL     1       2.549 -29.797   6.256  1.00  0.00    -0.003 C 
ATOM     17  C   UNL     1       1.135 -30.336   6.448  1.00  0.00     0.004 C 
ENDBRANCH  15  16
ENDBRANCH  14  15
ENDBRANCH  13  14
ENDBRANCH  12  13
ENDBRANCH  11  12
ENDBRANCH  10  11
ENDBRANCH   1  10
TORSDOF 13
ENDMDL
MODEL 6
REMARK VINA RESULT:    -5.500      3.968      8.445
REMARK INTER + INTRA:         -10.175
REMARK INTER:                  -9.451
REMARK INTRA:                  -0.724
REMARK UNBOUND:                -0.496
REMARK SMILES CCCCCCCCCCCCCCC(=O)[O-]
REMARK SMILES IDX 9 1 10 2 11 3 12 4 13 5 14 6 15 7 16 8 17 9 8 10 7 11 6 12
REMARK SMILES IDX 5 13 4 14 3 15 2 16 1 17
REMARK H PARENT
REMARK Flexibility Score: inf
ROOT
ATOM      1  C   UNL     1       0.246 -27.311   0.253  1.00  0.00     0.000 C 
ENDROOT
BRANCH   1   2
ATOM      2  C   UNL     1       0.612 -26.476  -0.979  1.00  0.00     0.000 C 
BRANCH   2   3
ATOM      3  C   UNL     1      -0.562 -25.589  -1.412  1.00  0.00     0.000 C 
BRANCH   3   4
ATOM      4  C   UNL     1      -1.743 -25.726  -0.445  1.00  0.00     0.000 C 
BRANCH   4   5
ATOM      5  C   UNL     1      -2.836 -24.695  -0.760  1.00  0.00     0.006 C 
BRANCH   5   6
ATOM      6  C   UNL     1      -4.015 -24.779   0.219  1.00  0.00     0.053 C 
BRANCH   6   7
ATOM      7  C   UNL     1      -4.001 -23.651   1.204  1.00  0.00     0.041 C 
ATOM      8  O   UNL     1      -3.066 -22.808   1.187  1.00  0.00    -0.550 OA
ATOM      9  O   UNL     1      -5.037 -23.512   2.119  1.00  0.00    -0.550 OA
ENDBRANCH   6   7
ENDBRANCH   5   6
ENDBRANCH   4   5
ENDBRANCH   3   4
ENDBRANCH   2   3
ENDBRANCH   1   2
BRANCH   1  10
ATOM     10  C   UNL     1       1.504 -27.772   0.998  1.00  0.00     0.000 C 
BRANCH  10  11
ATOM     11  C   UNL     1       2.612 -28.169   0.016  1.00  0.00    -0.000 C 
BRANCH  11  12
ATOM     12  C   UNL     1       3.716 -28.967   0.727  1.00  0.00    -0.000 C 
BRANCH  12  13
ATOM     13  C   UNL     1       3.447 -29.145   2.231  1.00  0.00    -0.000 C 
BRANCH  13  14
ATOM     14  C   UNL     1       4.636 -29.696   3.041  1.00  0.00    -0.000 C 
BRANCH  14  15
ATOM     15  C   UNL     1       4.242 -30.241   4.432  1.00  0.00    -0.000 C 
BRANCH  15  16
ATOM     16  C   UNL     1       2.805 -29.863   4.820  1.00  0.00    -0.003 C 
ATOM     17  C   UNL     1       2.742 -29.338   6.252  1.00  0.00     0.004 C 
ENDBRANCH  15  16
ENDBRANCH  14  15
ENDBRANCH  13  14
ENDBRANCH  12  13
ENDBRANCH  11  12
ENDBRANCH  10  11
ENDBRANCH   1  10
TORSDOF 13
ENDMDL
MODEL 7
REMARK VINA RESULT:    -5.404      1.957      3.178
REMARK INTER + INTRA:         -10.006
REMARK INTER:                  -9.175
REMARK INTRA:                  -0.831
REMARK UNBOUND:                -0.496
REMARK SMILES CCCCCCCCCCCCCCC(=O)[O-]
REMARK SMILES IDX 9 1 10 2 11 3 12 4 13 5 14 6 15 7 16 8 17 9 8 10 7 11 6 12
REMARK SMILES IDX 5 13 4 14 3 15 2 16 1 17
REMARK H PARENT
REMARK Flexibility Score: inf
ROOT
ATOM      1  C   UNL     1       3.157 -28.671   1.991  1.00  0.00     0.000 C 
ENDROOT
BRANCH   1   2
ATOM      2  C   UNL     1       3.314 -29.394   3.333  1.00  0.00     0.000 C 
BRANCH   2   3
ATOM      3  C   UNL     1       3.634 -30.880   3.125  1.00  0.00     0.000 C 
BRANCH   3   4
ATOM      4  C   UNL     1       4.536 -31.412   4.244  1.00  0.00     0.000 C 
BRANCH   4   5
ATOM      5  C   UNL     1       4.353 -30.598   5.533  1.00  0.00     0.006 C 
BRANCH   5   6
ATOM      6  C   UNL     1       3.221 -31.147   6.411  1.00  0.00     0.053 C 
BRANCH   6   7
ATOM      7  C   UNL     1       2.160 -30.119   6.659  1.00  0.00     0.041 C 
ATOM      8  O   UNL     1       2.480 -28.924   6.897  1.00  0.00    -0.550 OA
ATOM      9  O   UNL     1       0.818 -30.472   6.594  1.00  0.00    -0.550 OA
ENDBRANCH   6   7
ENDBRANCH   5   6
ENDBRANCH   4   5
ENDBRANCH   3   4
ENDBRANCH   2   3
ENDBRANCH   1   2
BRANCH   1  10
ATOM     10  C   UNL     1       4.228 -29.127   0.992  1.00  0.00     0.000 C 
BRANCH  10  11
ATOM     11  C   UNL     1       3.907 -28.633  -0.424  1.00  0.00    -0.000 C 
BRANCH  11  12
ATOM     12  C   UNL     1       2.487 -28.051  -0.493  1.00  0.00    -0.000 C 
BRANCH  12  13
ATOM     13  C   UNL     1       2.342 -26.960  -1.567  1.00  0.00    -0.000 C 
BRANCH  13  14
ATOM     14  C   UNL     1       0.954 -26.296  -1.633  1.00  0.00    -0.000 C 
BRANCH  14  15
ATOM     15  C   UNL     1       0.062 -26.592  -0.407  1.00  0.00    -0.000 C 
BRANCH  15  16
ATOM     16  C   UNL     1      -1.167 -25.674  -0.345  1.00  0.00    -0.003 C 
ATOM     17  C   UNL     1      -1.410 -24.989  -1.687  1.00  0.00     0.004 C 
ENDBRANCH  15  16
ENDBRANCH  14  15
ENDBRANCH  13  14
ENDBRANCH  12  13
ENDBRANCH  11  12
ENDBRANCH  10  11
ENDBRANCH   1  10
TORSDOF 13
ENDMDL
MODEL 8
REMARK VINA RESULT:    -5.329      4.220      8.239
REMARK INTER + INTRA:          -9.874
REMARK INTER:                  -8.949
REMARK INTRA:                  -0.924
REMARK UNBOUND:                -0.496
REMARK SMILES CCCCCCCCCCCCCCC(=O)[O-]
REMARK SMILES IDX 9 1 10 2 11 3 12 4 13 5 14 6 15 7 16 8 17 9 8 10 7 11 6 12
REMARK SMILES IDX 5 13 4 14 3 15 2 16 1 17
REMARK H PARENT
REMARK Flexibility Score: inf
ROOT
ATOM      1  C   UNL     1       3.243 -28.139  -0.702  1.00  0.00     0.000 C 
ENDROOT
BRANCH   1   2
ATOM      2  C   UNL     1       1.711 -28.085  -0.661  1.00  0.00     0.000 C 
BRANCH   2   3
ATOM      3  C   UNL     1       1.201 -26.672  -0.970  1.00  0.00     0.000 C 
BRANCH   3   4
ATOM      4  C   UNL     1       0.256 -26.175   0.129  1.00  0.00     0.000 C 
BRANCH   4   5
ATOM      5  C   UNL     1      -1.121 -26.843   0.015  1.00  0.00     0.006 C 
BRANCH   5   6
ATOM      6  C   UNL     1      -2.270 -25.840   0.187  1.00  0.00     0.053 C 
BRANCH   6   7
ATOM      7  C   UNL     1      -2.679 -25.233  -1.119  1.00  0.00     0.041 C 
ATOM      8  O   UNL     1      -2.081 -24.216  -1.559  1.00  0.00    -0.550 OA
ATOM      9  O   UNL     1      -3.698 -25.808  -1.868  1.00  0.00    -0.550 OA
ENDBRANCH   6   7
ENDBRANCH   5   6
ENDBRANCH   4   5
ENDBRANCH   3   4
ENDBRANCH   2   3
ENDBRANCH   1   2
BRANCH   1  10
ATOM     10  C   UNL     1       3.798 -28.918   0.497  1.00  0.00     0.000 C 
BRANCH  10  11
ATOM     11  C   UNL     1       2.679 -29.302   1.471  1.00  0.00    -0.000 C 
BRANCH  11  12
ATOM     12  C   UNL     1       3.065 -28.952   2.916  1.00  0.00    -0.000 C 
BRANCH  12  13
ATOM     13  C   UNL     1       4.229 -29.807   3.445  1.00  0.00    -0.000 C 
BRANCH  13  14
ATOM     14  C   UNL     1       4.103 -30.231   4.921  1.00  0.00    -0.000 C 
BRANCH  14  15
ATOM     15  C   UNL     1       3.045 -29.430   5.711  1.00  0.00    -0.000 C 
BRANCH  15  16
ATOM     16  C   UNL     1       1.959 -30.335   6.312  1.00  0.00    -0.003 C 
ATOM     17  C   UNL     1       2.018 -31.737   5.713  1.00  0.00     0.004 C 
ENDBRANCH  15  16
ENDBRANCH  14  15
ENDBRANCH  13  14
ENDBRANCH  12  13
ENDBRANCH  11  12
ENDBRANCH  10  11
ENDBRANCH   1  10
TORSDOF 13
ENDMDL
MODEL 9
REMARK VINA RESULT:    -5.284      1.572      2.620
REMARK INTER + INTRA:          -9.796
REMARK INTER:                  -9.159
REMARK INTRA:                  -0.637
REMARK UNBOUND:                -0.496
REMARK SMILES CCCCCCCCCCCCCCC(=O)[O-]
REMARK SMILES IDX 9 1 10 2 11 3 12 4 13 5 14 6 15 7 16 8 17 9 8 10 7 11 6 12
REMARK SMILES IDX 5 13 4 14 3 15 2 16 1 17
REMARK H PARENT
REMARK Flexibility Score: inf
ROOT
ATOM      1  C   UNL     1       0.890 -26.590  -0.066  1.00  0.00     0.000 C 
ENDROOT
BRANCH   1   2
ATOM      2  C   UNL     1       1.457 -27.958  -0.462  1.00  0.00     0.000 C 
BRANCH   2   3
ATOM      3  C   UNL     1       2.713 -28.291   0.353  1.00  0.00     0.000 C 
BRANCH   3   4
ATOM      4  C   UNL     1       2.409 -29.336   1.432  1.00  0.00     0.000 C 
BRANCH   4   5
ATOM      5  C   UNL     1       2.931 -28.880   2.802  1.00  0.00     0.006 C 
BRANCH   5   6
ATOM      6  C   UNL     1       4.105 -29.740   3.293  1.00  0.00     0.053 C 
BRANCH   6   7
ATOM      7  C   UNL     1       4.063 -29.943   4.776  1.00  0.00     0.041 C 
ATOM      8  O   UNL     1       4.991 -30.568   5.355  1.00  0.00    -0.550 OA
ATOM      9  O   UNL     1       3.019 -29.415   5.524  1.00  0.00    -0.550 OA
ENDBRANCH   6   7
ENDBRANCH   5   6
ENDBRANCH   4   5
ENDBRANCH   3   4
ENDBRANCH   2   3
ENDBRANCH   1   2
BRANCH   1  10
ATOM     10  C   UNL     1      -0.617 -26.520  -0.339  1.00  0.00     0.000 C 
BRANCH  10  11
ATOM     11  C   UNL     1      -0.943 -25.415  -1.351  1.00  0.00    -0.000 C 
BRANCH  11  12
ATOM     12  C   UNL     1      -2.397 -24.943  -1.199  1.00  0.00    -0.000 C 
BRANCH  12  13
ATOM     13  C   UNL     1      -2.720 -24.459   0.225  1.00  0.00    -0.000 C 
BRANCH  13  14
ATOM     14  C   UNL     1      -3.938 -25.138   0.879  1.00  0.00    -0.000 C 
BRANCH  14  15
ATOM     15  C   UNL     1      -5.256 -24.939   0.098  1.00  0.00    -0.000 C 
BRANCH  15  16
ATOM     16  C   UNL     1      -5.774 -26.248  -0.515  1.00  0.00    -0.003 C 
ATOM     17  C   UNL     1      -6.473 -25.994  -1.847  1.00  0.00     0.004 C 
ENDBRANCH  15  16
ENDBRANCH  14  15
ENDBRANCH  13  14
ENDBRANCH  12  13
ENDBRANCH  11  12
ENDBRANCH  10  11
ENDBRANCH   1  10
TORSDOF 13
ENDMDL
