MODEL 1
REMARK VINA RESULT:    -4.815      0.000      0.000
REMARK INTER + INTRA:          -5.474
REMARK INTER:                  -5.237
REMARK INTRA:                  -0.237
REMARK UNBOUND:                -0.237
REMARK SMILES O=C([O-])c1ccccc1O
REMARK SMILES IDX 4 1 9 2 5 3 8 4 6 5 7 6 2 7 1 8 3 9 10 10
REMARK H PARENT 10 11
REMARK Flexibility Score: inf
ROOT
ATOM      1  C   UNL     1      20.740   0.218 -20.349  1.00  0.00     0.039 A 
ATOM      2  C   UNL     1      21.199   0.269 -19.011  1.00  0.00     0.124 A 
ATOM      3  C   UNL     1      19.565  -0.503 -20.637  1.00  0.00     0.014 A 
ATOM      4  C   UNL     1      20.484  -0.393 -18.001  1.00  0.00     0.047 A 
ATOM      5  C   UNL     1      18.864  -1.158 -19.621  1.00  0.00     0.001 A 
ATOM      6  C   UNL     1      19.322  -1.103 -18.306  1.00  0.00     0.004 A 
ENDROOT
BRANCH   1   7
ATOM      7  C   UNL     1      21.459   0.902 -21.454  1.00  0.00     0.075 C 
ATOM      8  O   UNL     1      21.652   2.146 -21.431  1.00  0.00    -0.545 OA
ATOM      9  O   UNL     1      21.935   0.173 -22.538  1.00  0.00    -0.545 OA
ENDBRANCH   1   7
BRANCH   2  10
ATOM     10  O   UNL     1      22.357   0.972 -18.680  1.00  0.00    -0.507 OA
ATOM     11  H   UNL     1      22.525   1.913 -19.018  1.00  0.00     0.293 HD
ENDBRANCH   2  10
TORSDOF 2
ENDMDL
MODEL 2
REMARK VINA RESULT:    -4.731      1.511      2.534
REMARK INTER + INTRA:          -5.383
REMARK INTER:                  -5.173
REMARK INTRA:                  -0.210
REMARK UNBOUND:                -0.237
REMARK SMILES O=C([O-])c1ccccc1O
REMARK SMILES IDX 4 1 9 2 5 3 8 4 6 5 7 6 2 7 1 8 3 9 10 10
REMARK H PARENT 10 11
REMARK Flexibility Score: inf
ROOT
ATOM      1  C   UNL     1      21.284   0.415 -20.998  1.00  0.00     0.039 A 
ATOM      2  C   UNL     1      20.792  -0.862 -21.356  1.00  0.00     0.124 A 
ATOM      3  C   UNL     1      21.286   0.786 -19.639  1.00  0.00     0.014 A 
ATOM      4  C   UNL     1      20.315  -1.732 -20.363  1.00  0.00     0.047 A 
ATOM      5  C   UNL     1      20.809  -0.090 -18.661  1.00  0.00     0.001 A 
ATOM      6  C   UNL     1      20.325  -1.346 -19.022  1.00  0.00     0.004 A 
ENDROOT
BRANCH   1   7
ATOM      7  C   UNL     1      21.800   1.372 -22.011  1.00  0.00     0.075 C 
ATOM      8  O   UNL     1      22.228   0.970 -23.125  1.00  0.00    -0.545 OA
ATOM      9  O   UNL     1      21.817   2.736 -21.742  1.00  0.00    -0.545 OA
ENDBRANCH   1   7
BRANCH   2  10
ATOM     10  O   UNL     1      20.772  -1.271 -22.690  1.00  0.00    -0.507 OA
ATOM     11  H   UNL     1      20.964  -0.627 -23.448  1.00  0.00     0.293 HD
ENDBRANCH   2  10
TORSDOF 2
ENDMDL
MODEL 3
REMARK VINA RESULT:    -4.543      2.224      3.740
REMARK INTER + INTRA:          -5.178
REMARK INTER:                  -4.924
REMARK INTRA:                  -0.254
REMARK UNBOUND:                -0.237
REMARK SMILES O=C([O-])c1ccccc1O
REMARK SMILES IDX 4 1 9 2 5 3 8 4 6 5 7 6 2 7 1 8 3 9 10 10
REMARK H PARENT 10 11
REMARK Flexibility Score: inf
ROOT
ATOM      1  C   UNL     1      20.634  -0.529 -20.867  1.00  0.00     0.039 A 
ATOM      2  C   UNL     1      21.176   0.758 -20.633  1.00  0.00     0.124 A 
ATOM      3  C   UNL     1      20.834  -1.130 -22.125  1.00  0.00     0.014 A 
ATOM      4  C   UNL     1      21.895   1.409 -21.647  1.00  0.00     0.047 A 
ATOM      5  C   UNL     1      21.552  -0.470 -23.125  1.00  0.00     0.001 A 
ATOM      6  C   UNL     1      22.081   0.797 -22.887  1.00  0.00     0.004 A 
ENDROOT
BRANCH   1   7
ATOM      7  C   UNL     1      19.866  -1.260 -19.827  1.00  0.00     0.075 C 
ATOM      8  O   UNL     1      20.134  -2.458 -19.545  1.00  0.00    -0.545 OA
ATOM      9  O   UNL     1      18.833  -0.629 -19.145  1.00  0.00    -0.545 OA
ENDBRANCH   1   7
BRANCH   2  10
ATOM     10  O   UNL     1      21.003   1.391 -19.402  1.00  0.00    -0.507 OA
ATOM     11  H   UNL     1      20.763   0.874 -18.565  1.00  0.00     0.293 HD
ENDBRANCH   2  10
TORSDOF 2
ENDMDL
MODEL 4
REMARK VINA RESULT:    -4.269      2.289      3.831
REMARK INTER + INTRA:          -4.880
REMARK INTER:                  -4.630
REMARK INTRA:                  -0.250
REMARK UNBOUND:                -0.237
REMARK SMILES O=C([O-])c1ccccc1O
REMARK SMILES IDX 4 1 9 2 5 3 8 4 6 5 7 6 2 7 1 8 3 9 10 10
REMARK H PARENT 10 11
REMARK Flexibility Score: inf
ROOT
ATOM      1  C   UNL     1      21.031  -0.123 -19.501  1.00  0.00     0.039 A 
ATOM      2  C   UNL     1      20.649  -1.217 -20.313  1.00  0.00     0.124 A 
ATOM      3  C   UNL     1      21.513   1.046 -20.121  1.00  0.00     0.014 A 
ATOM      4  C   UNL     1      20.756  -1.124 -21.709  1.00  0.00     0.047 A 
ATOM      5  C   UNL     1      21.615   1.125 -21.512  1.00  0.00     0.001 A 
ATOM      6  C   UNL     1      21.237   0.042 -22.305  1.00  0.00     0.004 A 
ENDROOT
BRANCH   1   7
ATOM      7  C   UNL     1      20.936  -0.170 -18.020  1.00  0.00     0.075 C 
ATOM      8  O   UNL     1      21.929   0.109 -17.296  1.00  0.00    -0.545 OA
ATOM      9  O   UNL     1      19.742  -0.526 -17.404  1.00  0.00    -0.545 OA
ENDBRANCH   1   7
BRANCH   2  10
ATOM     10  O   UNL     1      20.165  -2.394 -19.741  1.00  0.00    -0.507 OA
ATOM     11  H   UNL     1      20.788  -3.116 -19.398  1.00  0.00     0.293 HD
ENDBRANCH   2  10
TORSDOF 2
ENDMDL
MODEL 5
REMARK VINA RESULT:    -4.257     17.301     18.430
REMARK INTER + INTRA:          -4.868
REMARK INTER:                  -4.614
REMARK INTRA:                  -0.254
REMARK UNBOUND:                -0.237
REMARK SMILES O=C([O-])c1ccccc1O
REMARK SMILES IDX 4 1 9 2 5 3 8 4 6 5 7 6 2 7 1 8 3 9 10 10
REMARK H PARENT 10 11
REMARK Flexibility Score: inf
ROOT
ATOM      1  C   UNL     1       6.741   4.108  -9.194  1.00  0.00     0.039 A 
ATOM      2  C   UNL     1       6.691   3.102  -8.199  1.00  0.00     0.124 A 
ATOM      3  C   UNL     1       5.710   5.067  -9.241  1.00  0.00     0.014 A 
ATOM      4  C   UNL     1       5.627   3.075  -7.284  1.00  0.00     0.047 A 
ATOM      5  C   UNL     1       4.657   5.027  -8.324  1.00  0.00     0.001 A 
ATOM      6  C   UNL     1       4.615   4.033  -7.347  1.00  0.00     0.004 A 
ENDROOT
BRANCH   1   7
ATOM      7  C   UNL     1       7.845   4.181 -10.184  1.00  0.00     0.075 C 
ATOM      8  O   UNL     1       7.610   4.403 -11.402  1.00  0.00    -0.545 OA
ATOM      9  O   UNL     1       9.163   4.006  -9.780  1.00  0.00    -0.545 OA
ENDBRANCH   1   7
BRANCH   2  10
ATOM     10  O   UNL     1       7.691   2.133  -8.114  1.00  0.00    -0.507 OA
ATOM     11  H   UNL     1       8.434   2.072  -8.800  1.00  0.00     0.293 HD
ENDBRANCH   2  10
TORSDOF 2
ENDMDL
MODEL 6
REMARK VINA RESULT:    -4.236     17.578     18.738
REMARK INTER + INTRA:          -4.844
REMARK INTER:                  -4.602
REMARK INTRA:                  -0.242
REMARK UNBOUND:                -0.237
REMARK SMILES O=C([O-])c1ccccc1O
REMARK SMILES IDX 4 1 9 2 5 3 8 4 6 5 7 6 2 7 1 8 3 9 10 10
REMARK H PARENT 10 11
REMARK Flexibility Score: inf
ROOT
ATOM      1  C   UNL     1       8.683  -6.817  -7.492  1.00  0.00     0.039 A 
ATOM      2  C   UNL     1      10.069  -6.564  -7.357  1.00  0.00     0.124 A 
ATOM      3  C   UNL     1       8.269  -8.033  -8.071  1.00  0.00     0.014 A 
ATOM      4  C   UNL     1      11.001  -7.516  -7.797  1.00  0.00     0.047 A 
ATOM      5  C   UNL     1       9.208  -8.972  -8.506  1.00  0.00     0.001 A 
ATOM      6  C   UNL     1      10.571  -8.715  -8.369  1.00  0.00     0.004 A 
ENDROOT
BRANCH   1   7
ATOM      7  C   UNL     1       7.657  -5.843  -7.042  1.00  0.00     0.075 C 
ATOM      8  O   UNL     1       6.788  -5.400  -7.839  1.00  0.00    -0.545 OA
ATOM      9  O   UNL     1       7.639  -5.402  -5.723  1.00  0.00    -0.545 OA
ENDBRANCH   1   7
BRANCH   2  10
ATOM     10  O   UNL     1      10.524  -5.374  -6.788  1.00  0.00    -0.507 OA
ATOM     11  H   UNL     1      10.363  -5.153  -5.812  1.00  0.00     0.293 HD
ENDBRANCH   2  10
TORSDOF 2
ENDMDL
MODEL 7
REMARK VINA RESULT:    -4.225     17.092     18.806
REMARK INTER + INTRA:          -4.833
REMARK INTER:                  -4.582
REMARK INTRA:                  -0.252
REMARK UNBOUND:                -0.237
REMARK SMILES O=C([O-])c1ccccc1O
REMARK SMILES IDX 4 1 9 2 5 3 8 4 6 5 7 6 2 7 1 8 3 9 10 10
REMARK H PARENT 10 11
REMARK Flexibility Score: inf
ROOT
ATOM      1  C   UNL     1       8.666  -6.742  -7.317  1.00  0.00     0.039 A 
ATOM      2  C   UNL     1       9.863  -6.009  -7.496  1.00  0.00     0.124 A 
ATOM      3  C   UNL     1       8.169  -7.504  -8.393  1.00  0.00     0.014 A 
ATOM      4  C   UNL     1      10.531  -6.051  -8.730  1.00  0.00     0.047 A 
ATOM      5  C   UNL     1       8.845  -7.536  -9.615  1.00  0.00     0.001 A 
ATOM      6  C   UNL     1      10.023  -6.811  -9.783  1.00  0.00     0.004 A 
ENDROOT
BRANCH   1   7
ATOM      7  C   UNL     1       7.921  -6.731  -6.032  1.00  0.00     0.075 C 
ATOM      8  O   UNL     1       7.424  -7.788  -5.561  1.00  0.00    -0.545 OA
ATOM      9  O   UNL     1       7.760  -5.546  -5.324  1.00  0.00    -0.545 OA
ENDBRANCH   1   7
BRANCH   2  10
ATOM     10  O   UNL     1      10.391  -5.241  -6.458  1.00  0.00    -0.507 OA
ATOM     11  H   UNL     1      11.373  -5.283  -6.210  1.00  0.00     0.293 HD
ENDBRANCH   2  10
TORSDOF 2
ENDMDL
MODEL 8
REMARK VINA RESULT:    -4.123     19.128     20.205
REMARK INTER + INTRA:          -4.722
REMARK INTER:                  -4.471
REMARK INTRA:                  -0.251
REMARK UNBOUND:                -0.237
REMARK SMILES O=C([O-])c1ccccc1O
REMARK SMILES IDX 4 1 9 2 5 3 8 4 6 5 7 6 2 7 1 8 3 9 10 10
REMARK H PARENT 10 11
REMARK Flexibility Score: inf
ROOT
ATOM      1  C   UNL     1       4.688   5.544  -8.781  1.00  0.00     0.039 A 
ATOM      2  C   UNL     1       5.878   4.836  -9.074  1.00  0.00     0.124 A 
ATOM      3  C   UNL     1       3.882   5.103  -7.714  1.00  0.00     0.014 A 
ATOM      4  C   UNL     1       6.234   3.717  -8.306  1.00  0.00     0.047 A 
ATOM      5  C   UNL     1       4.248   3.987  -6.957  1.00  0.00     0.001 A 
ATOM      6  C   UNL     1       5.421   3.295  -7.253  1.00  0.00     0.004 A 
ENDROOT
BRANCH   1   7
ATOM      7  C   UNL     1       4.268   6.735  -9.563  1.00  0.00     0.075 C 
ATOM      8  O   UNL     1       4.258   6.714 -10.822  1.00  0.00    -0.545 OA
ATOM      9  O   UNL     1       3.875   7.899  -8.912  1.00  0.00    -0.545 OA
ENDBRANCH   1   7
BRANCH   2  10
ATOM     10  O   UNL     1       6.707   5.238 -10.122  1.00  0.00    -0.507 OA
ATOM     11  H   UNL     1       6.517   4.977 -11.083  1.00  0.00     0.293 HD
ENDBRANCH   2  10
TORSDOF 2
ENDMDL
MODEL 9
REMARK VINA RESULT:    -4.022     16.425     17.836
REMARK INTER + INTRA:          -4.612
REMARK INTER:                  -4.364
REMARK INTRA:                  -0.249
REMARK UNBOUND:                -0.237
REMARK SMILES O=C([O-])c1ccccc1O
REMARK SMILES IDX 4 1 9 2 5 3 8 4 6 5 7 6 2 7 1 8 3 9 10 10
REMARK H PARENT 10 11
REMARK Flexibility Score: inf
ROOT
ATOM      1  C   UNL     1      12.507   3.678  -5.109  1.00  0.00     0.039 A 
ATOM      2  C   UNL     1      11.759   2.734  -4.366  1.00  0.00     0.124 A 
ATOM      3  C   UNL     1      12.483   5.029  -4.709  1.00  0.00     0.014 A 
ATOM      4  C   UNL     1      11.010   3.153  -3.255  1.00  0.00     0.047 A 
ATOM      5  C   UNL     1      11.734   5.431  -3.601  1.00  0.00     0.001 A 
ATOM      6  C   UNL     1      10.999   4.495  -2.875  1.00  0.00     0.004 A 
ENDROOT
BRANCH   1   7
ATOM      7  C   UNL     1      13.315   3.287  -6.292  1.00  0.00     0.075 C 
ATOM      8  O   UNL     1      12.806   2.628  -7.236  1.00  0.00    -0.545 OA
ATOM      9  O   UNL     1      14.656   3.645  -6.374  1.00  0.00    -0.545 OA
ENDBRANCH   1   7
BRANCH   2  10
ATOM     10  O   UNL     1      11.754   1.386  -4.725  1.00  0.00    -0.507 OA
ATOM     11  H   UNL     1      12.075   0.664  -4.090  1.00  0.00     0.293 HD
ENDBRANCH   2  10
TORSDOF 2
ENDMDL
