MODEL 1
REMARK VINA RESULT:    -5.575      0.000      0.000
REMARK INTER + INTRA:          -9.189
REMARK INTER:                  -8.672
REMARK INTRA:                  -0.518
REMARK UNBOUND:                -0.518
REMARK SMILES COc1cc(CNC(=O)CCCCC=CC(C)C)ccc1O
REMARK SMILES IDX 11 1 12 2 13 3 14 4 15 5 16 6 17 7 18 8 10 9 8 10 9 11 7 12
REMARK SMILES IDX 6 14 5 15 4 16 19 17 3 18 20 19 21 20 2 21 1 22 22 23
REMARK H PARENT 7 13 22 24
REMARK Flexibility Score: inf
ROOT
ATOM      1  C   UNL     1     115.517 256.509 346.128  1.00  0.00     0.010 C 
ENDROOT
BRANCH   1   2
ATOM      2  C   UNL     1     115.601 258.001 346.480  1.00  0.00     0.005 C 
BRANCH   2   3
ATOM      3  C   UNL     1     116.940 258.334 347.150  1.00  0.00     0.027 C 
BRANCH   3   4
ATOM      4  C   UNL     1     116.740 258.788 348.569  1.00  0.00    -0.031 C 
ATOM      5  C   UNL     1     116.730 257.918 349.591  1.00  0.00    -0.028 C 
BRANCH   5   6
ATOM      6  C   UNL     1     116.534 258.381 351.016  1.00  0.00     0.005 C 
ATOM      7  C   UNL     1     115.878 257.279 351.857  1.00  0.00     0.012 C 
ATOM      8  C   UNL     1     117.874 258.796 351.634  1.00  0.00     0.012 C 
ENDBRANCH   5   6
ENDBRANCH   3   4
ENDBRANCH   2   3
ENDBRANCH   1   2
BRANCH   1   9
ATOM      9  C   UNL     1     114.213 256.155 345.401  1.00  0.00     0.100 C 
BRANCH   9  10
ATOM     10  C   UNL     1     114.422 255.075 344.380  1.00  0.00     0.220 C 
ATOM     11  O   UNL     1     113.869 253.953 344.543  1.00  0.00    -0.275 OA
ATOM     12  N   UNL     1     115.211 255.331 343.209  1.00  0.00    -0.352 N 
ATOM     13  H   UNL     1     115.639 256.276 343.082  1.00  0.00     0.163 HD
BRANCH  12  14
ATOM     14  C   UNL     1     115.402 254.335 342.158  1.00  0.00     0.151 C 
BRANCH  14  15
ATOM     15  C   UNL     1     116.473 254.782 341.200  1.00  0.00    -0.025 A 
ATOM     16  C   UNL     1     116.122 255.475 340.031  1.00  0.00     0.056 A 
ATOM     17  C   UNL     1     117.825 254.533 341.475  1.00  0.00     0.009 A 
ATOM     18  C   UNL     1     117.116 255.916 339.133  1.00  0.00     0.160 A 
ATOM     19  C   UNL     1     118.813 254.967 340.591  1.00  0.00     0.050 A 
ATOM     20  C   UNL     1     118.468 255.654 339.423  1.00  0.00     0.157 A 
BRANCH  18  21
ATOM     21  O   UNL     1     116.797 256.611 337.956  1.00  0.00    -0.493 OA
ATOM     22  C   UNL     1     115.489 257.050 337.604  1.00  0.00     0.278 C 
ENDBRANCH  18  21
BRANCH  20  23
ATOM     23  O   UNL     1     119.482 256.072 338.562  1.00  0.00    -0.504 OA
ATOM     24  H   UNL     1     119.602 255.677 337.637  1.00  0.00     0.293 HD
ENDBRANCH  20  23
ENDBRANCH  14  15
ENDBRANCH  12  14
ENDBRANCH   9  10
ENDBRANCH   1   9
TORSDOF 10
ENDMDL
MODEL 2
REMARK VINA RESULT:    -5.531      2.717     10.448
REMARK INTER + INTRA:          -9.121
REMARK INTER:                  -8.598
REMARK INTRA:                  -0.523
REMARK UNBOUND:                -0.518
REMARK SMILES COc1cc(CNC(=O)CCCCC=CC(C)C)ccc1O
REMARK SMILES IDX 11 1 12 2 13 3 14 4 15 5 16 6 17 7 18 8 10 9 8 10 9 11 7 12
REMARK SMILES IDX 6 14 5 15 4 16 19 17 3 18 20 19 21 20 2 21 1 22 22 23
REMARK H PARENT 7 13 22 24
REMARK Flexibility Score: inf
ROOT
ATOM      1  C   UNL     1     115.490 256.442 337.862  1.00  0.00     0.010 C 
ENDROOT
BRANCH   1   2
ATOM      2  C   UNL     1     114.816 257.770 337.489  1.00  0.00     0.005 C 
BRANCH   2   3
ATOM      3  C   UNL     1     113.511 257.528 336.720  1.00  0.00     0.027 C 
BRANCH   3   4
ATOM      4  C   UNL     1     113.648 257.932 335.278  1.00  0.00    -0.031 C 
ATOM      5  C   UNL     1     113.440 257.058 334.280  1.00  0.00    -0.028 C 
BRANCH   5   6
ATOM      6  C   UNL     1     113.574 257.472 332.833  1.00  0.00     0.005 C 
ATOM      7  C   UNL     1     114.776 256.777 332.182  1.00  0.00     0.012 C 
ATOM      8  C   UNL     1     112.290 257.147 332.062  1.00  0.00     0.012 C 
ENDBRANCH   5   6
ENDBRANCH   3   4
ENDBRANCH   2   3
ENDBRANCH   1   2
BRANCH   1   9
ATOM      9  C   UNL     1     116.947 256.632 338.306  1.00  0.00     0.100 C 
BRANCH   9  10
ATOM     10  C   UNL     1     117.300 255.732 339.453  1.00  0.00     0.220 C 
ATOM     11  O   UNL     1     118.473 255.279 339.546  1.00  0.00    -0.275 OA
ATOM     12  N   UNL     1     116.322 255.424 340.457  1.00  0.00    -0.352 N 
ATOM     13  H   UNL     1     115.363 255.830 340.373  1.00  0.00     0.163 HD
BRANCH  12  14
ATOM     14  C   UNL     1     116.626 254.598 341.622  1.00  0.00     0.151 C 
BRANCH  14  15
ATOM     15  C   UNL     1     115.442 254.543 342.549  1.00  0.00    -0.025 A 
ATOM     16  C   UNL     1     115.412 255.351 343.697  1.00  0.00     0.056 A 
ATOM     17  C   UNL     1     114.354 253.706 342.267  1.00  0.00     0.009 A 
ATOM     18  C   UNL     1     114.301 255.323 344.564  1.00  0.00     0.160 A 
ATOM     19  C   UNL     1     113.252 253.673 343.122  1.00  0.00     0.050 A 
ATOM     20  C   UNL     1     113.219 254.474 344.268  1.00  0.00     0.157 A 
BRANCH  18  21
ATOM     21  O   UNL     1     114.241 256.119 345.719  1.00  0.00    -0.493 OA
ATOM     22  C   UNL     1     115.355 256.796 346.295  1.00  0.00     0.278 C 
ENDBRANCH  18  21
BRANCH  20  23
ATOM     23  O   UNL     1     112.102 254.415 345.100  1.00  0.00    -0.504 OA
ATOM     24  H   UNL     1     111.163 254.303 344.737  1.00  0.00     0.293 HD
ENDBRANCH  20  23
ENDBRANCH  14  15
ENDBRANCH  12  14
ENDBRANCH   9  10
ENDBRANCH   1   9
TORSDOF 10
ENDMDL
MODEL 3
REMARK VINA RESULT:    -5.351      4.188      7.245
REMARK INTER + INTRA:          -8.841
REMARK INTER:                  -8.223
REMARK INTRA:                  -0.618
REMARK UNBOUND:                -0.518
REMARK SMILES COc1cc(CNC(=O)CCCCC=CC(C)C)ccc1O
REMARK SMILES IDX 11 1 12 2 13 3 14 4 15 5 16 6 17 7 18 8 10 9 8 10 9 11 7 12
REMARK SMILES IDX 6 14 5 15 4 16 19 17 3 18 20 19 21 20 2 21 1 22 22 23
REMARK H PARENT 7 13 22 24
REMARK Flexibility Score: inf
ROOT
ATOM      1  C   UNL     1     117.712 254.842 340.469  1.00  0.00     0.010 C 
ENDROOT
BRANCH   1   2
ATOM      2  C   UNL     1     116.631 255.381 341.417  1.00  0.00     0.005 C 
BRANCH   2   3
ATOM      3  C   UNL     1     115.616 254.288 341.772  1.00  0.00     0.027 C 
BRANCH   3   4
ATOM      4  C   UNL     1     114.758 254.701 342.936  1.00  0.00    -0.031 C 
ATOM      5  C   UNL     1     113.561 254.138 343.162  1.00  0.00    -0.028 C 
BRANCH   5   6
ATOM      6  C   UNL     1     112.706 254.553 344.337  1.00  0.00     0.005 C 
ATOM      7  C   UNL     1     113.527 255.375 345.338  1.00  0.00     0.012 C 
ATOM      8  C   UNL     1     111.491 255.356 343.858  1.00  0.00     0.012 C 
ENDBRANCH   5   6
ENDBRANCH   3   4
ENDBRANCH   2   3
ENDBRANCH   1   2
BRANCH   1   9
ATOM      9  C   UNL     1     117.283 254.912 338.997  1.00  0.00     0.100 C 
BRANCH   9  10
ATOM     10  C   UNL     1     116.811 256.286 338.621  1.00  0.00     0.220 C 
ATOM     11  O   UNL     1     117.593 257.267 338.750  1.00  0.00    -0.275 OA
ATOM     12  N   UNL     1     115.495 256.475 338.080  1.00  0.00    -0.352 N 
ATOM     13  H   UNL     1     114.873 255.644 337.957  1.00  0.00     0.163 HD
BRANCH  12  14
ATOM     14  C   UNL     1     115.004 257.781 337.646  1.00  0.00     0.151 C 
BRANCH  14  15
ATOM     15  C   UNL     1     114.208 257.646 336.376  1.00  0.00    -0.025 A 
ATOM     16  C   UNL     1     114.528 258.439 335.262  1.00  0.00     0.056 A 
ATOM     17  C   UNL     1     113.162 256.719 336.285  1.00  0.00     0.009 A 
ATOM     18  C   UNL     1     113.802 258.311 334.060  1.00  0.00     0.160 A 
ATOM     19  C   UNL     1     112.440 256.588 335.098  1.00  0.00     0.050 A 
ATOM     20  C   UNL     1     112.752 257.378 333.988  1.00  0.00     0.157 A 
BRANCH  18  21
ATOM     21  O   UNL     1     114.097 259.089 332.929  1.00  0.00    -0.493 OA
ATOM     22  C   UNL     1     115.333 259.053 332.222  1.00  0.00     0.278 C 
ENDBRANCH  18  21
BRANCH  20  23
ATOM     23  O   UNL     1     112.009 257.220 332.818  1.00  0.00    -0.504 OA
ATOM     24  H   UNL     1     112.388 256.771 331.994  1.00  0.00     0.293 HD
ENDBRANCH  20  23
ENDBRANCH  14  15
ENDBRANCH  12  14
ENDBRANCH   9  10
ENDBRANCH   1   9
TORSDOF 10
ENDMDL
MODEL 4
REMARK VINA RESULT:    -4.204      2.549      5.181
REMARK INTER + INTRA:          -7.056
REMARK INTER:                  -6.461
REMARK INTRA:                  -0.595
REMARK UNBOUND:                -0.518
REMARK SMILES COc1cc(CNC(=O)CCCCC=CC(C)C)ccc1O
REMARK SMILES IDX 11 1 12 2 13 3 14 4 15 5 16 6 17 7 18 8 10 9 8 10 9 11 7 12
REMARK SMILES IDX 6 14 5 15 4 16 19 17 3 18 20 19 21 20 2 21 1 22 22 23
REMARK H PARENT 7 13 22 24
REMARK Flexibility Score: inf
ROOT
ATOM      1  C   UNL     1     115.488 255.303 342.461  1.00  0.00     0.010 C 
ENDROOT
BRANCH   1   2
ATOM      2  C   UNL     1     115.243 254.620 343.814  1.00  0.00     0.005 C 
BRANCH   2   3
ATOM      3  C   UNL     1     113.975 255.165 344.483  1.00  0.00     0.027 C 
BRANCH   3   4
ATOM      4  C   UNL     1     114.298 256.289 345.426  1.00  0.00    -0.031 C 
ATOM      5  C   UNL     1     115.505 256.398 346.004  1.00  0.00    -0.028 C 
BRANCH   5   6
ATOM      6  C   UNL     1     115.826 257.534 346.948  1.00  0.00     0.005 C 
ATOM      7  C   UNL     1     117.191 257.316 347.611  1.00  0.00     0.012 C 
ATOM      8  C   UNL     1     115.804 258.872 346.201  1.00  0.00     0.012 C 
ENDBRANCH   5   6
ENDBRANCH   3   4
ENDBRANCH   2   3
ENDBRANCH   1   2
BRANCH   1   9
ATOM      9  C   UNL     1     116.631 254.645 341.675  1.00  0.00     0.100 C 
BRANCH   9  10
ATOM     10  C   UNL     1     117.016 255.455 340.472  1.00  0.00     0.220 C 
ATOM     11  O   UNL     1     118.065 256.154 340.507  1.00  0.00    -0.275 OA
ATOM     12  N   UNL     1     116.220 255.401 339.280  1.00  0.00    -0.352 N 
ATOM     13  H   UNL     1     115.368 254.795 339.265  1.00  0.00     0.163 HD
BRANCH  12  14
ATOM     14  C   UNL     1     116.578 256.126 338.063  1.00  0.00     0.151 C 
BRANCH  14  15
ATOM     15  C   UNL     1     115.393 256.893 337.542  1.00  0.00    -0.025 A 
ATOM     16  C   UNL     1     114.640 256.380 336.473  1.00  0.00     0.056 A 
ATOM     17  C   UNL     1     115.016 258.109 338.129  1.00  0.00     0.009 A 
ATOM     18  C   UNL     1     113.517 257.079 335.987  1.00  0.00     0.160 A 
ATOM     19  C   UNL     1     113.905 258.806 337.652  1.00  0.00     0.050 A 
ATOM     20  C   UNL     1     113.156 258.300 336.585  1.00  0.00     0.157 A 
BRANCH  18  21
ATOM     21  O   UNL     1     112.745 256.593 334.920  1.00  0.00    -0.493 OA
ATOM     22  C   UNL     1     112.858 257.035 333.571  1.00  0.00     0.278 C 
ENDBRANCH  18  21
BRANCH  20  23
ATOM     23  O   UNL     1     112.053 259.024 336.134  1.00  0.00    -0.504 OA
ATOM     24  H   UNL     1     111.103 258.695 336.257  1.00  0.00     0.293 HD
ENDBRANCH  20  23
ENDBRANCH  14  15
ENDBRANCH  12  14
ENDBRANCH   9  10
ENDBRANCH   1   9
TORSDOF 10
ENDMDL
MODEL 5
REMARK VINA RESULT:    -3.451      4.564      6.648
REMARK INTER + INTRA:          -5.885
REMARK INTER:                  -5.123
REMARK INTRA:                  -0.762
REMARK UNBOUND:                -0.518
REMARK SMILES COc1cc(CNC(=O)CCCCC=CC(C)C)ccc1O
REMARK SMILES IDX 11 1 12 2 13 3 14 4 15 5 16 6 17 7 18 8 10 9 8 10 9 11 7 12
REMARK SMILES IDX 6 14 5 15 4 16 19 17 3 18 20 19 21 20 2 21 1 22 22 23
REMARK H PARENT 7 13 22 24
REMARK Flexibility Score: inf
ROOT
ATOM      1  C   UNL     1     116.268 254.465 341.410  1.00  0.00     0.010 C 
ENDROOT
BRANCH   1   2
ATOM      2  C   UNL     1     115.550 255.410 342.383  1.00  0.00     0.005 C 
BRANCH   2   3
ATOM      3  C   UNL     1     115.358 254.748 343.753  1.00  0.00     0.027 C 
BRANCH   3   4
ATOM      4  C   UNL     1     113.914 254.772 344.170  1.00  0.00    -0.031 C 
ATOM      5  C   UNL     1     112.924 254.528 343.296  1.00  0.00    -0.028 C 
BRANCH   5   6
ATOM      6  C   UNL     1     111.475 254.549 343.724  1.00  0.00     0.005 C 
ATOM      7  C   UNL     1     111.336 254.102 345.184  1.00  0.00     0.012 C 
ATOM      8  C   UNL     1     110.882 255.950 343.537  1.00  0.00     0.012 C 
ENDBRANCH   5   6
ENDBRANCH   3   4
ENDBRANCH   2   3
ENDBRANCH   1   2
BRANCH   1   9
ATOM      9  C   UNL     1     117.667 254.971 341.033  1.00  0.00     0.100 C 
BRANCH   9  10
ATOM     10  C   UNL     1     117.706 255.506 339.631  1.00  0.00     0.220 C 
ATOM     11  O   UNL     1     118.819 255.763 339.097  1.00  0.00    -0.275 OA
ATOM     12  N   UNL     1     116.489 255.683 338.893  1.00  0.00    -0.352 N 
ATOM     13  H   UNL     1     115.579 255.439 339.347  1.00  0.00     0.163 HD
BRANCH  12  14
ATOM     14  C   UNL     1     116.471 256.148 337.508  1.00  0.00     0.151 C 
BRANCH  14  15
ATOM     15  C   UNL     1     115.219 256.938 337.236  1.00  0.00    -0.025 A 
ATOM     16  C   UNL     1     114.373 256.569 336.179  1.00  0.00     0.056 A 
ATOM     17  C   UNL     1     114.875 258.030 338.045  1.00  0.00     0.009 A 
ATOM     18  C   UNL     1     113.188 257.288 335.924  1.00  0.00     0.160 A 
ATOM     19  C   UNL     1     113.704 258.747 337.797  1.00  0.00     0.050 A 
ATOM     20  C   UNL     1     112.860 258.384 336.743  1.00  0.00     0.157 A 
BRANCH  18  21
ATOM     21  O   UNL     1     112.321 256.943 334.874  1.00  0.00    -0.493 OA
ATOM     22  C   UNL     1     112.564 257.223 333.499  1.00  0.00     0.278 C 
ENDBRANCH  18  21
BRANCH  20  23
ATOM     23  O   UNL     1     111.698 259.124 336.525  1.00  0.00    -0.504 OA
ATOM     24  H   UNL     1     111.674 259.918 335.896  1.00  0.00     0.293 HD
ENDBRANCH  20  23
ENDBRANCH  14  15
ENDBRANCH  12  14
ENDBRANCH   9  10
ENDBRANCH   1   9
TORSDOF 10
ENDMDL
MODEL 6
REMARK VINA RESULT:    -2.866      4.783     10.659
REMARK INTER + INTRA:          -4.976
REMARK INTER:                  -4.219
REMARK INTRA:                  -0.756
REMARK UNBOUND:                -0.518
REMARK SMILES COc1cc(CNC(=O)CCCCC=CC(C)C)ccc1O
REMARK SMILES IDX 11 1 12 2 13 3 14 4 15 5 16 6 17 7 18 8 10 9 8 10 9 11 7 12
REMARK SMILES IDX 6 14 5 15 4 16 19 17 3 18 20 19 21 20 2 21 1 22 22 23
REMARK H PARENT 7 13 22 24
REMARK Flexibility Score: inf
ROOT
ATOM      1  C   UNL     1     112.256 258.524 336.266  1.00  0.00     0.010 C 
ENDROOT
BRANCH   1   2
ATOM      2  C   UNL     1     112.509 257.156 335.617  1.00  0.00     0.005 C 
BRANCH   2   3
ATOM      3  C   UNL     1     111.775 257.040 334.275  1.00  0.00     0.027 C 
BRANCH   3   4
ATOM      4  C   UNL     1     112.684 257.375 333.127  1.00  0.00    -0.031 C 
ATOM      5  C   UNL     1     114.013 257.199 333.206  1.00  0.00    -0.028 C 
BRANCH   5   6
ATOM      6  C   UNL     1     114.921 257.533 332.046  1.00  0.00     0.005 C 
ATOM      7  C   UNL     1     115.539 258.925 332.227  1.00  0.00     0.012 C 
ATOM      8  C   UNL     1     116.022 256.476 331.905  1.00  0.00     0.012 C 
ENDBRANCH   5   6
ENDBRANCH   3   4
ENDBRANCH   2   3
ENDBRANCH   1   2
BRANCH   1   9
ATOM      9  C   UNL     1     113.124 258.747 337.512  1.00  0.00     0.100 C 
BRANCH   9  10
ATOM     10  C   UNL     1     114.559 258.389 337.260  1.00  0.00     0.220 C 
ATOM     11  O   UNL     1     115.259 259.125 336.511  1.00  0.00    -0.275 OA
ATOM     12  N   UNL     1     115.141 257.244 337.898  1.00  0.00    -0.352 N 
ATOM     13  H   UNL     1     114.549 256.662 338.535  1.00  0.00     0.163 HD
BRANCH  12  14
ATOM     14  C   UNL     1     116.546 256.880 337.732  1.00  0.00     0.151 C 
BRANCH  14  15
ATOM     15  C   UNL     1     117.034 256.112 338.930  1.00  0.00    -0.025 A 
ATOM     16  C   UNL     1     116.119 255.658 339.892  1.00  0.00     0.056 A 
ATOM     17  C   UNL     1     118.397 255.825 339.086  1.00  0.00     0.009 A 
ATOM     18  C   UNL     1     116.560 254.922 341.011  1.00  0.00     0.160 A 
ATOM     19  C   UNL     1     118.841 255.097 340.191  1.00  0.00     0.050 A 
ATOM     20  C   UNL     1     117.932 254.646 341.153  1.00  0.00     0.157 A 
BRANCH  18  21
ATOM     21  O   UNL     1     115.669 254.454 341.990  1.00  0.00    -0.493 OA
ATOM     22  C   UNL     1     115.044 255.273 342.973  1.00  0.00     0.278 C 
ENDBRANCH  18  21
BRANCH  20  23
ATOM     23  O   UNL     1     118.411 253.923 342.245  1.00  0.00    -0.504 OA
ATOM     24  H   UNL     1     118.943 253.068 342.136  1.00  0.00     0.293 HD
ENDBRANCH  20  23
ENDBRANCH  14  15
ENDBRANCH  12  14
ENDBRANCH   9  10
ENDBRANCH   1   9
TORSDOF 10
ENDMDL
