MODEL 1
REMARK VINA RESULT:    -3.610      0.000      0.000
REMARK INTER + INTRA:          -4.316
REMARK INTER:                  -4.243
REMARK INTRA:                  -0.072
REMARK UNBOUND:                -0.072
REMARK SMILES CCCCC(=O)[O-]
REMARK SMILES IDX 4 1 5 2 6 3 7 4 3 5 2 6 1 7
REMARK H PARENT
REMARK Flexibility Score: inf
ROOT
ATOM      1  C   UNL     1     -16.088  10.521  -5.346  1.00  0.00     0.053 C 
ENDROOT
BRANCH   1   2
ATOM      2  C   UNL     1     -15.116  11.618  -5.650  1.00  0.00     0.041 C 
ATOM      3  O   UNL     1     -14.747  11.828  -6.835  1.00  0.00    -0.550 OA
ATOM      4  O   UNL     1     -14.580  12.377  -4.617  1.00  0.00    -0.550 OA
ENDBRANCH   1   2
BRANCH   1   5
ATOM      5  C   UNL     1     -15.504   9.163  -5.743  1.00  0.00     0.006 C 
BRANCH   5   6
ATOM      6  C   UNL     1     -16.079   8.688  -7.082  1.00  0.00    -0.003 C 
ATOM      7  C   UNL     1     -14.967   8.343  -8.068  1.00  0.00     0.004 C 
ENDBRANCH   5   6
ENDBRANCH   1   5
TORSDOF 3
ENDMDL
MODEL 2
REMARK VINA RESULT:    -3.599     20.247     21.167
REMARK INTER + INTRA:          -4.303
REMARK INTER:                  -4.249
REMARK INTRA:                  -0.054
REMARK UNBOUND:                -0.072
REMARK SMILES CCCCC(=O)[O-]
REMARK SMILES IDX 4 1 5 2 6 3 7 4 3 5 2 6 1 7
REMARK H PARENT
REMARK Flexibility Score: inf
ROOT
ATOM      1  C   UNL     1      -5.182  18.741 -23.536  1.00  0.00     0.053 C 
ENDROOT
BRANCH   1   2
ATOM      2  C   UNL     1      -5.455  17.433 -22.862  1.00  0.00     0.041 C 
ATOM      3  O   UNL     1      -6.083  17.402 -21.771  1.00  0.00    -0.550 OA
ATOM      4  O   UNL     1      -4.975  16.252 -23.414  1.00  0.00    -0.550 OA
ENDBRANCH   1   2
BRANCH   1   5
ATOM      5  C   UNL     1      -4.365  19.656 -22.620  1.00  0.00     0.006 C 
BRANCH   5   6
ATOM      6  C   UNL     1      -5.266  20.683 -21.926  1.00  0.00    -0.003 C 
ATOM      7  C   UNL     1      -4.992  20.731 -20.425  1.00  0.00     0.004 C 
ENDBRANCH   5   6
ENDBRANCH   1   5
TORSDOF 3
ENDMDL
MODEL 3
REMARK VINA RESULT:    -3.503      2.178      3.700
REMARK INTER + INTRA:          -4.189
REMARK INTER:                  -4.114
REMARK INTRA:                  -0.076
REMARK UNBOUND:                -0.072
REMARK SMILES CCCCC(=O)[O-]
REMARK SMILES IDX 4 1 5 2 6 3 7 4 3 5 2 6 1 7
REMARK H PARENT
REMARK Flexibility Score: inf
ROOT
ATOM      1  C   UNL     1     -15.554   8.501  -6.313  1.00  0.00     0.053 C 
ENDROOT
BRANCH   1   2
ATOM      2  C   UNL     1     -15.362   8.549  -7.796  1.00  0.00     0.041 C 
ATOM      3  O   UNL     1     -14.712   9.492  -8.320  1.00  0.00    -0.550 OA
ATOM      4  O   UNL     1     -15.942   7.579  -8.604  1.00  0.00    -0.550 OA
ENDBRANCH   1   2
BRANCH   1   5
ATOM      5  C   UNL     1     -16.228   9.784  -5.817  1.00  0.00     0.006 C 
BRANCH   5   6
ATOM      6  C   UNL     1     -15.208  10.724  -5.166  1.00  0.00    -0.003 C 
ATOM      7  C   UNL     1     -15.138  12.058  -5.904  1.00  0.00     0.004 C 
ENDBRANCH   5   6
ENDBRANCH   1   5
TORSDOF 3
ENDMDL
MODEL 4
REMARK VINA RESULT:    -3.476     20.103     20.925
REMARK INTER + INTRA:          -4.158
REMARK INTER:                  -4.104
REMARK INTRA:                  -0.055
REMARK UNBOUND:                -0.072
REMARK SMILES CCCCC(=O)[O-]
REMARK SMILES IDX 4 1 5 2 6 3 7 4 3 5 2 6 1 7
REMARK H PARENT
REMARK Flexibility Score: inf
ROOT
ATOM      1  C   UNL     1      -4.370  20.332 -22.250  1.00  0.00     0.053 C 
ENDROOT
BRANCH   1   2
ATOM      2  C   UNL     1      -5.260  20.597 -21.077  1.00  0.00     0.041 C 
ATOM      3  O   UNL     1      -5.463  21.777 -20.689  1.00  0.00    -0.550 OA
ATOM      4  O   UNL     1      -5.828  19.536 -20.382  1.00  0.00    -0.550 OA
ENDBRANCH   1   2
BRANCH   1   5
ATOM      5  C   UNL     1      -5.086  19.453 -23.279  1.00  0.00     0.006 C 
BRANCH   5   6
ATOM      6  C   UNL     1      -4.658  17.988 -23.143  1.00  0.00    -0.003 C 
ATOM      7  C   UNL     1      -5.864  17.080 -22.920  1.00  0.00     0.004 C 
ENDBRANCH   5   6
ENDBRANCH   1   5
TORSDOF 3
ENDMDL
MODEL 5
REMARK VINA RESULT:    -3.198     14.077     14.848
REMARK INTER + INTRA:          -3.831
REMARK INTER:                  -3.760
REMARK INTRA:                  -0.071
REMARK UNBOUND:                -0.072
REMARK SMILES CCCCC(=O)[O-]
REMARK SMILES IDX 4 1 5 2 6 3 7 4 3 5 2 6 1 7
REMARK H PARENT
REMARK Flexibility Score: inf
ROOT
ATOM      1  C   UNL     1      -0.354   8.526  -9.577  1.00  0.00     0.053 C 
ENDROOT
BRANCH   1   2
ATOM      2  C   UNL     1      -0.810   7.290  -8.869  1.00  0.00     0.041 C 
ATOM      3  O   UNL     1      -2.039   7.078  -8.691  1.00  0.00    -0.550 OA
ATOM      4  O   UNL     1       0.123   6.394  -8.362  1.00  0.00    -0.550 OA
ENDBRANCH   1   2
BRANCH   1   5
ATOM      5  C   UNL     1      -1.480   9.563  -9.625  1.00  0.00     0.006 C 
BRANCH   5   6
ATOM      6  C   UNL     1      -1.412  10.504  -8.417  1.00  0.00    -0.003 C 
ATOM      7  C   UNL     1      -2.809  10.917  -7.961  1.00  0.00     0.004 C 
ENDBRANCH   5   6
ENDBRANCH   1   5
TORSDOF 3
ENDMDL
MODEL 6
REMARK VINA RESULT:    -3.144     11.148     12.093
REMARK INTER + INTRA:          -3.767
REMARK INTER:                  -3.740
REMARK INTRA:                  -0.028
REMARK UNBOUND:                -0.072
REMARK SMILES CCCCC(=O)[O-]
REMARK SMILES IDX 4 1 5 2 6 3 7 4 3 5 2 6 1 7
REMARK H PARENT
REMARK Flexibility Score: inf
ROOT
ATOM      1  C   UNL     1      -4.668   9.310  -9.894  1.00  0.00     0.053 C 
ENDROOT
BRANCH   1   2
ATOM      2  C   UNL     1      -5.827   8.622 -10.542  1.00  0.00     0.041 C 
ATOM      3  O   UNL     1      -6.145   7.454 -10.194  1.00  0.00    -0.550 OA
ATOM      4  O   UNL     1      -6.528   9.250 -11.563  1.00  0.00    -0.550 OA
ENDBRANCH   1   2
BRANCH   1   5
ATOM      5  C   UNL     1      -3.832   8.312  -9.089  1.00  0.00     0.006 C 
BRANCH   5   6
ATOM      6  C   UNL     1      -2.333   8.572  -9.276  1.00  0.00    -0.003 C 
ATOM      7  C   UNL     1      -1.506   7.362  -8.852  1.00  0.00     0.004 C 
ENDBRANCH   5   6
ENDBRANCH   1   5
TORSDOF 3
ENDMDL
MODEL 7
REMARK VINA RESULT:    -3.084     12.598     13.335
REMARK INTER + INTRA:          -3.697
REMARK INTER:                  -3.677
REMARK INTRA:                  -0.020
REMARK UNBOUND:                -0.072
REMARK SMILES CCCCC(=O)[O-]
REMARK SMILES IDX 4 1 5 2 6 3 7 4 3 5 2 6 1 7
REMARK H PARENT
REMARK Flexibility Score: inf
ROOT
ATOM      1  C   UNL     1      -2.391   9.241  -9.072  1.00  0.00     0.053 C 
ENDROOT
BRANCH   1   2
ATOM      2  C   UNL     1      -1.207   8.326  -9.041  1.00  0.00     0.041 C 
ATOM      3  O   UNL     1      -0.091   8.719  -9.474  1.00  0.00    -0.550 OA
ATOM      4  O   UNL     1      -1.346   7.023  -8.579  1.00  0.00    -0.550 OA
ENDBRANCH   1   2
BRANCH   1   5
ATOM      5  C   UNL     1      -3.691   8.433  -9.096  1.00  0.00     0.006 C 
BRANCH   5   6
ATOM      6  C   UNL     1      -4.755   9.131  -9.950  1.00  0.00    -0.003 C 
ATOM      7  C   UNL     1      -5.908   8.185 -10.275  1.00  0.00     0.004 C 
ENDBRANCH   5   6
ENDBRANCH   1   5
TORSDOF 3
ENDMDL
MODEL 8
REMARK VINA RESULT:    -3.043     11.901     12.764
REMARK INTER + INTRA:          -3.649
REMARK INTER:                  -3.601
REMARK INTRA:                  -0.048
REMARK UNBOUND:                -0.072
REMARK SMILES CCCCC(=O)[O-]
REMARK SMILES IDX 4 1 5 2 6 3 7 4 3 5 2 6 1 7
REMARK H PARENT
REMARK Flexibility Score: inf
ROOT
ATOM      1  C   UNL     1      -3.629   8.263  -9.087  1.00  0.00     0.053 C 
ENDROOT
BRANCH   1   2
ATOM      2  C   UNL     1      -4.824   8.771  -9.831  1.00  0.00     0.041 C 
ATOM      3  O   UNL     1      -4.923   9.995 -10.110  1.00  0.00    -0.550 OA
ATOM      4  O   UNL     1      -5.852   7.902 -10.173  1.00  0.00    -0.550 OA
ENDBRANCH   1   2
BRANCH   1   5
ATOM      5  C   UNL     1      -2.530   9.328  -9.047  1.00  0.00     0.006 C 
BRANCH   5   6
ATOM      6  C   UNL     1      -1.140   8.682  -9.054  1.00  0.00    -0.003 C 
ATOM      7  C   UNL     1      -1.230   7.175  -8.831  1.00  0.00     0.004 C 
ENDBRANCH   5   6
ENDBRANCH   1   5
TORSDOF 3
ENDMDL
MODEL 9
REMARK VINA RESULT:    -2.991     16.143     16.863
REMARK INTER + INTRA:          -3.588
REMARK INTER:                  -3.488
REMARK INTRA:                  -0.100
REMARK UNBOUND:                -0.072
REMARK SMILES CCCCC(=O)[O-]
REMARK SMILES IDX 4 1 5 2 6 3 7 4 3 5 2 6 1 7
REMARK H PARENT
REMARK Flexibility Score: inf
ROOT
ATOM      1  C   UNL     1     -18.009  17.190 -20.078  1.00  0.00     0.053 C 
ENDROOT
BRANCH   1   2
ATOM      2  C   UNL     1     -16.645  17.246 -20.690  1.00  0.00     0.041 C 
ATOM      3  O   UNL     1     -16.477  16.922 -21.895  1.00  0.00    -0.550 OA
ATOM      4  O   UNL     1     -15.550  17.610 -19.916  1.00  0.00    -0.550 OA
ENDBRANCH   1   2
BRANCH   1   5
ATOM      5  C   UNL     1     -18.982  18.082 -20.855  1.00  0.00     0.006 C 
BRANCH   5   6
ATOM      6  C   UNL     1     -20.099  17.249 -21.494  1.00  0.00    -0.003 C 
ATOM      7  C   UNL     1     -20.038  17.322 -23.017  1.00  0.00     0.004 C 
ENDBRANCH   5   6
ENDBRANCH   1   5
TORSDOF 3
ENDMDL
