MODEL 1
REMARK VINA RESULT:    -3.392      0.000      0.000
REMARK INTER + INTRA:          -3.906
REMARK INTER:                  -3.888
REMARK INTRA:                  -0.018
REMARK UNBOUND:                -0.018
REMARK SMILES O=C1C[C@@H](c2ccc(O)cc2)Oc2cc(O)cc(O)c21
REMARK SMILES IDX 3 1 4 2 12 3 13 4 14 5 15 6 17 7 18 8 20 9 2 10 1 11 5 12
REMARK SMILES IDX 6 13 11 14 7 15 10 16 8 17 9 18 19 20 16 22
REMARK H PARENT 9 19 19 21 16 23
REMARK Flexibility Score: inf
ROOT
ATOM      1  C   UNL     1      20.713  -1.772 -11.125  1.00  0.00     0.131 C 
ATOM      2  C   UNL     1      19.348  -2.214 -10.572  1.00  0.00     0.211 C 
ATOM      3  O   UNL     1      18.339  -1.232 -10.853  1.00  0.00    -0.484 OA
ATOM      4  C   UNL     1      18.594   0.149 -10.917  1.00  0.00     0.138 A 
ATOM      5  C   UNL     1      17.514   1.029 -11.022  1.00  0.00     0.093 A 
ATOM      6  C   UNL     1      17.728   2.408 -11.050  1.00  0.00     0.123 A 
ATOM      7  C   UNL     1      19.034   2.911 -11.007  1.00  0.00     0.093 A 
ATOM      8  C   UNL     1      20.133   2.046 -10.937  1.00  0.00     0.133 A 
ATOM      9  C   UNL     1      19.914   0.646 -10.858  1.00  0.00     0.102 A 
ATOM     10  C   UNL     1      20.995  -0.356 -10.717  1.00  0.00     0.174 C 
ATOM     11  O   UNL     1      22.108  -0.068 -10.204  1.00  0.00    -0.294 OA
ENDROOT
BRANCH   2  12
ATOM     12  C   UNL     1      19.438  -2.526  -9.088  1.00  0.00    -0.007 A 
ATOM     13  C   UNL     1      20.687  -2.438  -8.446  1.00  0.00     0.011 A 
ATOM     14  C   UNL     1      18.299  -2.822  -8.315  1.00  0.00     0.011 A 
ATOM     15  C   UNL     1      20.794  -2.631  -7.067  1.00  0.00     0.046 A 
ATOM     16  C   UNL     1      18.412  -3.026  -6.937  1.00  0.00     0.046 A 
ATOM     17  C   UNL     1      19.655  -2.926  -6.309  1.00  0.00     0.115 A 
BRANCH  17  18
ATOM     18  O   UNL     1      19.749  -3.124  -4.933  1.00  0.00    -0.508 OA
ATOM     19  H   UNL     1      18.935  -3.351  -4.377  1.00  0.00     0.293 HD
ENDBRANCH  17  18
ENDBRANCH   2  12
BRANCH   8  20
ATOM     20  O   UNL     1      21.407   2.617 -10.981  1.00  0.00    -0.507 OA
ATOM     21  H   UNL     1      21.644   3.496 -10.547  1.00  0.00     0.293 HD
ENDBRANCH   8  20
BRANCH   6  22
ATOM     22  O   UNL     1      16.637   3.268 -11.121  1.00  0.00    -0.508 OA
ATOM     23  H   UNL     1      16.693   4.153 -11.612  1.00  0.00     0.293 HD
ENDBRANCH   6  22
TORSDOF 4
ENDMDL
MODEL 2
REMARK VINA RESULT:    -1.749     10.593     14.465
REMARK INTER + INTRA:          -2.022
REMARK INTER:                  -1.614
REMARK INTRA:                  -0.408
REMARK UNBOUND:                -0.018
REMARK SMILES O=C1C[C@@H](c2ccc(O)cc2)Oc2cc(O)cc(O)c21
REMARK SMILES IDX 3 1 4 2 12 3 13 4 14 5 15 6 17 7 18 8 20 9 2 10 1 11 5 12
REMARK SMILES IDX 6 13 11 14 7 15 10 16 8 17 9 18 19 20 16 22
REMARK H PARENT 9 19 19 21 16 23
REMARK Flexibility Score: inf
ROOT
ATOM      1  C   UNL     1      18.411  12.829  -9.980  1.00  0.00     0.131 C 
ATOM      2  C   UNL     1      19.688  12.568 -10.796  1.00  0.00     0.211 C 
ATOM      3  O   UNL     1      20.339  11.366 -10.357  1.00  0.00    -0.484 OA
ATOM      4  C   UNL     1      20.317  10.908  -9.028  1.00  0.00     0.138 A 
ATOM      5  C   UNL     1      21.126   9.826  -8.674  1.00  0.00     0.093 A 
ATOM      6  C   UNL     1      21.157   9.370  -7.356  1.00  0.00     0.123 A 
ATOM      7  C   UNL     1      20.347   9.979  -6.389  1.00  0.00     0.093 A 
ATOM      8  C   UNL     1      19.502  11.042  -6.729  1.00  0.00     0.133 A 
ATOM      9  C   UNL     1      19.507  11.539  -8.059  1.00  0.00     0.102 A 
ATOM     10  C   UNL     1      18.705  12.697  -8.515  1.00  0.00     0.174 C 
ATOM     11  O   UNL     1      18.328  13.601  -7.723  1.00  0.00    -0.294 OA
ENDROOT
BRANCH   2  12
ATOM     12  C   UNL     1      20.619  13.768 -10.746  1.00  0.00    -0.007 A 
ATOM     13  C   UNL     1      20.069  15.052 -10.578  1.00  0.00     0.011 A 
ATOM     14  C   UNL     1      22.019  13.630 -10.780  1.00  0.00     0.011 A 
ATOM     15  C   UNL     1      20.897  16.168 -10.439  1.00  0.00     0.046 A 
ATOM     16  C   UNL     1      22.845  14.750 -10.652  1.00  0.00     0.046 A 
ATOM     17  C   UNL     1      22.288  16.019 -10.476  1.00  0.00     0.115 A 
BRANCH  17  18
ATOM     18  O   UNL     1      23.125  17.125 -10.342  1.00  0.00    -0.508 OA
ATOM     19  H   UNL     1      23.262  17.577  -9.447  1.00  0.00     0.293 HD
ENDBRANCH  17  18
ENDBRANCH   2  12
BRANCH   8  20
ATOM     20  O   UNL     1      18.663  11.544  -5.731  1.00  0.00    -0.507 OA
ATOM     21  H   UNL     1      18.878  11.509  -4.747  1.00  0.00     0.293 HD
ENDBRANCH   8  20
BRANCH   6  22
ATOM     22  O   UNL     1      21.994   8.312  -7.017  1.00  0.00    -0.508 OA
ATOM     23  H   UNL     1      22.746   8.017  -7.629  1.00  0.00     0.293 HD
ENDBRANCH   6  22
TORSDOF 4
ENDMDL
