MODEL 1
REMARK VINA RESULT:    -5.658      0.000      0.000
REMARK INTER + INTRA:          -6.385
REMARK INTER:                  -6.154
REMARK INTRA:                  -0.231
REMARK UNBOUND:                -0.231
REMARK SMILES O=C([O-])c1ccccc1O
REMARK SMILES IDX 4 1 9 2 5 3 8 4 6 5 7 6 2 7 1 8 3 9 10 10
REMARK H PARENT 10 11
REMARK Flexibility Score: inf
ROOT
ATOM      1  C   UNL     1       0.757  44.704  -1.659  1.00  0.00     0.039 A 
ATOM      2  C   UNL     1      -0.393  44.767  -0.838  1.00  0.00     0.124 A 
ATOM      3  C   UNL     1       2.019  44.551  -1.050  1.00  0.00     0.014 A 
ATOM      4  C   UNL     1      -0.263  44.675   0.557  1.00  0.00     0.047 A 
ATOM      5  C   UNL     1       2.133  44.462   0.339  1.00  0.00     0.001 A 
ATOM      6  C   UNL     1       0.995  44.524   1.141  1.00  0.00     0.004 A 
ENDROOT
BRANCH   1   7
ATOM      7  C   UNL     1       0.666  44.797  -3.139  1.00  0.00     0.075 C 
ATOM      8  O   UNL     1       0.224  45.843  -3.686  1.00  0.00    -0.545 OA
ATOM      9  O   UNL     1       1.064  43.742  -3.951  1.00  0.00    -0.545 OA
ENDBRANCH   1   7
BRANCH   2  10
ATOM     10  O   UNL     1      -1.662  44.918  -1.397  1.00  0.00    -0.507 OA
ATOM     11  H   UNL     1      -2.124  45.820  -1.436  1.00  0.00     0.293 HD
ENDBRANCH   2  10
TORSDOF 2
ENDMDL
MODEL 2
REMARK VINA RESULT:    -5.563      1.401      2.971
REMARK INTER + INTRA:          -6.282
REMARK INTER:                  -6.036
REMARK INTRA:                  -0.245
REMARK UNBOUND:                -0.231
REMARK SMILES O=C([O-])c1ccccc1O
REMARK SMILES IDX 4 1 9 2 5 3 8 4 6 5 7 6 2 7 1 8 3 9 10 10
REMARK H PARENT 10 11
REMARK Flexibility Score: inf
ROOT
ATOM      1  C   UNL     1       0.536  44.836  -2.294  1.00  0.00     0.039 A 
ATOM      2  C   UNL     1       1.507  44.512  -3.270  1.00  0.00     0.124 A 
ATOM      3  C   UNL     1       0.895  44.778  -0.932  1.00  0.00     0.014 A 
ATOM      4  C   UNL     1       2.802  44.141  -2.872  1.00  0.00     0.047 A 
ATOM      5  C   UNL     1       2.187  44.407  -0.552  1.00  0.00     0.001 A 
ATOM      6  C   UNL     1       3.139  44.089  -1.519  1.00  0.00     0.004 A 
ENDROOT
BRANCH   1   7
ATOM      7  C   UNL     1      -0.846  45.234  -2.670  1.00  0.00     0.075 C 
ATOM      8  O   UNL     1      -1.558  44.470  -3.376  1.00  0.00    -0.545 OA
ATOM      9  O   UNL     1      -1.382  46.446  -2.255  1.00  0.00    -0.545 OA
ENDBRANCH   1   7
BRANCH   2  10
ATOM     10  O   UNL     1       1.197  44.556  -4.629  1.00  0.00    -0.507 OA
ATOM     11  H   UNL     1       0.244  44.459  -4.962  1.00  0.00     0.293 HD
ENDBRANCH   2  10
TORSDOF 2
ENDMDL
MODEL 3
REMARK VINA RESULT:    -5.551      8.229      9.524
REMARK INTER + INTRA:          -6.269
REMARK INTER:                  -6.025
REMARK INTRA:                  -0.244
REMARK UNBOUND:                -0.231
REMARK SMILES O=C([O-])c1ccccc1O
REMARK SMILES IDX 4 1 9 2 5 3 8 4 6 5 7 6 2 7 1 8 3 9 10 10
REMARK H PARENT 10 11
REMARK Flexibility Score: inf
ROOT
ATOM      1  C   UNL     1       8.753  46.634  -4.247  1.00  0.00     0.039 A 
ATOM      2  C   UNL     1       7.770  46.739  -5.258  1.00  0.00     0.124 A 
ATOM      3  C   UNL     1      10.055  46.229  -4.605  1.00  0.00     0.014 A 
ATOM      4  C   UNL     1       8.101  46.443  -6.590  1.00  0.00     0.047 A 
ATOM      5  C   UNL     1      10.370  45.937  -5.934  1.00  0.00     0.001 A 
ATOM      6  C   UNL     1       9.395  46.044  -6.925  1.00  0.00     0.004 A 
ENDROOT
BRANCH   1   7
ATOM      7  C   UNL     1       8.446  46.937  -2.825  1.00  0.00     0.075 C 
ATOM      8  O   UNL     1       8.985  46.269  -1.901  1.00  0.00    -0.545 OA
ATOM      9  O   UNL     1       7.567  47.956  -2.482  1.00  0.00    -0.545 OA
ENDBRANCH   1   7
BRANCH   2  10
ATOM     10  O   UNL     1       6.468  47.136  -4.951  1.00  0.00    -0.507 OA
ATOM     11  H   UNL     1       5.672  46.821  -5.495  1.00  0.00     0.293 HD
ENDBRANCH   2  10
TORSDOF 2
ENDMDL
MODEL 4
REMARK VINA RESULT:    -5.525      1.535      2.513
REMARK INTER + INTRA:          -6.241
REMARK INTER:                  -5.989
REMARK INTRA:                  -0.251
REMARK UNBOUND:                -0.231
REMARK SMILES O=C([O-])c1ccccc1O
REMARK SMILES IDX 4 1 9 2 5 3 8 4 6 5 7 6 2 7 1 8 3 9 10 10
REMARK H PARENT 10 11
REMARK Flexibility Score: inf
ROOT
ATOM      1  C   UNL     1       1.320  44.527  -1.793  1.00  0.00     0.039 A 
ATOM      2  C   UNL     1       2.246  44.352  -0.739  1.00  0.00     0.124 A 
ATOM      3  C   UNL     1      -0.021  44.827  -1.477  1.00  0.00     0.014 A 
ATOM      4  C   UNL     1       1.822  44.479   0.594  1.00  0.00     0.047 A 
ATOM      5  C   UNL     1      -0.429  44.949  -0.146  1.00  0.00     0.001 A 
ATOM      6  C   UNL     1       0.491  44.775   0.887  1.00  0.00     0.004 A 
ENDROOT
BRANCH   1   7
ATOM      7  C   UNL     1       1.724  44.403  -3.217  1.00  0.00     0.075 C 
ATOM      8  O   UNL     1       0.972  43.820  -4.045  1.00  0.00    -0.545 OA
ATOM      9  O   UNL     1       2.931  44.922  -3.669  1.00  0.00    -0.545 OA
ENDBRANCH   1   7
BRANCH   2  10
ATOM     10  O   UNL     1       3.583  44.055  -1.005  1.00  0.00    -0.507 OA
ATOM     11  H   UNL     1       4.201  43.693  -0.287  1.00  0.00     0.293 HD
ENDBRANCH   2  10
TORSDOF 2
ENDMDL
MODEL 5
REMARK VINA RESULT:    -5.481      7.691      9.072
REMARK INTER + INTRA:          -6.193
REMARK INTER:                  -6.029
REMARK INTRA:                  -0.164
REMARK UNBOUND:                -0.231
REMARK SMILES O=C([O-])c1ccccc1O
REMARK SMILES IDX 4 1 9 2 5 3 8 4 6 5 7 6 2 7 1 8 3 9 10 10
REMARK H PARENT 10 11
REMARK Flexibility Score: inf
ROOT
ATOM      1  C   UNL     1       7.798  45.409  -5.258  1.00  0.00     0.039 A 
ATOM      2  C   UNL     1       8.766  45.734  -4.279  1.00  0.00     0.124 A 
ATOM      3  C   UNL     1       8.130  45.565  -6.619  1.00  0.00     0.014 A 
ATOM      4  C   UNL     1      10.030  46.202  -4.673  1.00  0.00     0.047 A 
ATOM      5  C   UNL     1       9.391  46.033  -6.996  1.00  0.00     0.001 A 
ATOM      6  C   UNL     1      10.339  46.351  -6.025  1.00  0.00     0.004 A 
ENDROOT
BRANCH   1   7
ATOM      7  C   UNL     1       6.449  44.910  -4.886  1.00  0.00     0.075 C 
ATOM      8  O   UNL     1       6.296  43.723  -4.488  1.00  0.00    -0.545 OA
ATOM      9  O   UNL     1       5.332  45.732  -4.967  1.00  0.00    -0.545 OA
ENDBRANCH   1   7
BRANCH   2  10
ATOM     10  O   UNL     1       8.483  45.594  -2.920  1.00  0.00    -0.507 OA
ATOM     11  H   UNL     1       9.219  45.548  -2.224  1.00  0.00     0.293 HD
ENDBRANCH   2  10
TORSDOF 2
ENDMDL
MODEL 6
REMARK VINA RESULT:    -5.438      6.086      7.541
REMARK INTER + INTRA:          -6.146
REMARK INTER:                  -5.893
REMARK INTRA:                  -0.253
REMARK UNBOUND:                -0.231
REMARK SMILES O=C([O-])c1ccccc1O
REMARK SMILES IDX 4 1 9 2 5 3 8 4 6 5 7 6 2 7 1 8 3 9 10 10
REMARK H PARENT 10 11
REMARK Flexibility Score: inf
ROOT
ATOM      1  C   UNL     1      -2.215  45.260   4.866  1.00  0.00     0.039 A 
ATOM      2  C   UNL     1      -2.843  44.123   4.304  1.00  0.00     0.124 A 
ATOM      3  C   UNL     1      -1.296  45.986   4.080  1.00  0.00     0.014 A 
ATOM      4  C   UNL     1      -2.547  43.740   2.986  1.00  0.00     0.047 A 
ATOM      5  C   UNL     1      -1.011  45.591   2.771  1.00  0.00     0.001 A 
ATOM      6  C   UNL     1      -1.635  44.470   2.224  1.00  0.00     0.004 A 
ENDROOT
BRANCH   1   7
ATOM      7  C   UNL     1      -2.498  45.702   6.255  1.00  0.00     0.075 C 
ATOM      8  O   UNL     1      -1.552  45.941   7.053  1.00  0.00    -0.545 OA
ATOM      9  O   UNL     1      -3.802  45.863   6.706  1.00  0.00    -0.545 OA
ENDBRANCH   1   7
BRANCH   2  10
ATOM     10  O   UNL     1      -3.759  43.375   5.044  1.00  0.00    -0.507 OA
ATOM     11  H   UNL     1      -3.847  42.372   4.925  1.00  0.00     0.293 HD
ENDBRANCH   2  10
TORSDOF 2
ENDMDL
MODEL 7
REMARK VINA RESULT:    -5.405      1.723      3.422
REMARK INTER + INTRA:          -6.110
REMARK INTER:                  -5.882
REMARK INTRA:                  -0.228
REMARK UNBOUND:                -0.231
REMARK SMILES O=C([O-])c1ccccc1O
REMARK SMILES IDX 4 1 9 2 5 3 8 4 6 5 7 6 2 7 1 8 3 9 10 10
REMARK H PARENT 10 11
REMARK Flexibility Score: inf
ROOT
ATOM      1  C   UNL     1       0.064  44.900  -1.645  1.00  0.00     0.039 A 
ATOM      2  C   UNL     1      -0.341  44.892  -3.000  1.00  0.00     0.124 A 
ATOM      3  C   UNL     1       1.400  44.573  -1.333  1.00  0.00     0.014 A 
ATOM      4  C   UNL     1       0.583  44.564  -4.005  1.00  0.00     0.047 A 
ATOM      5  C   UNL     1       2.308  44.248  -2.344  1.00  0.00     0.001 A 
ATOM      6  C   UNL     1       1.900  44.243  -3.677  1.00  0.00     0.004 A 
ENDROOT
BRANCH   1   7
ATOM      7  C   UNL     1      -0.880  45.241  -0.549  1.00  0.00     0.075 C 
ATOM      8  O   UNL     1      -0.718  44.758   0.604  1.00  0.00    -0.545 OA
ATOM      9  O   UNL     1      -1.953  46.095  -0.766  1.00  0.00    -0.545 OA
ENDBRANCH   1   7
BRANCH   2  10
ATOM     10  O   UNL     1      -1.652  45.209  -3.355  1.00  0.00    -0.507 OA
ATOM     11  H   UNL     1      -1.976  45.144  -4.314  1.00  0.00     0.293 HD
ENDBRANCH   2  10
TORSDOF 2
ENDMDL
MODEL 8
REMARK VINA RESULT:    -5.382      2.349      3.509
REMARK INTER + INTRA:          -6.085
REMARK INTER:                  -5.835
REMARK INTRA:                  -0.250
REMARK UNBOUND:                -0.231
REMARK SMILES O=C([O-])c1ccccc1O
REMARK SMILES IDX 4 1 9 2 5 3 8 4 6 5 7 6 2 7 1 8 3 9 10 10
REMARK H PARENT 10 11
REMARK Flexibility Score: inf
ROOT
ATOM      1  C   UNL     1       3.096  44.275  -2.503  1.00  0.00     0.039 A 
ATOM      2  C   UNL     1       1.981  44.457  -3.353  1.00  0.00     0.124 A 
ATOM      3  C   UNL     1       2.899  44.304  -1.107  1.00  0.00     0.014 A 
ATOM      4  C   UNL     1       0.706  44.661  -2.801  1.00  0.00     0.047 A 
ATOM      5  C   UNL     1       1.625  44.509  -0.573  1.00  0.00     0.001 A 
ATOM      6  C   UNL     1       0.530  44.687  -1.418  1.00  0.00     0.004 A 
ENDROOT
BRANCH   1   7
ATOM      7  C   UNL     1       4.463  44.056  -3.044  1.00  0.00     0.075 C 
ATOM      8  O   UNL     1       4.955  44.863  -3.878  1.00  0.00    -0.545 OA
ATOM      9  O   UNL     1       5.226  42.966  -2.645  1.00  0.00    -0.545 OA
ENDBRANCH   1   7
BRANCH   2  10
ATOM     10  O   UNL     1       2.128  44.435  -4.740  1.00  0.00    -0.507 OA
ATOM     11  H   UNL     1       1.328  44.472  -5.362  1.00  0.00     0.293 HD
ENDBRANCH   2  10
TORSDOF 2
ENDMDL
MODEL 9
REMARK VINA RESULT:    -5.213      9.794     11.359
REMARK INTER + INTRA:          -5.901
REMARK INTER:                  -5.647
REMARK INTRA:                  -0.255
REMARK UNBOUND:                -0.231
REMARK SMILES O=C([O-])c1ccccc1O
REMARK SMILES IDX 4 1 9 2 5 3 8 4 6 5 7 6 2 7 1 8 3 9 10 10
REMARK H PARENT 10 11
REMARK Flexibility Score: inf
ROOT
ATOM      1  C   UNL     1       0.447  47.356   9.366  1.00  0.00     0.039 A 
ATOM      2  C   UNL     1       0.036  46.334  10.253  1.00  0.00     0.124 A 
ATOM      3  C   UNL     1       1.383  48.310   9.815  1.00  0.00     0.014 A 
ATOM      4  C   UNL     1       0.561  46.284  11.554  1.00  0.00     0.047 A 
ATOM      5  C   UNL     1       1.896  48.248  11.113  1.00  0.00     0.001 A 
ATOM      6  C   UNL     1       1.486  47.237  11.981  1.00  0.00     0.004 A 
ENDROOT
BRANCH   1   7
ATOM      7  C   UNL     1      -0.081  47.447   7.980  1.00  0.00     0.075 C 
ATOM      8  O   UNL     1      -0.497  48.548   7.528  1.00  0.00    -0.545 OA
ATOM      9  O   UNL     1      -0.130  46.330   7.155  1.00  0.00    -0.545 OA
ENDBRANCH   1   7
BRANCH   2  10
ATOM     10  O   UNL     1      -0.887  45.368   9.852  1.00  0.00    -0.507 OA
ATOM     11  H   UNL     1      -1.683  45.602   9.268  1.00  0.00     0.293 HD
ENDBRANCH   2  10
TORSDOF 2
ENDMDL
