MODEL 1
REMARK VINA RESULT:    -3.148      0.000      0.000
REMARK INTER + INTRA:          -6.383
REMARK INTER:                  -4.989
REMARK INTRA:                  -1.394
REMARK UNBOUND:                -1.394
REMARK SMILES CCCCCCCCCCCC(=O)[O-]
REMARK SMILES IDX 7 1 8 2 9 3 10 4 11 5 12 6 13 7 14 8 6 9 5 10 4 11 3 12 2 13
REMARK SMILES IDX 1 14
REMARK H PARENT
REMARK Flexibility Score: inf
ROOT
ATOM      1  C   UNL     1      -3.191   5.382  39.458  1.00  0.00     0.000 C 
ENDROOT
BRANCH   1   2
ATOM      2  C   UNL     1      -1.727   4.948  39.277  1.00  0.00     0.000 C 
BRANCH   2   3
ATOM      3  C   UNL     1      -1.359   4.710  37.803  1.00  0.00     0.000 C 
BRANCH   3   4
ATOM      4  C   UNL     1      -2.588   4.706  36.881  1.00  0.00     0.006 C 
BRANCH   4   5
ATOM      5  C   UNL     1      -2.482   5.811  35.826  1.00  0.00     0.053 C 
BRANCH   5   6
ATOM      6  C   UNL     1      -1.280   5.598  34.962  1.00  0.00     0.041 C 
ATOM      7  O   UNL     1      -0.357   6.455  34.935  1.00  0.00    -0.550 OA
ATOM      8  O   UNL     1      -1.200   4.475  34.147  1.00  0.00    -0.550 OA
ENDBRANCH   5   6
ENDBRANCH   4   5
ENDBRANCH   3   4
ENDBRANCH   2   3
ENDBRANCH   1   2
BRANCH   1   9
ATOM      9  C   UNL     1      -3.421   6.155  40.766  1.00  0.00     0.000 C 
BRANCH   9  10
ATOM     10  C   UNL     1      -3.665   7.653  40.532  1.00  0.00    -0.000 C 
BRANCH  10  11
ATOM     11  C   UNL     1      -2.393   8.345  40.025  1.00  0.00    -0.000 C 
BRANCH  11  12
ATOM     12  C   UNL     1      -2.669   9.123  38.730  1.00  0.00    -0.000 C 
BRANCH  12  13
ATOM     13  C   UNL     1      -1.643   8.816  37.628  1.00  0.00    -0.003 C 
ATOM     14  C   UNL     1      -0.337   8.242  38.178  1.00  0.00     0.004 C 
ENDBRANCH  12  13
ENDBRANCH  11  12
ENDBRANCH  10  11
ENDBRANCH   9  10
ENDBRANCH   1   9
TORSDOF 10
ENDMDL
MODEL 2
REMARK VINA RESULT:    -3.109      1.390      3.556
REMARK INTER + INTRA:          -6.320
REMARK INTER:                  -4.852
REMARK INTRA:                  -1.468
REMARK UNBOUND:                -1.394
REMARK SMILES CCCCCCCCCCCC(=O)[O-]
REMARK SMILES IDX 7 1 8 2 9 3 10 4 11 5 12 6 13 7 14 8 6 9 5 10 4 11 3 12 2 13
REMARK SMILES IDX 1 14
REMARK H PARENT
REMARK Flexibility Score: inf
ROOT
ATOM      1  C   UNL     1      -2.762   8.890  38.973  1.00  0.00     0.000 C 
ENDROOT
BRANCH   1   2
ATOM      2  C   UNL     1      -1.512   8.861  38.077  1.00  0.00     0.000 C 
BRANCH   2   3
ATOM      3  C   UNL     1      -0.245   8.451  38.846  1.00  0.00     0.000 C 
BRANCH   3   4
ATOM      4  C   UNL     1       0.957   8.214  37.920  1.00  0.00     0.006 C 
BRANCH   4   5
ATOM      5  C   UNL     1       1.308   6.725  37.849  1.00  0.00     0.053 C 
BRANCH   5   6
ATOM      6  C   UNL     1       1.065   6.195  36.471  1.00  0.00     0.041 C 
ATOM      7  O   UNL     1       1.943   5.501  35.894  1.00  0.00    -0.550 OA
ATOM      8  O   UNL     1      -0.111   6.510  35.803  1.00  0.00    -0.550 OA
ENDBRANCH   5   6
ENDBRANCH   4   5
ENDBRANCH   3   4
ENDBRANCH   2   3
ENDBRANCH   1   2
BRANCH   1   9
ATOM      9  C   UNL     1      -2.557   8.139  40.298  1.00  0.00     0.000 C 
BRANCH   9  10
ATOM     10  C   UNL     1      -3.783   7.306  40.701  1.00  0.00    -0.000 C 
BRANCH  10  11
ATOM     11  C   UNL     1      -3.725   5.906  40.078  1.00  0.00    -0.000 C 
BRANCH  11  12
ATOM     12  C   UNL     1      -2.334   5.281  40.258  1.00  0.00    -0.000 C 
BRANCH  12  13
ATOM     13  C   UNL     1      -1.662   4.941  38.919  1.00  0.00    -0.003 C 
ATOM     14  C   UNL     1      -2.629   5.008  37.737  1.00  0.00     0.004 C 
ENDBRANCH  12  13
ENDBRANCH  11  12
ENDBRANCH  10  11
ENDBRANCH   9  10
ENDBRANCH   1   9
TORSDOF 10
ENDMDL
MODEL 3
REMARK VINA RESULT:    -3.049      1.974      3.626
REMARK INTER + INTRA:          -6.225
REMARK INTER:                  -4.762
REMARK INTRA:                  -1.463
REMARK UNBOUND:                -1.394
REMARK SMILES CCCCCCCCCCCC(=O)[O-]
REMARK SMILES IDX 7 1 8 2 9 3 10 4 11 5 12 6 13 7 14 8 6 9 5 10 4 11 3 12 2 13
REMARK SMILES IDX 1 14
REMARK H PARENT
REMARK Flexibility Score: inf
ROOT
ATOM      1  C   UNL     1       0.207   7.663  40.735  1.00  0.00     0.000 C 
ENDROOT
BRANCH   1   2
ATOM      2  C   UNL     1       0.152   8.191  39.291  1.00  0.00     0.000 C 
BRANCH   2   3
ATOM      3  C   UNL     1      -1.073   9.086  39.037  1.00  0.00     0.000 C 
BRANCH   3   4
ATOM      4  C   UNL     1      -1.907   8.619  37.835  1.00  0.00     0.006 C 
BRANCH   4   5
ATOM      5  C   UNL     1      -1.035   7.873  36.821  1.00  0.00     0.053 C 
BRANCH   5   6
ATOM      6  C   UNL     1      -1.569   6.495  36.585  1.00  0.00     0.041 C 
ATOM      7  O   UNL     1      -2.415   6.290  35.675  1.00  0.00    -0.550 OA
ATOM      8  O   UNL     1      -1.170   5.446  37.403  1.00  0.00    -0.550 OA
ENDBRANCH   5   6
ENDBRANCH   4   5
ENDBRANCH   3   4
ENDBRANCH   2   3
ENDBRANCH   1   2
BRANCH   1   9
ATOM      9  C   UNL     1      -0.092   8.755  41.775  1.00  0.00     0.000 C 
BRANCH   9  10
ATOM     10  C   UNL     1      -1.047   8.273  42.877  1.00  0.00    -0.000 C 
BRANCH  10  11
ATOM     11  C   UNL     1      -1.961   7.154  42.363  1.00  0.00    -0.000 C 
BRANCH  11  12
ATOM     12  C   UNL     1      -3.387   7.673  42.129  1.00  0.00    -0.000 C 
BRANCH  12  13
ATOM     13  C   UNL     1      -3.904   7.362  40.716  1.00  0.00    -0.003 C 
ATOM     14  C   UNL     1      -3.318   6.073  40.141  1.00  0.00     0.004 C 
ENDBRANCH  12  13
ENDBRANCH  11  12
ENDBRANCH  10  11
ENDBRANCH   9  10
ENDBRANCH   1   9
TORSDOF 10
ENDMDL
MODEL 4
REMARK VINA RESULT:    -2.987      2.800      4.384
REMARK INTER + INTRA:          -6.128
REMARK INTER:                  -4.915
REMARK INTRA:                  -1.212
REMARK UNBOUND:                -1.394
REMARK SMILES CCCCCCCCCCCC(=O)[O-]
REMARK SMILES IDX 7 1 8 2 9 3 10 4 11 5 12 6 13 7 14 8 6 9 5 10 4 11 3 12 2 13
REMARK SMILES IDX 1 14
REMARK H PARENT
REMARK Flexibility Score: inf
ROOT
ATOM      1  C   UNL     1      -2.044   9.064  37.529  1.00  0.00     0.000 C 
ENDROOT
BRANCH   1   2
ATOM      2  C   UNL     1      -0.735   8.257  37.498  1.00  0.00     0.000 C 
BRANCH   2   3
ATOM      3  C   UNL     1       0.492   9.110  37.857  1.00  0.00     0.000 C 
BRANCH   3   4
ATOM      4  C   UNL     1       1.272   8.549  39.055  1.00  0.00     0.006 C 
BRANCH   4   5
ATOM      5  C   UNL     1       0.991   7.055  39.240  1.00  0.00     0.053 C 
BRANCH   5   6
ATOM      6  C   UNL     1       2.126   6.239  38.708  1.00  0.00     0.041 C 
ATOM      7  O   UNL     1       3.138   6.018  39.424  1.00  0.00    -0.550 OA
ATOM      8  O   UNL     1       2.088   5.763  37.404  1.00  0.00    -0.550 OA
ENDBRANCH   5   6
ENDBRANCH   4   5
ENDBRANCH   3   4
ENDBRANCH   2   3
ENDBRANCH   1   2
BRANCH   1   9
ATOM      9  C   UNL     1      -2.668   9.125  38.932  1.00  0.00     0.000 C 
BRANCH   9  10
ATOM     10  C   UNL     1      -2.634   7.768  39.652  1.00  0.00    -0.000 C 
BRANCH  10  11
ATOM     11  C   UNL     1      -3.639   7.734  40.810  1.00  0.00    -0.000 C 
BRANCH  11  12
ATOM     12  C   UNL     1      -2.918   7.761  42.166  1.00  0.00    -0.000 C 
BRANCH  12  13
ATOM     13  C   UNL     1      -1.422   7.436  42.044  1.00  0.00    -0.003 C 
ATOM     14  C   UNL     1      -0.526   8.585  42.506  1.00  0.00     0.004 C 
ENDBRANCH  12  13
ENDBRANCH  11  12
ENDBRANCH  10  11
ENDBRANCH   9  10
ENDBRANCH   1   9
TORSDOF 10
ENDMDL
MODEL 5
REMARK VINA RESULT:    -2.925      3.068      5.145
REMARK INTER + INTRA:          -6.029
REMARK INTER:                  -4.258
REMARK INTRA:                  -1.770
REMARK UNBOUND:                -1.394
REMARK SMILES CCCCCCCCCCCC(=O)[O-]
REMARK SMILES IDX 7 1 8 2 9 3 10 4 11 5 12 6 13 7 14 8 6 9 5 10 4 11 3 12 2 13
REMARK SMILES IDX 1 14
REMARK H PARENT
REMARK Flexibility Score: inf
ROOT
ATOM      1  C   UNL     1      -0.680   7.343  36.021  1.00  0.00     0.000 C 
ENDROOT
BRANCH   1   2
ATOM      2  C   UNL     1      -0.672   8.551  36.973  1.00  0.00     0.000 C 
BRANCH   2   3
ATOM      3  C   UNL     1      -2.044   8.798  37.624  1.00  0.00     0.000 C 
BRANCH   3   4
ATOM      4  C   UNL     1      -1.982   8.779  39.158  1.00  0.00     0.006 C 
BRANCH   4   5
ATOM      5  C   UNL     1      -3.330   8.365  39.755  1.00  0.00     0.053 C 
BRANCH   5   6
ATOM      6  C   UNL     1      -3.131   7.644  41.050  1.00  0.00     0.041 C 
ATOM      7  O   UNL     1      -2.216   7.999  41.840  1.00  0.00    -0.550 OA
ATOM      8  O   UNL     1      -3.923   6.547  41.364  1.00  0.00    -0.550 OA
ENDBRANCH   5   6
ENDBRANCH   4   5
ENDBRANCH   3   4
ENDBRANCH   2   3
ENDBRANCH   1   2
BRANCH   1   9
ATOM      9  C   UNL     1      -1.930   6.464  36.192  1.00  0.00     0.000 C 
BRANCH   9  10
ATOM     10  C   UNL     1      -1.631   5.153  36.933  1.00  0.00    -0.000 C 
BRANCH  10  11
ATOM     11  C   UNL     1      -2.358   5.107  38.283  1.00  0.00    -0.000 C 
BRANCH  11  12
ATOM     12  C   UNL     1      -1.367   4.880  39.434  1.00  0.00    -0.000 C 
BRANCH  12  13
ATOM     13  C   UNL     1       0.049   5.373  39.099  1.00  0.00    -0.003 C 
ATOM     14  C   UNL     1       0.584   6.377  40.119  1.00  0.00     0.004 C 
ENDBRANCH  12  13
ENDBRANCH  11  12
ENDBRANCH  10  11
ENDBRANCH   9  10
ENDBRANCH   1   9
TORSDOF 10
ENDMDL
MODEL 6
REMARK VINA RESULT:    -2.895      2.507      4.134
REMARK INTER + INTRA:          -5.981
REMARK INTER:                  -4.871
REMARK INTRA:                  -1.111
REMARK UNBOUND:                -1.394
REMARK SMILES CCCCCCCCCCCC(=O)[O-]
REMARK SMILES IDX 7 1 8 2 9 3 10 4 11 5 12 6 13 7 14 8 6 9 5 10 4 11 3 12 2 13
REMARK SMILES IDX 1 14
REMARK H PARENT
REMARK Flexibility Score: inf
ROOT
ATOM      1  C   UNL     1      -2.048   9.091  37.191  1.00  0.00     0.000 C 
ENDROOT
BRANCH   1   2
ATOM      2  C   UNL     1      -1.477   7.715  36.806  1.00  0.00     0.000 C 
BRANCH   2   3
ATOM      3  C   UNL     1       0.026   7.769  36.485  1.00  0.00     0.000 C 
BRANCH   3   4
ATOM      4  C   UNL     1       0.744   6.447  36.796  1.00  0.00     0.006 C 
BRANCH   4   5
ATOM      5  C   UNL     1       0.877   6.238  38.307  1.00  0.00     0.053 C 
BRANCH   5   6
ATOM      6  C   UNL     1       2.146   5.514  38.626  1.00  0.00     0.041 C 
ATOM      7  O   UNL     1       2.345   4.354  38.178  1.00  0.00    -0.550 OA
ATOM      8  O   UNL     1       3.089   6.101  39.461  1.00  0.00    -0.550 OA
ENDBRANCH   5   6
ENDBRANCH   4   5
ENDBRANCH   3   4
ENDBRANCH   2   3
ENDBRANCH   1   2
BRANCH   1   9
ATOM      9  C   UNL     1      -2.589   9.124  38.630  1.00  0.00     0.000 C 
BRANCH   9  10
ATOM     10  C   UNL     1      -1.539   8.696  39.665  1.00  0.00    -0.000 C 
BRANCH  10  11
ATOM     11  C   UNL     1      -2.195   7.972  40.848  1.00  0.00    -0.000 C 
BRANCH  11  12
ATOM     12  C   UNL     1      -3.617   7.515  40.492  1.00  0.00    -0.000 C 
BRANCH  12  13
ATOM     13  C   UNL     1      -3.740   5.986  40.402  1.00  0.00    -0.003 C 
ATOM     14  C   UNL     1      -2.854   5.384  39.312  1.00  0.00     0.004 C 
ENDBRANCH  12  13
ENDBRANCH  11  12
ENDBRANCH  10  11
ENDBRANCH   9  10
ENDBRANCH   1   9
TORSDOF 10
ENDMDL
MODEL 7
REMARK VINA RESULT:    -2.872      1.514      3.128
REMARK INTER + INTRA:          -5.946
REMARK INTER:                  -4.323
REMARK INTRA:                  -1.623
REMARK UNBOUND:                -1.394
REMARK SMILES CCCCCCCCCCCC(=O)[O-]
REMARK SMILES IDX 7 1 8 2 9 3 10 4 11 5 12 6 13 7 14 8 6 9 5 10 4 11 3 12 2 13
REMARK SMILES IDX 1 14
REMARK H PARENT
REMARK Flexibility Score: inf
ROOT
ATOM      1  C   UNL     1       0.073   7.919  39.568  1.00  0.00     0.000 C 
ENDROOT
BRANCH   1   2
ATOM      2  C   UNL     1       0.324   6.402  39.570  1.00  0.00     0.000 C 
BRANCH   2   3
ATOM      3  C   UNL     1      -0.207   5.714  38.301  1.00  0.00     0.000 C 
BRANCH   3   4
ATOM      4  C   UNL     1      -1.336   4.716  38.599  1.00  0.00     0.006 C 
BRANCH   4   5
ATOM      5  C   UNL     1      -2.616   5.098  37.850  1.00  0.00     0.053 C 
BRANCH   5   6
ATOM      6  C   UNL     1      -2.450   4.872  36.380  1.00  0.00     0.041 C 
ATOM      7  O   UNL     1      -2.504   5.843  35.579  1.00  0.00    -0.550 OA
ATOM      8  O   UNL     1      -2.286   3.584  35.889  1.00  0.00    -0.550 OA
ENDBRANCH   5   6
ENDBRANCH   4   5
ENDBRANCH   3   4
ENDBRANCH   2   3
ENDBRANCH   1   2
BRANCH   1   9
ATOM      9  C   UNL     1      -1.162   8.315  40.393  1.00  0.00     0.000 C 
BRANCH   9  10
ATOM     10  C   UNL     1      -2.425   8.461  39.531  1.00  0.00    -0.000 C 
BRANCH  10  11
ATOM     11  C   UNL     1      -3.632   7.797  40.207  1.00  0.00    -0.000 C 
BRANCH  11  12
ATOM     12  C   UNL     1      -3.218   7.104  41.513  1.00  0.00    -0.000 C 
BRANCH  12  13
ATOM     13  C   UNL     1      -3.519   5.598  41.503  1.00  0.00    -0.003 C 
ATOM     14  C   UNL     1      -2.375   4.761  42.075  1.00  0.00     0.004 C 
ENDBRANCH  12  13
ENDBRANCH  11  12
ENDBRANCH  10  11
ENDBRANCH   9  10
ENDBRANCH   1   9
TORSDOF 10
ENDMDL
MODEL 8
REMARK VINA RESULT:    -2.852      2.451      3.578
REMARK INTER + INTRA:          -5.914
REMARK INTER:                  -4.338
REMARK INTRA:                  -1.576
REMARK UNBOUND:                -1.394
REMARK SMILES CCCCCCCCCCCC(=O)[O-]
REMARK SMILES IDX 7 1 8 2 9 3 10 4 11 5 12 6 13 7 14 8 6 9 5 10 4 11 3 12 2 13
REMARK SMILES IDX 1 14
REMARK H PARENT
REMARK Flexibility Score: inf
ROOT
ATOM      1  C   UNL     1      -2.746   6.627  39.700  1.00  0.00     0.000 C 
ENDROOT
BRANCH   1   2
ATOM      2  C   UNL     1      -1.722   5.756  40.447  1.00  0.00     0.000 C 
BRANCH   2   3
ATOM      3  C   UNL     1      -0.411   5.584  39.662  1.00  0.00     0.000 C 
BRANCH   3   4
ATOM      4  C   UNL     1       0.719   6.478  40.195  1.00  0.00     0.006 C 
BRANCH   4   5
ATOM      5  C   UNL     1       1.610   6.973  39.052  1.00  0.00     0.053 C 
BRANCH   5   6
ATOM      6  C   UNL     1       2.320   5.825  38.407  1.00  0.00     0.041 C 
ATOM      7  O   UNL     1       2.179   5.604  37.175  1.00  0.00    -0.550 OA
ATOM      8  O   UNL     1       3.099   4.969  39.175  1.00  0.00    -0.550 OA
ENDBRANCH   5   6
ENDBRANCH   4   5
ENDBRANCH   3   4
ENDBRANCH   2   3
ENDBRANCH   1   2
BRANCH   1   9
ATOM      9  C   UNL     1      -2.734   8.090  40.172  1.00  0.00     0.000 C 
BRANCH   9  10
ATOM     10  C   UNL     1      -2.741   9.087  39.004  1.00  0.00    -0.000 C 
BRANCH  10  11
ATOM     11  C   UNL     1      -1.432   9.009  38.208  1.00  0.00    -0.000 C 
BRANCH  11  12
ATOM     12  C   UNL     1      -1.697   8.596  36.753  1.00  0.00    -0.000 C 
BRANCH  12  13
ATOM     13  C   UNL     1      -1.001   7.279  36.378  1.00  0.00    -0.003 C 
ATOM     14  C   UNL     1      -1.988   6.172  36.007  1.00  0.00     0.004 C 
ENDBRANCH  12  13
ENDBRANCH  11  12
ENDBRANCH  10  11
ENDBRANCH   9  10
ENDBRANCH   1   9
TORSDOF 10
ENDMDL
MODEL 9
REMARK VINA RESULT:    -2.851      1.978      3.055
REMARK INTER + INTRA:          -5.912
REMARK INTER:                  -4.196
REMARK INTRA:                  -1.716
REMARK UNBOUND:                -1.394
REMARK SMILES CCCCCCCCCCCC(=O)[O-]
REMARK SMILES IDX 7 1 8 2 9 3 10 4 11 5 12 6 13 7 14 8 6 9 5 10 4 11 3 12 2 13
REMARK SMILES IDX 1 14
REMARK H PARENT
REMARK Flexibility Score: inf
ROOT
ATOM      1  C   UNL     1      -1.340   4.657  40.749  1.00  0.00     0.000 C 
ENDROOT
BRANCH   1   2
ATOM      2  C   UNL     1      -0.852   4.752  39.293  1.00  0.00     0.000 C 
BRANCH   2   3
ATOM      3  C   UNL     1      -1.998   5.023  38.304  1.00  0.00     0.000 C 
BRANCH   3   4
ATOM      4  C   UNL     1      -1.622   6.059  37.234  1.00  0.00     0.006 C 
BRANCH   4   5
ATOM      5  C   UNL     1      -0.116   6.337  37.246  1.00  0.00     0.053 C 
BRANCH   5   6
ATOM      6  C   UNL     1       0.146   7.807  37.161  1.00  0.00     0.041 C 
ATOM      7  O   UNL     1       1.000   8.345  37.915  1.00  0.00    -0.550 OA
ATOM      8  O   UNL     1      -0.587   8.594  36.282  1.00  0.00    -0.550 OA
ENDBRANCH   5   6
ENDBRANCH   4   5
ENDBRANCH   3   4
ENDBRANCH   2   3
ENDBRANCH   1   2
BRANCH   1   9
ATOM      9  C   UNL     1      -0.665   5.689  41.666  1.00  0.00     0.000 C 
BRANCH   9  10
ATOM     10  C   UNL     1      -0.276   6.975  40.922  1.00  0.00    -0.000 C 
BRANCH  10  11
ATOM     11  C   UNL     1      -1.255   8.113  41.241  1.00  0.00    -0.000 C 
BRANCH  11  12
ATOM     12  C   UNL     1      -2.225   8.347  40.074  1.00  0.00    -0.000 C 
BRANCH  12  13
ATOM     13  C   UNL     1      -3.600   7.707  40.313  1.00  0.00    -0.003 C 
ATOM     14  C   UNL     1      -3.905   7.493  41.795  1.00  0.00     0.004 C 
ENDBRANCH  12  13
ENDBRANCH  11  12
ENDBRANCH  10  11
ENDBRANCH   9  10
ENDBRANCH   1   9
TORSDOF 10
ENDMDL
