MODEL 1
REMARK VINA RESULT:    -2.860      0.000      0.000
REMARK INTER + INTRA:          -3.936
REMARK INTER:                  -3.696
REMARK INTRA:                  -0.240
REMARK UNBOUND:                -0.240
REMARK SMILES CCCCCCC(C)=O
REMARK SMILES IDX 4 1 3 2 2 3 1 4 5 5 6 6 7 7 9 8 8 9
REMARK H PARENT
REMARK Flexibility Score: inf
ROOT
ATOM      1  C   UNL     1      -5.764  23.448   9.963  1.00  0.00     0.000 C 
ENDROOT
BRANCH   1   2
ATOM      2  C   UNL     1      -4.599  23.639  10.948  1.00  0.00    -0.000 C 
BRANCH   2   3
ATOM      3  C   UNL     1      -3.266  23.915  10.235  1.00  0.00    -0.003 C 
ATOM      4  C   UNL     1      -3.426  24.092   8.724  1.00  0.00     0.004 C 
ENDBRANCH   2   3
ENDBRANCH   1   2
BRANCH   1   5
ATOM      5  C   UNL     1      -6.517  22.127  10.190  1.00  0.00     0.008 C 
BRANCH   5   6
ATOM      6  C   UNL     1      -7.602  22.239  11.272  1.00  0.00     0.075 C 
BRANCH   6   7
ATOM      7  C   UNL     1      -7.335  21.272  12.394  1.00  0.00     0.129 C 
ATOM      8  O   UNL     1      -6.205  20.832  12.553  1.00  0.00    -0.300 OA
ATOM      9  C   UNL     1      -8.427  20.826  13.320  1.00  0.00     0.087 C 
ENDBRANCH   6   7
ENDBRANCH   5   6
ENDBRANCH   1   5
TORSDOF 5
ENDMDL
MODEL 2
REMARK VINA RESULT:    -2.820      1.981      5.054
REMARK INTER + INTRA:          -3.884
REMARK INTER:                  -3.688
REMARK INTRA:                  -0.196
REMARK UNBOUND:                -0.240
REMARK SMILES CCCCCCC(C)=O
REMARK SMILES IDX 4 1 3 2 2 3 1 4 5 5 6 6 7 7 9 8 8 9
REMARK H PARENT
REMARK Flexibility Score: inf
ROOT
ATOM      1  C   UNL     1      -6.552  22.132  10.581  1.00  0.00     0.000 C 
ENDROOT
BRANCH   1   2
ATOM      2  C   UNL     1      -6.414  21.939  12.100  1.00  0.00    -0.000 C 
BRANCH   2   3
ATOM      3  C   UNL     1      -7.765  22.024  12.829  1.00  0.00    -0.003 C 
ATOM      4  C   UNL     1      -8.334  20.650  13.184  1.00  0.00     0.004 C 
ENDBRANCH   2   3
ENDBRANCH   1   2
BRANCH   1   5
ATOM      5  C   UNL     1      -5.735  23.327  10.062  1.00  0.00     0.008 C 
BRANCH   5   6
ATOM      6  C   UNL     1      -4.465  23.582  10.887  1.00  0.00     0.075 C 
BRANCH   6   7
ATOM      7  C   UNL     1      -3.328  24.003   9.995  1.00  0.00     0.129 C 
ATOM      8  O   UNL     1      -2.292  24.414  10.496  1.00  0.00    -0.300 OA
ATOM      9  C   UNL     1      -3.440  23.937   8.500  1.00  0.00     0.087 C 
ENDBRANCH   6   7
ENDBRANCH   5   6
ENDBRANCH   1   5
TORSDOF 5
ENDMDL
MODEL 3
REMARK VINA RESULT:    -2.768      1.974      5.128
REMARK INTER + INTRA:          -3.817
REMARK INTER:                  -3.551
REMARK INTRA:                  -0.266
REMARK UNBOUND:                -0.240
REMARK SMILES CCCCCCC(C)=O
REMARK SMILES IDX 4 1 3 2 2 3 1 4 5 5 6 6 7 7 9 8 8 9
REMARK H PARENT
REMARK Flexibility Score: inf
ROOT
ATOM      1  C   UNL     1      -8.273  21.621  12.747  1.00  0.00     0.000 C 
ENDROOT
BRANCH   1   2
ATOM      2  C   UNL     1      -8.874  20.331  13.331  1.00  0.00    -0.000 C 
BRANCH   2   3
ATOM      3  C   UNL     1     -10.133  19.876  12.576  1.00  0.00    -0.003 C 
ATOM      4  C   UNL     1     -10.304  20.578  11.229  1.00  0.00     0.004 C 
ENDBRANCH   2   3
ENDBRANCH   1   2
BRANCH   1   5
ATOM      5  C   UNL     1      -6.785  21.468  12.390  1.00  0.00     0.008 C 
BRANCH   5   6
ATOM      6  C   UNL     1      -6.426  22.127  11.050  1.00  0.00     0.075 C 
BRANCH   6   7
ATOM      7  C   UNL     1      -5.520  23.310  11.266  1.00  0.00     0.129 C 
ATOM      8  O   UNL     1      -4.319  23.190  11.077  1.00  0.00    -0.300 OA
ATOM      9  C   UNL     1      -6.059  24.635  11.718  1.00  0.00     0.087 C 
ENDBRANCH   6   7
ENDBRANCH   5   6
ENDBRANCH   1   5
TORSDOF 5
ENDMDL
MODEL 4
REMARK VINA RESULT:    -2.755      2.258      5.211
REMARK INTER + INTRA:          -3.800
REMARK INTER:                  -3.290
REMARK INTRA:                  -0.510
REMARK UNBOUND:                -0.240
REMARK SMILES CCCCCCC(C)=O
REMARK SMILES IDX 4 1 3 2 2 3 1 4 5 5 6 6 7 7 9 8 8 9
REMARK H PARENT
REMARK Flexibility Score: inf
ROOT
ATOM      1  C   UNL     1      -9.287  22.431  14.104  1.00  0.00     0.000 C 
ENDROOT
BRANCH   1   2
ATOM      2  C   UNL     1      -9.632  21.009  14.577  1.00  0.00    -0.000 C 
BRANCH   2   3
ATOM      3  C   UNL     1      -9.397  19.953  13.485  1.00  0.00    -0.003 C 
ATOM      4  C   UNL     1     -10.080  20.304  12.163  1.00  0.00     0.004 C 
ENDBRANCH   2   3
ENDBRANCH   1   2
BRANCH   1   5
ATOM      5  C   UNL     1      -7.771  22.667  14.006  1.00  0.00     0.008 C 
BRANCH   5   6
ATOM      6  C   UNL     1      -7.333  23.144  12.613  1.00  0.00     0.075 C 
BRANCH   6   7
ATOM      7  C   UNL     1      -6.716  22.012  11.834  1.00  0.00     0.129 C 
ATOM      8  O   UNL     1      -6.271  21.044  12.433  1.00  0.00    -0.300 OA
ATOM      9  C   UNL     1      -6.627  22.049  10.337  1.00  0.00     0.087 C 
ENDBRANCH   6   7
ENDBRANCH   5   6
ENDBRANCH   1   5
TORSDOF 5
ENDMDL
MODEL 5
REMARK VINA RESULT:    -2.750      2.464      4.768
REMARK INTER + INTRA:          -3.793
REMARK INTER:                  -3.450
REMARK INTRA:                  -0.343
REMARK UNBOUND:                -0.240
REMARK SMILES CCCCCCC(C)=O
REMARK SMILES IDX 4 1 3 2 2 3 1 4 5 5 6 6 7 7 9 8 8 9
REMARK H PARENT
REMARK Flexibility Score: inf
ROOT
ATOM      1  C   UNL     1      -6.073  22.815   8.802  1.00  0.00     0.000 C 
ENDROOT
BRANCH   1   2
ATOM      2  C   UNL     1      -6.921  22.166   9.908  1.00  0.00    -0.000 C 
BRANCH   2   3
ATOM      3  C   UNL     1      -6.411  22.508  11.317  1.00  0.00    -0.003 C 
ATOM      4  C   UNL     1      -6.774  21.445  12.354  1.00  0.00     0.004 C 
ENDBRANCH   2   3
ENDBRANCH   1   2
BRANCH   1   5
ATOM      5  C   UNL     1      -5.273  24.026   9.307  1.00  0.00     0.008 C 
BRANCH   5   6
ATOM      6  C   UNL     1      -3.784  23.952   8.936  1.00  0.00     0.075 C 
BRANCH   6   7
ATOM      7  C   UNL     1      -2.928  24.440  10.074  1.00  0.00     0.129 C 
ATOM      8  O   UNL     1      -2.138  25.353   9.883  1.00  0.00    -0.300 OA
ATOM      9  C   UNL     1      -3.015  23.825  11.439  1.00  0.00     0.087 C 
ENDBRANCH   6   7
ENDBRANCH   5   6
ENDBRANCH   1   5
TORSDOF 5
ENDMDL
MODEL 6
REMARK VINA RESULT:    -2.699      3.957      6.193
REMARK INTER + INTRA:          -3.728
REMARK INTER:                  -3.571
REMARK INTRA:                  -0.157
REMARK UNBOUND:                -0.240
REMARK SMILES CCCCCCC(C)=O
REMARK SMILES IDX 4 1 3 2 2 3 1 4 5 5 6 6 7 7 9 8 8 9
REMARK H PARENT
REMARK Flexibility Score: inf
ROOT
ATOM      1  C   UNL     1      -7.905  23.732  15.888  1.00  0.00     0.000 C 
ENDROOT
BRANCH   1   2
ATOM      2  C   UNL     1      -7.221  23.555  17.254  1.00  0.00    -0.000 C 
BRANCH   2   3
ATOM      3  C   UNL     1      -8.075  24.094  18.413  1.00  0.00    -0.003 C 
ATOM      4  C   UNL     1      -8.289  25.606  18.340  1.00  0.00     0.004 C 
ENDBRANCH   2   3
ENDBRANCH   1   2
BRANCH   1   5
ATOM      5  C   UNL     1      -8.554  22.433  15.382  1.00  0.00     0.008 C 
BRANCH   5   6
ATOM      6  C   UNL     1      -8.757  22.425  13.860  1.00  0.00     0.075 C 
BRANCH   6   7
ATOM      7  C   UNL     1      -7.994  21.291  13.228  1.00  0.00     0.129 C 
ATOM      8  O   UNL     1      -8.339  20.139  13.447  1.00  0.00    -0.300 OA
ATOM      9  C   UNL     1      -6.810  21.542  12.342  1.00  0.00     0.087 C 
ENDBRANCH   6   7
ENDBRANCH   5   6
ENDBRANCH   1   5
TORSDOF 5
ENDMDL
MODEL 7
REMARK VINA RESULT:    -2.682      1.993      4.840
REMARK INTER + INTRA:          -3.706
REMARK INTER:                  -3.197
REMARK INTRA:                  -0.510
REMARK UNBOUND:                -0.240
REMARK SMILES CCCCCCC(C)=O
REMARK SMILES IDX 4 1 3 2 2 3 1 4 5 5 6 6 7 7 9 8 8 9
REMARK H PARENT
REMARK Flexibility Score: inf
ROOT
ATOM      1  C   UNL     1      -9.588  22.006  13.714  1.00  0.00     0.000 C 
ENDROOT
BRANCH   1   2
ATOM      2  C   UNL     1      -8.971  21.752  15.100  1.00  0.00    -0.000 C 
BRANCH   2   3
ATOM      3  C   UNL     1      -8.264  22.993  15.666  1.00  0.00    -0.003 C 
ATOM      4  C   UNL     1      -8.007  24.065  14.606  1.00  0.00     0.004 C 
ENDBRANCH   2   3
ENDBRANCH   1   2
BRANCH   1   5
ATOM      5  C   UNL     1      -9.059  21.033  12.647  1.00  0.00     0.008 C 
BRANCH   5   6
ATOM      6  C   UNL     1      -8.259  21.740  11.543  1.00  0.00     0.075 C 
BRANCH   6   7
ATOM      7  C   UNL     1      -6.795  21.780  11.892  1.00  0.00     0.129 C 
ATOM      8  O   UNL     1      -6.294  20.841  12.492  1.00  0.00    -0.300 OA
ATOM      9  C   UNL     1      -5.935  22.955  11.528  1.00  0.00     0.087 C 
ENDBRANCH   6   7
ENDBRANCH   5   6
ENDBRANCH   1   5
TORSDOF 5
ENDMDL
MODEL 8
REMARK VINA RESULT:    -2.658      2.468      3.472
REMARK INTER + INTRA:          -3.675
REMARK INTER:                  -3.261
REMARK INTRA:                  -0.414
REMARK UNBOUND:                -0.240
REMARK SMILES CCCCCCC(C)=O
REMARK SMILES IDX 4 1 3 2 2 3 1 4 5 5 6 6 7 7 9 8 8 9
REMARK H PARENT
REMARK Flexibility Score: inf
ROOT
ATOM      1  C   UNL     1      -6.237  22.424  11.417  1.00  0.00     0.000 C 
ENDROOT
BRANCH   1   2
ATOM      2  C   UNL     1      -6.764  22.120  10.005  1.00  0.00    -0.000 C 
BRANCH   2   3
ATOM      3  C   UNL     1      -8.098  22.824   9.711  1.00  0.00    -0.003 C 
ATOM      4  C   UNL     1      -9.293  21.871   9.746  1.00  0.00     0.004 C 
ENDBRANCH   2   3
ENDBRANCH   1   2
BRANCH   1   5
ATOM      5  C   UNL     1      -6.818  21.476  12.480  1.00  0.00     0.008 C 
BRANCH   5   6
ATOM      6  C   UNL     1      -7.832  22.168  13.403  1.00  0.00     0.075 C 
BRANCH   6   7
ATOM      7  C   UNL     1      -8.786  21.162  13.991  1.00  0.00     0.129 C 
ATOM      8  O   UNL     1      -9.129  21.271  15.159  1.00  0.00    -0.300 OA
ATOM      9  C   UNL     1      -9.320  20.021  13.176  1.00  0.00     0.087 C 
ENDBRANCH   6   7
ENDBRANCH   5   6
ENDBRANCH   1   5
TORSDOF 5
ENDMDL
MODEL 9
REMARK VINA RESULT:    -2.654      2.026      4.798
REMARK INTER + INTRA:          -3.669
REMARK INTER:                  -3.220
REMARK INTRA:                  -0.449
REMARK UNBOUND:                -0.240
REMARK SMILES CCCCCCC(C)=O
REMARK SMILES IDX 4 1 3 2 2 3 1 4 5 5 6 6 7 7 9 8 8 9
REMARK H PARENT
REMARK Flexibility Score: inf
ROOT
ATOM      1  C   UNL     1      -8.262  20.909  12.781  1.00  0.00     0.000 C 
ENDROOT
BRANCH   1   2
ATOM      2  C   UNL     1      -8.707  21.456  14.148  1.00  0.00    -0.000 C 
BRANCH   2   3
ATOM      3  C   UNL     1      -8.955  22.972  14.123  1.00  0.00    -0.003 C 
ATOM      4  C   UNL     1      -8.012  23.744  15.046  1.00  0.00     0.004 C 
ENDBRANCH   2   3
ENDBRANCH   1   2
BRANCH   1   5
ATOM      5  C   UNL     1      -6.796  21.243  12.462  1.00  0.00     0.008 C 
BRANCH   5   6
ATOM      6  C   UNL     1      -6.641  22.069  11.176  1.00  0.00     0.075 C 
BRANCH   6   7
ATOM      7  C   UNL     1      -5.726  23.242  11.406  1.00  0.00     0.129 C 
ATOM      8  O   UNL     1      -4.518  23.093  11.293  1.00  0.00    -0.300 OA
ATOM      9  C   UNL     1      -6.262  24.592  11.781  1.00  0.00     0.087 C 
ENDBRANCH   6   7
ENDBRANCH   5   6
ENDBRANCH   1   5
TORSDOF 5
ENDMDL
