MODEL 1
REMARK VINA RESULT:    -3.412      0.000      0.000
REMARK INTER + INTRA:          -4.276
REMARK INTER:                  -4.210
REMARK INTRA:                  -0.066
REMARK UNBOUND:                -0.066
REMARK SMILES CCCCCC(=O)[O-]
REMARK SMILES IDX 4 1 5 2 6 3 7 4 8 5 3 6 2 7 1 8
REMARK H PARENT
REMARK Flexibility Score: inf
ROOT
ATOM      1  C   UNL     1      11.299  37.175  36.668  1.00  0.00     0.006 C 
ENDROOT
BRANCH   1   2
ATOM      2  C   UNL     1      10.378  37.168  37.893  1.00  0.00     0.053 C 
BRANCH   2   3
ATOM      3  C   UNL     1      11.137  37.564  39.121  1.00  0.00     0.041 C 
ATOM      4  O   UNL     1      12.375  37.352  39.197  1.00  0.00    -0.550 OA
ATOM      5  O   UNL     1      10.466  38.123  40.202  1.00  0.00    -0.550 OA
ENDBRANCH   2   3
ENDBRANCH   1   2
BRANCH   1   6
ATOM      6  C   UNL     1      10.892  36.079  35.671  1.00  0.00     0.000 C 
BRANCH   6   7
ATOM      7  C   UNL     1      10.772  36.606  34.233  1.00  0.00    -0.003 C 
ATOM      8  C   UNL     1       9.875  35.732  33.357  1.00  0.00     0.004 C 
ENDBRANCH   6   7
ENDBRANCH   1   6
TORSDOF 4
ENDMDL
MODEL 2
REMARK VINA RESULT:    -3.264     19.351     20.562
REMARK INTER + INTRA:          -4.094
REMARK INTER:                  -3.978
REMARK INTRA:                  -0.116
REMARK UNBOUND:                -0.066
REMARK SMILES CCCCCC(=O)[O-]
REMARK SMILES IDX 4 1 5 2 6 3 7 4 8 5 3 6 2 7 1 8
REMARK H PARENT
REMARK Flexibility Score: inf
ROOT
ATOM      1  C   UNL     1      29.081  35.265  44.732  1.00  0.00     0.006 C 
ENDROOT
BRANCH   1   2
ATOM      2  C   UNL     1      29.759  34.505  45.877  1.00  0.00     0.053 C 
BRANCH   2   3
ATOM      3  C   UNL     1      29.787  35.342  47.117  1.00  0.00     0.041 C 
ATOM      4  O   UNL     1      29.563  36.579  47.052  1.00  0.00    -0.550 OA
ATOM      5  O   UNL     1      30.110  34.764  48.339  1.00  0.00    -0.550 OA
ENDBRANCH   2   3
ENDBRANCH   1   2
BRANCH   1   6
ATOM      6  C   UNL     1      30.125  35.867  43.780  1.00  0.00     0.000 C 
BRANCH   6   7
ATOM      7  C   UNL     1      29.718  37.254  43.259  1.00  0.00    -0.003 C 
ATOM      8  C   UNL     1      28.204  37.462  43.253  1.00  0.00     0.004 C 
ENDBRANCH   6   7
ENDBRANCH   1   6
TORSDOF 4
ENDMDL
MODEL 3
REMARK VINA RESULT:    -3.239      2.878      4.774
REMARK INTER + INTRA:          -4.063
REMARK INTER:                  -3.976
REMARK INTRA:                  -0.086
REMARK UNBOUND:                -0.066
REMARK SMILES CCCCCC(=O)[O-]
REMARK SMILES IDX 4 1 5 2 6 3 7 4 8 5 3 6 2 7 1 8
REMARK H PARENT
REMARK Flexibility Score: inf
ROOT
ATOM      1  C   UNL     1      10.405  36.685  37.550  1.00  0.00     0.006 C 
ENDROOT
BRANCH   1   2
ATOM      2  C   UNL     1      11.140  37.248  36.330  1.00  0.00     0.053 C 
BRANCH   2   3
ATOM      3  C   UNL     1      10.728  36.522  35.088  1.00  0.00     0.041 C 
ATOM      4  O   UNL     1      10.721  37.116  33.979  1.00  0.00    -0.550 OA
ATOM      5  O   UNL     1      10.304  35.200  35.164  1.00  0.00    -0.550 OA
ENDBRANCH   2   3
ENDBRANCH   1   2
BRANCH   1   6
ATOM      6  C   UNL     1       9.875  37.817  38.442  1.00  0.00     0.000 C 
BRANCH   6   7
ATOM      7  C   UNL     1      10.502  37.806  39.844  1.00  0.00    -0.003 C 
ATOM      8  C   UNL     1      12.022  37.967  39.814  1.00  0.00     0.004 C 
ENDBRANCH   6   7
ENDBRANCH   1   6
TORSDOF 4
ENDMDL
MODEL 4
REMARK VINA RESULT:    -3.041      1.090      1.809
REMARK INTER + INTRA:          -3.819
REMARK INTER:                  -3.746
REMARK INTRA:                  -0.073
REMARK UNBOUND:                -0.066
REMARK SMILES CCCCCC(=O)[O-]
REMARK SMILES IDX 4 1 5 2 6 3 7 4 8 5 3 6 2 7 1 8
REMARK H PARENT
REMARK Flexibility Score: inf
ROOT
ATOM      1  C   UNL     1      11.283  37.050  37.819  1.00  0.00     0.006 C 
ENDROOT
BRANCH   1   2
ATOM      2  C   UNL     1      10.599  37.875  38.914  1.00  0.00     0.053 C 
BRANCH   2   3
ATOM      3  C   UNL     1      11.412  37.856  40.170  1.00  0.00     0.041 C 
ATOM      4  O   UNL     1      10.850  37.960  41.291  1.00  0.00    -0.550 OA
ATOM      5  O   UNL     1      12.798  37.772  40.100  1.00  0.00    -0.550 OA
ENDBRANCH   2   3
ENDBRANCH   1   2
BRANCH   1   6
ATOM      6  C   UNL     1      10.256  36.214  37.041  1.00  0.00     0.000 C 
BRANCH   6   7
ATOM      7  C   UNL     1      10.819  35.668  35.720  1.00  0.00    -0.003 C 
ATOM      8  C   UNL     1      10.985  36.751  34.655  1.00  0.00     0.004 C 
ENDBRANCH   6   7
ENDBRANCH   1   6
TORSDOF 4
ENDMDL
MODEL 5
REMARK VINA RESULT:    -2.813     18.585     20.014
REMARK INTER + INTRA:          -3.537
REMARK INTER:                  -3.493
REMARK INTRA:                  -0.044
REMARK UNBOUND:                -0.066
REMARK SMILES CCCCCC(=O)[O-]
REMARK SMILES IDX 4 1 5 2 6 3 7 4 8 5 3 6 2 7 1 8
REMARK H PARENT
REMARK Flexibility Score: inf
ROOT
ATOM      1  C   UNL     1      29.088  36.544  43.552  1.00  0.00     0.006 C 
ENDROOT
BRANCH   1   2
ATOM      2  C   UNL     1      29.848  37.339  42.485  1.00  0.00     0.053 C 
BRANCH   2   3
ATOM      3  C   UNL     1      29.076  37.367  41.204  1.00  0.00     0.041 C 
ATOM      4  O   UNL     1      29.498  36.743  40.196  1.00  0.00    -0.550 OA
ATOM      5  O   UNL     1      27.914  38.124  41.108  1.00  0.00    -0.550 OA
ENDBRANCH   2   3
ENDBRANCH   1   2
BRANCH   1   6
ATOM      6  C   UNL     1      30.062  35.869  44.530  1.00  0.00     0.000 C 
BRANCH   6   7
ATOM      7  C   UNL     1      29.655  36.066  45.998  1.00  0.00    -0.003 C 
ATOM      8  C   UNL     1      29.658  34.761  46.793  1.00  0.00     0.004 C 
ENDBRANCH   6   7
ENDBRANCH   1   6
TORSDOF 4
ENDMDL
MODEL 6
REMARK VINA RESULT:    -2.797     17.740     19.189
REMARK INTER + INTRA:          -3.518
REMARK INTER:                  -3.395
REMARK INTRA:                  -0.123
REMARK UNBOUND:                -0.066
REMARK SMILES CCCCCC(=O)[O-]
REMARK SMILES IDX 4 1 5 2 6 3 7 4 8 5 3 6 2 7 1 8
REMARK H PARENT
REMARK Flexibility Score: inf
ROOT
ATOM      1  C   UNL     1      29.352  36.264  43.062  1.00  0.00     0.006 C 
ENDROOT
BRANCH   1   2
ATOM      2  C   UNL     1      28.329  37.331  43.465  1.00  0.00     0.053 C 
BRANCH   2   3
ATOM      3  C   UNL     1      27.163  37.319  42.528  1.00  0.00     0.041 C 
ATOM      4  O   UNL     1      26.164  38.051  42.750  1.00  0.00    -0.550 OA
ATOM      5  O   UNL     1      27.158  36.462  41.434  1.00  0.00    -0.550 OA
ENDBRANCH   2   3
ENDBRANCH   1   2
BRANCH   1   6
ATOM      6  C   UNL     1      30.105  35.734  44.292  1.00  0.00     0.000 C 
BRANCH   6   7
ATOM      7  C   UNL     1      29.175  35.042  45.300  1.00  0.00    -0.003 C 
ATOM      8  C   UNL     1      29.461  35.449  46.745  1.00  0.00     0.004 C 
ENDBRANCH   6   7
ENDBRANCH   1   6
TORSDOF 4
ENDMDL
MODEL 7
REMARK VINA RESULT:    -2.645     19.061     19.693
REMARK INTER + INTRA:          -3.330
REMARK INTER:                  -3.262
REMARK INTRA:                  -0.068
REMARK UNBOUND:                -0.066
REMARK SMILES CCCCCC(=O)[O-]
REMARK SMILES IDX 4 1 5 2 6 3 7 4 8 5 3 6 2 7 1 8
REMARK H PARENT
REMARK Flexibility Score: inf
ROOT
ATOM      1  C   UNL     1      28.743  37.047  43.319  1.00  0.00     0.006 C 
ENDROOT
BRANCH   1   2
ATOM      2  C   UNL     1      29.365  37.434  44.665  1.00  0.00     0.053 C 
BRANCH   2   3
ATOM      3  C   UNL     1      29.676  36.211  45.469  1.00  0.00     0.041 C 
ATOM      4  O   UNL     1      29.622  36.248  46.726  1.00  0.00    -0.550 OA
ATOM      5  O   UNL     1      30.075  35.042  44.831  1.00  0.00    -0.550 OA
ENDBRANCH   2   3
ENDBRANCH   1   2
BRANCH   1   6
ATOM      6  C   UNL     1      29.723  37.312  42.166  1.00  0.00     0.000 C 
BRANCH   6   7
ATOM      7  C   UNL     1      29.016  37.784  40.887  1.00  0.00    -0.003 C 
ATOM      8  C   UNL     1      29.177  36.804  39.726  1.00  0.00     0.004 C 
ENDBRANCH   6   7
ENDBRANCH   1   6
TORSDOF 4
ENDMDL
MODEL 8
REMARK VINA RESULT:    -2.417     16.062     17.566
REMARK INTER + INTRA:          -3.049
REMARK INTER:                  -2.780
REMARK INTRA:                  -0.269
REMARK UNBOUND:                -0.066
REMARK SMILES CCCCCC(=O)[O-]
REMARK SMILES IDX 4 1 5 2 6 3 7 4 8 5 3 6 2 7 1 8
REMARK H PARENT
REMARK Flexibility Score: inf
ROOT
ATOM      1  C   UNL     1      20.297  31.993  50.320  1.00  0.00     0.006 C 
ENDROOT
BRANCH   1   2
ATOM      2  C   UNL     1      20.773  32.917  49.194  1.00  0.00     0.053 C 
BRANCH   2   3
ATOM      3  C   UNL     1      21.327  32.117  48.058  1.00  0.00     0.041 C 
ATOM      4  O   UNL     1      22.419  32.445  47.525  1.00  0.00    -0.550 OA
ATOM      5  O   UNL     1      20.613  31.035  47.555  1.00  0.00    -0.550 OA
ENDBRANCH   2   3
ENDBRANCH   1   2
BRANCH   1   6
ATOM      6  C   UNL     1      21.487  31.452  51.125  1.00  0.00     0.000 C 
BRANCH   6   7
ATOM      7  C   UNL     1      21.551  29.917  51.125  1.00  0.00    -0.003 C 
ATOM      8  C   UNL     1      22.635  29.370  50.197  1.00  0.00     0.004 C 
ENDBRANCH   6   7
ENDBRANCH   1   6
TORSDOF 4
ENDMDL
MODEL 9
REMARK VINA RESULT:    -2.333     17.025     18.078
REMARK INTER + INTRA:          -2.945
REMARK INTER:                  -2.731
REMARK INTRA:                  -0.214
REMARK UNBOUND:                -0.066
REMARK SMILES CCCCCC(=O)[O-]
REMARK SMILES IDX 4 1 5 2 6 3 7 4 8 5 3 6 2 7 1 8
REMARK H PARENT
REMARK Flexibility Score: inf
ROOT
ATOM      1  C   UNL     1      21.382  29.879  50.941  1.00  0.00     0.006 C 
ENDROOT
BRANCH   1   2
ATOM      2  C   UNL     1      21.463  31.398  51.125  1.00  0.00     0.053 C 
BRANCH   2   3
ATOM      3  C   UNL     1      20.789  32.100  49.989  1.00  0.00     0.041 C 
ATOM      4  O   UNL     1      19.586  32.457  50.087  1.00  0.00    -0.550 OA
ATOM      5  O   UNL     1      21.475  32.316  48.799  1.00  0.00    -0.550 OA
ENDBRANCH   2   3
ENDBRANCH   1   2
BRANCH   1   6
ATOM      6  C   UNL     1      22.696  29.324  50.372  1.00  0.00     0.000 C 
BRANCH   6   7
ATOM      7  C   UNL     1      22.582  28.939  48.890  1.00  0.00    -0.003 C 
ATOM      8  C   UNL     1      23.721  29.505  48.042  1.00  0.00     0.004 C 
ENDBRANCH   6   7
ENDBRANCH   1   6
TORSDOF 4
ENDMDL
