MODEL 1
REMARK VINA RESULT:    -5.190      0.000      0.000
REMARK INTER + INTRA:         -11.741
REMARK INTER:                  -9.438
REMARK INTRA:                  -2.303
REMARK UNBOUND:                -2.303
REMARK SMILES CCCCCCCCCCCCCC[C@H](C)C(=O)[O-]
REMARK SMILES IDX 9 1 10 2 11 3 12 4 13 5 14 6 15 7 16 8 17 9 18 10 19 11 8 12
REMARK SMILES IDX 7 13 6 14 5 15 4 16 3 17 2 18 1 19
REMARK H PARENT
REMARK Flexibility Score: inf
ROOT
ATOM      1  C   UNL     1       4.811  47.719   8.434  1.00  0.00     0.000 C 
ENDROOT
BRANCH   1   2
ATOM      2  C   UNL     1       5.335  47.010   9.691  1.00  0.00     0.000 C 
BRANCH   2   3
ATOM      3  C   UNL     1       4.587  45.700   9.987  1.00  0.00     0.000 C 
BRANCH   3   4
ATOM      4  C   UNL     1       3.926  45.694  11.375  1.00  0.00     0.000 C 
BRANCH   4   5
ATOM      5  C   UNL     1       3.986  44.302  12.042  1.00  0.00     0.001 C 
BRANCH   5   6
ATOM      6  C   UNL     1       3.817  43.136  11.049  1.00  0.00     0.009 C 
BRANCH   6   7
ATOM      7  C   UNL     1       2.766  42.089  11.478  1.00  0.00     0.032 C 
ATOM      8  C   UNL     1       1.653  42.751  12.298  1.00  0.00     0.014 C 
BRANCH   7   9
ATOM      9  C   UNL     1       3.382  40.971  12.278  1.00  0.00     0.044 C 
ATOM     10  O   UNL     1       2.689  39.985  12.644  1.00  0.00    -0.550 OA
ATOM     11  O   UNL     1       4.738  41.000  12.576  1.00  0.00    -0.550 OA
ENDBRANCH   7   9
ENDBRANCH   6   7
ENDBRANCH   5   6
ENDBRANCH   4   5
ENDBRANCH   3   4
ENDBRANCH   2   3
ENDBRANCH   1   2
BRANCH   1  12
ATOM     12  C   UNL     1       3.379  47.274   8.112  1.00  0.00     0.000 C 
BRANCH  12  13
ATOM     13  C   UNL     1       2.518  48.470   7.678  1.00  0.00    -0.000 C 
BRANCH  13  14
ATOM     14  C   UNL     1       1.252  48.635   8.534  1.00  0.00    -0.000 C 
BRANCH  14  15
ATOM     15  C   UNL     1       1.196  47.741   9.789  1.00  0.00    -0.000 C 
BRANCH  15  16
ATOM     16  C   UNL     1       0.091  46.663   9.736  1.00  0.00    -0.000 C 
BRANCH  16  17
ATOM     17  C   UNL     1       0.658  45.241   9.889  1.00  0.00    -0.000 C 
BRANCH  17  18
ATOM     18  C   UNL     1       0.874  44.545   8.537  1.00  0.00    -0.003 C 
ATOM     19  C   UNL     1      -0.127  45.000   7.475  1.00  0.00     0.004 C 
ENDBRANCH  17  18
ENDBRANCH  16  17
ENDBRANCH  15  16
ENDBRANCH  14  15
ENDBRANCH  13  14
ENDBRANCH  12  13
ENDBRANCH   1  12
TORSDOF 14
ENDMDL
MODEL 2
REMARK VINA RESULT:    -5.089      1.355      4.062
REMARK INTER + INTRA:         -11.558
REMARK INTER:                  -9.672
REMARK INTRA:                  -1.886
REMARK UNBOUND:                -2.303
REMARK SMILES CCCCCCCCCCCCCC[C@H](C)C(=O)[O-]
REMARK SMILES IDX 9 1 10 2 11 3 12 4 13 5 14 6 15 7 16 8 17 9 18 10 19 11 8 12
REMARK SMILES IDX 7 13 6 14 5 15 4 16 3 17 2 18 1 19
REMARK H PARENT
REMARK Flexibility Score: inf
ROOT
ATOM      1  C   UNL     1       0.022  46.802   7.227  1.00  0.00     0.000 C 
ENDROOT
BRANCH   1   2
ATOM      2  C   UNL     1      -0.587  45.538   7.850  1.00  0.00     0.000 C 
BRANCH   2   3
ATOM      3  C   UNL     1       0.393  44.354   7.863  1.00  0.00     0.000 C 
BRANCH   3   4
ATOM      4  C   UNL     1       1.324  44.367   9.087  1.00  0.00     0.000 C 
BRANCH   4   5
ATOM      5  C   UNL     1       2.435  43.299   8.985  1.00  0.00     0.001 C 
BRANCH   5   6
ATOM      6  C   UNL     1       3.539  43.454  10.048  1.00  0.00     0.009 C 
BRANCH   6   7
ATOM      7  C   UNL     1       3.008  43.739  11.471  1.00  0.00     0.032 C 
ATOM      8  C   UNL     1       4.143  44.223  12.380  1.00  0.00     0.014 C 
BRANCH   7   9
ATOM      9  C   UNL     1       2.359  42.524  12.081  1.00  0.00     0.044 C 
ATOM     10  O   UNL     1       1.213  42.601  12.598  1.00  0.00    -0.550 OA
ATOM     11  O   UNL     1       3.006  41.296  12.033  1.00  0.00    -0.550 OA
ENDBRANCH   7   9
ENDBRANCH   6   7
ENDBRANCH   5   6
ENDBRANCH   4   5
ENDBRANCH   3   4
ENDBRANCH   2   3
ENDBRANCH   1   2
BRANCH   1  12
ATOM     12  C   UNL     1      -0.152  48.009   8.157  1.00  0.00     0.000 C 
BRANCH  12  13
ATOM     13  C   UNL     1       1.197  48.445   8.749  1.00  0.00    -0.000 C 
BRANCH  13  14
ATOM     14  C   UNL     1       2.270  48.681   7.673  1.00  0.00    -0.000 C 
BRANCH  14  15
ATOM     15  C   UNL     1       3.589  47.913   7.891  1.00  0.00    -0.000 C 
BRANCH  15  16
ATOM     16  C   UNL     1       3.625  47.099   9.203  1.00  0.00    -0.000 C 
BRANCH  16  17
ATOM     17  C   UNL     1       5.063  46.806   9.667  1.00  0.00    -0.000 C 
BRANCH  17  18
ATOM     18  C   UNL     1       6.094  47.737   9.012  1.00  0.00    -0.003 C 
ATOM     19  C   UNL     1       7.485  47.601   9.630  1.00  0.00     0.004 C 
ENDBRANCH  17  18
ENDBRANCH  16  17
ENDBRANCH  15  16
ENDBRANCH  14  15
ENDBRANCH  13  14
ENDBRANCH  12  13
ENDBRANCH   1  12
TORSDOF 14
ENDMDL
MODEL 3
REMARK VINA RESULT:    -4.989      1.277      3.731
REMARK INTER + INTRA:         -11.375
REMARK INTER:                  -9.559
REMARK INTRA:                  -1.815
REMARK UNBOUND:                -2.303
REMARK SMILES CCCCCCCCCCCCCC[C@H](C)C(=O)[O-]
REMARK SMILES IDX 9 1 10 2 11 3 12 4 13 5 14 6 15 7 16 8 17 9 18 10 19 11 8 12
REMARK SMILES IDX 7 13 6 14 5 15 4 16 3 17 2 18 1 19
REMARK H PARENT
REMARK Flexibility Score: inf
ROOT
ATOM      1  C   UNL     1       0.593  44.803   8.819  1.00  0.00     0.000 C 
ENDROOT
BRANCH   1   2
ATOM      2  C   UNL     1       1.443  44.033   9.840  1.00  0.00     0.000 C 
BRANCH   2   3
ATOM      3  C   UNL     1       2.538  43.182   9.178  1.00  0.00     0.000 C 
BRANCH   3   4
ATOM      4  C   UNL     1       3.896  43.302   9.889  1.00  0.00     0.000 C 
BRANCH   4   5
ATOM      5  C   UNL     1       3.744  43.385  11.424  1.00  0.00     0.001 C 
BRANCH   5   6
ATOM      6  C   UNL     1       4.107  42.075  12.150  1.00  0.00     0.009 C 
BRANCH   6   7
ATOM      7  C   UNL     1       3.001  40.997  12.097  1.00  0.00     0.032 C 
ATOM      8  C   UNL     1       1.707  41.525  12.726  1.00  0.00     0.014 C 
BRANCH   7   9
ATOM      9  C   UNL     1       3.419  39.731  12.798  1.00  0.00     0.044 C 
ATOM     10  O   UNL     1       4.489  39.688  13.461  1.00  0.00    -0.550 OA
ATOM     11  O   UNL     1       2.598  38.611  12.753  1.00  0.00    -0.550 OA
ENDBRANCH   7   9
ENDBRANCH   6   7
ENDBRANCH   5   6
ENDBRANCH   4   5
ENDBRANCH   3   4
ENDBRANCH   2   3
ENDBRANCH   1   2
BRANCH   1  12
ATOM     12  C   UNL     1      -0.105  45.999   9.478  1.00  0.00     0.000 C 
BRANCH  12  13
ATOM     13  C   UNL     1       0.823  47.223   9.515  1.00  0.00    -0.000 C 
BRANCH  13  14
ATOM     14  C   UNL     1       1.662  47.373   8.235  1.00  0.00    -0.000 C 
BRANCH  14  15
ATOM     15  C   UNL     1       3.179  47.518   8.466  1.00  0.00    -0.000 C 
BRANCH  15  16
ATOM     16  C   UNL     1       3.658  46.958   9.824  1.00  0.00    -0.000 C 
BRANCH  16  17
ATOM     17  C   UNL     1       5.170  46.672   9.835  1.00  0.00    -0.000 C 
BRANCH  17  18
ATOM     18  C   UNL     1       5.977  47.740   9.083  1.00  0.00    -0.003 C 
ATOM     19  C   UNL     1       7.461  47.725   9.452  1.00  0.00     0.004 C 
ENDBRANCH  17  18
ENDBRANCH  16  17
ENDBRANCH  15  16
ENDBRANCH  14  15
ENDBRANCH  13  14
ENDBRANCH  12  13
ENDBRANCH   1  12
TORSDOF 14
ENDMDL
MODEL 4
REMARK VINA RESULT:    -4.963      1.222      3.344
REMARK INTER + INTRA:         -11.328
REMARK INTER:                  -9.642
REMARK INTRA:                  -1.686
REMARK UNBOUND:                -2.303
REMARK SMILES CCCCCCCCCCCCCC[C@H](C)C(=O)[O-]
REMARK SMILES IDX 9 1 10 2 11 3 12 4 13 5 14 6 15 7 16 8 17 9 18 10 19 11 8 12
REMARK SMILES IDX 7 13 6 14 5 15 4 16 3 17 2 18 1 19
REMARK H PARENT
REMARK Flexibility Score: inf
ROOT
ATOM      1  C   UNL     1       1.553  44.194   9.636  1.00  0.00     0.000 C 
ENDROOT
BRANCH   1   2
ATOM      2  C   UNL     1       2.716  43.389   9.041  1.00  0.00     0.000 C 
BRANCH   2   3
ATOM      3  C   UNL     1       4.053  43.671   9.746  1.00  0.00     0.000 C 
BRANCH   3   4
ATOM      4  C   UNL     1       3.887  44.521  11.016  1.00  0.00     0.000 C 
BRANCH   4   5
ATOM      5  C   UNL     1       3.821  43.654  12.293  1.00  0.00     0.001 C 
BRANCH   5   6
ATOM      6  C   UNL     1       4.211  42.182  12.057  1.00  0.00     0.009 C 
BRANCH   6   7
ATOM      7  C   UNL     1       3.011  41.210  12.019  1.00  0.00     0.032 C 
ATOM      8  C   UNL     1       1.767  41.870  12.620  1.00  0.00     0.014 C 
BRANCH   7   9
ATOM      9  C   UNL     1       3.306  39.928  12.755  1.00  0.00     0.044 C 
ATOM     10  O   UNL     1       2.412  39.053  12.902  1.00  0.00    -0.550 OA
ATOM     11  O   UNL     1       4.586  39.684  13.236  1.00  0.00    -0.550 OA
ENDBRANCH   7   9
ENDBRANCH   6   7
ENDBRANCH   5   6
ENDBRANCH   4   5
ENDBRANCH   3   4
ENDBRANCH   2   3
ENDBRANCH   1   2
BRANCH   1  12
ATOM     12  C   UNL     1       0.638  44.735   8.530  1.00  0.00     0.000 C 
BRANCH  12  13
ATOM     13  C   UNL     1       0.331  46.224   8.752  1.00  0.00    -0.000 C 
BRANCH  13  14
ATOM     14  C   UNL     1       0.693  47.094   7.538  1.00  0.00    -0.000 C 
BRANCH  14  15
ATOM     15  C   UNL     1       1.933  47.990   7.726  1.00  0.00    -0.000 C 
BRANCH  15  16
ATOM     16  C   UNL     1       2.918  47.470   8.797  1.00  0.00    -0.000 C 
BRANCH  16  17
ATOM     17  C   UNL     1       4.372  47.455   8.291  1.00  0.00    -0.000 C 
BRANCH  17  18
ATOM     18  C   UNL     1       5.393  47.384   9.437  1.00  0.00    -0.003 C 
ATOM     19  C   UNL     1       6.717  48.063   9.087  1.00  0.00     0.004 C 
ENDBRANCH  17  18
ENDBRANCH  16  17
ENDBRANCH  15  16
ENDBRANCH  14  15
ENDBRANCH  13  14
ENDBRANCH  12  13
ENDBRANCH   1  12
TORSDOF 14
ENDMDL
MODEL 5
REMARK VINA RESULT:    -4.941      3.324      6.420
REMARK INTER + INTRA:         -11.288
REMARK INTER:                  -9.355
REMARK INTRA:                  -1.933
REMARK UNBOUND:                -2.303
REMARK SMILES CCCCCCCCCCCCCC[C@H](C)C(=O)[O-]
REMARK SMILES IDX 9 1 10 2 11 3 12 4 13 5 14 6 15 7 16 8 17 9 18 10 19 11 8 12
REMARK SMILES IDX 7 13 6 14 5 15 4 16 3 17 2 18 1 19
REMARK H PARENT
REMARK Flexibility Score: inf
ROOT
ATOM      1  C   UNL     1       3.685  43.576   9.199  1.00  0.00     0.000 C 
ENDROOT
BRANCH   1   2
ATOM      2  C   UNL     1       2.192  43.461   8.862  1.00  0.00     0.000 C 
BRANCH   2   3
ATOM      3  C   UNL     1       1.506  44.831   8.740  1.00  0.00     0.000 C 
BRANCH   3   4
ATOM      4  C   UNL     1       0.422  45.050   9.809  1.00  0.00     0.000 C 
BRANCH   4   5
ATOM      5  C   UNL     1       0.230  46.545  10.145  1.00  0.00     0.001 C 
BRANCH   5   6
ATOM      6  C   UNL     1       1.437  47.422   9.762  1.00  0.00     0.009 C 
BRANCH   6   7
ATOM      7  C   UNL     1       1.087  48.612   8.840  1.00  0.00     0.032 C 
ATOM      8  C   UNL     1      -0.267  48.383   8.161  1.00  0.00     0.014 C 
BRANCH   7   9
ATOM      9  C   UNL     1       2.144  48.837   7.791  1.00  0.00     0.044 C 
ATOM     10  O   UNL     1       2.240  49.948   7.206  1.00  0.00    -0.550 OA
ATOM     11  O   UNL     1       3.053  47.829   7.496  1.00  0.00    -0.550 OA
ENDBRANCH   7   9
ENDBRANCH   6   7
ENDBRANCH   5   6
ENDBRANCH   4   5
ENDBRANCH   3   4
ENDBRANCH   2   3
ENDBRANCH   1   2
BRANCH   1  12
ATOM     12  C   UNL     1       4.071  45.032   9.489  1.00  0.00     0.000 C 
BRANCH  12  13
ATOM     13  C   UNL     1       4.188  45.278  11.000  1.00  0.00    -0.000 C 
BRANCH  13  14
ATOM     14  C   UNL     1       3.995  43.998  11.829  1.00  0.00    -0.000 C 
BRANCH  14  15
ATOM     15  C   UNL     1       2.597  43.837  12.459  1.00  0.00    -0.000 C 
BRANCH  15  16
ATOM     16  C   UNL     1       2.003  42.420  12.303  1.00  0.00    -0.000 C 
BRANCH  16  17
ATOM     17  C   UNL     1       3.069  41.382  11.908  1.00  0.00    -0.000 C 
BRANCH  17  18
ATOM     18  C   UNL     1       3.014  40.120  12.781  1.00  0.00    -0.003 C 
ATOM     19  C   UNL     1       4.400  39.648  13.219  1.00  0.00     0.004 C 
ENDBRANCH  17  18
ENDBRANCH  16  17
ENDBRANCH  15  16
ENDBRANCH  14  15
ENDBRANCH  13  14
ENDBRANCH  12  13
ENDBRANCH   1  12
TORSDOF 14
ENDMDL
MODEL 6
REMARK VINA RESULT:    -4.895      2.919      6.411
REMARK INTER + INTRA:         -11.205
REMARK INTER:                  -9.675
REMARK INTRA:                  -1.531
REMARK UNBOUND:                -2.303
REMARK SMILES CCCCCCCCCCCCCC[C@H](C)C(=O)[O-]
REMARK SMILES IDX 9 1 10 2 11 3 12 4 13 5 14 6 15 7 16 8 17 9 18 10 19 11 8 12
REMARK SMILES IDX 7 13 6 14 5 15 4 16 3 17 2 18 1 19
REMARK H PARENT
REMARK Flexibility Score: inf
ROOT
ATOM      1  C   UNL     1       1.180  44.449   9.109  1.00  0.00     0.000 C 
ENDROOT
BRANCH   1   2
ATOM      2  C   UNL     1       0.375  45.284   8.103  1.00  0.00     0.000 C 
BRANCH   2   3
ATOM      3  C   UNL     1       0.293  46.767   8.496  1.00  0.00     0.000 C 
BRANCH   3   4
ATOM      4  C   UNL     1       1.362  47.627   7.801  1.00  0.00     0.000 C 
BRANCH   4   5
ATOM      5  C   UNL     1       2.566  47.916   8.724  1.00  0.00     0.001 C 
BRANCH   5   6
ATOM      6  C   UNL     1       3.930  47.768   8.023  1.00  0.00     0.009 C 
BRANCH   6   7
ATOM      7  C   UNL     1       4.997  47.033   8.865  1.00  0.00     0.032 C 
ATOM      8  C   UNL     1       4.455  46.723  10.264  1.00  0.00     0.014 C 
BRANCH   7   9
ATOM      9  C   UNL     1       6.266  47.835   8.984  1.00  0.00     0.044 C 
ATOM     10  O   UNL     1       6.363  48.967   8.441  1.00  0.00    -0.550 OA
ATOM     11  O   UNL     1       7.326  47.346   9.737  1.00  0.00    -0.550 OA
ENDBRANCH   7   9
ENDBRANCH   6   7
ENDBRANCH   5   6
ENDBRANCH   4   5
ENDBRANCH   3   4
ENDBRANCH   2   3
ENDBRANCH   1   2
BRANCH   1  12
ATOM     12  C   UNL     1       1.059  45.030  10.524  1.00  0.00     0.000 C 
BRANCH  12  13
ATOM     13  C   UNL     1       1.266  43.938  11.584  1.00  0.00    -0.000 C 
BRANCH  13  14
ATOM     14  C   UNL     1       2.604  44.077  12.329  1.00  0.00    -0.000 C 
BRANCH  14  15
ATOM     15  C   UNL     1       3.692  43.072  11.904  1.00  0.00    -0.000 C 
BRANCH  15  16
ATOM     16  C   UNL     1       3.134  41.700  11.464  1.00  0.00    -0.000 C 
BRANCH  16  17
ATOM     17  C   UNL     1       2.663  40.853  12.659  1.00  0.00    -0.000 C 
BRANCH  17  18
ATOM     18  C   UNL     1       3.460  39.548  12.806  1.00  0.00    -0.003 C 
ATOM     19  C   UNL     1       4.866  39.777  13.361  1.00  0.00     0.004 C 
ENDBRANCH  17  18
ENDBRANCH  16  17
ENDBRANCH  15  16
ENDBRANCH  14  15
ENDBRANCH  13  14
ENDBRANCH  12  13
ENDBRANCH   1  12
TORSDOF 14
ENDMDL
MODEL 7
REMARK VINA RESULT:    -4.847      1.200      2.194
REMARK INTER + INTRA:         -11.118
REMARK INTER:                  -9.225
REMARK INTRA:                  -1.893
REMARK UNBOUND:                -2.303
REMARK SMILES CCCCCCCCCCCCCC[C@H](C)C(=O)[O-]
REMARK SMILES IDX 9 1 10 2 11 3 12 4 13 5 14 6 15 7 16 8 17 9 18 10 19 11 8 12
REMARK SMILES IDX 7 13 6 14 5 15 4 16 3 17 2 18 1 19
REMARK H PARENT
REMARK Flexibility Score: inf
ROOT
ATOM      1  C   UNL     1       4.483  45.954   9.538  1.00  0.00     0.000 C 
ENDROOT
BRANCH   1   2
ATOM      2  C   UNL     1       4.338  45.707  11.047  1.00  0.00     0.000 C 
BRANCH   2   3
ATOM      3  C   UNL     1       4.123  44.223  11.385  1.00  0.00     0.000 C 
BRANCH   3   4
ATOM      4  C   UNL     1       2.893  43.989  12.278  1.00  0.00     0.000 C 
BRANCH   4   5
ATOM      5  C   UNL     1       2.154  42.681  11.921  1.00  0.00     0.001 C 
BRANCH   5   6
ATOM      6  C   UNL     1       3.100  41.496  11.645  1.00  0.00     0.009 C 
BRANCH   6   7
ATOM      7  C   UNL     1       3.373  40.606  12.879  1.00  0.00     0.032 C 
ATOM      8  C   UNL     1       4.863  40.264  12.973  1.00  0.00     0.014 C 
BRANCH   7   9
ATOM      9  C   UNL     1       2.566  39.335  12.842  1.00  0.00     0.044 C 
ATOM     10  O   UNL     1       3.085  38.256  12.452  1.00  0.00    -0.550 OA
ATOM     11  O   UNL     1       1.250  39.337  13.286  1.00  0.00    -0.550 OA
ENDBRANCH   7   9
ENDBRANCH   6   7
ENDBRANCH   5   6
ENDBRANCH   4   5
ENDBRANCH   3   4
ENDBRANCH   2   3
ENDBRANCH   1   2
BRANCH   1  12
ATOM     12  C   UNL     1       4.177  47.416   9.191  1.00  0.00     0.000 C 
BRANCH  12  13
ATOM     13  C   UNL     1       3.485  47.521   7.823  1.00  0.00    -0.000 C 
BRANCH  13  14
ATOM     14  C   UNL     1       2.314  48.517   7.824  1.00  0.00    -0.000 C 
BRANCH  14  15
ATOM     15  C   UNL     1       0.915  47.874   7.739  1.00  0.00    -0.000 C 
BRANCH  15  16
ATOM     16  C   UNL     1       0.197  47.763   9.102  1.00  0.00    -0.000 C 
BRANCH  16  17
ATOM     17  C   UNL     1       0.856  46.720  10.023  1.00  0.00    -0.000 C 
BRANCH  17  18
ATOM     18  C   UNL     1       0.250  45.319   9.853  1.00  0.00    -0.003 C 
ATOM     19  C   UNL     1       1.065  44.437   8.906  1.00  0.00     0.004 C 
ENDBRANCH  17  18
ENDBRANCH  16  17
ENDBRANCH  15  16
ENDBRANCH  14  15
ENDBRANCH  13  14
ENDBRANCH  12  13
ENDBRANCH   1  12
TORSDOF 14
ENDMDL
MODEL 8
REMARK VINA RESULT:    -4.810      2.989      5.405
REMARK INTER + INTRA:         -11.051
REMARK INTER:                  -8.962
REMARK INTRA:                  -2.089
REMARK UNBOUND:                -2.303
REMARK SMILES CCCCCCCCCCCCCC[C@H](C)C(=O)[O-]
REMARK SMILES IDX 9 1 10 2 11 3 12 4 13 5 14 6 15 7 16 8 17 9 18 10 19 11 8 12
REMARK SMILES IDX 7 13 6 14 5 15 4 16 3 17 2 18 1 19
REMARK H PARENT
REMARK Flexibility Score: inf
ROOT
ATOM      1  C   UNL     1       4.799  47.827   8.433  1.00  0.00     0.000 C 
ENDROOT
BRANCH   1   2
ATOM      2  C   UNL     1       3.385  47.352   8.068  1.00  0.00     0.000 C 
BRANCH   2   3
ATOM      3  C   UNL     1       2.397  48.516   7.889  1.00  0.00     0.000 C 
BRANCH   3   4
ATOM      4  C   UNL     1       1.425  48.658   9.073  1.00  0.00     0.000 C 
BRANCH   4   5
ATOM      5  C   UNL     1       1.227  47.324   9.826  1.00  0.00     0.001 C 
BRANCH   5   6
ATOM      6  C   UNL     1      -0.187  46.733   9.669  1.00  0.00     0.009 C 
BRANCH   6   7
ATOM      7  C   UNL     1      -0.243  45.451   8.809  1.00  0.00     0.032 C 
ATOM      8  C   UNL     1       1.040  44.632   8.983  1.00  0.00     0.014 C 
BRANCH   7   9
ATOM      9  C   UNL     1      -0.446  45.764   7.349  1.00  0.00     0.044 C 
ATOM     10  O   UNL     1      -0.818  46.910   6.985  1.00  0.00    -0.550 OA
ATOM     11  O   UNL     1      -0.176  44.797   6.390  1.00  0.00    -0.550 OA
ENDBRANCH   7   9
ENDBRANCH   6   7
ENDBRANCH   5   6
ENDBRANCH   4   5
ENDBRANCH   3   4
ENDBRANCH   2   3
ENDBRANCH   1   2
BRANCH   1  12
ATOM     12  C   UNL     1       5.377  46.994   9.583  1.00  0.00     0.000 C 
BRANCH  12  13
ATOM     13  C   UNL     1       4.502  45.762   9.861  1.00  0.00    -0.000 C 
BRANCH  13  14
ATOM     14  C   UNL     1       4.120  45.627  11.344  1.00  0.00    -0.000 C 
BRANCH  14  15
ATOM     15  C   UNL     1       3.788  44.192  11.801  1.00  0.00    -0.000 C 
BRANCH  15  16
ATOM     16  C   UNL     1       2.307  43.990  12.188  1.00  0.00    -0.000 C 
BRANCH  16  17
ATOM     17  C   UNL     1       1.890  42.509  12.140  1.00  0.00    -0.000 C 
BRANCH  17  18
ATOM     18  C   UNL     1       3.053  41.582  11.756  1.00  0.00    -0.003 C 
ATOM     19  C   UNL     1       3.063  40.285  12.565  1.00  0.00     0.004 C 
ENDBRANCH  17  18
ENDBRANCH  16  17
ENDBRANCH  15  16
ENDBRANCH  14  15
ENDBRANCH  13  14
ENDBRANCH  12  13
ENDBRANCH   1  12
TORSDOF 14
ENDMDL
MODEL 9
REMARK VINA RESULT:    -4.803      2.561      5.761
REMARK INTER + INTRA:         -11.037
REMARK INTER:                  -9.362
REMARK INTRA:                  -1.674
REMARK UNBOUND:                -2.303
REMARK SMILES CCCCCCCCCCCCCC[C@H](C)C(=O)[O-]
REMARK SMILES IDX 9 1 10 2 11 3 12 4 13 5 14 6 15 7 16 8 17 9 18 10 19 11 8 12
REMARK SMILES IDX 7 13 6 14 5 15 4 16 3 17 2 18 1 19
REMARK H PARENT
REMARK Flexibility Score: inf
ROOT
ATOM      1  C   UNL     1       4.138  45.257   9.126  1.00  0.00     0.000 C 
ENDROOT
BRANCH   1   2
ATOM      2  C   UNL     1       4.392  46.656   9.705  1.00  0.00     0.000 C 
BRANCH   2   3
ATOM      3  C   UNL     1       4.720  47.694   8.621  1.00  0.00     0.000 C 
BRANCH   3   4
ATOM      4  C   UNL     1       3.530  47.978   7.688  1.00  0.00     0.000 C 
BRANCH   4   5
ATOM      5  C   UNL     1       2.196  48.069   8.460  1.00  0.00     0.001 C 
BRANCH   5   6
ATOM      6  C   UNL     1       1.000  47.469   7.696  1.00  0.00     0.009 C 
BRANCH   6   7
ATOM      7  C   UNL     1       0.187  46.435   8.507  1.00  0.00     0.032 C 
ATOM      8  C   UNL     1       0.667  46.397   9.961  1.00  0.00     0.014 C 
BRANCH   7   9
ATOM      9  C   UNL     1       0.282  45.055   7.910  1.00  0.00     0.044 C 
ATOM     10  O   UNL     1      -0.202  44.813   6.773  1.00  0.00    -0.550 OA
ATOM     11  O   UNL     1       0.951  44.049   8.596  1.00  0.00    -0.550 OA
ENDBRANCH   7   9
ENDBRANCH   6   7
ENDBRANCH   5   6
ENDBRANCH   4   5
ENDBRANCH   3   4
ENDBRANCH   2   3
ENDBRANCH   1   2
BRANCH   1  12
ATOM     12  C   UNL     1       4.228  44.186  10.221  1.00  0.00     0.000 C 
BRANCH  12  13
ATOM     13  C   UNL     1       3.902  44.782  11.598  1.00  0.00    -0.000 C 
BRANCH  13  14
ATOM     14  C   UNL     1       2.878  43.945  12.382  1.00  0.00    -0.000 C 
BRANCH  14  15
ATOM     15  C   UNL     1       2.283  42.753  11.605  1.00  0.00    -0.000 C 
BRANCH  15  16
ATOM     16  C   UNL     1       2.571  41.382  12.255  1.00  0.00    -0.000 C 
BRANCH  16  17
ATOM     17  C   UNL     1       4.078  41.123  12.425  1.00  0.00    -0.000 C 
BRANCH  17  18
ATOM     18  C   UNL     1       4.373  39.758  13.063  1.00  0.00    -0.003 C 
ATOM     19  C   UNL     1       3.337  38.697  12.687  1.00  0.00     0.004 C 
ENDBRANCH  17  18
ENDBRANCH  16  17
ENDBRANCH  15  16
ENDBRANCH  14  15
ENDBRANCH  13  14
ENDBRANCH  12  13
ENDBRANCH   1  12
TORSDOF 14
ENDMDL
