MODEL 1
REMARK VINA RESULT:    -3.821      0.000      0.000
REMARK INTER + INTRA:          -5.358
REMARK INTER:                  -5.161
REMARK INTRA:                  -0.197
REMARK UNBOUND:                -0.197
REMARK SMILES CCCCCCCC(=O)[O-]
REMARK SMILES IDX 5 1 6 2 7 3 8 4 9 5 10 6 4 7 3 8 2 9 1 10
REMARK H PARENT
REMARK Flexibility Score: inf
ROOT
ATOM      1  C   UNL     1      -6.561  -5.043   8.628  1.00  0.00     0.000 C 
ENDROOT
BRANCH   1   2
ATOM      2  C   UNL     1      -5.440  -4.087   9.064  1.00  0.00     0.006 C 
BRANCH   2   3
ATOM      3  C   UNL     1      -4.169  -4.835   9.485  1.00  0.00     0.053 C 
BRANCH   3   4
ATOM      4  C   UNL     1      -3.128  -4.814   8.408  1.00  0.00     0.041 C 
ATOM      5  O   UNL     1      -1.943  -5.153   8.667  1.00  0.00    -0.550 OA
ATOM      6  O   UNL     1      -3.473  -4.453   7.112  1.00  0.00    -0.550 OA
ENDBRANCH   3   4
ENDBRANCH   2   3
ENDBRANCH   1   2
BRANCH   1   7
ATOM      7  C   UNL     1      -7.846  -4.272   8.305  1.00  0.00     0.000 C 
BRANCH   7   8
ATOM      8  C   UNL     1      -8.135  -3.212   9.378  1.00  0.00    -0.000 C 
BRANCH   8   9
ATOM      9  C   UNL     1      -9.608  -3.201   9.816  1.00  0.00    -0.003 C 
ATOM     10  C   UNL     1      -9.879  -2.218  10.956  1.00  0.00     0.004 C 
ENDBRANCH   8   9
ENDBRANCH   7   8
ENDBRANCH   1   7
TORSDOF 6
ENDMDL
MODEL 2
REMARK VINA RESULT:    -3.812     13.394     15.819
REMARK INTER + INTRA:          -5.346
REMARK INTER:                  -5.072
REMARK INTRA:                  -0.274
REMARK UNBOUND:                -0.197
REMARK SMILES CCCCCCCC(=O)[O-]
REMARK SMILES IDX 5 1 6 2 7 3 8 4 9 5 10 6 4 7 3 8 2 9 1 10
REMARK H PARENT
REMARK Flexibility Score: inf
ROOT
ATOM      1  C   UNL     1       6.567   5.475   8.312  1.00  0.00     0.000 C 
ENDROOT
BRANCH   1   2
ATOM      2  C   UNL     1       5.394   4.515   8.561  1.00  0.00     0.006 C 
BRANCH   2   3
ATOM      3  C   UNL     1       4.126   5.251   9.012  1.00  0.00     0.053 C 
BRANCH   3   4
ATOM      4  C   UNL     1       3.068   5.238   7.952  1.00  0.00     0.041 C 
ATOM      5  O   UNL     1       1.898   5.618   8.222  1.00  0.00    -0.550 OA
ATOM      6  O   UNL     1       3.382   4.840   6.659  1.00  0.00    -0.550 OA
ENDBRANCH   3   4
ENDBRANCH   2   3
ENDBRANCH   1   2
BRANCH   1   7
ATOM      7  C   UNL     1       7.897   4.713   8.251  1.00  0.00     0.000 C 
BRANCH   7   8
ATOM      8  C   UNL     1       7.789   3.361   8.973  1.00  0.00    -0.000 C 
BRANCH   8   9
ATOM      9  C   UNL     1       9.158   2.809   9.400  1.00  0.00    -0.003 C 
ATOM     10  C   UNL     1      10.125   3.906   9.846  1.00  0.00     0.004 C 
ENDBRANCH   8   9
ENDBRANCH   7   8
ENDBRANCH   1   7
TORSDOF 6
ENDMDL
MODEL 3
REMARK VINA RESULT:    -3.747     13.255     14.837
REMARK INTER + INTRA:          -5.258
REMARK INTER:                  -5.059
REMARK INTRA:                  -0.200
REMARK UNBOUND:                -0.197
REMARK SMILES CCCCCCCC(=O)[O-]
REMARK SMILES IDX 5 1 6 2 7 3 8 4 9 5 10 6 4 7 3 8 2 9 1 10
REMARK H PARENT
REMARK Flexibility Score: inf
ROOT
ATOM      1  C   UNL     1       5.419   4.767   8.376  1.00  0.00     0.000 C 
ENDROOT
BRANCH   1   2
ATOM      2  C   UNL     1       6.672   5.635   8.189  1.00  0.00     0.006 C 
BRANCH   2   3
ATOM      3  C   UNL     1       7.756   4.923   7.370  1.00  0.00     0.053 C 
BRANCH   3   4
ATOM      4  C   UNL     1       7.534   5.082   5.897  1.00  0.00     0.041 C 
ATOM      5  O   UNL     1       8.021   6.071   5.288  1.00  0.00    -0.550 OA
ATOM      6  O   UNL     1       6.821   4.122   5.191  1.00  0.00    -0.550 OA
ENDBRANCH   3   4
ENDBRANCH   2   3
ENDBRANCH   1   2
BRANCH   1   7
ATOM      7  C   UNL     1       4.344   5.518   9.171  1.00  0.00     0.000 C 
BRANCH   7   8
ATOM      8  C   UNL     1       3.368   4.537   9.838  1.00  0.00    -0.000 C 
BRANCH   8   9
ATOM      9  C   UNL     1       1.962   4.592   9.223  1.00  0.00    -0.003 C 
ATOM     10  C   UNL     1       1.864   5.579   8.058  1.00  0.00     0.004 C 
ENDBRANCH   8   9
ENDBRANCH   7   8
ENDBRANCH   1   7
TORSDOF 6
ENDMDL
MODEL 4
REMARK VINA RESULT:    -3.742     15.062     16.500
REMARK INTER + INTRA:          -5.251
REMARK INTER:                  -4.622
REMARK INTRA:                  -0.629
REMARK UNBOUND:                -0.197
REMARK SMILES CCCCCCCC(=O)[O-]
REMARK SMILES IDX 5 1 6 2 7 3 8 4 9 5 10 6 4 7 3 8 2 9 1 10
REMARK H PARENT
REMARK Flexibility Score: inf
ROOT
ATOM      1  C   UNL     1       9.387   3.394   7.994  1.00  0.00     0.000 C 
ENDROOT
BRANCH   1   2
ATOM      2  C   UNL     1       8.679   2.809   6.762  1.00  0.00     0.006 C 
BRANCH   2   3
ATOM      3  C   UNL     1       9.035   3.563   5.474  1.00  0.00     0.053 C 
BRANCH   3   4
ATOM      4  C   UNL     1       7.949   4.509   5.065  1.00  0.00     0.041 C 
ATOM      5  O   UNL     1       6.743   4.153   5.130  1.00  0.00    -0.550 OA
ATOM      6  O   UNL     1       8.266   5.794   4.644  1.00  0.00    -0.550 OA
ENDBRANCH   3   4
ENDBRANCH   2   3
ENDBRANCH   1   2
BRANCH   1   7
ATOM      7  C   UNL     1       8.370   3.951   8.998  1.00  0.00     0.000 C 
BRANCH   7   8
ATOM      8  C   UNL     1       6.983   3.331   8.776  1.00  0.00    -0.000 C 
BRANCH   8   9
ATOM      9  C   UNL     1       5.882   4.391   8.613  1.00  0.00    -0.003 C 
ATOM     10  C   UNL     1       6.437   5.772   8.263  1.00  0.00     0.004 C 
ENDBRANCH   8   9
ENDBRANCH   7   8
ENDBRANCH   1   7
TORSDOF 6
ENDMDL
MODEL 5
REMARK VINA RESULT:    -3.720      2.984      5.296
REMARK INTER + INTRA:          -5.221
REMARK INTER:                  -5.020
REMARK INTRA:                  -0.202
REMARK UNBOUND:                -0.197
REMARK SMILES CCCCCCCC(=O)[O-]
REMARK SMILES IDX 5 1 6 2 7 3 8 4 9 5 10 6 4 7 3 8 2 9 1 10
REMARK H PARENT
REMARK Flexibility Score: inf
ROOT
ATOM      1  C   UNL     1      -5.393  -4.337   8.525  1.00  0.00     0.000 C 
ENDROOT
BRANCH   1   2
ATOM      2  C   UNL     1      -6.733  -5.078   8.652  1.00  0.00     0.006 C 
BRANCH   2   3
ATOM      3  C   UNL     1      -7.794  -4.530   7.690  1.00  0.00     0.053 C 
BRANCH   3   4
ATOM      4  C   UNL     1      -7.541  -4.960   6.278  1.00  0.00     0.041 C 
ATOM      5  O   UNL     1      -7.916  -6.096   5.886  1.00  0.00    -0.550 OA
ATOM      6  O   UNL     1      -6.922  -4.093   5.386  1.00  0.00    -0.550 OA
ENDBRANCH   3   4
ENDBRANCH   2   3
ENDBRANCH   1   2
BRANCH   1   7
ATOM      7  C   UNL     1      -4.367  -4.882   9.525  1.00  0.00     0.000 C 
BRANCH   7   8
ATOM      8  C   UNL     1      -3.388  -3.782   9.962  1.00  0.00    -0.000 C 
BRANCH   8   9
ATOM      9  C   UNL     1      -1.956  -4.033   9.465  1.00  0.00    -0.003 C 
ATOM     10  C   UNL     1      -1.852  -5.258   8.556  1.00  0.00     0.004 C 
ENDBRANCH   8   9
ENDBRANCH   7   8
ENDBRANCH   1   7
TORSDOF 6
ENDMDL
MODEL 6
REMARK VINA RESULT:    -3.676      2.996      5.330
REMARK INTER + INTRA:          -5.163
REMARK INTER:                  -4.888
REMARK INTRA:                  -0.275
REMARK UNBOUND:                -0.197
REMARK SMILES CCCCCCCC(=O)[O-]
REMARK SMILES IDX 5 1 6 2 7 3 8 4 9 5 10 6 4 7 3 8 2 9 1 10
REMARK H PARENT
REMARK Flexibility Score: inf
ROOT
ATOM      1  C   UNL     1      -4.820  -3.432   9.410  1.00  0.00     0.000 C 
ENDROOT
BRANCH   1   2
ATOM      2  C   UNL     1      -6.270  -3.467   8.907  1.00  0.00     0.006 C 
BRANCH   2   3
ATOM      3  C   UNL     1      -6.796  -4.899   8.748  1.00  0.00     0.053 C 
BRANCH   3   4
ATOM      4  C   UNL     1      -7.443  -5.109   7.413  1.00  0.00     0.041 C 
ATOM      5  O   UNL     1      -7.378  -6.234   6.850  1.00  0.00    -0.550 OA
ATOM      6  O   UNL     1      -8.145  -4.076   6.808  1.00  0.00    -0.550 OA
ENDBRANCH   3   4
ENDBRANCH   2   3
ENDBRANCH   1   2
BRANCH   1   7
ATOM      7  C   UNL     1      -4.162  -4.812   9.290  1.00  0.00     0.000 C 
BRANCH   7   8
ATOM      8  C   UNL     1      -3.165  -4.844   8.122  1.00  0.00    -0.000 C 
BRANCH   8   9
ATOM      9  C   UNL     1      -1.705  -4.739   8.589  1.00  0.00    -0.003 C 
ATOM     10  C   UNL     1      -1.154  -3.316   8.492  1.00  0.00     0.004 C 
ENDBRANCH   8   9
ENDBRANCH   7   8
ENDBRANCH   1   7
TORSDOF 6
ENDMDL
MODEL 7
REMARK VINA RESULT:    -3.599     13.537     15.264
REMARK INTER + INTRA:          -5.059
REMARK INTER:                  -4.861
REMARK INTRA:                  -0.198
REMARK UNBOUND:                -0.197
REMARK SMILES CCCCCCCC(=O)[O-]
REMARK SMILES IDX 5 1 6 2 7 3 8 4 9 5 10 6 4 7 3 8 2 9 1 10
REMARK H PARENT
REMARK Flexibility Score: inf
ROOT
ATOM      1  C   UNL     1       6.403   5.633   8.262  1.00  0.00     0.000 C 
ENDROOT
BRANCH   1   2
ATOM      2  C   UNL     1       7.647   4.754   8.066  1.00  0.00     0.006 C 
BRANCH   2   3
ATOM      3  C   UNL     1       7.760   3.659   9.134  1.00  0.00     0.053 C 
BRANCH   3   4
ATOM      4  C   UNL     1       9.181   3.430   9.550  1.00  0.00     0.041 C 
ATOM      5  O   UNL     1      10.125   3.839   8.823  1.00  0.00    -0.550 OA
ATOM      6  O   UNL     1       9.461   2.799  10.754  1.00  0.00    -0.550 OA
ENDBRANCH   3   4
ENDBRANCH   2   3
ENDBRANCH   1   2
BRANCH   1   7
ATOM      7  C   UNL     1       5.131   4.778   8.327  1.00  0.00     0.000 C 
BRANCH   7   8
ATOM      8  C   UNL     1       4.163   5.316   9.392  1.00  0.00    -0.000 C 
BRANCH   8   9
ATOM      9  C   UNL     1       2.718   4.842   9.169  1.00  0.00    -0.003 C 
ATOM     10  C   UNL     1       2.057   5.505   7.960  1.00  0.00     0.004 C 
ENDBRANCH   8   9
ENDBRANCH   7   8
ENDBRANCH   1   7
TORSDOF 6
ENDMDL
MODEL 8
REMARK VINA RESULT:    -3.599     12.563     14.045
REMARK INTER + INTRA:          -5.059
REMARK INTER:                  -4.720
REMARK INTRA:                  -0.338
REMARK UNBOUND:                -0.197
REMARK SMILES CCCCCCCC(=O)[O-]
REMARK SMILES IDX 5 1 6 2 7 3 8 4 9 5 10 6 4 7 3 8 2 9 1 10
REMARK H PARENT
REMARK Flexibility Score: inf
ROOT
ATOM      1  C   UNL     1       4.412   5.237   9.038  1.00  0.00     0.000 C 
ENDROOT
BRANCH   1   2
ATOM      2  C   UNL     1       5.491   4.164   8.826  1.00  0.00     0.006 C 
BRANCH   2   3
ATOM      3  C   UNL     1       6.862   4.773   8.504  1.00  0.00     0.053 C 
BRANCH   3   4
ATOM      4  C   UNL     1       6.943   5.239   7.082  1.00  0.00     0.041 C 
ATOM      5  O   UNL     1       6.640   4.457   6.143  1.00  0.00    -0.550 OA
ATOM      6  O   UNL     1       7.319   6.545   6.797  1.00  0.00    -0.550 OA
ENDBRANCH   3   4
ENDBRANCH   2   3
ENDBRANCH   1   2
BRANCH   1   7
ATOM      7  C   UNL     1       3.391   5.223   7.894  1.00  0.00     0.000 C 
BRANCH   7   8
ATOM      8  C   UNL     1       1.957   5.161   8.440  1.00  0.00    -0.000 C 
BRANCH   8   9
ATOM      9  C   UNL     1       1.667   3.853   9.193  1.00  0.00    -0.003 C 
ATOM     10  C   UNL     1       1.209   4.089  10.633  1.00  0.00     0.004 C 
ENDBRANCH   8   9
ENDBRANCH   7   8
ENDBRANCH   1   7
TORSDOF 6
ENDMDL
MODEL 9
REMARK VINA RESULT:    -3.591      1.308      2.132
REMARK INTER + INTRA:          -5.047
REMARK INTER:                  -4.625
REMARK INTRA:                  -0.422
REMARK UNBOUND:                -0.197
REMARK SMILES CCCCCCCC(=O)[O-]
REMARK SMILES IDX 5 1 6 2 7 3 8 4 9 5 10 6 4 7 3 8 2 9 1 10
REMARK H PARENT
REMARK Flexibility Score: inf
ROOT
ATOM      1  C   UNL     1      -8.295  -3.699   7.766  1.00  0.00     0.000 C 
ENDROOT
BRANCH   1   2
ATOM      2  C   UNL     1      -7.346  -4.204   8.863  1.00  0.00     0.006 C 
BRANCH   2   3
ATOM      3  C   UNL     1      -5.987  -3.494   8.829  1.00  0.00     0.053 C 
BRANCH   3   4
ATOM      4  C   UNL     1      -4.855  -4.467   8.696  1.00  0.00     0.041 C 
ATOM      5  O   UNL     1      -4.338  -4.684   7.568  1.00  0.00    -0.550 OA
ATOM      6  O   UNL     1      -4.349  -5.105   9.820  1.00  0.00    -0.550 OA
ENDBRANCH   3   4
ENDBRANCH   2   3
ENDBRANCH   1   2
BRANCH   1   7
ATOM      7  C   UNL     1      -9.418  -2.841   8.363  1.00  0.00     0.000 C 
BRANCH   7   8
ATOM      8  C   UNL     1      -9.861  -3.389   9.728  1.00  0.00    -0.000 C 
BRANCH   8   9
ATOM      9  C   UNL     1      -9.870  -2.310  10.822  1.00  0.00    -0.003 C 
ATOM     10  C   UNL     1      -9.114  -1.046  10.413  1.00  0.00     0.004 C 
ENDBRANCH   8   9
ENDBRANCH   7   8
ENDBRANCH   1   7
TORSDOF 6
ENDMDL
