MODEL 1
REMARK VINA RESULT:    -3.807      0.000      0.000
REMARK INTER + INTRA:         -10.854
REMARK INTER:                  -8.258
REMARK INTRA:                  -2.597
REMARK UNBOUND:                -2.597
REMARK SMILES CCCCCCCCCCCCCCCCCCCCCC(=O)[O-]
REMARK SMILES IDX 12 1 11 2 10 3 9 4 8 5 7 6 6 7 5 8 4 9 3 10 2 11 1 12 13 13
REMARK SMILES IDX 14 14 15 15 16 16 17 17 18 18 19 19 20 20 21 21 22 22 23 23
REMARK SMILES IDX 24 24
REMARK H PARENT
REMARK Flexibility Score: inf
ROOT
ATOM      1  C   UNL     1     -95.232 148.089 240.229  1.00  0.00     0.000 C 
ENDROOT
BRANCH   1   2
ATOM      2  C   UNL     1     -96.484 148.859 240.685  1.00  0.00     0.000 C 
BRANCH   2   3
ATOM      3  C   UNL     1     -96.589 150.249 240.037  1.00  0.00     0.000 C 
BRANCH   3   4
ATOM      4  C   UNL     1     -97.854 151.010 240.466  1.00  0.00    -0.000 C 
BRANCH   4   5
ATOM      5  C   UNL     1     -98.995 150.779 239.465  1.00  0.00    -0.000 C 
BRANCH   5   6
ATOM      6  C   UNL     1    -100.236 150.135 240.109  1.00  0.00    -0.000 C 
BRANCH   6   7
ATOM      7  C   UNL     1    -100.098 148.634 240.438  1.00  0.00    -0.000 C 
BRANCH   7   8
ATOM      8  C   UNL     1    -100.003 148.303 241.938  1.00  0.00    -0.000 C 
BRANCH   8   9
ATOM      9  C   UNL     1    -100.352 149.503 242.836  1.00  0.00    -0.000 C 
BRANCH   9  10
ATOM     10  C   UNL     1     -99.190 149.918 243.754  1.00  0.00    -0.000 C 
BRANCH  10  11
ATOM     11  C   UNL     1     -99.036 151.437 243.953  1.00  0.00    -0.003 C 
ATOM     12  C   UNL     1     -98.650 151.819 245.382  1.00  0.00     0.004 C 
ENDBRANCH  10  11
ENDBRANCH   9  10
ENDBRANCH   8   9
ENDBRANCH   7   8
ENDBRANCH   6   7
ENDBRANCH   5   6
ENDBRANCH   4   5
ENDBRANCH   3   4
ENDBRANCH   2   3
ENDBRANCH   1   2
BRANCH   1  13
ATOM     13  C   UNL     1     -94.363 148.901 239.255  1.00  0.00     0.000 C 
BRANCH  13  14
ATOM     14  C   UNL     1     -93.840 148.055 238.079  1.00  0.00     0.000 C 
BRANCH  14  15
ATOM     15  C   UNL     1     -94.735 148.153 236.829  1.00  0.00     0.000 C 
BRANCH  15  16
ATOM     16  C   UNL     1     -95.342 149.545 236.578  1.00  0.00     0.000 C 
BRANCH  16  17
ATOM     17  C   UNL     1     -96.865 149.502 236.359  1.00  0.00     0.000 C 
BRANCH  17  18
ATOM     18  C   UNL     1     -97.332 150.490 235.279  1.00  0.00     0.000 C 
BRANCH  18  19
ATOM     19  C   UNL     1     -96.218 150.830 234.271  1.00  0.00     0.000 C 
BRANCH  19  20
ATOM     20  C   UNL     1     -96.066 152.343 234.048  1.00  0.00     0.006 C 
BRANCH  20  21
ATOM     21  C   UNL     1     -97.350 152.992 233.518  1.00  0.00     0.053 C 
BRANCH  21  22
ATOM     22  C   UNL     1     -97.905 153.951 234.524  1.00  0.00     0.041 C 
ATOM     23  O   UNL     1     -97.374 155.082 234.683  1.00  0.00    -0.550 OA
ATOM     24  O   UNL     1     -99.036 153.613 235.257  1.00  0.00    -0.550 OA
ENDBRANCH  21  22
ENDBRANCH  20  21
ENDBRANCH  19  20
ENDBRANCH  18  19
ENDBRANCH  17  18
ENDBRANCH  16  17
ENDBRANCH  15  16
ENDBRANCH  14  15
ENDBRANCH  13  14
ENDBRANCH   1  13
TORSDOF 20
ENDMDL
MODEL 2
REMARK VINA RESULT:    -3.787      3.014      7.731
REMARK INTER + INTRA:         -10.811
REMARK INTER:                  -7.312
REMARK INTRA:                  -3.499
REMARK UNBOUND:                -2.597
REMARK SMILES CCCCCCCCCCCCCCCCCCCCCC(=O)[O-]
REMARK SMILES IDX 12 1 11 2 10 3 9 4 8 5 7 6 6 7 5 8 4 9 3 10 2 11 1 12 13 13
REMARK SMILES IDX 14 14 15 15 16 16 17 17 18 18 19 19 20 20 21 21 22 22 23 23
REMARK SMILES IDX 24 24
REMARK H PARENT
REMARK Flexibility Score: inf
ROOT
ATOM      1  C   UNL     1     -98.524 149.644 237.129  1.00  0.00     0.000 C 
ENDROOT
BRANCH   1   2
ATOM      2  C   UNL     1     -99.329 150.955 237.083  1.00  0.00     0.000 C 
BRANCH   2   3
ATOM      3  C   UNL     1     -99.574 151.447 235.648  1.00  0.00     0.000 C 
BRANCH   3   4
ATOM      4  C   UNL     1     -99.135 152.904 235.436  1.00  0.00    -0.000 C 
BRANCH   4   5
ATOM      5  C   UNL     1     -99.022 153.228 233.939  1.00  0.00    -0.000 C 
BRANCH   5   6
ATOM      6  C   UNL     1     -97.595 153.618 233.515  1.00  0.00    -0.000 C 
BRANCH   6   7
ATOM      7  C   UNL     1     -96.466 152.881 234.264  1.00  0.00    -0.000 C 
BRANCH   7   8
ATOM      8  C   UNL     1     -95.679 151.864 233.418  1.00  0.00    -0.000 C 
BRANCH   8   9
ATOM      9  C   UNL     1     -96.182 151.783 231.966  1.00  0.00    -0.000 C 
BRANCH   9  10
ATOM     10  C   UNL     1     -97.049 150.538 231.704  1.00  0.00    -0.000 C 
BRANCH  10  11
ATOM     11  C   UNL     1     -97.069 149.514 232.853  1.00  0.00    -0.003 C 
ATOM     12  C   UNL     1     -98.470 148.981 233.156  1.00  0.00     0.004 C 
ENDBRANCH  10  11
ENDBRANCH   9  10
ENDBRANCH   8   9
ENDBRANCH   7   8
ENDBRANCH   6   7
ENDBRANCH   5   6
ENDBRANCH   4   5
ENDBRANCH   3   4
ENDBRANCH   2   3
ENDBRANCH   1   2
BRANCH   1  13
ATOM     13  C   UNL     1     -97.120 149.794 236.522  1.00  0.00     0.000 C 
BRANCH  13  14
ATOM     14  C   UNL     1     -96.376 148.451 236.406  1.00  0.00     0.000 C 
BRANCH  14  15
ATOM     15  C   UNL     1     -94.845 148.616 236.385  1.00  0.00     0.000 C 
BRANCH  15  16
ATOM     16  C   UNL     1     -94.202 148.843 237.765  1.00  0.00     0.000 C 
BRANCH  16  17
ATOM     17  C   UNL     1     -94.650 147.807 238.811  1.00  0.00     0.000 C 
BRANCH  17  18
ATOM     18  C   UNL     1     -95.280 148.459 240.052  1.00  0.00     0.000 C 
BRANCH  18  19
ATOM     19  C   UNL     1     -95.481 149.976 239.882  1.00  0.00     0.000 C 
BRANCH  19  20
ATOM     20  C   UNL     1     -96.852 150.451 240.389  1.00  0.00     0.006 C 
BRANCH  20  21
ATOM     21  C   UNL     1     -97.733 149.294 240.875  1.00  0.00     0.053 C 
BRANCH  21  22
ATOM     22  C   UNL     1     -98.150 149.514 242.295  1.00  0.00     0.041 C 
ATOM     23  O   UNL     1     -98.529 150.653 242.675  1.00  0.00    -0.550 OA
ATOM     24  O   UNL     1     -98.163 148.451 243.189  1.00  0.00    -0.550 OA
ENDBRANCH  21  22
ENDBRANCH  20  21
ENDBRANCH  19  20
ENDBRANCH  18  19
ENDBRANCH  17  18
ENDBRANCH  16  17
ENDBRANCH  15  16
ENDBRANCH  14  15
ENDBRANCH  13  14
ENDBRANCH   1  13
TORSDOF 20
ENDMDL
MODEL 3
REMARK VINA RESULT:    -3.768      3.001      6.984
REMARK INTER + INTRA:         -10.770
REMARK INTER:                  -7.946
REMARK INTRA:                  -2.824
REMARK UNBOUND:                -2.597
REMARK SMILES CCCCCCCCCCCCCCCCCCCCCC(=O)[O-]
REMARK SMILES IDX 12 1 11 2 10 3 9 4 8 5 7 6 6 7 5 8 4 9 3 10 2 11 1 12 13 13
REMARK SMILES IDX 14 14 15 15 16 16 17 17 18 18 19 19 20 20 21 21 22 22 23 23
REMARK SMILES IDX 24 24
REMARK H PARENT
REMARK Flexibility Score: inf
ROOT
ATOM      1  C   UNL     1     -96.896 149.639 235.887  1.00  0.00     0.000 C 
ENDROOT
BRANCH   1   2
ATOM      2  C   UNL     1     -97.262 148.982 234.544  1.00  0.00     0.000 C 
BRANCH   2   3
ATOM      3  C   UNL     1     -97.506 150.013 233.430  1.00  0.00     0.000 C 
BRANCH   3   4
ATOM      4  C   UNL     1     -96.222 150.383 232.672  1.00  0.00    -0.000 C 
BRANCH   4   5
ATOM      5  C   UNL     1     -95.690 151.748 233.132  1.00  0.00    -0.000 C 
BRANCH   5   6
ATOM      6  C   UNL     1     -96.755 152.858 233.077  1.00  0.00    -0.000 C 
BRANCH   6   7
ATOM      7  C   UNL     1     -96.967 153.629 234.396  1.00  0.00    -0.000 C 
BRANCH   7   8
ATOM      8  C   UNL     1     -98.407 154.112 234.644  1.00  0.00    -0.000 C 
BRANCH   8   9
ATOM      9  C   UNL     1     -99.377 152.957 234.952  1.00  0.00    -0.000 C 
BRANCH   9  10
ATOM     10  C   UNL     1     -99.833 152.937 236.421  1.00  0.00    -0.000 C 
BRANCH  10  11
ATOM     11  C   UNL     1     -99.668 151.580 237.129  1.00  0.00    -0.003 C 
ATOM     12  C   UNL     1    -100.750 151.315 238.177  1.00  0.00     0.004 C 
ENDBRANCH  10  11
ENDBRANCH   9  10
ENDBRANCH   8   9
ENDBRANCH   7   8
ENDBRANCH   6   7
ENDBRANCH   5   6
ENDBRANCH   4   5
ENDBRANCH   3   4
ENDBRANCH   2   3
ENDBRANCH   1   2
BRANCH   1  13
ATOM     13  C   UNL     1     -95.394 149.548 236.196  1.00  0.00     0.000 C 
BRANCH  13  14
ATOM     14  C   UNL     1     -94.859 148.106 236.125  1.00  0.00     0.000 C 
BRANCH  14  15
ATOM     15  C   UNL     1     -94.033 147.714 237.364  1.00  0.00     0.000 C 
BRANCH  15  16
ATOM     16  C   UNL     1     -93.955 148.796 238.456  1.00  0.00     0.000 C 
BRANCH  16  17
ATOM     17  C   UNL     1     -94.943 148.551 239.612  1.00  0.00     0.000 C 
BRANCH  17  18
ATOM     18  C   UNL     1     -95.627 149.844 240.084  1.00  0.00     0.000 C 
BRANCH  18  19
ATOM     19  C   UNL     1     -97.083 149.951 239.597  1.00  0.00     0.000 C 
BRANCH  19  20
ATOM     20  C   UNL     1     -97.926 150.905 240.458  1.00  0.00     0.006 C 
BRANCH  20  21
ATOM     21  C   UNL     1     -99.022 150.176 241.244  1.00  0.00     0.053 C 
BRANCH  21  22
ATOM     22  C   UNL     1     -98.650 150.074 242.690  1.00  0.00     0.041 C 
ATOM     23  O   UNL     1     -98.030 149.064 243.116  1.00  0.00    -0.550 OA
ATOM     24  O   UNL     1     -98.949 151.116 243.560  1.00  0.00    -0.550 OA
ENDBRANCH  21  22
ENDBRANCH  20  21
ENDBRANCH  19  20
ENDBRANCH  18  19
ENDBRANCH  17  18
ENDBRANCH  16  17
ENDBRANCH  15  16
ENDBRANCH  14  15
ENDBRANCH  13  14
ENDBRANCH   1  13
TORSDOF 20
ENDMDL
MODEL 4
REMARK VINA RESULT:    -3.761      1.851      5.462
REMARK INTER + INTRA:         -10.756
REMARK INTER:                  -6.963
REMARK INTRA:                  -3.793
REMARK UNBOUND:                -2.597
REMARK SMILES CCCCCCCCCCCCCCCCCCCCCC(=O)[O-]
REMARK SMILES IDX 12 1 11 2 10 3 9 4 8 5 7 6 6 7 5 8 4 9 3 10 2 11 1 12 13 13
REMARK SMILES IDX 14 14 15 15 16 16 17 17 18 18 19 19 20 20 21 21 22 22 23 23
REMARK SMILES IDX 24 24
REMARK H PARENT
REMARK Flexibility Score: inf
ROOT
ATOM      1  C   UNL     1     -96.501 150.277 239.977  1.00  0.00     0.000 C 
ENDROOT
BRANCH   1   2
ATOM      2  C   UNL     1     -95.168 149.512 240.047  1.00  0.00     0.000 C 
BRANCH   2   3
ATOM      3  C   UNL     1     -95.363 148.010 240.307  1.00  0.00     0.000 C 
BRANCH   3   4
ATOM      4  C   UNL     1     -94.624 147.130 239.288  1.00  0.00    -0.000 C 
BRANCH   4   5
ATOM      5  C   UNL     1     -93.787 147.989 238.329  1.00  0.00    -0.000 C 
BRANCH   5   6
ATOM      6  C   UNL     1     -93.764 147.436 236.893  1.00  0.00    -0.000 C 
BRANCH   6   7
ATOM      7  C   UNL     1     -94.909 147.928 235.983  1.00  0.00    -0.000 C 
BRANCH   7   8
ATOM      8  C   UNL     1     -95.399 149.359 236.271  1.00  0.00    -0.000 C 
BRANCH   8   9
ATOM      9  C   UNL     1     -96.911 149.424 236.552  1.00  0.00    -0.000 C 
BRANCH   9  10
ATOM     10  C   UNL     1     -97.471 148.104 237.111  1.00  0.00    -0.000 C 
BRANCH  10  11
ATOM     11  C   UNL     1     -98.565 147.451 236.247  1.00  0.00    -0.003 C 
ATOM     12  C   UNL     1     -99.344 148.460 235.402  1.00  0.00     0.004 C 
ENDBRANCH  10  11
ENDBRANCH   9  10
ENDBRANCH   8   9
ENDBRANCH   7   8
ENDBRANCH   6   7
ENDBRANCH   5   6
ENDBRANCH   4   5
ENDBRANCH   3   4
ENDBRANCH   2   3
ENDBRANCH   1   2
BRANCH   1  13
ATOM     13  C   UNL     1     -97.425 149.960 241.162  1.00  0.00     0.000 C 
BRANCH  13  14
ATOM     14  C   UNL     1     -98.899 150.303 240.875  1.00  0.00     0.000 C 
BRANCH  14  15
ATOM     15  C   UNL     1     -99.565 149.309 239.905  1.00  0.00     0.000 C 
BRANCH  15  16
ATOM     16  C   UNL     1    -100.257 149.956 238.693  1.00  0.00     0.000 C 
BRANCH  16  17
ATOM     17  C   UNL     1     -99.642 151.314 238.308  1.00  0.00     0.000 C 
BRANCH  17  18
ATOM     18  C   UNL     1    -100.431 152.022 237.195  1.00  0.00     0.000 C 
BRANCH  18  19
ATOM     19  C   UNL     1     -99.517 152.802 236.231  1.00  0.00     0.000 C 
BRANCH  19  20
ATOM     20  C   UNL     1     -99.177 152.003 234.964  1.00  0.00     0.006 C 
BRANCH  20  21
ATOM     21  C   UNL     1     -97.789 152.345 234.407  1.00  0.00     0.053 C 
BRANCH  21  22
ATOM     22  C   UNL     1     -97.753 153.760 233.924  1.00  0.00     0.041 C 
ATOM     23  O   UNL     1     -98.307 154.073 232.837  1.00  0.00    -0.550 OA
ATOM     24  O   UNL     1     -97.147 154.744 234.696  1.00  0.00    -0.550 OA
ENDBRANCH  21  22
ENDBRANCH  20  21
ENDBRANCH  19  20
ENDBRANCH  18  19
ENDBRANCH  17  18
ENDBRANCH  16  17
ENDBRANCH  15  16
ENDBRANCH  14  15
ENDBRANCH  13  14
ENDBRANCH   1  13
TORSDOF 20
ENDMDL
MODEL 5
REMARK VINA RESULT:    -3.755      2.242      4.548
REMARK INTER + INTRA:         -10.742
REMARK INTER:                  -7.244
REMARK INTRA:                  -3.498
REMARK UNBOUND:                -2.597
REMARK SMILES CCCCCCCCCCCCCCCCCCCCCC(=O)[O-]
REMARK SMILES IDX 12 1 11 2 10 3 9 4 8 5 7 6 6 7 5 8 4 9 3 10 2 11 1 12 13 13
REMARK SMILES IDX 14 14 15 15 16 16 17 17 18 18 19 19 20 20 21 21 22 22 23 23
REMARK SMILES IDX 24 24
REMARK H PARENT
REMARK Flexibility Score: inf
ROOT
ATOM      1  C   UNL     1     -94.308 148.811 238.297  1.00  0.00     0.000 C 
ENDROOT
BRANCH   1   2
ATOM      2  C   UNL     1     -95.040 148.762 239.649  1.00  0.00     0.000 C 
BRANCH   2   3
ATOM      3  C   UNL     1     -95.521 150.147 240.111  1.00  0.00     0.000 C 
BRANCH   3   4
ATOM      4  C   UNL     1     -97.006 150.160 240.502  1.00  0.00    -0.000 C 
BRANCH   4   5
ATOM      5  C   UNL     1     -97.754 148.987 239.851  1.00  0.00    -0.000 C 
BRANCH   5   6
ATOM      6  C   UNL     1     -98.996 149.432 239.059  1.00  0.00    -0.000 C 
BRANCH   6   7
ATOM      7  C   UNL     1     -99.186 150.959 238.943  1.00  0.00    -0.000 C 
BRANCH   7   8
ATOM      8  C   UNL     1     -99.470 151.473 237.521  1.00  0.00    -0.000 C 
BRANCH   8   9
ATOM      9  C   UNL     1     -98.780 150.630 236.434  1.00  0.00    -0.000 C 
BRANCH   9  10
ATOM     10  C   UNL     1     -99.779 149.963 235.473  1.00  0.00    -0.000 C 
BRANCH  10  11
ATOM     11  C   UNL     1     -99.999 150.715 234.147  1.00  0.00    -0.003 C 
ATOM     12  C   UNL     1     -99.129 150.187 233.007  1.00  0.00     0.004 C 
ENDBRANCH  10  11
ENDBRANCH   9  10
ENDBRANCH   8   9
ENDBRANCH   7   8
ENDBRANCH   6   7
ENDBRANCH   5   6
ENDBRANCH   4   5
ENDBRANCH   3   4
ENDBRANCH   2   3
ENDBRANCH   1   2
BRANCH   1  13
ATOM     13  C   UNL     1     -95.204 149.327 237.161  1.00  0.00     0.000 C 
BRANCH  13  14
ATOM     14  C   UNL     1     -96.009 148.204 236.482  1.00  0.00     0.000 C 
BRANCH  14  15
ATOM     15  C   UNL     1     -96.273 148.477 234.989  1.00  0.00     0.000 C 
BRANCH  15  16
ATOM     16  C   UNL     1     -95.104 149.138 234.238  1.00  0.00     0.000 C 
BRANCH  16  17
ATOM     17  C   UNL     1     -95.538 150.369 233.421  1.00  0.00     0.000 C 
BRANCH  17  18
ATOM     18  C   UNL     1     -95.803 151.597 234.306  1.00  0.00     0.000 C 
BRANCH  18  19
ATOM     19  C   UNL     1     -96.577 152.702 233.563  1.00  0.00     0.000 C 
BRANCH  19  20
ATOM     20  C   UNL     1     -96.911 153.898 234.466  1.00  0.00     0.006 C 
BRANCH  20  21
ATOM     21  C   UNL     1     -98.419 154.057 234.700  1.00  0.00     0.053 C 
BRANCH  21  22
ATOM     22  C   UNL     1     -98.834 155.478 234.489  1.00  0.00     0.041 C 
ATOM     23  O   UNL     1    -100.050 155.766 234.328  1.00  0.00    -0.550 OA
ATOM     24  O   UNL     1     -97.884 156.492 234.514  1.00  0.00    -0.550 OA
ENDBRANCH  21  22
ENDBRANCH  20  21
ENDBRANCH  19  20
ENDBRANCH  18  19
ENDBRANCH  17  18
ENDBRANCH  16  17
ENDBRANCH  15  16
ENDBRANCH  14  15
ENDBRANCH  13  14
ENDBRANCH   1  13
TORSDOF 20
ENDMDL
MODEL 6
REMARK VINA RESULT:    -3.744      1.989      3.749
REMARK INTER + INTRA:         -10.718
REMARK INTER:                  -6.879
REMARK INTRA:                  -3.839
REMARK UNBOUND:                -2.597
REMARK SMILES CCCCCCCCCCCCCCCCCCCCCC(=O)[O-]
REMARK SMILES IDX 12 1 11 2 10 3 9 4 8 5 7 6 6 7 5 8 4 9 3 10 2 11 1 12 13 13
REMARK SMILES IDX 14 14 15 15 16 16 17 17 18 18 19 19 20 20 21 21 22 22 23 23
REMARK SMILES IDX 24 24
REMARK H PARENT
REMARK Flexibility Score: inf
ROOT
ATOM      1  C   UNL     1     -95.720 149.471 236.502  1.00  0.00     0.000 C 
ENDROOT
BRANCH   1   2
ATOM      2  C   UNL     1     -97.100 149.213 235.872  1.00  0.00     0.000 C 
BRANCH   2   3
ATOM      3  C   UNL     1     -98.193 148.970 236.926  1.00  0.00     0.000 C 
BRANCH   3   4
ATOM      4  C   UNL     1     -98.402 147.479 237.231  1.00  0.00    -0.000 C 
BRANCH   4   5
ATOM      5  C   UNL     1     -98.128 147.180 238.712  1.00  0.00    -0.000 C 
BRANCH   5   6
ATOM      6  C   UNL     1     -96.646 146.885 239.001  1.00  0.00    -0.000 C 
BRANCH   6   7
ATOM      7  C   UNL     1     -96.090 147.527 240.289  1.00  0.00    -0.000 C 
BRANCH   7   8
ATOM      8  C   UNL     1     -95.044 148.634 240.066  1.00  0.00    -0.000 C 
BRANCH   8   9
ATOM      9  C   UNL     1     -95.674 150.034 239.958  1.00  0.00    -0.000 C 
BRANCH   9  10
ATOM     10  C   UNL     1     -96.987 150.160 240.752  1.00  0.00    -0.000 C 
BRANCH  10  11
ATOM     11  C   UNL     1     -98.094 150.963 240.044  1.00  0.00    -0.003 C 
ATOM     12  C   UNL     1     -99.479 150.332 240.190  1.00  0.00     0.004 C 
ENDBRANCH  10  11
ENDBRANCH   9  10
ENDBRANCH   8   9
ENDBRANCH   7   8
ENDBRANCH   6   7
ENDBRANCH   5   6
ENDBRANCH   4   5
ENDBRANCH   3   4
ENDBRANCH   2   3
ENDBRANCH   1   2
BRANCH   1  13
ATOM     13  C   UNL     1     -94.682 148.412 236.098  1.00  0.00     0.000 C 
BRANCH  13  14
ATOM     14  C   UNL     1     -94.979 147.782 234.725  1.00  0.00     0.000 C 
BRANCH  14  15
ATOM     15  C   UNL     1     -93.833 147.984 233.716  1.00  0.00     0.000 C 
BRANCH  15  16
ATOM     16  C   UNL     1     -94.141 148.977 232.581  1.00  0.00     0.000 C 
BRANCH  16  17
ATOM     17  C   UNL     1     -95.646 149.092 232.278  1.00  0.00     0.000 C 
BRANCH  17  18
ATOM     18  C   UNL     1     -96.160 150.536 232.391  1.00  0.00     0.000 C 
BRANCH  18  19
ATOM     19  C   UNL     1     -95.376 151.360 233.429  1.00  0.00     0.000 C 
BRANCH  19  20
ATOM     20  C   UNL     1     -96.217 152.488 234.046  1.00  0.00     0.006 C 
BRANCH  20  21
ATOM     21  C   UNL     1     -97.702 152.386 233.674  1.00  0.00     0.053 C 
BRANCH  21  22
ATOM     22  C   UNL     1     -98.501 153.402 234.428  1.00  0.00     0.041 C 
ATOM     23  O   UNL     1     -98.771 154.513 233.902  1.00  0.00    -0.550 OA
ATOM     24  O   UNL     1     -98.985 153.105 235.696  1.00  0.00    -0.550 OA
ENDBRANCH  21  22
ENDBRANCH  20  21
ENDBRANCH  19  20
ENDBRANCH  18  19
ENDBRANCH  17  18
ENDBRANCH  16  17
ENDBRANCH  15  16
ENDBRANCH  14  15
ENDBRANCH  13  14
ENDBRANCH   1  13
TORSDOF 20
ENDMDL
MODEL 7
REMARK VINA RESULT:    -3.743      3.040      7.553
REMARK INTER + INTRA:         -10.717
REMARK INTER:                  -7.615
REMARK INTRA:                  -3.102
REMARK UNBOUND:                -2.597
REMARK SMILES CCCCCCCCCCCCCCCCCCCCCC(=O)[O-]
REMARK SMILES IDX 12 1 11 2 10 3 9 4 8 5 7 6 6 7 5 8 4 9 3 10 2 11 1 12 13 13
REMARK SMILES IDX 14 14 15 15 16 16 17 17 18 18 19 19 20 20 21 21 22 22 23 23
REMARK SMILES IDX 24 24
REMARK H PARENT
REMARK Flexibility Score: inf
ROOT
ATOM      1  C   UNL     1     -98.050 148.442 236.875  1.00  0.00     0.000 C 
ENDROOT
BRANCH   1   2
ATOM      2  C   UNL     1     -99.047 149.275 237.701  1.00  0.00     0.000 C 
BRANCH   2   3
ATOM      3  C   UNL     1     -98.774 150.785 237.607  1.00  0.00     0.000 C 
BRANCH   3   4
ATOM      4  C   UNL     1    -100.044 151.630 237.785  1.00  0.00    -0.000 C 
BRANCH   4   5
ATOM      5  C   UNL     1    -100.125 152.728 236.715  1.00  0.00    -0.000 C 
BRANCH   5   6
ATOM      6  C   UNL     1     -99.067 152.568 235.609  1.00  0.00    -0.000 C 
BRANCH   6   7
ATOM      7  C   UNL     1     -98.742 153.854 234.822  1.00  0.00    -0.000 C 
BRANCH   7   8
ATOM      8  C   UNL     1     -97.280 153.980 234.356  1.00  0.00    -0.000 C 
BRANCH   8   9
ATOM      9  C   UNL     1     -96.514 152.648 234.432  1.00  0.00    -0.000 C 
BRANCH   9  10
ATOM     10  C   UNL     1     -96.011 152.170 233.059  1.00  0.00    -0.000 C 
BRANCH  10  11
ATOM     11  C   UNL     1     -97.030 152.314 231.913  1.00  0.00    -0.003 C 
ATOM     12  C   UNL     1     -96.375 152.587 230.559  1.00  0.00     0.004 C 
ENDBRANCH  10  11
ENDBRANCH   9  10
ENDBRANCH   8   9
ENDBRANCH   7   8
ENDBRANCH   6   7
ENDBRANCH   5   6
ENDBRANCH   4   5
ENDBRANCH   3   4
ENDBRANCH   2   3
ENDBRANCH   1   2
BRANCH   1  13
ATOM     13  C   UNL     1     -97.173 149.311 235.960  1.00  0.00     0.000 C 
BRANCH  13  14
ATOM     14  C   UNL     1     -95.691 148.895 235.986  1.00  0.00     0.000 C 
BRANCH  14  15
ATOM     15  C   UNL     1     -94.882 149.636 237.066  1.00  0.00     0.000 C 
BRANCH  15  16
ATOM     16  C   UNL     1     -94.090 148.723 238.019  1.00  0.00     0.000 C 
BRANCH  16  17
ATOM     17  C   UNL     1     -94.746 148.593 239.406  1.00  0.00     0.000 C 
BRANCH  17  18
ATOM     18  C   UNL     1     -95.764 149.711 239.682  1.00  0.00     0.000 C 
BRANCH  18  19
ATOM     19  C   UNL     1     -96.826 149.297 240.717  1.00  0.00     0.000 C 
BRANCH  19  20
ATOM     20  C   UNL     1     -97.752 150.458 241.110  1.00  0.00     0.006 C 
BRANCH  20  21
ATOM     21  C   UNL     1     -99.175 149.992 241.441  1.00  0.00     0.053 C 
BRANCH  21  22
ATOM     22  C   UNL     1     -99.520 150.328 242.857  1.00  0.00     0.041 C 
ATOM     23  O   UNL     1     -98.623 150.346 243.741  1.00  0.00    -0.550 OA
ATOM     24  O   UNL     1    -100.825 150.665 243.194  1.00  0.00    -0.550 OA
ENDBRANCH  21  22
ENDBRANCH  20  21
ENDBRANCH  19  20
ENDBRANCH  18  19
ENDBRANCH  17  18
ENDBRANCH  16  17
ENDBRANCH  15  16
ENDBRANCH  14  15
ENDBRANCH  13  14
ENDBRANCH   1  13
TORSDOF 20
ENDMDL
MODEL 8
REMARK VINA RESULT:    -3.735      1.813      4.093
REMARK INTER + INTRA:         -10.698
REMARK INTER:                  -7.667
REMARK INTRA:                  -3.031
REMARK UNBOUND:                -2.597
REMARK SMILES CCCCCCCCCCCCCCCCCCCCCC(=O)[O-]
REMARK SMILES IDX 12 1 11 2 10 3 9 4 8 5 7 6 6 7 5 8 4 9 3 10 2 11 1 12 13 13
REMARK SMILES IDX 14 14 15 15 16 16 17 17 18 18 19 19 20 20 21 21 22 22 23 23
REMARK SMILES IDX 24 24
REMARK H PARENT
REMARK Flexibility Score: inf
ROOT
ATOM      1  C   UNL     1     -95.336 149.428 236.318  1.00  0.00     0.000 C 
ENDROOT
BRANCH   1   2
ATOM      2  C   UNL     1     -94.954 148.031 235.797  1.00  0.00     0.000 C 
BRANCH   2   3
ATOM      3  C   UNL     1     -93.950 147.314 236.713  1.00  0.00     0.000 C 
BRANCH   3   4
ATOM      4  C   UNL     1     -93.791 148.004 238.076  1.00  0.00    -0.000 C 
BRANCH   4   5
ATOM      5  C   UNL     1     -94.461 147.182 239.187  1.00  0.00    -0.000 C 
BRANCH   5   6
ATOM      6  C   UNL     1     -95.312 148.041 240.139  1.00  0.00    -0.000 C 
BRANCH   6   7
ATOM      7  C   UNL     1     -95.149 149.565 239.968  1.00  0.00    -0.000 C 
BRANCH   7   8
ATOM      8  C   UNL     1     -96.400 150.396 240.306  1.00  0.00    -0.000 C 
BRANCH   8   9
ATOM      9  C   UNL     1     -97.523 149.551 240.933  1.00  0.00    -0.000 C 
BRANCH   9  10
ATOM     10  C   UNL     1     -98.411 150.361 241.895  1.00  0.00    -0.000 C 
BRANCH  10  11
ATOM     11  C   UNL     1     -98.854 149.600 243.158  1.00  0.00    -0.003 C 
ATOM     12  C   UNL     1     -98.363 148.152 243.189  1.00  0.00     0.004 C 
ENDBRANCH  10  11
ENDBRANCH   9  10
ENDBRANCH   8   9
ENDBRANCH   7   8
ENDBRANCH   6   7
ENDBRANCH   5   6
ENDBRANCH   4   5
ENDBRANCH   3   4
ENDBRANCH   2   3
ENDBRANCH   1   2
BRANCH   1  13
ATOM     13  C   UNL     1     -96.823 149.749 236.107  1.00  0.00     0.000 C 
BRANCH  13  14
ATOM     14  C   UNL     1     -97.721 149.156 237.208  1.00  0.00     0.000 C 
BRANCH  14  15
ATOM     15  C   UNL     1     -99.150 149.732 237.188  1.00  0.00     0.000 C 
BRANCH  15  16
ATOM     16  C   UNL     1     -99.318 151.067 237.936  1.00  0.00     0.000 C 
BRANCH  16  17
ATOM     17  C   UNL     1     -99.481 152.268 236.988  1.00  0.00     0.000 C 
BRANCH  17  18
ATOM     18  C   UNL     1     -99.660 151.840 235.522  1.00  0.00     0.000 C 
BRANCH  18  19
ATOM     19  C   UNL     1     -99.512 153.019 234.543  1.00  0.00     0.000 C 
BRANCH  19  20
ATOM     20  C   UNL     1     -98.190 153.780 234.731  1.00  0.00     0.006 C 
BRANCH  20  21
ATOM     21  C   UNL     1     -96.973 152.967 234.273  1.00  0.00     0.053 C 
BRANCH  21  22
ATOM     22  C   UNL     1     -97.167 152.477 232.873  1.00  0.00     0.041 C 
ATOM     23  O   UNL     1     -97.224 153.295 231.917  1.00  0.00    -0.550 OA
ATOM     24  O   UNL     1     -97.241 151.114 232.617  1.00  0.00    -0.550 OA
ENDBRANCH  21  22
ENDBRANCH  20  21
ENDBRANCH  19  20
ENDBRANCH  18  19
ENDBRANCH  17  18
ENDBRANCH  16  17
ENDBRANCH  15  16
ENDBRANCH  14  15
ENDBRANCH  13  14
ENDBRANCH   1  13
TORSDOF 20
ENDMDL
MODEL 9
REMARK VINA RESULT:    -3.719      1.758      3.566
REMARK INTER + INTRA:         -10.663
REMARK INTER:                  -7.573
REMARK INTRA:                  -3.090
REMARK UNBOUND:                -2.597
REMARK SMILES CCCCCCCCCCCCCCCCCCCCCC(=O)[O-]
REMARK SMILES IDX 12 1 11 2 10 3 9 4 8 5 7 6 6 7 5 8 4 9 3 10 2 11 1 12 13 13
REMARK SMILES IDX 14 14 15 15 16 16 17 17 18 18 19 19 20 20 21 21 22 22 23 23
REMARK SMILES IDX 24 24
REMARK H PARENT
REMARK Flexibility Score: inf
ROOT
ATOM      1  C   UNL     1     -93.723 147.987 237.726  1.00  0.00     0.000 C 
ENDROOT
BRANCH   1   2
ATOM      2  C   UNL     1     -94.621 149.161 238.158  1.00  0.00     0.000 C 
BRANCH   2   3
ATOM      3  C   UNL     1     -94.847 149.201 239.678  1.00  0.00     0.000 C 
BRANCH   3   4
ATOM      4  C   UNL     1     -95.041 147.804 240.287  1.00  0.00    -0.000 C 
BRANCH   4   5
ATOM      5  C   UNL     1     -96.516 147.382 240.228  1.00  0.00    -0.000 C 
BRANCH   5   6
ATOM      6  C   UNL     1     -97.294 147.740 241.507  1.00  0.00    -0.000 C 
BRANCH   6   7
ATOM      7  C   UNL     1     -98.466 148.724 241.307  1.00  0.00    -0.000 C 
BRANCH   7   8
ATOM      8  C   UNL     1     -98.124 150.203 241.558  1.00  0.00    -0.000 C 
BRANCH   8   9
ATOM      9  C   UNL     1     -97.954 151.004 240.255  1.00  0.00    -0.000 C 
BRANCH   9  10
ATOM     10  C   UNL     1     -98.878 150.511 239.128  1.00  0.00    -0.000 C 
BRANCH  10  11
ATOM     11  C   UNL     1     -98.150 149.883 237.925  1.00  0.00    -0.003 C 
ATOM     12  C   UNL     1     -98.909 150.054 236.609  1.00  0.00     0.004 C 
ENDBRANCH  10  11
ENDBRANCH   9  10
ENDBRANCH   8   9
ENDBRANCH   7   8
ENDBRANCH   6   7
ENDBRANCH   5   6
ENDBRANCH   4   5
ENDBRANCH   3   4
ENDBRANCH   2   3
ENDBRANCH   1   2
BRANCH   1  13
ATOM     13  C   UNL     1     -94.331 147.177 236.570  1.00  0.00     0.000 C 
BRANCH  13  14
ATOM     14  C   UNL     1     -95.850 147.387 236.431  1.00  0.00     0.000 C 
BRANCH  14  15
ATOM     15  C   UNL     1     -96.258 147.886 235.032  1.00  0.00     0.000 C 
BRANCH  15  16
ATOM     16  C   UNL     1     -95.110 147.951 234.010  1.00  0.00     0.000 C 
BRANCH  16  17
ATOM     17  C   UNL     1     -94.935 149.351 233.395  1.00  0.00     0.000 C 
BRANCH  17  18
ATOM     18  C   UNL     1     -95.747 150.425 234.137  1.00  0.00     0.000 C 
BRANCH  18  19
ATOM     19  C   UNL     1     -95.667 151.801 233.452  1.00  0.00     0.000 C 
BRANCH  19  20
ATOM     20  C   UNL     1     -96.484 152.875 234.187  1.00  0.00     0.006 C 
BRANCH  20  21
ATOM     21  C   UNL     1     -97.654 153.402 233.346  1.00  0.00     0.053 C 
BRANCH  21  22
ATOM     22  C   UNL     1     -98.920 153.387 234.144  1.00  0.00     0.041 C 
ATOM     23  O   UNL     1     -98.876 153.385 235.402  1.00  0.00    -0.550 OA
ATOM     24  O   UNL     1    -100.150 153.417 233.498  1.00  0.00    -0.550 OA
ENDBRANCH  21  22
ENDBRANCH  20  21
ENDBRANCH  19  20
ENDBRANCH  18  19
ENDBRANCH  17  18
ENDBRANCH  16  17
ENDBRANCH  15  16
ENDBRANCH  14  15
ENDBRANCH  13  14
ENDBRANCH   1  13
TORSDOF 20
ENDMDL
