MODEL 1
REMARK VINA RESULT:    -5.317      0.000      0.000
REMARK INTER + INTRA:          -5.858
REMARK INTER:                  -5.783
REMARK INTRA:                  -0.074
REMARK UNBOUND:                -0.074
REMARK SMILES Cc1ccc(C(C)C)c(O)c1
REMARK SMILES IDX 1 1 2 2 11 3 9 4 5 5 4 6 3 7 10 8 6 10 7 11 8 12
REMARK H PARENT 10 9
REMARK Flexibility Score: inf
ROOT
ATOM      1  C   UNL     1     -14.150   7.266  34.165  1.00  0.00     0.044 C 
ATOM      2  C   UNL     1     -12.778   7.546  34.704  1.00  0.00    -0.047 A 
ATOM      3  C   UNL     1     -11.888   6.493  34.952  1.00  0.00     0.049 A 
ATOM      4  C   UNL     1     -10.617   6.741  35.491  1.00  0.00     0.119 A 
ATOM      5  C   UNL     1     -10.226   8.066  35.800  1.00  0.00    -0.004 A 
ATOM      6  C   UNL     1     -11.138   9.112  35.564  1.00  0.00     0.008 A 
ATOM      7  C   UNL     1     -12.401   8.854  35.028  1.00  0.00     0.004 A 
ENDROOT
BRANCH   4   8
ATOM      8  O   UNL     1      -9.751   5.672  35.717  1.00  0.00    -0.508 OA
ATOM      9  H   UNL     1      -8.748   5.766  35.608  1.00  0.00     0.293 HD
ENDBRANCH   4   8
BRANCH   5  10
ATOM     10  C   UNL     1      -8.860   8.400  36.386  1.00  0.00     0.017 C 
ATOM     11  C   UNL     1      -7.736   8.190  35.364  1.00  0.00     0.012 C 
ATOM     12  C   UNL     1      -8.825   9.812  36.980  1.00  0.00     0.012 C 
ENDBRANCH   5  10
TORSDOF 2
ENDMDL
MODEL 2
REMARK VINA RESULT:    -5.257      1.763      3.787
REMARK INTER + INTRA:          -5.793
REMARK INTER:                  -5.610
REMARK INTRA:                  -0.183
REMARK UNBOUND:                -0.074
REMARK SMILES Cc1ccc(C(C)C)c(O)c1
REMARK SMILES IDX 1 1 2 2 11 3 9 4 5 5 4 6 3 7 10 8 6 10 7 11 8 12
REMARK H PARENT 10 9
REMARK Flexibility Score: inf
ROOT
ATOM      1  C   UNL     1      -9.750  10.672  37.286  1.00  0.00     0.044 C 
ATOM      2  C   UNL     1      -9.788   9.378  36.527  1.00  0.00    -0.047 A 
ATOM      3  C   UNL     1     -11.016   8.784  36.207  1.00  0.00     0.049 A 
ATOM      4  C   UNL     1     -11.063   7.556  35.532  1.00  0.00     0.119 A 
ATOM      5  C   UNL     1      -9.861   6.897  35.177  1.00  0.00    -0.004 A 
ATOM      6  C   UNL     1      -8.635   7.496  35.523  1.00  0.00     0.008 A 
ATOM      7  C   UNL     1      -8.600   8.719  36.196  1.00  0.00     0.004 A 
ENDROOT
BRANCH   4   8
ATOM      8  O   UNL     1     -12.301   6.996  35.219  1.00  0.00    -0.508 OA
ATOM      9  H   UNL     1     -13.070   7.560  34.878  1.00  0.00     0.293 HD
ENDBRANCH   4   8
BRANCH   5  10
ATOM     10  C   UNL     1      -9.846   5.563  34.443  1.00  0.00     0.017 C 
ATOM     11  C   UNL     1      -8.599   5.411  33.564  1.00  0.00     0.012 C 
ATOM     12  C   UNL     1     -10.004   4.381  35.407  1.00  0.00     0.012 C 
ENDBRANCH   5  10
TORSDOF 2
ENDMDL
MODEL 3
REMARK VINA RESULT:    -5.210      2.979      4.010
REMARK INTER + INTRA:          -5.741
REMARK INTER:                  -5.565
REMARK INTRA:                  -0.177
REMARK UNBOUND:                -0.074
REMARK SMILES Cc1ccc(C(C)C)c(O)c1
REMARK SMILES IDX 1 1 2 2 11 3 9 4 5 5 4 6 3 7 10 8 6 10 7 11 8 12
REMARK H PARENT 10 9
REMARK Flexibility Score: inf
ROOT
ATOM      1  C   UNL     1     -15.868   7.191  33.093  1.00  0.00     0.044 C 
ATOM      2  C   UNL     1     -14.657   6.574  33.730  1.00  0.00    -0.047 A 
ATOM      3  C   UNL     1     -13.564   7.373  34.088  1.00  0.00     0.049 A 
ATOM      4  C   UNL     1     -12.413   6.801  34.649  1.00  0.00     0.119 A 
ATOM      5  C   UNL     1     -12.343   5.401  34.848  1.00  0.00    -0.004 A 
ATOM      6  C   UNL     1     -13.442   4.609  34.466  1.00  0.00     0.008 A 
ATOM      7  C   UNL     1     -14.583   5.188  33.907  1.00  0.00     0.004 A 
ENDROOT
BRANCH   4   8
ATOM      8  O   UNL     1     -11.345   7.624  35.004  1.00  0.00    -0.508 OA
ATOM      9  H   UNL     1     -11.391   8.241  35.807  1.00  0.00     0.293 HD
ENDBRANCH   4   8
BRANCH   5  10
ATOM     10  C   UNL     1     -11.122   4.721  35.453  1.00  0.00     0.017 C 
ATOM     11  C   UNL     1     -11.495   3.426  36.186  1.00  0.00     0.012 C 
ATOM     12  C   UNL     1     -10.027   4.482  34.408  1.00  0.00     0.012 C 
ENDBRANCH   5  10
TORSDOF 2
ENDMDL
MODEL 4
REMARK VINA RESULT:    -5.159      1.890      4.723
REMARK INTER + INTRA:          -5.686
REMARK INTER:                  -5.579
REMARK INTRA:                  -0.107
REMARK UNBOUND:                -0.074
REMARK SMILES Cc1ccc(C(C)C)c(O)c1
REMARK SMILES IDX 1 1 2 2 11 3 9 4 5 5 4 6 3 7 10 8 6 10 7 11 8 12
REMARK H PARENT 10 9
REMARK Flexibility Score: inf
ROOT
ATOM      1  C   UNL     1     -11.252   9.481  35.716  1.00  0.00     0.044 C 
ATOM      2  C   UNL     1     -11.957   8.238  35.255  1.00  0.00    -0.047 A 
ATOM      3  C   UNL     1     -11.226   7.080  34.963  1.00  0.00     0.049 A 
ATOM      4  C   UNL     1     -11.870   5.925  34.495  1.00  0.00     0.119 A 
ATOM      5  C   UNL     1     -13.273   5.926  34.303  1.00  0.00    -0.004 A 
ATOM      6  C   UNL     1     -13.992   7.104  34.582  1.00  0.00     0.008 A 
ATOM      7  C   UNL     1     -13.340   8.248  35.046  1.00  0.00     0.004 A 
ENDROOT
BRANCH   4   8
ATOM      8  O   UNL     1     -11.116   4.785  34.223  1.00  0.00    -0.508 OA
ATOM      9  H   UNL     1     -11.344   3.885  34.628  1.00  0.00     0.293 HD
ENDBRANCH   4   8
BRANCH   5  10
ATOM     10  C   UNL     1     -14.030   4.705  33.799  1.00  0.00     0.017 C 
ATOM     11  C   UNL     1     -14.127   3.612  34.872  1.00  0.00     0.012 C 
ATOM     12  C   UNL     1     -15.411   5.078  33.249  1.00  0.00     0.012 C 
ENDBRANCH   5  10
TORSDOF 2
ENDMDL
MODEL 5
REMARK VINA RESULT:    -5.104      1.911      2.632
REMARK INTER + INTRA:          -5.626
REMARK INTER:                  -5.734
REMARK INTRA:                   0.108
REMARK UNBOUND:                -0.074
REMARK SMILES Cc1ccc(C(C)C)c(O)c1
REMARK SMILES IDX 1 1 2 2 11 3 9 4 5 5 4 6 3 7 10 8 6 10 7 11 8 12
REMARK H PARENT 10 9
REMARK Flexibility Score: inf
ROOT
ATOM      1  C   UNL     1     -13.146   5.985  34.307  1.00  0.00     0.044 C 
ATOM      2  C   UNL     1     -12.193   6.993  34.880  1.00  0.00    -0.047 A 
ATOM      3  C   UNL     1     -12.503   8.358  34.840  1.00  0.00     0.049 A 
ATOM      4  C   UNL     1     -11.603   9.312  35.337  1.00  0.00     0.119 A 
ATOM      5  C   UNL     1     -10.361   8.898  35.877  1.00  0.00    -0.004 A 
ATOM      6  C   UNL     1     -10.055   7.524  35.893  1.00  0.00     0.008 A 
ATOM      7  C   UNL     1     -10.958   6.583  35.393  1.00  0.00     0.004 A 
ENDROOT
BRANCH   4   8
ATOM      8  O   UNL     1     -11.944  10.662  35.293  1.00  0.00    -0.508 OA
ATOM      9  H   UNL     1     -11.577  11.282  34.580  1.00  0.00     0.293 HD
ENDBRANCH   4   8
BRANCH   5  10
ATOM     10  C   UNL     1      -9.342   9.884  36.434  1.00  0.00     0.017 C 
ATOM     11  C   UNL     1      -9.939  10.750  37.550  1.00  0.00     0.012 C 
ATOM     12  C   UNL     1      -8.059   9.180  36.891  1.00  0.00     0.012 C 
ENDBRANCH   5  10
TORSDOF 2
ENDMDL
MODEL 6
REMARK VINA RESULT:    -5.104      1.907      4.606
REMARK INTER + INTRA:          -5.625
REMARK INTER:                  -5.703
REMARK INTRA:                   0.078
REMARK UNBOUND:                -0.074
REMARK SMILES Cc1ccc(C(C)C)c(O)c1
REMARK SMILES IDX 1 1 2 2 11 3 9 4 5 5 4 6 3 7 10 8 6 10 7 11 8 12
REMARK H PARENT 10 9
REMARK Flexibility Score: inf
ROOT
ATOM      1  C   UNL     1      -8.244   8.615  36.591  1.00  0.00     0.044 C 
ATOM      2  C   UNL     1      -9.621   8.419  36.026  1.00  0.00    -0.047 A 
ATOM      3  C   UNL     1     -10.444   9.524  35.775  1.00  0.00     0.049 A 
ATOM      4  C   UNL     1     -11.746   9.350  35.282  1.00  0.00     0.119 A 
ATOM      5  C   UNL     1     -12.244   8.046  35.045  1.00  0.00    -0.004 A 
ATOM      6  C   UNL     1     -11.412   6.945  35.320  1.00  0.00     0.008 A 
ATOM      7  C   UNL     1     -10.118   7.129  35.812  1.00  0.00     0.004 A 
ENDROOT
BRANCH   4   8
ATOM      8  O   UNL     1     -12.537  10.470  35.033  1.00  0.00    -0.508 OA
ATOM      9  H   UNL     1     -13.264  10.764  35.676  1.00  0.00     0.293 HD
ENDBRANCH   4   8
BRANCH   5  10
ATOM     10  C   UNL     1     -13.647   7.792  34.510  1.00  0.00     0.017 C 
ATOM     11  C   UNL     1     -13.890   6.303  34.234  1.00  0.00     0.012 C 
ATOM     12  C   UNL     1     -14.723   8.377  35.433  1.00  0.00     0.012 C 
ENDBRANCH   5  10
TORSDOF 2
ENDMDL
MODEL 7
REMARK VINA RESULT:    -5.063      1.263      4.158
REMARK INTER + INTRA:          -5.581
REMARK INTER:                  -5.483
REMARK INTRA:                  -0.098
REMARK UNBOUND:                -0.074
REMARK SMILES Cc1ccc(C(C)C)c(O)c1
REMARK SMILES IDX 1 1 2 2 11 3 9 4 5 5 4 6 3 7 10 8 6 10 7 11 8 12
REMARK H PARENT 10 9
REMARK Flexibility Score: inf
ROOT
ATOM      1  C   UNL     1      -7.969   8.747  36.494  1.00  0.00     0.044 C 
ATOM      2  C   UNL     1      -9.156   8.028  35.924  1.00  0.00    -0.047 A 
ATOM      3  C   UNL     1      -8.978   6.871  35.155  1.00  0.00     0.049 A 
ATOM      4  C   UNL     1     -10.078   6.213  34.586  1.00  0.00     0.119 A 
ATOM      5  C   UNL     1     -11.384   6.724  34.776  1.00  0.00    -0.004 A 
ATOM      6  C   UNL     1     -11.546   7.899  35.534  1.00  0.00     0.008 A 
ATOM      7  C   UNL     1     -10.444   8.547  36.095  1.00  0.00     0.004 A 
ENDROOT
BRANCH   4   8
ATOM      8  O   UNL     1      -9.868   5.057  33.834  1.00  0.00    -0.508 OA
ATOM      9  H   UNL     1     -10.618   4.403  33.641  1.00  0.00     0.293 HD
ENDBRANCH   4   8
BRANCH   5  10
ATOM     10  C   UNL     1     -12.618   6.055  34.185  1.00  0.00     0.017 C 
ATOM     11  C   UNL     1     -12.956   4.744  34.906  1.00  0.00     0.012 C 
ATOM     12  C   UNL     1     -13.821   7.005  34.151  1.00  0.00     0.012 C 
ENDBRANCH   5  10
TORSDOF 2
ENDMDL
MODEL 8
REMARK VINA RESULT:    -5.052      2.151      3.257
REMARK INTER + INTRA:          -5.570
REMARK INTER:                  -5.726
REMARK INTRA:                   0.157
REMARK UNBOUND:                -0.074
REMARK SMILES Cc1ccc(C(C)C)c(O)c1
REMARK SMILES IDX 1 1 2 2 11 3 9 4 5 5 4 6 3 7 10 8 6 10 7 11 8 12
REMARK H PARENT 10 9
REMARK Flexibility Score: inf
ROOT
ATOM      1  C   UNL     1     -14.888   4.684  33.448  1.00  0.00     0.044 C 
ATOM      2  C   UNL     1     -14.037   5.752  34.071  1.00  0.00    -0.047 A 
ATOM      3  C   UNL     1     -14.606   6.975  34.450  1.00  0.00     0.049 A 
ATOM      4  C   UNL     1     -13.812   7.994  34.998  1.00  0.00     0.119 A 
ATOM      5  C   UNL     1     -12.420   7.796  35.161  1.00  0.00    -0.004 A 
ATOM      6  C   UNL     1     -11.860   6.570  34.757  1.00  0.00     0.008 A 
ATOM      7  C   UNL     1     -12.658   5.562  34.212  1.00  0.00     0.004 A 
ENDROOT
BRANCH   4   8
ATOM      8  O   UNL     1     -14.410   9.196  35.375  1.00  0.00    -0.508 OA
ATOM      9  H   UNL     1     -14.087  10.087  35.017  1.00  0.00     0.293 HD
ENDBRANCH   4   8
BRANCH   5  10
ATOM     10  C   UNL     1     -11.507   8.863  35.750  1.00  0.00     0.017 C 
ATOM     11  C   UNL     1     -10.050   8.389  35.822  1.00  0.00     0.012 C 
ATOM     12  C   UNL     1     -11.629  10.195  35.000  1.00  0.00     0.012 C 
ENDBRANCH   5  10
TORSDOF 2
ENDMDL
MODEL 9
REMARK VINA RESULT:    -4.990      1.707      2.358
REMARK INTER + INTRA:          -5.502
REMARK INTER:                  -5.363
REMARK INTRA:                  -0.138
REMARK UNBOUND:                -0.074
REMARK SMILES Cc1ccc(C(C)C)c(O)c1
REMARK SMILES IDX 1 1 2 2 11 3 9 4 5 5 4 6 3 7 10 8 6 10 7 11 8 12
REMARK H PARENT 10 9
REMARK Flexibility Score: inf
ROOT
ATOM      1  C   UNL     1     -14.894   4.258  33.872  1.00  0.00     0.044 C 
ATOM      2  C   UNL     1     -13.664   4.984  34.331  1.00  0.00    -0.047 A 
ATOM      3  C   UNL     1     -12.646   4.294  35.002  1.00  0.00     0.049 A 
ATOM      4  C   UNL     1     -11.510   4.970  35.469  1.00  0.00     0.119 A 
ATOM      5  C   UNL     1     -11.387   6.367  35.273  1.00  0.00    -0.004 A 
ATOM      6  C   UNL     1     -12.426   7.050  34.614  1.00  0.00     0.008 A 
ATOM      7  C   UNL     1     -13.555   6.367  34.155  1.00  0.00     0.004 A 
ENDROOT
BRANCH   4   8
ATOM      8  O   UNL     1     -10.510   4.253  36.124  1.00  0.00    -0.508 OA
ATOM      9  H   UNL     1     -10.278   4.427  37.095  1.00  0.00     0.293 HD
ENDBRANCH   4   8
BRANCH   5  10
ATOM     10  C   UNL     1     -10.178   7.157  35.755  1.00  0.00     0.017 C 
ATOM     11  C   UNL     1      -8.960   6.944  34.847  1.00  0.00     0.012 C 
ATOM     12  C   UNL     1     -10.501   8.646  35.925  1.00  0.00     0.012 C 
ENDBRANCH   5  10
TORSDOF 2
ENDMDL
