MODEL 1
REMARK VINA RESULT:    -4.488      0.000      0.000
REMARK INTER + INTRA:          -6.278
REMARK INTER:                  -5.537
REMARK INTRA:                  -0.741
REMARK UNBOUND:                -0.741
REMARK SMILES CC(C)=CCC[C@H](C)c1ccc(C)cc1
REMARK SMILES IDX 6 1 7 2 8 3 9 4 13 5 12 6 11 7 14 8 10 9 15 10 5 11 4 12
REMARK SMILES IDX 2 13 1 14 3 15
REMARK H PARENT
REMARK Flexibility Score: inf
ROOT
ATOM      1  C   UNL     1      24.088  48.445   0.028  1.00  0.00     0.012 C 
ENDROOT
BRANCH   1   2
ATOM      2  C   UNL     1      23.782  49.943  -0.181  1.00  0.00     0.016 C 
ATOM      3  C   UNL     1      23.105  50.538   1.061  1.00  0.00     0.013 C 
BRANCH   2   4
ATOM      4  C   UNL     1      22.934  50.184  -1.419  1.00  0.00    -0.045 A 
ATOM      5  C   UNL     1      20.455  50.880  -4.887  1.00  0.00     0.044 C 
ATOM      6  C   UNL     1      21.333  50.618  -3.698  1.00  0.00    -0.051 A 
ATOM      7  C   UNL     1      20.998  49.613  -2.780  1.00  0.00     0.004 A 
ATOM      8  C   UNL     1      22.456  51.422  -3.459  1.00  0.00     0.004 A 
ATOM      9  C   UNL     1      21.795  49.394  -1.653  1.00  0.00     0.004 A 
ATOM     10  C   UNL     1      23.254  51.204  -2.333  1.00  0.00     0.004 A 
ENDBRANCH   2   4
ENDBRANCH   1   2
BRANCH   1  11
ATOM     11  C   UNL     1      23.198  47.817   1.110  1.00  0.00     0.028 C 
BRANCH  11  12
ATOM     12  C   UNL     1      23.253  46.310   1.040  1.00  0.00    -0.028 C 
ATOM     13  C   UNL     1      22.294  45.536   0.488  1.00  0.00    -0.080 C 
ATOM     14  C   UNL     1      22.507  44.045   0.453  1.00  0.00     0.039 C 
ATOM     15  C   UNL     1      21.020  46.119  -0.077  1.00  0.00     0.039 C 
ENDBRANCH  11  12
ENDBRANCH   1  11
TORSDOF 4
ENDMDL
MODEL 2
REMARK VINA RESULT:    -4.393      1.040      1.279
REMARK INTER + INTRA:          -6.162
REMARK INTER:                  -5.292
REMARK INTRA:                  -0.870
REMARK UNBOUND:                -0.741
REMARK SMILES CC(C)=CCC[C@H](C)c1ccc(C)cc1
REMARK SMILES IDX 6 1 7 2 8 3 9 4 13 5 12 6 11 7 14 8 10 9 15 10 5 11 4 12
REMARK SMILES IDX 2 13 1 14 3 15
REMARK H PARENT
REMARK Flexibility Score: inf
ROOT
ATOM      1  C   UNL     1      23.137  49.686   0.535  1.00  0.00     0.012 C 
ENDROOT
BRANCH   1   2
ATOM      2  C   UNL     1      23.899  49.929  -0.785  1.00  0.00     0.016 C 
ATOM      3  C   UNL     1      24.980  51.001  -0.599  1.00  0.00     0.013 C 
BRANCH   2   4
ATOM      4  C   UNL     1      22.964  50.305  -1.922  1.00  0.00    -0.045 A 
ATOM      5  C   UNL     1      20.241  51.378  -5.098  1.00  0.00     0.044 C 
ATOM      6  C   UNL     1      21.202  50.988  -4.015  1.00  0.00    -0.051 A 
ATOM      7  C   UNL     1      20.946  49.868  -3.211  1.00  0.00     0.004 A 
ATOM      8  C   UNL     1      22.329  51.780  -3.752  1.00  0.00     0.004 A 
ATOM      9  C   UNL     1      21.822  49.527  -2.177  1.00  0.00     0.004 A 
ATOM     10  C   UNL     1      23.206  51.439  -2.719  1.00  0.00     0.004 A 
ENDBRANCH   2   4
ENDBRANCH   1   2
BRANCH   1  11
ATOM     11  C   UNL     1      23.429  48.298   1.125  1.00  0.00     0.028 C 
BRANCH  11  12
ATOM     12  C   UNL     1      22.971  47.211   0.184  1.00  0.00    -0.028 C 
ATOM     13  C   UNL     1      21.685  46.823   0.034  1.00  0.00    -0.080 C 
ATOM     14  C   UNL     1      21.373  45.750  -0.976  1.00  0.00     0.039 C 
ATOM     15  C   UNL     1      20.567  47.422   0.853  1.00  0.00     0.039 C 
ENDBRANCH  11  12
ENDBRANCH   1  11
TORSDOF 4
ENDMDL
MODEL 3
REMARK VINA RESULT:    -4.145      1.124      6.276
REMARK INTER + INTRA:          -5.856
REMARK INTER:                  -5.297
REMARK INTRA:                  -0.559
REMARK UNBOUND:                -0.741
REMARK SMILES CC(C)=CCC[C@H](C)c1ccc(C)cc1
REMARK SMILES IDX 6 1 7 2 8 3 9 4 13 5 12 6 11 7 14 8 10 9 15 10 5 11 4 12
REMARK SMILES IDX 2 13 1 14 3 15
REMARK H PARENT
REMARK Flexibility Score: inf
ROOT
ATOM      1  C   UNL     1      20.966  48.435  -1.441  1.00  0.00     0.012 C 
ENDROOT
BRANCH   1   2
ATOM      2  C   UNL     1      21.545  48.373  -0.012  1.00  0.00     0.016 C 
ATOM      3  C   UNL     1      22.591  49.475   0.199  1.00  0.00     0.013 C 
BRANCH   2   4
ATOM      4  C   UNL     1      22.135  47.009   0.305  1.00  0.00    -0.045 A 
ATOM      5  C   UNL     1      23.799  43.108   1.124  1.00  0.00     0.044 C 
ATOM      6  C   UNL     1      23.210  44.464   0.868  1.00  0.00    -0.051 A 
ATOM      7  C   UNL     1      21.926  44.584   0.317  1.00  0.00     0.004 A 
ATOM      8  C   UNL     1      23.964  45.620   1.112  1.00  0.00     0.004 A 
ATOM      9  C   UNL     1      21.390  45.846   0.043  1.00  0.00     0.004 A 
ATOM     10  C   UNL     1      23.430  46.882   0.839  1.00  0.00     0.004 A 
ENDBRANCH   2   4
ENDBRANCH   1   2
BRANCH   1  11
ATOM     11  C   UNL     1      21.836  49.281  -2.383  1.00  0.00     0.028 C 
BRANCH  11  12
ATOM     12  C   UNL     1      20.992  49.933  -3.450  1.00  0.00    -0.028 C 
ATOM     13  C   UNL     1      21.359  51.027  -4.152  1.00  0.00    -0.080 C 
ATOM     14  C   UNL     1      20.427  51.542  -5.217  1.00  0.00     0.039 C 
ATOM     15  C   UNL     1      22.660  51.748  -3.889  1.00  0.00     0.039 C 
ENDBRANCH  11  12
ENDBRANCH   1  11
TORSDOF 4
ENDMDL
MODEL 4
REMARK VINA RESULT:    -2.956     23.413     25.309
REMARK INTER + INTRA:          -4.388
REMARK INTER:                  -3.886
REMARK INTRA:                  -0.502
REMARK UNBOUND:                -0.741
REMARK SMILES CC(C)=CCC[C@H](C)c1ccc(C)cc1
REMARK SMILES IDX 6 1 7 2 8 3 9 4 13 5 12 6 11 7 14 8 10 9 15 10 5 11 4 12
REMARK SMILES IDX 2 13 1 14 3 15
REMARK H PARENT
REMARK Flexibility Score: inf
ROOT
ATOM      1  C   UNL     1      12.438  32.555 -16.456  1.00  0.00     0.012 C 
ENDROOT
BRANCH   1   2
ATOM      2  C   UNL     1      11.464  31.875 -17.442  1.00  0.00     0.016 C 
ATOM      3  C   UNL     1      11.907  32.109 -18.892  1.00  0.00     0.013 C 
BRANCH   2   4
ATOM      4  C   UNL     1      10.032  32.341 -17.239  1.00  0.00    -0.045 A 
ATOM      5  C   UNL     1       5.933  33.589 -16.691  1.00  0.00     0.044 C 
ATOM      6  C   UNL     1       7.364  33.184 -16.888  1.00  0.00    -0.051 A 
ATOM      7  C   UNL     1       7.807  32.742 -18.143  1.00  0.00     0.004 A 
ATOM      8  C   UNL     1       8.253  33.178 -15.803  1.00  0.00     0.004 A 
ATOM      9  C   UNL     1       9.131  32.329 -18.318  1.00  0.00     0.004 A 
ATOM     10  C   UNL     1       9.576  32.767 -15.978  1.00  0.00     0.004 A 
ENDBRANCH   2   4
ENDBRANCH   1   2
BRANCH   1  11
ATOM     11  C   UNL     1      13.816  31.876 -16.443  1.00  0.00     0.028 C 
BRANCH  11  12
ATOM     12  C   UNL     1      14.918  32.906 -16.422  1.00  0.00    -0.028 C 
ATOM     13  C   UNL     1      15.480  33.401 -15.298  1.00  0.00    -0.080 C 
ATOM     14  C   UNL     1      16.603  34.395 -15.434  1.00  0.00     0.039 C 
ATOM     15  C   UNL     1      15.007  32.996 -13.921  1.00  0.00     0.039 C 
ENDBRANCH  11  12
ENDBRANCH   1  11
TORSDOF 4
ENDMDL
MODEL 5
REMARK VINA RESULT:    -2.649     24.518     26.704
REMARK INTER + INTRA:          -4.010
REMARK INTER:                  -3.682
REMARK INTRA:                  -0.327
REMARK UNBOUND:                -0.741
REMARK SMILES CC(C)=CCC[C@H](C)c1ccc(C)cc1
REMARK SMILES IDX 6 1 7 2 8 3 9 4 13 5 12 6 11 7 14 8 10 9 15 10 5 11 4 12
REMARK SMILES IDX 2 13 1 14 3 15
REMARK H PARENT
REMARK Flexibility Score: inf
ROOT
ATOM      1  C   UNL     1       8.717  33.482 -17.340  1.00  0.00     0.012 C 
ENDROOT
BRANCH   1   2
ATOM      2  C   UNL     1       9.257  32.134 -16.818  1.00  0.00     0.016 C 
ATOM      3  C   UNL     1       8.800  31.888 -15.374  1.00  0.00     0.013 C 
BRANCH   2   4
ATOM      4  C   UNL     1      10.771  32.048 -16.921  1.00  0.00    -0.045 A 
ATOM      5  C   UNL     1      15.073  31.875 -17.262  1.00  0.00     0.044 C 
ATOM      6  C   UNL     1      13.578  31.905 -17.143  1.00  0.00    -0.051 A 
ATOM      7  C   UNL     1      12.777  31.927 -18.293  1.00  0.00     0.004 A 
ATOM      8  C   UNL     1      12.971  31.980 -15.881  1.00  0.00     0.004 A 
ATOM      9  C   UNL     1      11.385  31.993 -18.184  1.00  0.00     0.004 A 
ATOM     10  C   UNL     1      11.580  32.045 -15.770  1.00  0.00     0.004 A 
ENDBRANCH   2   4
ENDBRANCH   1   2
BRANCH   1  11
ATOM     11  C   UNL     1       8.189  33.376 -18.779  1.00  0.00     0.028 C 
BRANCH  11  12
ATOM     12  C   UNL     1       7.075  34.366 -19.013  1.00  0.00    -0.028 C 
ATOM     13  C   UNL     1       5.880  34.335 -18.382  1.00  0.00    -0.080 C 
ATOM     14  C   UNL     1       4.878  35.417 -18.689  1.00  0.00     0.039 C 
ATOM     15  C   UNL     1       5.523  33.246 -17.397  1.00  0.00     0.039 C 
ENDBRANCH  11  12
ENDBRANCH   1  11
TORSDOF 4
ENDMDL
MODEL 6
REMARK VINA RESULT:    -2.378     22.773     24.729
REMARK INTER + INTRA:          -3.675
REMARK INTER:                  -3.200
REMARK INTRA:                  -0.475
REMARK UNBOUND:                -0.741
REMARK SMILES CC(C)=CCC[C@H](C)c1ccc(C)cc1
REMARK SMILES IDX 6 1 7 2 8 3 9 4 13 5 12 6 11 7 14 8 10 9 15 10 5 11 4 12
REMARK SMILES IDX 2 13 1 14 3 15
REMARK H PARENT
REMARK Flexibility Score: inf
ROOT
ATOM      1  C   UNL     1      13.602  33.003 -16.377  1.00  0.00     0.012 C 
ENDROOT
BRANCH   1   2
ATOM      2  C   UNL     1      12.859  31.875 -17.125  1.00  0.00     0.016 C 
ATOM      3  C   UNL     1      13.155  31.933 -18.629  1.00  0.00     0.013 C 
BRANCH   2   4
ATOM      4  C   UNL     1      11.361  31.917 -16.873  1.00  0.00    -0.045 A 
ATOM      5  C   UNL     1       7.094  31.964 -16.206  1.00  0.00     0.044 C 
ATOM      6  C   UNL     1       8.576  31.978 -16.436  1.00  0.00    -0.051 A 
ATOM      7  C   UNL     1       9.088  32.000 -17.741  1.00  0.00     0.004 A 
ATOM      8  C   UNL     1       9.461  31.899 -15.351  1.00  0.00     0.004 A 
ATOM      9  C   UNL     1      10.469  31.975 -17.958  1.00  0.00     0.004 A 
ATOM     10  C   UNL     1      10.841  31.875 -15.566  1.00  0.00     0.004 A 
ENDBRANCH   2   4
ENDBRANCH   1   2
BRANCH   1  11
ATOM     11  C   UNL     1      14.847  32.486 -15.641  1.00  0.00     0.028 C 
BRANCH  11  12
ATOM     12  C   UNL     1      15.931  33.536 -15.623  1.00  0.00    -0.028 C 
ATOM     13  C   UNL     1      16.757  33.763 -14.578  1.00  0.00    -0.080 C 
ATOM     14  C   UNL     1      17.821  34.819 -14.720  1.00  0.00     0.039 C 
ATOM     15  C   UNL     1      16.632  33.003 -13.278  1.00  0.00     0.039 C 
ENDBRANCH  11  12
ENDBRANCH   1  11
TORSDOF 4
ENDMDL
MODEL 7
REMARK VINA RESULT:    -2.296     21.992     23.917
REMARK INTER + INTRA:          -3.574
REMARK INTER:                  -3.237
REMARK INTRA:                  -0.337
REMARK UNBOUND:                -0.741
REMARK SMILES CC(C)=CCC[C@H](C)c1ccc(C)cc1
REMARK SMILES IDX 6 1 7 2 8 3 9 4 13 5 12 6 11 7 14 8 10 9 15 10 5 11 4 12
REMARK SMILES IDX 2 13 1 14 3 15
REMARK H PARENT
REMARK Flexibility Score: inf
ROOT
ATOM      1  C   UNL     1      14.828  33.492 -15.734  1.00  0.00     0.012 C 
ENDROOT
BRANCH   1   2
ATOM      2  C   UNL     1      14.430  32.138 -16.359  1.00  0.00     0.016 C 
ATOM      3  C   UNL     1      15.227  31.875 -17.643  1.00  0.00     0.013 C 
BRANCH   2   4
ATOM      4  C   UNL     1      12.937  32.052 -16.630  1.00  0.00    -0.045 A 
ATOM      5  C   UNL     1       8.682  31.879 -17.353  1.00  0.00     0.044 C 
ATOM      6  C   UNL     1      10.161  31.909 -17.103  1.00  0.00    -0.051 A 
ATOM      7  C   UNL     1      10.656  31.914 -15.791  1.00  0.00     0.004 A 
ATOM      8  C   UNL     1      11.058  32.001 -18.176  1.00  0.00     0.004 A 
ATOM      9  C   UNL     1      12.033  31.980 -15.556  1.00  0.00     0.004 A 
ATOM     10  C   UNL     1      12.434  32.067 -17.944  1.00  0.00     0.004 A 
ENDBRANCH   2   4
ENDBRANCH   1   2
BRANCH   1  11
ATOM     11  C   UNL     1      15.163  33.365 -14.241  1.00  0.00     0.028 C 
BRANCH  11  12
ATOM     12  C   UNL     1      16.649  33.205 -14.039  1.00  0.00    -0.028 C 
ATOM     13  C   UNL     1      17.565  34.162 -14.307  1.00  0.00    -0.080 C 
ATOM     14  C   UNL     1      19.013  33.872 -14.015  1.00  0.00     0.039 C 
ATOM     15  C   UNL     1      17.178  35.496 -14.900  1.00  0.00     0.039 C 
ENDBRANCH  11  12
ENDBRANCH   1  11
TORSDOF 4
ENDMDL
