MODEL 1
REMARK VINA RESULT:    -3.905      0.000      0.000
REMARK INTER + INTRA:          -4.421
REMARK INTER:                  -4.133
REMARK INTRA:                  -0.287
REMARK UNBOUND:                -0.287
REMARK SMILES c1ccc(-c2ccccc2)cc1
REMARK SMILES IDX 1 1 2 2 3 3 4 4 11 5 12 6 5 7 6 8 10 9 7 10 9 11 8 12
REMARK H PARENT
REMARK Flexibility Score: inf
ROOT
ATOM      1  C   UNL     1       4.963   8.525  -6.330  1.00  0.00     0.000 A 
ATOM      2  C   UNL     1       5.812   7.553  -5.795  1.00  0.00     0.001 A 
ATOM      3  C   UNL     1       5.841   7.331  -4.415  1.00  0.00     0.009 A 
ATOM      4  C   UNL     1       5.017   8.080  -3.553  1.00  0.00    -0.018 A 
ATOM      5  C   UNL     1       4.166   9.056  -4.106  1.00  0.00     0.009 A 
ATOM      6  C   UNL     1       4.142   9.275  -5.487  1.00  0.00     0.001 A 
ENDROOT
BRANCH   4   7
ATOM      7  C   UNL     1       5.046   7.845  -2.087  1.00  0.00    -0.018 A 
ATOM      8  C   UNL     1       4.113   6.984  -1.481  1.00  0.00     0.009 A 
ATOM      9  C   UNL     1       6.010   8.480  -1.280  1.00  0.00     0.009 A 
ATOM     10  C   UNL     1       4.145   6.763  -0.100  1.00  0.00     0.001 A 
ATOM     11  C   UNL     1       6.037   8.257   0.100  1.00  0.00     0.001 A 
ATOM     12  C   UNL     1       5.105   7.400   0.689  1.00  0.00     0.000 A 
ENDBRANCH   4   7
TORSDOF 1
ENDMDL
MODEL 2
REMARK VINA RESULT:    -3.905      0.028      4.948
REMARK INTER + INTRA:          -4.420
REMARK INTER:                  -4.133
REMARK INTRA:                  -0.287
REMARK UNBOUND:                -0.287
REMARK SMILES c1ccc(-c2ccccc2)cc1
REMARK SMILES IDX 1 1 2 2 3 3 4 4 11 5 12 6 5 7 6 8 10 9 7 10 9 11 8 12
REMARK H PARENT
REMARK Flexibility Score: inf
ROOT
ATOM      1  C   UNL     1       5.065   7.412   0.693  1.00  0.00     0.000 A 
ATOM      2  C   UNL     1       5.996   8.273   0.109  1.00  0.00     0.001 A 
ATOM      3  C   UNL     1       5.977   8.493  -1.273  1.00  0.00     0.009 A 
ATOM      4  C   UNL     1       5.022   7.852  -2.084  1.00  0.00    -0.018 A 
ATOM      5  C   UNL     1       4.088   6.988  -1.482  1.00  0.00     0.009 A 
ATOM      6  C   UNL     1       4.113   6.771  -0.100  1.00  0.00     0.001 A 
ENDROOT
BRANCH   4   7
ATOM      7  C   UNL     1       5.000   8.085  -3.551  1.00  0.00    -0.018 A 
ATOM      8  C   UNL     1       5.835   7.342  -4.407  1.00  0.00     0.009 A 
ATOM      9  C   UNL     1       4.142   9.053  -4.109  1.00  0.00     0.009 A 
ATOM     10  C   UNL     1       5.810   7.562  -5.788  1.00  0.00     0.001 A 
ATOM     11  C   UNL     1       4.123   9.270  -5.490  1.00  0.00     0.001 A 
ATOM     12  C   UNL     1       4.957   8.526  -6.329  1.00  0.00     0.000 A 
ENDBRANCH   4   7
TORSDOF 1
ENDMDL
MODEL 3
REMARK VINA RESULT:    -3.904      2.581      5.182
REMARK INTER + INTRA:          -4.419
REMARK INTER:                  -4.125
REMARK INTRA:                  -0.294
REMARK UNBOUND:                -0.287
REMARK SMILES c1ccc(-c2ccccc2)cc1
REMARK SMILES IDX 1 1 2 2 3 3 4 4 11 5 12 6 5 7 6 8 10 9 7 10 9 11 8 12
REMARK H PARENT
REMARK Flexibility Score: inf
ROOT
ATOM      1  C   UNL     1       4.140   9.135  -4.892  1.00  0.00     0.000 A 
ATOM      2  C   UNL     1       4.793   8.380  -3.915  1.00  0.00     0.001 A 
ATOM      3  C   UNL     1       5.788   7.468  -4.283  1.00  0.00     0.009 A 
ATOM      4  C   UNL     1       6.141   7.304  -5.636  1.00  0.00    -0.018 A 
ATOM      5  C   UNL     1       5.475   8.071  -6.610  1.00  0.00     0.009 A 
ATOM      6  C   UNL     1       4.480   8.981  -6.237  1.00  0.00     0.001 A 
ENDROOT
BRANCH   4   7
ATOM      7  C   UNL     1       7.197   6.336  -6.027  1.00  0.00    -0.018 A 
ATOM      8  C   UNL     1       6.889   5.227  -6.837  1.00  0.00     0.009 A 
ATOM      9  C   UNL     1       8.526   6.515  -5.595  1.00  0.00     0.009 A 
ATOM     10  C   UNL     1       7.887   4.318  -7.205  1.00  0.00     0.001 A 
ATOM     11  C   UNL     1       9.519   5.603  -5.965  1.00  0.00     0.001 A 
ATOM     12  C   UNL     1       9.200   4.506  -6.769  1.00  0.00     0.000 A 
ENDBRANCH   4   7
TORSDOF 1
ENDMDL
MODEL 4
REMARK VINA RESULT:    -3.892      2.574      4.912
REMARK INTER + INTRA:          -4.407
REMARK INTER:                  -4.115
REMARK INTRA:                  -0.292
REMARK UNBOUND:                -0.287
REMARK SMILES c1ccc(-c2ccccc2)cc1
REMARK SMILES IDX 1 1 2 2 3 3 4 4 11 5 12 6 5 7 6 8 10 9 7 10 9 11 8 12
REMARK H PARENT
REMARK Flexibility Score: inf
ROOT
ATOM      1  C   UNL     1       9.219   4.580  -6.595  1.00  0.00     0.000 A 
ATOM      2  C   UNL     1       7.903   4.337  -6.993  1.00  0.00     0.001 A 
ATOM      3  C   UNL     1       6.890   5.241  -6.655  1.00  0.00     0.009 A 
ATOM      4  C   UNL     1       7.186   6.401  -5.914  1.00  0.00    -0.018 A 
ATOM      5  C   UNL     1       8.517   6.633  -5.519  1.00  0.00     0.009 A 
ATOM      6  C   UNL     1       9.526   5.726  -5.859  1.00  0.00     0.001 A 
ENDROOT
BRANCH   4   7
ATOM      7  C   UNL     1       6.112   7.361  -5.555  1.00  0.00    -0.018 A 
ATOM      8  C   UNL     1       5.726   7.535  -4.213  1.00  0.00     0.009 A 
ATOM      9  C   UNL     1       5.462   8.114  -6.553  1.00  0.00     0.009 A 
ATOM     10  C   UNL     1       4.714   8.442  -3.877  1.00  0.00     0.001 A 
ATOM     11  C   UNL     1       4.452   9.017  -6.212  1.00  0.00     0.001 A 
ATOM     12  C   UNL     1       4.078   9.181  -4.876  1.00  0.00     0.000 A 
ENDBRANCH   4   7
TORSDOF 1
ENDMDL
MODEL 5
REMARK VINA RESULT:    -3.892      2.508      5.336
REMARK INTER + INTRA:          -4.407
REMARK INTER:                  -4.113
REMARK INTRA:                  -0.294
REMARK UNBOUND:                -0.287
REMARK SMILES c1ccc(-c2ccccc2)cc1
REMARK SMILES IDX 1 1 2 2 3 3 4 4 11 5 12 6 5 7 6 8 10 9 7 10 9 11 8 12
REMARK H PARENT
REMARK Flexibility Score: inf
ROOT
ATOM      1  C   UNL     1       4.076   9.129  -4.756  1.00  0.00     0.000 A 
ATOM      2  C   UNL     1       4.402   9.000  -6.107  1.00  0.00     0.001 A 
ATOM      3  C   UNL     1       5.409   8.113  -6.503  1.00  0.00     0.009 A 
ATOM      4  C   UNL     1       6.100   7.344  -5.547  1.00  0.00    -0.018 A 
ATOM      5  C   UNL     1       5.760   7.484  -4.189  1.00  0.00     0.009 A 
ATOM      6  C   UNL     1       4.753   8.373  -3.798  1.00  0.00     0.001 A 
ENDROOT
BRANCH   4   7
ATOM      7  C   UNL     1       7.169   6.402  -5.966  1.00  0.00    -0.018 A 
ATOM      8  C   UNL     1       8.503   6.609  -5.570  1.00  0.00     0.009 A 
ATOM      9  C   UNL     1       6.863   5.285  -6.768  1.00  0.00     0.009 A 
ATOM     10  C   UNL     1       9.507   5.719  -5.965  1.00  0.00     0.001 A 
ATOM     11  C   UNL     1       7.871   4.399  -7.161  1.00  0.00     0.001 A 
ATOM     12  C   UNL     1       9.192   4.616  -6.760  1.00  0.00     0.000 A 
ENDBRANCH   4   7
TORSDOF 1
ENDMDL
MODEL 6
REMARK VINA RESULT:    -3.887      2.510      4.836
REMARK INTER + INTRA:          -4.401
REMARK INTER:                  -4.109
REMARK INTRA:                  -0.292
REMARK UNBOUND:                -0.287
REMARK SMILES c1ccc(-c2ccccc2)cc1
REMARK SMILES IDX 1 1 2 2 3 3 4 4 11 5 12 6 5 7 6 8 10 9 7 10 9 11 8 12
REMARK H PARENT
REMARK Flexibility Score: inf
ROOT
ATOM      1  C   UNL     1       9.229   4.705  -6.624  1.00  0.00     0.000 A 
ATOM      2  C   UNL     1       9.524   5.841  -5.868  1.00  0.00     0.001 A 
ATOM      3  C   UNL     1       8.503   6.723  -5.500  1.00  0.00     0.009 A 
ATOM      4  C   UNL     1       7.171   6.475  -5.885  1.00  0.00    -0.018 A 
ATOM      5  C   UNL     1       6.888   5.326  -6.647  1.00  0.00     0.009 A 
ATOM      6  C   UNL     1       7.913   4.448  -7.013  1.00  0.00     0.001 A 
ENDROOT
BRANCH   4   7
ATOM      7  C   UNL     1       6.086   7.411  -5.495  1.00  0.00    -0.018 A 
ATOM      8  C   UNL     1       5.413   8.173  -6.468  1.00  0.00     0.009 A 
ATOM      9  C   UNL     1       5.713   7.549  -4.144  1.00  0.00     0.009 A 
ATOM     10  C   UNL     1       4.390   9.052  -6.097  1.00  0.00     0.001 A 
ATOM     11  C   UNL     1       4.691   8.430  -3.779  1.00  0.00     0.001 A 
ATOM     12  C   UNL     1       4.030   9.181  -4.754  1.00  0.00     0.000 A 
ENDBRANCH   4   7
TORSDOF 1
ENDMDL
MODEL 7
REMARK VINA RESULT:    -3.886      1.945      5.504
REMARK INTER + INTRA:          -4.400
REMARK INTER:                  -4.077
REMARK INTRA:                  -0.323
REMARK UNBOUND:                -0.287
REMARK SMILES c1ccc(-c2ccccc2)cc1
REMARK SMILES IDX 1 1 2 2 3 3 4 4 11 5 12 6 5 7 6 8 10 9 7 10 9 11 8 12
REMARK H PARENT
REMARK Flexibility Score: inf
ROOT
ATOM      1  C   UNL     1       3.981   9.177  -3.211  1.00  0.00     0.000 A 
ATOM      2  C   UNL     1       3.809   9.531  -4.551  1.00  0.00     0.001 A 
ATOM      3  C   UNL     1       4.502   8.843  -5.553  1.00  0.00     0.009 A 
ATOM      4  C   UNL     1       5.376   7.790  -5.221  1.00  0.00    -0.018 A 
ATOM      5  C   UNL     1       5.539   7.443  -3.867  1.00  0.00     0.009 A 
ATOM      6  C   UNL     1       4.844   8.135  -2.870  1.00  0.00     0.001 A 
ENDROOT
BRANCH   4   7
ATOM      7  C   UNL     1       6.112   7.058  -6.283  1.00  0.00    -0.018 A 
ATOM      8  C   UNL     1       7.070   6.082  -5.950  1.00  0.00     0.009 A 
ATOM      9  C   UNL     1       5.863   7.329  -7.643  1.00  0.00     0.009 A 
ATOM     10  C   UNL     1       7.760   5.394  -6.953  1.00  0.00     0.001 A 
ATOM     11  C   UNL     1       6.556   6.639  -8.641  1.00  0.00     0.001 A 
ATOM     12  C   UNL     1       7.504   5.673  -8.297  1.00  0.00     0.000 A 
ENDBRANCH   4   7
TORSDOF 1
ENDMDL
MODEL 8
REMARK VINA RESULT:    -3.877      1.945      3.906
REMARK INTER + INTRA:          -4.390
REMARK INTER:                  -4.067
REMARK INTRA:                  -0.323
REMARK UNBOUND:                -0.287
REMARK SMILES c1ccc(-c2ccccc2)cc1
REMARK SMILES IDX 1 1 2 2 3 3 4 4 11 5 12 6 5 7 6 8 10 9 7 10 9 11 8 12
REMARK H PARENT
REMARK Flexibility Score: inf
ROOT
ATOM      1  C   UNL     1       7.481   5.705  -8.482  1.00  0.00     0.000 A 
ATOM      2  C   UNL     1       7.739   5.343  -7.158  1.00  0.00     0.001 A 
ATOM      3  C   UNL     1       7.075   5.993  -6.112  1.00  0.00     0.009 A 
ATOM      4  C   UNL     1       6.142   7.012  -6.383  1.00  0.00    -0.018 A 
ATOM      5  C   UNL     1       5.891   7.366  -7.722  1.00  0.00     0.009 A 
ATOM      6  C   UNL     1       6.559   6.714  -8.764  1.00  0.00     0.001 A 
ENDROOT
BRANCH   4   7
ATOM      7  C   UNL     1       5.436   7.702  -5.273  1.00  0.00    -0.018 A 
ATOM      8  C   UNL     1       5.663   7.327  -3.936  1.00  0.00     0.009 A 
ATOM      9  C   UNL     1       4.527   8.744  -5.543  1.00  0.00     0.009 A 
ATOM     10  C   UNL     1       4.997   7.980  -2.893  1.00  0.00     0.001 A 
ATOM     11  C   UNL     1       3.863   9.392  -4.497  1.00  0.00     0.001 A 
ATOM     12  C   UNL     1       4.098   9.011  -3.174  1.00  0.00     0.000 A 
ENDBRANCH   4   7
TORSDOF 1
ENDMDL
MODEL 9
REMARK VINA RESULT:    -3.832      4.068      6.588
REMARK INTER + INTRA:          -4.343
REMARK INTER:                  -4.024
REMARK INTRA:                  -0.320
REMARK UNBOUND:                -0.287
REMARK SMILES c1ccc(-c2ccccc2)cc1
REMARK SMILES IDX 1 1 2 2 3 3 4 4 11 5 12 6 5 7 6 8 10 9 7 10 9 11 8 12
REMARK H PARENT
REMARK Flexibility Score: inf
ROOT
ATOM      1  C   UNL     1       0.038   1.689  -0.191  1.00  0.00     0.000 A 
ATOM      2  C   UNL     1      -0.651   2.878   0.056  1.00  0.00     0.001 A 
ATOM      3  C   UNL     1      -0.013   4.110  -0.124  1.00  0.00     0.009 A 
ATOM      4  C   UNL     1       1.326   4.163  -0.556  1.00  0.00    -0.018 A 
ATOM      5  C   UNL     1       2.009   2.957  -0.802  1.00  0.00     0.009 A 
ATOM      6  C   UNL     1       1.366   1.728  -0.619  1.00  0.00     0.001 A 
ENDROOT
BRANCH   4   7
ATOM      7  C   UNL     1       2.006   5.470  -0.749  1.00  0.00    -0.018 A 
ATOM      8  C   UNL     1       3.410   5.549  -0.784  1.00  0.00     0.009 A 
ATOM      9  C   UNL     1       1.253   6.651  -0.899  1.00  0.00     0.009 A 
ATOM     10  C   UNL     1       4.047   6.781  -0.967  1.00  0.00     0.001 A 
ATOM     11  C   UNL     1       1.895   7.880  -1.080  1.00  0.00     0.001 A 
ATOM     12  C   UNL     1       3.290   7.945  -1.114  1.00  0.00     0.000 A 
ENDBRANCH   4   7
TORSDOF 1
ENDMDL
