MODEL 1
REMARK VINA RESULT:    -5.916      0.000      0.000
REMARK INTER + INTRA:          -7.635
REMARK INTER:                  -7.126
REMARK INTRA:                  -0.508
REMARK UNBOUND:                -0.508
REMARK SMILES CCCCc1oc(O)c2ccccc12
REMARK SMILES IDX 4 1 5 2 7 3 6 4 9 5 14 6 10 7 13 8 11 9 12 10 8 11 3 13 2 14
REMARK SMILES IDX 1 15
REMARK H PARENT 8 12
REMARK Flexibility Score: inf
ROOT
ATOM      1  C   UNL     1      15.230  21.933  97.120  1.00  0.00     0.076 C 
ENDROOT
BRANCH   1   2
ATOM      2  C   UNL     1      15.682  23.356  96.996  1.00  0.00     0.116 A 
ATOM      3  C   UNL     1      16.697  25.085  96.238  1.00  0.00     0.290 A 
ATOM      4  O   UNL     1      16.475  23.801  96.037  1.00  0.00    -0.430 OA
ATOM      5  C   UNL     1      16.034  25.501  97.369  1.00  0.00     0.066 A 
ATOM      6  C   UNL     1      15.387  24.398  97.858  1.00  0.00     0.027 A 
ATOM      7  C   UNL     1      15.958  26.742  97.997  1.00  0.00     0.016 A 
ATOM      8  C   UNL     1      14.616  24.455  99.019  1.00  0.00     0.012 A 
ATOM      9  C   UNL     1      15.187  26.833  99.172  1.00  0.00     0.001 A 
ATOM     10  C   UNL     1      14.519  25.695  99.680  1.00  0.00     0.001 A 
BRANCH   3  11
ATOM     11  O   UNL     1      17.488  25.884  95.420  1.00  0.00    -0.480 OA
ATOM     12  H   UNL     1      18.337  26.302  95.779  1.00  0.00     0.297 HD
ENDBRANCH   3  11
ENDBRANCH   1   2
BRANCH   1  13
ATOM     13  C   UNL     1      16.191  21.140  98.011  1.00  0.00     0.008 C 
BRANCH  13  14
ATOM     14  C   UNL     1      15.572  20.876  99.387  1.00  0.00    -0.003 C 
ATOM     15  C   UNL     1      14.048  20.886  99.318  1.00  0.00     0.004 C 
ENDBRANCH  13  14
ENDBRANCH   1  13
TORSDOF 4
ENDMDL
MODEL 2
REMARK VINA RESULT:    -5.524      8.709     10.176
REMARK INTER + INTRA:          -7.163
REMARK INTER:                  -6.686
REMARK INTRA:                  -0.477
REMARK UNBOUND:                -0.508
REMARK SMILES CCCCc1oc(O)c2ccccc12
REMARK SMILES IDX 4 1 5 2 7 3 6 4 9 5 14 6 10 7 13 8 11 9 12 10 8 11 3 13 2 14
REMARK SMILES IDX 1 15
REMARK H PARENT 8 12
REMARK Flexibility Score: inf
ROOT
ATOM      1  C   UNL     1       5.626  25.788  97.457  1.00  0.00     0.076 C 
ENDROOT
BRANCH   1   2
ATOM      2  C   UNL     1       6.641  24.710  97.684  1.00  0.00     0.116 A 
ATOM      3  C   UNL     1       8.393  23.720  98.423  1.00  0.00     0.290 A 
ATOM      4  O   UNL     1       7.696  24.838  98.470  1.00  0.00    -0.430 OA
ATOM      5  C   UNL     1       7.782  22.825  97.577  1.00  0.00     0.066 A 
ATOM      6  C   UNL     1       6.664  23.455  97.100  1.00  0.00     0.027 A 
ATOM      7  C   UNL     1       8.123  21.530  97.191  1.00  0.00     0.016 A 
ATOM      8  C   UNL     1       5.802  22.834  96.195  1.00  0.00     0.012 A 
ATOM      9  C   UNL     1       7.272  20.876  96.279  1.00  0.00     0.001 A 
ATOM     10  C   UNL     1       6.118  21.525  95.784  1.00  0.00     0.001 A 
BRANCH   3  11
ATOM     11  O   UNL     1       9.569  23.497  99.130  1.00  0.00    -0.480 OA
ATOM     12  H   UNL     1       9.608  23.666 100.127  1.00  0.00     0.297 HD
ENDBRANCH   3  11
ENDBRANCH   1   2
BRANCH   1  13
ATOM     13  C   UNL     1       4.645  25.857  98.631  1.00  0.00     0.008 C 
BRANCH  13  14
ATOM     14  C   UNL     1       3.247  25.398  98.206  1.00  0.00    -0.003 C 
ATOM     15  C   UNL     1       3.105  25.396  96.687  1.00  0.00     0.004 C 
ENDBRANCH  13  14
ENDBRANCH   1  13
TORSDOF 4
ENDMDL
MODEL 3
REMARK VINA RESULT:    -5.262      9.199     10.021
REMARK INTER + INTRA:          -6.847
REMARK INTER:                  -6.601
REMARK INTRA:                  -0.246
REMARK UNBOUND:                -0.508
REMARK SMILES CCCCc1oc(O)c2ccccc12
REMARK SMILES IDX 4 1 5 2 7 3 6 4 9 5 14 6 10 7 13 8 11 9 12 10 8 11 3 13 2 14
REMARK SMILES IDX 1 15
REMARK H PARENT 8 12
REMARK Flexibility Score: inf
ROOT
ATOM      1  C   UNL     1       8.190  24.170  97.559  1.00  0.00     0.076 C 
ENDROOT
BRANCH   1   2
ATOM      2  C   UNL     1       6.871  23.957  96.882  1.00  0.00     0.116 A 
ATOM      3  C   UNL     1       5.155  22.942  96.092  1.00  0.00     0.290 A 
ATOM      4  O   UNL     1       6.282  22.780  96.759  1.00  0.00    -0.430 OA
ATOM      5  C   UNL     1       4.997  24.266  95.759  1.00  0.00     0.066 A 
ATOM      6  C   UNL     1       6.093  24.918  96.259  1.00  0.00     0.027 A 
ATOM      7  C   UNL     1       3.994  24.935  95.060  1.00  0.00     0.016 A 
ATOM      8  C   UNL     1       6.267  26.292  96.093  1.00  0.00     0.012 A 
ATOM      9  C   UNL     1       4.141  26.323  94.877  1.00  0.00     0.001 A 
ATOM     10  C   UNL     1       5.272  26.998  95.390  1.00  0.00     0.001 A 
BRANCH   3  11
ATOM     11  O   UNL     1       4.274  21.914  95.779  1.00  0.00    -0.480 OA
ATOM     12  H   UNL     1       4.493  20.957  96.027  1.00  0.00     0.297 HD
ENDBRANCH   3  11
ENDBRANCH   1   2
BRANCH   1  13
ATOM     13  C   UNL     1       8.200  23.502  98.936  1.00  0.00     0.008 C 
BRANCH  13  14
ATOM     14  C   UNL     1       9.270  22.408  99.008  1.00  0.00    -0.003 C 
ATOM     15  C   UNL     1       8.795  21.127  98.330  1.00  0.00     0.004 C 
ENDBRANCH  13  14
ENDBRANCH   1  13
TORSDOF 4
ENDMDL
MODEL 4
REMARK VINA RESULT:    -5.158      9.493     10.355
REMARK INTER + INTRA:          -6.721
REMARK INTER:                  -6.409
REMARK INTRA:                  -0.312
REMARK UNBOUND:                -0.508
REMARK SMILES CCCCc1oc(O)c2ccccc12
REMARK SMILES IDX 4 1 5 2 7 3 6 4 9 5 14 6 10 7 13 8 11 9 12 10 8 11 3 13 2 14
REMARK SMILES IDX 1 15
REMARK H PARENT 8 12
REMARK Flexibility Score: inf
ROOT
ATOM      1  C   UNL     1       8.073  24.088  97.517  1.00  0.00     0.076 C 
ENDROOT
BRANCH   1   2
ATOM      2  C   UNL     1       6.722  24.698  97.732  1.00  0.00     0.116 A 
ATOM      3  C   UNL     1       5.093  25.682  98.718  1.00  0.00     0.290 A 
ATOM      4  O   UNL     1       6.341  25.279  98.856  1.00  0.00    -0.430 OA
ATOM      5  C   UNL     1       4.633  25.353  97.465  1.00  0.00     0.066 A 
ATOM      6  C   UNL     1       5.670  24.721  96.832  1.00  0.00     0.027 A 
ATOM      7  C   UNL     1       3.400  25.552  96.846  1.00  0.00     0.016 A 
ATOM      8  C   UNL     1       5.549  24.237  95.530  1.00  0.00     0.012 A 
ATOM      9  C   UNL     1       3.247  25.075  95.530  1.00  0.00     0.001 A 
ATOM     10  C   UNL     1       4.315  24.420  94.876  1.00  0.00     0.001 A 
BRANCH   3  11
ATOM     11  O   UNL     1       4.365  26.338  99.704  1.00  0.00    -0.480 OA
ATOM     12  H   UNL     1       3.730  25.822 100.301  1.00  0.00     0.297 HD
ENDBRANCH   3  11
ENDBRANCH   1   2
BRANCH   1  13
ATOM     13  C   UNL     1       8.571  23.421  98.803  1.00  0.00     0.008 C 
BRANCH  13  14
ATOM     14  C   UNL     1       8.916  21.948  98.559  1.00  0.00    -0.003 C 
ATOM     15  C   UNL     1       8.066  21.361  97.436  1.00  0.00     0.004 C 
ENDBRANCH  13  14
ENDBRANCH   1  13
TORSDOF 4
ENDMDL
MODEL 5
REMARK VINA RESULT:    -5.101      8.367      9.074
REMARK INTER + INTRA:          -6.653
REMARK INTER:                  -6.213
REMARK INTRA:                  -0.440
REMARK UNBOUND:                -0.508
REMARK SMILES CCCCc1oc(O)c2ccccc12
REMARK SMILES IDX 4 1 5 2 7 3 6 4 9 5 14 6 10 7 13 8 11 9 12 10 8 11 3 13 2 14
REMARK SMILES IDX 1 15
REMARK H PARENT 8 12
REMARK Flexibility Score: inf
ROOT
ATOM      1  C   UNL     1       8.141  23.107  98.653  1.00  0.00     0.076 C 
ENDROOT
BRANCH   1   2
ATOM      2  C   UNL     1       7.680  24.138  97.668  1.00  0.00     0.116 A 
ATOM      3  C   UNL     1       7.753  25.583  96.086  1.00  0.00     0.290 A 
ATOM      4  O   UNL     1       8.465  24.708  96.770  1.00  0.00    -0.430 OA
ATOM      5  C   UNL     1       6.458  25.594  96.549  1.00  0.00     0.066 A 
ATOM      6  C   UNL     1       6.408  24.674  97.562  1.00  0.00     0.027 A 
ATOM      7  C   UNL     1       5.342  26.335  96.167  1.00  0.00     0.016 A 
ATOM      8  C   UNL     1       5.233  24.430  98.273  1.00  0.00     0.012 A 
ATOM      9  C   UNL     1       4.140  26.110  96.865  1.00  0.00     0.001 A 
ATOM     10  C   UNL     1       4.086  25.163  97.913  1.00  0.00     0.001 A 
BRANCH   3  11
ATOM     11  O   UNL     1       8.254  26.369  95.055  1.00  0.00    -0.480 OA
ATOM     12  H   UNL     1       8.114  27.372  95.062  1.00  0.00     0.297 HD
ENDBRANCH   3  11
ENDBRANCH   1   2
BRANCH   1  13
ATOM     13  C   UNL     1       8.518  21.809  97.934  1.00  0.00     0.008 C 
BRANCH  13  14
ATOM     14  C   UNL     1       7.377  21.329  97.031  1.00  0.00    -0.003 C 
ATOM     15  C   UNL     1       7.878  21.023  95.623  1.00  0.00     0.004 C 
ENDBRANCH  13  14
ENDBRANCH   1  13
TORSDOF 4
ENDMDL
MODEL 6
REMARK VINA RESULT:    -5.095      8.853     10.144
REMARK INTER + INTRA:          -6.646
REMARK INTER:                  -6.223
REMARK INTRA:                  -0.423
REMARK UNBOUND:                -0.508
REMARK SMILES CCCCc1oc(O)c2ccccc12
REMARK SMILES IDX 4 1 5 2 7 3 6 4 9 5 14 6 10 7 13 8 11 9 12 10 8 11 3 13 2 14
REMARK SMILES IDX 1 15
REMARK H PARENT 8 12
REMARK Flexibility Score: inf
ROOT
ATOM      1  C   UNL     1       6.080  25.861  95.603  1.00  0.00     0.076 C 
ENDROOT
BRANCH   1   2
ATOM      2  C   UNL     1       6.319  24.423  95.947  1.00  0.00     0.116 A 
ATOM      3  C   UNL     1       6.107  22.290  95.935  1.00  0.00     0.290 A 
ATOM      4  O   UNL     1       5.679  23.411  95.387  1.00  0.00    -0.430 OA
ATOM      5  C   UNL     1       7.055  22.570  96.890  1.00  0.00     0.066 A 
ATOM      6  C   UNL     1       7.191  23.933  96.903  1.00  0.00     0.027 A 
ATOM      7  C   UNL     1       7.790  21.745  97.738  1.00  0.00     0.016 A 
ATOM      8  C   UNL     1       8.075  24.573  97.772  1.00  0.00     0.012 A 
ATOM      9  C   UNL     1       8.692  22.362  98.627  1.00  0.00     0.001 A 
ATOM     10  C   UNL     1       8.833  23.768  98.644  1.00  0.00     0.001 A 
BRANCH   3  11
ATOM     11  O   UNL     1       5.653  21.023  95.588  1.00  0.00    -0.480 OA
ATOM     12  H   UNL     1       5.178  20.444  96.269  1.00  0.00     0.297 HD
ENDBRANCH   3  11
ENDBRANCH   1   2
BRANCH   1  13
ATOM     13  C   UNL     1       5.177  26.521  96.648  1.00  0.00     0.008 C 
BRANCH  13  14
ATOM     14  C   UNL     1       3.825  25.805  96.737  1.00  0.00    -0.003 C 
ATOM     15  C   UNL     1       3.489  25.436  98.179  1.00  0.00     0.004 C 
ENDBRANCH  13  14
ENDBRANCH   1  13
TORSDOF 4
ENDMDL
MODEL 7
REMARK VINA RESULT:    -5.088      9.269     10.166
REMARK INTER + INTRA:          -6.637
REMARK INTER:                  -6.412
REMARK INTRA:                  -0.225
REMARK UNBOUND:                -0.508
REMARK SMILES CCCCc1oc(O)c2ccccc12
REMARK SMILES IDX 4 1 5 2 7 3 6 4 9 5 14 6 10 7 13 8 11 9 12 10 8 11 3 13 2 14
REMARK SMILES IDX 1 15
REMARK H PARENT 8 12
REMARK Flexibility Score: inf
ROOT
ATOM      1  C   UNL     1       8.130  23.891  97.533  1.00  0.00     0.076 C 
ENDROOT
BRANCH   1   2
ATOM      2  C   UNL     1       6.675  23.780  97.194  1.00  0.00     0.116 A 
ATOM      3  C   UNL     1       4.877  23.106  96.239  1.00  0.00     0.290 A 
ATOM      4  O   UNL     1       6.181  22.922  96.318  1.00  0.00    -0.430 OA
ATOM      5  C   UNL     1       4.498  24.121  97.085  1.00  0.00     0.066 A 
ATOM      6  C   UNL     1       5.645  24.557  97.695  1.00  0.00     0.027 A 
ATOM      7  C   UNL     1       3.255  24.689  97.355  1.00  0.00     0.016 A 
ATOM      8  C   UNL     1       5.631  25.599  98.621  1.00  0.00     0.012 A 
ATOM      9  C   UNL     1       3.209  25.744  98.287  1.00  0.00     0.001 A 
ATOM     10  C   UNL     1       4.391  26.197  98.917  1.00  0.00     0.001 A 
BRANCH   3  11
ATOM     11  O   UNL     1       4.029  22.376  95.415  1.00  0.00    -0.480 OA
ATOM     12  H   UNL     1       4.030  22.529  94.414  1.00  0.00     0.297 HD
ENDBRANCH   3  11
ENDBRANCH   1   2
BRANCH   1  13
ATOM     13  C   UNL     1       8.425  23.193  98.863  1.00  0.00     0.008 C 
BRANCH  13  14
ATOM     14  C   UNL     1       9.253  21.922  98.645  1.00  0.00    -0.003 C 
ATOM     15  C   UNL     1       8.462  20.875  97.866  1.00  0.00     0.004 C 
ENDBRANCH  13  14
ENDBRANCH   1  13
TORSDOF 4
ENDMDL
MODEL 8
REMARK VINA RESULT:    -4.974      2.344      3.530
REMARK INTER + INTRA:          -6.500
REMARK INTER:                  -6.258
REMARK INTRA:                  -0.242
REMARK UNBOUND:                -0.508
REMARK SMILES CCCCc1oc(O)c2ccccc12
REMARK SMILES IDX 4 1 5 2 7 3 6 4 9 5 14 6 10 7 13 8 11 9 12 10 8 11 3 13 2 14
REMARK SMILES IDX 1 15
REMARK H PARENT 8 12
REMARK Flexibility Score: inf
ROOT
ATOM      1  C   UNL     1      13.710  22.660 100.522  1.00  0.00     0.076 C 
ENDROOT
BRANCH   1   2
ATOM      2  C   UNL     1      14.695  22.606  99.394  1.00  0.00     0.116 A 
ATOM      3  C   UNL     1      16.087  21.801  97.977  1.00  0.00     0.290 A 
ATOM      4  O   UNL     1      15.254  21.493  98.952  1.00  0.00    -0.430 OA
ATOM      5  C   UNL     1      16.082  23.161  97.771  1.00  0.00     0.066 A 
ATOM      6  C   UNL     1      15.196  23.679  98.678  1.00  0.00     0.027 A 
ATOM      7  C   UNL     1      16.782  23.967  96.877  1.00  0.00     0.016 A 
ATOM      8  C   UNL     1      14.947  25.049  98.758  1.00  0.00     0.012 A 
ATOM      9  C   UNL     1      16.551  25.355  96.933  1.00  0.00     0.001 A 
ATOM     10  C   UNL     1      15.639  25.893  97.869  1.00  0.00     0.001 A 
BRANCH   3  11
ATOM     11  O   UNL     1      16.850  20.876  97.274  1.00  0.00    -0.480 OA
ATOM     12  H   UNL     1      17.064  19.974  97.681  1.00  0.00     0.297 HD
ENDBRANCH   3  11
ENDBRANCH   1   2
BRANCH   1  13
ATOM     13  C   UNL     1      12.394  21.989 100.118  1.00  0.00     0.008 C 
BRANCH  13  14
ATOM     14  C   UNL     1      11.191  22.772 100.655  1.00  0.00    -0.003 C 
ATOM     15  C   UNL     1      10.035  22.757  99.659  1.00  0.00     0.004 C 
ENDBRANCH  13  14
ENDBRANCH   1  13
TORSDOF 4
ENDMDL
MODEL 9
REMARK VINA RESULT:    -4.845     10.078     11.118
REMARK INTER + INTRA:          -6.344
REMARK INTER:                  -6.023
REMARK INTRA:                  -0.322
REMARK UNBOUND:                -0.508
REMARK SMILES CCCCc1oc(O)c2ccccc12
REMARK SMILES IDX 4 1 5 2 7 3 6 4 9 5 14 6 10 7 13 8 11 9 12 10 8 11 3 13 2 14
REMARK SMILES IDX 1 15
REMARK H PARENT 8 12
REMARK Flexibility Score: inf
ROOT
ATOM      1  C   UNL     1       3.181  25.373  96.291  1.00  0.00     0.076 C 
ENDROOT
BRANCH   1   2
ATOM      2  C   UNL     1       4.250  24.373  95.971  1.00  0.00     0.116 A 
ATOM      3  C   UNL     1       5.217  22.479  95.699  1.00  0.00     0.290 A 
ATOM      4  O   UNL     1       4.075  23.064  96.007  1.00  0.00    -0.430 OA
ATOM      5  C   UNL     1       6.177  23.433  95.457  1.00  0.00     0.066 A 
ATOM      6  C   UNL     1       5.564  24.644  95.633  1.00  0.00     0.027 A 
ATOM      7  C   UNL     1       7.522  23.328  95.108  1.00  0.00     0.016 A 
ATOM      8  C   UNL     1       6.256  25.845  95.475  1.00  0.00     0.012 A 
ATOM      9  C   UNL     1       8.247  24.523  94.941  1.00  0.00     0.001 A 
ATOM     10  C   UNL     1       7.618  25.775  95.123  1.00  0.00     0.001 A 
BRANCH   3  11
ATOM     11  O   UNL     1       5.403  21.104  95.636  1.00  0.00    -0.480 OA
ATOM     12  H   UNL     1       5.742  20.671  94.786  1.00  0.00     0.297 HD
ENDBRANCH   3  11
ENDBRANCH   1   2
BRANCH   1  13
ATOM     13  C   UNL     1       2.939  25.434  97.802  1.00  0.00     0.008 C 
BRANCH  13  14
ATOM     14  C   UNL     1       4.228  25.142  98.577  1.00  0.00    -0.003 C 
ATOM     15  C   UNL     1       4.909  26.432  99.021  1.00  0.00     0.004 C 
ENDBRANCH  13  14
ENDBRANCH   1  13
TORSDOF 4
ENDMDL
