MODEL 1
REMARK VINA RESULT:    -5.370      0.000      0.000
REMARK INTER + INTRA:          -5.892
REMARK INTER:                  -5.841
REMARK INTRA:                  -0.051
REMARK UNBOUND:                -0.051
REMARK SMILES CCc1cccc(O)c1
REMARK SMILES IDX 3 1 9 2 7 3 6 4 5 5 4 6 2 7 1 8 8 9
REMARK H PARENT 8 10
REMARK Flexibility Score: inf
ROOT
ATOM      1  C   UNL     1       8.965   4.987  -1.309  1.00  0.00    -0.045 A 
ATOM      2  C   UNL     1       8.604   4.708  -2.638  1.00  0.00     0.049 A 
ATOM      3  C   UNL     1       9.266   3.704  -3.354  1.00  0.00     0.115 A 
ATOM      4  C   UNL     1      10.300   2.980  -2.744  1.00  0.00     0.046 A 
ATOM      5  C   UNL     1      10.672   3.264  -1.428  1.00  0.00     0.004 A 
ATOM      6  C   UNL     1      10.011   4.266  -0.712  1.00  0.00     0.004 A 
ENDROOT
BRANCH   1   7
ATOM      7  C   UNL     1       8.274   6.090  -0.552  1.00  0.00     0.032 C 
ATOM      8  C   UNL     1       8.072   7.312  -1.441  1.00  0.00     0.009 C 
ENDBRANCH   1   7
BRANCH   3   9
ATOM      9  O   UNL     1       8.892   3.435  -4.668  1.00  0.00    -0.508 OA
ATOM     10  H   UNL     1       8.935   2.497  -5.050  1.00  0.00     0.293 HD
ENDBRANCH   3   9
TORSDOF 2
ENDMDL
MODEL 2
REMARK VINA RESULT:    -5.352      2.145      2.380
REMARK INTER + INTRA:          -5.872
REMARK INTER:                  -5.826
REMARK INTRA:                  -0.046
REMARK UNBOUND:                -0.051
REMARK SMILES CCc1cccc(O)c1
REMARK SMILES IDX 3 1 9 2 7 3 6 4 5 5 4 6 2 7 1 8 8 9
REMARK H PARENT 8 10
REMARK Flexibility Score: inf
ROOT
ATOM      1  C   UNL     1       9.704   5.118  -1.253  1.00  0.00    -0.045 A 
ATOM      2  C   UNL     1      10.941   5.723  -1.533  1.00  0.00     0.049 A 
ATOM      3  C   UNL     1      11.900   5.051  -2.298  1.00  0.00     0.115 A 
ATOM      4  C   UNL     1      11.629   3.763  -2.780  1.00  0.00     0.046 A 
ATOM      5  C   UNL     1      10.407   3.151  -2.493  1.00  0.00     0.004 A 
ATOM      6  C   UNL     1       9.448   3.821  -1.728  1.00  0.00     0.004 A 
ENDROOT
BRANCH   1   7
ATOM      7  C   UNL     1       8.687   5.829  -0.401  1.00  0.00     0.032 C 
ATOM      8  C   UNL     1       8.167   7.077  -1.108  1.00  0.00     0.009 C 
ENDBRANCH   1   7
BRANCH   3   9
ATOM      9  O   UNL     1      13.118   5.669  -2.572  1.00  0.00    -0.508 OA
ATOM     10  H   UNL     1      13.283   6.642  -2.340  1.00  0.00     0.293 HD
ENDBRANCH   3   9
TORSDOF 2
ENDMDL
MODEL 3
REMARK VINA RESULT:    -5.289      2.589      3.534
REMARK INTER + INTRA:          -5.804
REMARK INTER:                  -5.753
REMARK INTRA:                  -0.051
REMARK UNBOUND:                -0.051
REMARK SMILES CCc1cccc(O)c1
REMARK SMILES IDX 3 1 9 2 7 3 6 4 5 5 4 6 2 7 1 8 8 9
REMARK H PARENT 8 10
REMARK Flexibility Score: inf
ROOT
ATOM      1  C   UNL     1      11.051   5.075  -1.947  1.00  0.00    -0.045 A 
ATOM      2  C   UNL     1      10.194   6.093  -1.495  1.00  0.00     0.049 A 
ATOM      3  C   UNL     1       9.125   5.791  -0.644  1.00  0.00     0.115 A 
ATOM      4  C   UNL     1       8.903   4.465  -0.248  1.00  0.00     0.046 A 
ATOM      5  C   UNL     1       9.744   3.447  -0.705  1.00  0.00     0.004 A 
ATOM      6  C   UNL     1      10.812   3.747  -1.556  1.00  0.00     0.004 A 
ENDROOT
BRANCH   1   7
ATOM      7  C   UNL     1      12.180   5.397  -2.888  1.00  0.00     0.032 C 
ATOM      8  C   UNL     1      11.655   5.643  -4.299  1.00  0.00     0.009 C 
ENDBRANCH   1   7
BRANCH   3   9
ATOM      9  O   UNL     1       8.289   6.813  -0.200  1.00  0.00    -0.508 OA
ATOM     10  H   UNL     1       8.387   7.763  -0.540  1.00  0.00     0.293 HD
ENDBRANCH   3   9
TORSDOF 2
ENDMDL
MODEL 4
REMARK VINA RESULT:    -5.180      2.494      3.102
REMARK INTER + INTRA:          -5.685
REMARK INTER:                  -5.635
REMARK INTRA:                  -0.050
REMARK UNBOUND:                -0.051
REMARK SMILES CCc1cccc(O)c1
REMARK SMILES IDX 3 1 9 2 7 3 6 4 5 5 4 6 2 7 1 8 8 9
REMARK H PARENT 8 10
REMARK Flexibility Score: inf
ROOT
ATOM      1  C   UNL     1       9.385   5.177  -2.380  1.00  0.00    -0.045 A 
ATOM      2  C   UNL     1      10.725   5.337  -1.990  1.00  0.00     0.049 A 
ATOM      3  C   UNL     1      11.727   5.501  -2.953  1.00  0.00     0.115 A 
ATOM      4  C   UNL     1      11.393   5.496  -4.314  1.00  0.00     0.046 A 
ATOM      5  C   UNL     1      10.063   5.324  -4.708  1.00  0.00     0.004 A 
ATOM      6  C   UNL     1       9.062   5.160  -3.747  1.00  0.00     0.004 A 
ENDROOT
BRANCH   1   7
ATOM      7  C   UNL     1       8.313   4.968  -1.345  1.00  0.00     0.032 C 
ATOM      8  C   UNL     1       8.732   5.563  -0.004  1.00  0.00     0.009 C 
ENDBRANCH   1   7
BRANCH   3   9
ATOM      9  O   UNL     1      13.050   5.665  -2.548  1.00  0.00    -0.508 OA
ATOM     10  H   UNL     1      13.372   6.529  -2.129  1.00  0.00     0.293 HD
ENDBRANCH   3   9
TORSDOF 2
ENDMDL
MODEL 5
REMARK VINA RESULT:    -5.083      2.168      3.096
REMARK INTER + INTRA:          -5.579
REMARK INTER:                  -5.533
REMARK INTRA:                  -0.046
REMARK UNBOUND:                -0.051
REMARK SMILES CCc1cccc(O)c1
REMARK SMILES IDX 3 1 9 2 7 3 6 4 5 5 4 6 2 7 1 8 8 9
REMARK H PARENT 8 10
REMARK Flexibility Score: inf
ROOT
ATOM      1  C   UNL     1       9.235   4.448  -3.231  1.00  0.00    -0.045 A 
ATOM      2  C   UNL     1       8.721   5.150  -2.128  1.00  0.00     0.049 A 
ATOM      3  C   UNL     1       9.059   4.765  -0.825  1.00  0.00     0.115 A 
ATOM      4  C   UNL     1       9.907   3.668  -0.621  1.00  0.00     0.046 A 
ATOM      5  C   UNL     1      10.410   2.958  -1.714  1.00  0.00     0.004 A 
ATOM      6  C   UNL     1      10.073   3.341  -3.016  1.00  0.00     0.004 A 
ENDROOT
BRANCH   1   7
ATOM      7  C   UNL     1       8.844   4.842  -4.630  1.00  0.00     0.032 C 
ATOM      8  C   UNL     1       9.417   6.210  -4.986  1.00  0.00     0.009 C 
ENDBRANCH   1   7
BRANCH   3   9
ATOM      9  O   UNL     1       8.547   5.476   0.257  1.00  0.00    -0.508 OA
ATOM     10  H   UNL     1       9.123   5.713   1.057  1.00  0.00     0.293 HD
ENDBRANCH   3   9
TORSDOF 2
ENDMDL
MODEL 6
REMARK VINA RESULT:    -5.038      2.369      3.450
REMARK INTER + INTRA:          -5.531
REMARK INTER:                  -5.467
REMARK INTRA:                  -0.064
REMARK UNBOUND:                -0.051
REMARK SMILES CCc1cccc(O)c1
REMARK SMILES IDX 3 1 9 2 7 3 6 4 5 5 4 6 2 7 1 8 8 9
REMARK H PARENT 8 10
REMARK Flexibility Score: inf
ROOT
ATOM      1  C   UNL     1       9.147   5.147  -1.987  1.00  0.00    -0.045 A 
ATOM      2  C   UNL     1       9.597   6.476  -2.058  1.00  0.00     0.049 A 
ATOM      3  C   UNL     1       9.736   7.110  -3.298  1.00  0.00     0.115 A 
ATOM      4  C   UNL     1       9.433   6.412  -4.475  1.00  0.00     0.046 A 
ATOM      5  C   UNL     1       8.998   5.086  -4.410  1.00  0.00     0.004 A 
ATOM      6  C   UNL     1       8.859   4.452  -3.172  1.00  0.00     0.004 A 
ENDROOT
BRANCH   1   7
ATOM      7  C   UNL     1       9.030   4.456  -0.654  1.00  0.00     0.032 C 
ATOM      8  C   UNL     1       9.973   3.260  -0.581  1.00  0.00     0.009 C 
ENDBRANCH   1   7
BRANCH   3   9
ATOM      9  O   UNL     1      10.177   8.430  -3.350  1.00  0.00    -0.508 OA
ATOM     10  H   UNL     1      10.800   8.752  -4.081  1.00  0.00     0.293 HD
ENDBRANCH   3   9
TORSDOF 2
ENDMDL
MODEL 7
REMARK VINA RESULT:    -5.027      2.304      4.098
REMARK INTER + INTRA:          -5.518
REMARK INTER:                  -5.455
REMARK INTRA:                  -0.063
REMARK UNBOUND:                -0.051
REMARK SMILES CCc1cccc(O)c1
REMARK SMILES IDX 3 1 9 2 7 3 6 4 5 5 4 6 2 7 1 8 8 9
REMARK H PARENT 8 10
REMARK Flexibility Score: inf
ROOT
ATOM      1  C   UNL     1       9.449   4.398  -1.960  1.00  0.00    -0.045 A 
ATOM      2  C   UNL     1       9.145   4.635  -0.609  1.00  0.00     0.049 A 
ATOM      3  C   UNL     1       8.571   5.850  -0.217  1.00  0.00     0.115 A 
ATOM      4  C   UNL     1       8.306   6.837  -1.176  1.00  0.00     0.046 A 
ATOM      5  C   UNL     1       8.620   6.612  -2.518  1.00  0.00     0.004 A 
ATOM      6  C   UNL     1       9.194   5.399  -2.911  1.00  0.00     0.004 A 
ENDROOT
BRANCH   1   7
ATOM      7  C   UNL     1      10.098   3.104  -2.375  1.00  0.00     0.032 C 
ATOM      8  C   UNL     1      11.492   3.355  -2.940  1.00  0.00     0.009 C 
ENDBRANCH   1   7
BRANCH   3   9
ATOM      9  O   UNL     1       8.269   6.066   1.126  1.00  0.00    -0.508 OA
ATOM     10  H   UNL     1       7.722   6.866   1.424  1.00  0.00     0.293 HD
ENDBRANCH   3   9
TORSDOF 2
ENDMDL
MODEL 8
REMARK VINA RESULT:    -4.889      1.309      1.597
REMARK INTER + INTRA:          -5.368
REMARK INTER:                  -5.318
REMARK INTRA:                  -0.050
REMARK UNBOUND:                -0.051
REMARK SMILES CCc1cccc(O)c1
REMARK SMILES IDX 3 1 9 2 7 3 6 4 5 5 4 6 2 7 1 8 8 9
REMARK H PARENT 8 10
REMARK Flexibility Score: inf
ROOT
ATOM      1  C   UNL     1       9.326   4.249  -1.550  1.00  0.00    -0.045 A 
ATOM      2  C   UNL     1       8.929   5.023  -2.653  1.00  0.00     0.049 A 
ATOM      3  C   UNL     1       9.606   4.915  -3.873  1.00  0.00     0.115 A 
ATOM      4  C   UNL     1      10.691   4.036  -3.992  1.00  0.00     0.046 A 
ATOM      5  C   UNL     1      11.099   3.273  -2.895  1.00  0.00     0.004 A 
ATOM      6  C   UNL     1      10.423   3.381  -1.675  1.00  0.00     0.004 A 
ENDROOT
BRANCH   1   7
ATOM      7  C   UNL     1       8.618   4.391  -0.230  1.00  0.00     0.032 C 
ATOM      8  C   UNL     1       8.460   5.861   0.144  1.00  0.00     0.009 C 
ENDBRANCH   1   7
BRANCH   3   9
ATOM      9  O   UNL     1       9.195   5.685  -4.959  1.00  0.00    -0.508 OA
ATOM     10  H   UNL     1       8.967   5.263  -5.852  1.00  0.00     0.293 HD
ENDBRANCH   3   9
TORSDOF 2
ENDMDL
