MODEL 1
REMARK VINA RESULT:    -1.846      0.000      0.000
REMARK INTER + INTRA:          -3.576
REMARK INTER:                  -2.709
REMARK INTRA:                  -0.866
REMARK UNBOUND:                -0.866
REMARK SMILES O=C([O-])CCCCCCCC(=O)[O-]
REMARK SMILES IDX 7 1 6 2 5 3 4 4 2 5 1 6 3 7 8 8 9 9 10 10 11 11 12 12 13 13
REMARK H PARENT
REMARK Flexibility Score: inf
ROOT
ATOM      1  C   UNL     1     -30.280 -34.087  13.686  1.00  0.00     0.000 C 
ENDROOT
BRANCH   1   2
ATOM      2  C   UNL     1     -30.329 -35.126  14.818  1.00  0.00     0.000 C 
BRANCH   2   3
ATOM      3  C   UNL     1     -31.091 -34.622  16.053  1.00  0.00     0.006 C 
BRANCH   3   4
ATOM      4  C   UNL     1     -31.778 -35.780  16.782  1.00  0.00     0.053 C 
BRANCH   4   5
ATOM      5  C   UNL     1     -32.855 -35.266  17.685  1.00  0.00     0.041 C 
ATOM      6  O   UNL     1     -33.729 -34.475  17.242  1.00  0.00    -0.550 OA
ATOM      7  O   UNL     1     -32.921 -35.697  19.004  1.00  0.00    -0.550 OA
ENDBRANCH   4   5
ENDBRANCH   3   4
ENDBRANCH   2   3
ENDBRANCH   1   2
BRANCH   1   8
ATOM      8  C   UNL     1     -30.880 -34.613  12.373  1.00  0.00     0.000 C 
BRANCH   8   9
ATOM      9  C   UNL     1     -31.774 -35.833  12.629  1.00  0.00     0.006 C 
BRANCH   9  10
ATOM     10  C   UNL     1     -33.246 -35.501  12.365  1.00  0.00     0.053 C 
BRANCH  10  11
ATOM     11  C   UNL     1     -33.937 -35.137  13.640  1.00  0.00     0.041 C 
ATOM     12  O   UNL     1     -34.018 -33.932  13.996  1.00  0.00    -0.550 OA
ATOM     13  O   UNL     1     -34.535 -36.125  14.413  1.00  0.00    -0.550 OA
ENDBRANCH  10  11
ENDBRANCH   9  10
ENDBRANCH   8   9
ENDBRANCH   1   8
TORSDOF 8
ENDMDL
MODEL 2
REMARK VINA RESULT:    -1.798     23.100     24.856
REMARK INTER + INTRA:          -3.505
REMARK INTER:                  -2.675
REMARK INTRA:                  -0.830
REMARK UNBOUND:                -0.866
REMARK SMILES O=C([O-])CCCCCCCC(=O)[O-]
REMARK SMILES IDX 7 1 6 2 5 3 4 4 2 5 1 6 3 7 8 8 9 9 10 10 11 11 12 12 13 13
REMARK H PARENT
REMARK Flexibility Score: inf
ROOT
ATOM      1  C   UNL     1     -16.577 -25.288  30.264  1.00  0.00     0.000 C 
ENDROOT
BRANCH   1   2
ATOM      2  C   UNL     1     -15.518 -25.198  31.373  1.00  0.00     0.000 C 
BRANCH   2   3
ATOM      3  C   UNL     1     -15.102 -23.751  31.680  1.00  0.00     0.006 C 
BRANCH   3   4
ATOM      4  C   UNL     1     -16.307 -22.918  32.125  1.00  0.00     0.053 C 
BRANCH   4   5
ATOM      5  C   UNL     1     -16.456 -21.707  31.259  1.00  0.00     0.041 C 
ATOM      6  O   UNL     1     -17.333 -20.844  31.523  1.00  0.00    -0.550 OA
ATOM      7  O   UNL     1     -15.595 -21.508  30.187  1.00  0.00    -0.550 OA
ENDBRANCH   4   5
ENDBRANCH   3   4
ENDBRANCH   2   3
ENDBRANCH   1   2
BRANCH   1   8
ATOM      8  C   UNL     1     -17.696 -26.288  30.593  1.00  0.00     0.000 C 
BRANCH   8   9
ATOM      9  C   UNL     1     -19.074 -25.694  30.276  1.00  0.00     0.006 C 
BRANCH   9  10
ATOM     10  C   UNL     1     -19.561 -24.796  31.417  1.00  0.00     0.053 C 
BRANCH  10  11
ATOM     11  C   UNL     1     -19.767 -23.397  30.930  1.00  0.00     0.041 C 
ATOM     12  O   UNL     1     -20.294 -22.536  31.680  1.00  0.00    -0.550 OA
ATOM     13  O   UNL     1     -19.330 -23.031  29.662  1.00  0.00    -0.550 OA
ENDBRANCH  10  11
ENDBRANCH   9  10
ENDBRANCH   8   9
ENDBRANCH   1   8
TORSDOF 8
ENDMDL
MODEL 3
REMARK VINA RESULT:    -1.696      2.743      4.072
REMARK INTER + INTRA:          -3.355
REMARK INTER:                  -2.804
REMARK INTRA:                  -0.551
REMARK UNBOUND:                -0.866
REMARK SMILES O=C([O-])CCCCCCCC(=O)[O-]
REMARK SMILES IDX 7 1 6 2 5 3 4 4 2 5 1 6 3 7 8 8 9 9 10 10 11 11 12 12 13 13
REMARK H PARENT
REMARK Flexibility Score: inf
ROOT
ATOM      1  C   UNL     1     -31.374 -34.504  11.884  1.00  0.00     0.000 C 
ENDROOT
BRANCH   1   2
ATOM      2  C   UNL     1     -29.977 -33.863  11.885  1.00  0.00     0.000 C 
BRANCH   2   3
ATOM      3  C   UNL     1     -30.012 -32.365  12.225  1.00  0.00     0.006 C 
BRANCH   3   4
ATOM      4  C   UNL     1     -31.382 -31.763  11.902  1.00  0.00     0.053 C 
BRANCH   4   5
ATOM      5  C   UNL     1     -31.913 -31.006  13.078  1.00  0.00     0.041 C 
ATOM      6  O   UNL     1     -32.724 -30.058  12.907  1.00  0.00    -0.550 OA
ATOM      7  O   UNL     1     -31.549 -31.377  14.366  1.00  0.00    -0.550 OA
ENDBRANCH   4   5
ENDBRANCH   3   4
ENDBRANCH   2   3
ENDBRANCH   1   2
BRANCH   1   8
ATOM      8  C   UNL     1     -31.414 -35.836  12.649  1.00  0.00     0.000 C 
BRANCH   8   9
ATOM      9  C   UNL     1     -32.825 -36.121  13.180  1.00  0.00     0.006 C 
BRANCH   9  10
ATOM     10  C   UNL     1     -33.859 -35.210  12.510  1.00  0.00     0.053 C 
BRANCH  10  11
ATOM     11  C   UNL     1     -34.599 -34.415  13.538  1.00  0.00     0.041 C 
ATOM     12  O   UNL     1     -35.087 -34.984  14.549  1.00  0.00    -0.550 OA
ATOM     13  O   UNL     1     -34.709 -33.036  13.403  1.00  0.00    -0.550 OA
ENDBRANCH  10  11
ENDBRANCH   9  10
ENDBRANCH   8   9
ENDBRANCH   1   8
TORSDOF 8
ENDMDL
MODEL 4
REMARK VINA RESULT:    -1.687      2.088      2.989
REMARK INTER + INTRA:          -3.343
REMARK INTER:                  -2.845
REMARK INTRA:                  -0.498
REMARK UNBOUND:                -0.866
REMARK SMILES O=C([O-])CCCCCCCC(=O)[O-]
REMARK SMILES IDX 7 1 6 2 5 3 4 4 2 5 1 6 3 7 8 8 9 9 10 10 11 11 12 12 13 13
REMARK H PARENT
REMARK Flexibility Score: inf
ROOT
ATOM      1  C   UNL     1     -33.908 -34.036  14.771  1.00  0.00     0.000 C 
ENDROOT
BRANCH   1   2
ATOM      2  C   UNL     1     -35.098 -34.967  15.052  1.00  0.00     0.000 C 
BRANCH   2   3
ATOM      3  C   UNL     1     -34.763 -36.066  16.072  1.00  0.00     0.006 C 
BRANCH   3   4
ATOM      4  C   UNL     1     -33.454 -35.754  16.803  1.00  0.00     0.053 C 
BRANCH   4   5
ATOM      5  C   UNL     1     -33.725 -35.376  18.225  1.00  0.00     0.041 C 
ATOM      6  O   UNL     1     -34.801 -34.798  18.533  1.00  0.00    -0.550 OA
ATOM      7  O   UNL     1     -32.811 -35.704  19.218  1.00  0.00    -0.550 OA
ENDBRANCH   4   5
ENDBRANCH   3   4
ENDBRANCH   2   3
ENDBRANCH   1   2
BRANCH   1   8
ATOM      8  C   UNL     1     -33.613 -33.890  13.271  1.00  0.00     0.000 C 
BRANCH   8   9
ATOM      9  C   UNL     1     -33.572 -35.260  12.583  1.00  0.00     0.006 C 
BRANCH   9  10
ATOM     10  C   UNL     1     -32.326 -36.047  12.999  1.00  0.00     0.053 C 
BRANCH  10  11
ATOM     11  C   UNL     1     -31.114 -35.173  12.947  1.00  0.00     0.041 C 
ATOM     12  O   UNL     1     -30.792 -34.597  11.875  1.00  0.00    -0.550 OA
ATOM     13  O   UNL     1     -30.366 -34.953  14.098  1.00  0.00    -0.550 OA
ENDBRANCH  10  11
ENDBRANCH   9  10
ENDBRANCH   8   9
ENDBRANCH   1   8
TORSDOF 8
ENDMDL
MODEL 5
REMARK VINA RESULT:    -1.685     22.993     24.858
REMARK INTER + INTRA:          -3.340
REMARK INTER:                  -2.852
REMARK INTRA:                  -0.488
REMARK UNBOUND:                -0.866
REMARK SMILES O=C([O-])CCCCCCCC(=O)[O-]
REMARK SMILES IDX 7 1 6 2 5 3 4 4 2 5 1 6 3 7 8 8 9 9 10 10 11 11 12 12 13 13
REMARK H PARENT
REMARK Flexibility Score: inf
ROOT
ATOM      1  C   UNL     1     -16.003 -25.462  30.992  1.00  0.00     0.000 C 
ENDROOT
BRANCH   1   2
ATOM      2  C   UNL     1     -16.002 -26.996  31.085  1.00  0.00     0.000 C 
BRANCH   2   3
ATOM      3  C   UNL     1     -17.414 -27.596  30.999  1.00  0.00     0.006 C 
BRANCH   3   4
ATOM      4  C   UNL     1     -18.413 -26.569  30.457  1.00  0.00     0.053 C 
BRANCH   4   5
ATOM      5  C   UNL     1     -19.535 -26.368  31.426  1.00  0.00     0.041 C 
ATOM      6  O   UNL     1     -20.042 -25.226  31.578  1.00  0.00    -0.550 OA
ATOM      7  O   UNL     1     -20.053 -27.451  32.125  1.00  0.00    -0.550 OA
ENDBRANCH   4   5
ENDBRANCH   3   4
ENDBRANCH   2   3
ENDBRANCH   1   2
BRANCH   1   8
ATOM      8  C   UNL     1     -14.878 -24.818  31.818  1.00  0.00     0.000 C 
BRANCH   8   9
ATOM      9  C   UNL     1     -15.194 -23.349  32.125  1.00  0.00     0.006 C 
BRANCH   9  10
ATOM     10  C   UNL     1     -16.663 -23.030  31.832  1.00  0.00     0.053 C 
BRANCH  10  11
ATOM     11  C   UNL     1     -16.783 -21.721  31.120  1.00  0.00     0.041 C 
ATOM     12  O   UNL     1     -16.137 -21.514  30.060  1.00  0.00    -0.550 OA
ATOM     13  O   UNL     1     -17.646 -20.744  31.602  1.00  0.00    -0.550 OA
ENDBRANCH  10  11
ENDBRANCH   9  10
ENDBRANCH   8   9
ENDBRANCH   1   8
TORSDOF 8
ENDMDL
MODEL 6
REMARK VINA RESULT:    -1.679      2.140      2.949
REMARK INTER + INTRA:          -3.330
REMARK INTER:                  -2.476
REMARK INTRA:                  -0.854
REMARK UNBOUND:                -0.866
REMARK SMILES O=C([O-])CCCCCCCC(=O)[O-]
REMARK SMILES IDX 7 1 6 2 5 3 4 4 2 5 1 6 3 7 8 8 9 9 10 10 11 11 12 12 13 13
REMARK H PARENT
REMARK Flexibility Score: inf
ROOT
ATOM      1  C   UNL     1     -33.081 -34.007  11.967  1.00  0.00     0.000 C 
ENDROOT
BRANCH   1   2
ATOM      2  C   UNL     1     -32.296 -32.689  11.877  1.00  0.00     0.000 C 
BRANCH   2   3
ATOM      3  C   UNL     1     -31.432 -32.427  13.120  1.00  0.00     0.006 C 
BRANCH   3   4
ATOM      4  C   UNL     1     -32.306 -32.203  14.358  1.00  0.00     0.053 C 
BRANCH   4   5
ATOM      5  C   UNL     1     -31.739 -32.928  15.538  1.00  0.00     0.041 C 
ATOM      6  O   UNL     1     -30.574 -33.402  15.490  1.00  0.00    -0.550 OA
ATOM      7  O   UNL     1     -32.480 -33.038  16.708  1.00  0.00    -0.550 OA
ENDBRANCH   4   5
ENDBRANCH   3   4
ENDBRANCH   2   3
ENDBRANCH   1   2
BRANCH   1   8
ATOM      8  C   UNL     1     -32.171 -35.223  12.202  1.00  0.00     0.000 C 
BRANCH   8   9
ATOM      9  C   UNL     1     -32.546 -35.946  13.501  1.00  0.00     0.006 C 
BRANCH   9  10
ATOM     10  C   UNL     1     -34.066 -36.044  13.657  1.00  0.00     0.053 C 
BRANCH  10  11
ATOM     11  C   UNL     1     -34.501 -35.427  14.948  1.00  0.00     0.041 C 
ATOM     12  O   UNL     1     -35.050 -34.295  14.957  1.00  0.00    -0.550 OA
ATOM     13  O   UNL     1     -34.342 -36.125  16.140  1.00  0.00    -0.550 OA
ENDBRANCH  10  11
ENDBRANCH   9  10
ENDBRANCH   8   9
ENDBRANCH   1   8
TORSDOF 8
ENDMDL
MODEL 7
REMARK VINA RESULT:    -1.676      2.536      3.499
REMARK INTER + INTRA:          -3.327
REMARK INTER:                  -2.535
REMARK INTRA:                  -0.792
REMARK UNBOUND:                -0.866
REMARK SMILES O=C([O-])CCCCCCCC(=O)[O-]
REMARK SMILES IDX 7 1 6 2 5 3 4 4 2 5 1 6 3 7 8 8 9 9 10 10 11 11 12 12 13 13
REMARK H PARENT
REMARK Flexibility Score: inf
ROOT
ATOM      1  C   UNL     1     -34.489 -35.502  14.475  1.00  0.00     0.000 C 
ENDROOT
BRANCH   1   2
ATOM      2  C   UNL     1     -33.557 -35.012  15.595  1.00  0.00     0.000 C 
BRANCH   2   3
ATOM      3  C   UNL     1     -32.461 -36.031  15.941  1.00  0.00     0.006 C 
BRANCH   3   4
ATOM      4  C   UNL     1     -31.408 -35.411  16.863  1.00  0.00     0.053 C 
BRANCH   4   5
ATOM      5  C   UNL     1     -30.287 -34.828  16.062  1.00  0.00     0.041 C 
ATOM      6  O   UNL     1     -30.160 -33.579  15.966  1.00  0.00    -0.550 OA
ATOM      7  O   UNL     1     -29.354 -35.663  15.460  1.00  0.00    -0.550 OA
ENDBRANCH   4   5
ENDBRANCH   3   4
ENDBRANCH   2   3
ENDBRANCH   1   2
BRANCH   1   8
ATOM      8  C   UNL     1     -34.515 -34.552  13.268  1.00  0.00     0.000 C 
BRANCH   8   9
ATOM      9  C   UNL     1     -33.570 -35.042  12.164  1.00  0.00     0.006 C 
BRANCH   9  10
ATOM     10  C   UNL     1     -32.338 -34.139  12.052  1.00  0.00     0.053 C 
BRANCH  10  11
ATOM     11  C   UNL     1     -31.106 -34.882  12.458  1.00  0.00     0.041 C 
ATOM     12  O   UNL     1     -31.149 -36.125  12.650  1.00  0.00    -0.550 OA
ATOM     13  O   UNL     1     -29.896 -34.208  12.578  1.00  0.00    -0.550 OA
ENDBRANCH  10  11
ENDBRANCH   9  10
ENDBRANCH   8   9
ENDBRANCH   1   8
TORSDOF 8
ENDMDL
MODEL 8
REMARK VINA RESULT:    -1.633     24.141     25.404
REMARK INTER + INTRA:          -3.263
REMARK INTER:                  -2.940
REMARK INTRA:                  -0.323
REMARK UNBOUND:                -0.866
REMARK SMILES O=C([O-])CCCCCCCC(=O)[O-]
REMARK SMILES IDX 7 1 6 2 5 3 4 4 2 5 1 6 3 7 8 8 9 9 10 10 11 11 12 12 13 13
REMARK H PARENT
REMARK Flexibility Score: inf
ROOT
ATOM      1  C   UNL     1     -16.442 -22.895  32.124  1.00  0.00     0.000 C 
ENDROOT
BRANCH   1   2
ATOM      2  C   UNL     1     -15.102 -23.547  31.751  1.00  0.00     0.000 C 
BRANCH   2   3
ATOM      3  C   UNL     1     -15.143 -25.081  31.841  1.00  0.00     0.006 C 
BRANCH   3   4
ATOM      4  C   UNL     1     -15.790 -25.686  30.592  1.00  0.00     0.053 C 
BRANCH   4   5
ATOM      5  C   UNL     1     -15.605 -27.170  30.573  1.00  0.00     0.041 C 
ATOM      6  O   UNL     1     -15.629 -27.797  29.482  1.00  0.00    -0.550 OA
ATOM      7  O   UNL     1     -15.359 -27.856  31.756  1.00  0.00    -0.550 OA
ENDBRANCH   4   5
ENDBRANCH   3   4
ENDBRANCH   2   3
ENDBRANCH   1   2
BRANCH   1   8
ATOM      8  C   UNL     1     -16.390 -21.361  32.066  1.00  0.00     0.000 C 
BRANCH   8   9
ATOM      9  C   UNL     1     -17.768 -20.778  31.727  1.00  0.00     0.006 C 
BRANCH   9  10
ATOM     10  C   UNL     1     -18.684 -21.847  31.123  1.00  0.00     0.053 C 
BRANCH  10  11
ATOM     11  C   UNL     1     -20.085 -21.673  31.615  1.00  0.00     0.041 C 
ATOM     12  O   UNL     1     -20.609 -20.530  31.646  1.00  0.00    -0.550 OA
ATOM     13  O   UNL     1     -20.831 -22.783  31.995  1.00  0.00    -0.550 OA
ENDBRANCH  10  11
ENDBRANCH   9  10
ENDBRANCH   8   9
ENDBRANCH   1   8
TORSDOF 8
ENDMDL
MODEL 9
REMARK VINA RESULT:     0.812     23.291     24.941
REMARK INTER + INTRA:           0.325
REMARK INTER:                   1.208
REMARK INTRA:                  -0.883
REMARK UNBOUND:                -0.866
REMARK SMILES O=C([O-])CCCCCCCC(=O)[O-]
REMARK SMILES IDX 7 1 6 2 5 3 4 4 2 5 1 6 3 7 8 8 9 9 10 10 11 11 12 12 13 13
REMARK H PARENT
REMARK Flexibility Score: inf
ROOT
ATOM      1  C   UNL     1     -16.578 -25.423  30.665  1.00  0.00     0.000 C 
ENDROOT
BRANCH   1   2
ATOM      2  C   UNL     1     -15.220 -25.242  31.362  1.00  0.00     0.000 C 
BRANCH   2   3
ATOM      3  C   UNL     1     -14.976 -23.796  31.821  1.00  0.00     0.006 C 
BRANCH   3   4
ATOM      4  C   UNL     1     -16.299 -23.088  32.125  1.00  0.00     0.053 C 
BRANCH   4   5
ATOM      5  C   UNL     1     -16.309 -21.717  31.527  1.00  0.00     0.041 C 
ATOM      6  O   UNL     1     -16.887 -20.770  32.124  1.00  0.00    -0.550 OA
ATOM      7  O   UNL     1     -15.640 -21.473  30.334  1.00  0.00    -0.550 OA
ENDBRANCH   4   5
ENDBRANCH   3   4
ENDBRANCH   2   3
ENDBRANCH   1   2
BRANCH   1   8
ATOM      8  C   UNL     1     -16.459 -25.437  29.133  1.00  0.00     0.000 C 
BRANCH   8   9
ATOM      9  C   UNL     1     -16.998 -24.135  28.529  1.00  0.00     0.006 C 
BRANCH   9  10
ATOM     10  C   UNL     1     -18.420 -23.848  29.020  1.00  0.00     0.053 C 
BRANCH  10  11
ATOM     11  C   UNL     1     -18.724 -22.387  28.918  1.00  0.00     0.041 C 
ATOM     12  O   UNL     1     -18.348 -21.730  27.912  1.00  0.00    -0.550 OA
ATOM     13  O   UNL     1     -19.466 -21.760  29.912  1.00  0.00    -0.550 OA
ENDBRANCH  10  11
ENDBRANCH   9  10
ENDBRANCH   8   9
ENDBRANCH   1   8
TORSDOF 8
ENDMDL
