MODEL 1
REMARK VINA RESULT:    -4.442      0.000      0.000
REMARK INTER + INTRA:          -5.630
REMARK INTER:                  -5.351
REMARK INTRA:                  -0.280
REMARK UNBOUND:                -0.280
REMARK SMILES NC(=O)C[C@H]([NH3+])C(=O)[O-]
REMARK SMILES IDX 4 1 5 2 6 3 7 7 8 8 9 9 2 10 3 11 1 12
REMARK H PARENT 6 4 6 5 6 6 1 13 1 14
REMARK Flexibility Score: inf
ROOT
ATOM      1  C   UNL     1     -43.026 118.185   8.034  1.00  0.00     0.171 C 
ENDROOT
BRANCH   1   2
ATOM      2  C   UNL     1     -42.339 117.976   6.670  1.00  0.00     0.237 C 
BRANCH   2   3
ATOM      3  N   UNL     1     -42.291 119.224   5.897  1.00  0.00    -0.350 N 
ATOM      4  H   UNL     1     -41.460 119.790   6.182  1.00  0.00     0.345 HD
ATOM      5  H   UNL     1     -43.160 119.788   6.048  1.00  0.00     0.345 HD
ATOM      6  H   UNL     1     -42.198 119.006   4.878  1.00  0.00     0.345 HD
ENDBRANCH   2   3
BRANCH   2   7
ATOM      7  C   UNL     1     -43.072 116.915   5.892  1.00  0.00     0.100 C 
ATOM      8  O   UNL     1     -43.298 117.074   4.664  1.00  0.00    -0.544 OA
ATOM      9  O   UNL     1     -43.487 115.747   6.519  1.00  0.00    -0.544 OA
ENDBRANCH   2   7
ENDBRANCH   1   2
BRANCH   1  10
ATOM     10  C   UNL     1     -42.506 119.405   8.736  1.00  0.00     0.223 C 
ATOM     11  O   UNL     1     -41.276 119.678   8.692  1.00  0.00    -0.275 OA
ATOM     12  N   UNL     1     -43.390 120.242   9.481  1.00  0.00    -0.369 N 
ATOM     13  H   UNL     1     -44.410 120.023   9.536  1.00  0.00     0.159 HD
ATOM     14  H   UNL     1     -43.025 121.084   9.979  1.00  0.00     0.159 HD
ENDBRANCH   1  10
TORSDOF 4
ENDMDL
MODEL 2
REMARK VINA RESULT:    -4.213      1.779      1.957
REMARK INTER + INTRA:          -5.355
REMARK INTER:                  -5.106
REMARK INTRA:                  -0.249
REMARK UNBOUND:                -0.280
REMARK SMILES NC(=O)C[C@H]([NH3+])C(=O)[O-]
REMARK SMILES IDX 4 1 5 2 6 3 7 7 8 8 9 9 2 10 3 11 1 12
REMARK H PARENT 6 4 6 5 6 6 1 13 1 14
REMARK Flexibility Score: inf
ROOT
ATOM      1  C   UNL     1     -42.193 118.873   7.931  1.00  0.00     0.171 C 
ENDROOT
BRANCH   1   2
ATOM      2  C   UNL     1     -42.933 117.837   7.062  1.00  0.00     0.237 C 
BRANCH   2   3
ATOM      3  N   UNL     1     -42.576 116.464   7.444  1.00  0.00    -0.350 N 
ATOM      4  H   UNL     1     -43.419 115.960   7.799  1.00  0.00     0.345 HD
ATOM      5  H   UNL     1     -41.838 116.466   8.187  1.00  0.00     0.345 HD
ATOM      6  H   UNL     1     -42.219 115.945   6.608  1.00  0.00     0.345 HD
ENDBRANCH   2   3
BRANCH   2   7
ATOM      7  C   UNL     1     -42.608 118.070   5.610  1.00  0.00     0.100 C 
ATOM      8  O   UNL     1     -42.077 119.152   5.247  1.00  0.00    -0.544 OA
ATOM      9  O   UNL     1     -42.874 117.086   4.666  1.00  0.00    -0.544 OA
ENDBRANCH   2   7
ENDBRANCH   1   2
BRANCH   1  10
ATOM     10  C   UNL     1     -43.004 119.272   9.130  1.00  0.00     0.223 C 
ATOM     11  O   UNL     1     -43.707 118.412   9.726  1.00  0.00    -0.275 OA
ATOM     12  N   UNL     1     -43.007 120.626   9.582  1.00  0.00    -0.369 N 
ATOM     13  H   UNL     1     -42.439 121.352   9.091  1.00  0.00     0.159 HD
ATOM     14  H   UNL     1     -43.581 120.904  10.409  1.00  0.00     0.159 HD
ENDBRANCH   1  10
TORSDOF 4
ENDMDL
MODEL 3
REMARK VINA RESULT:    -4.041      1.704      4.017
REMARK INTER + INTRA:          -5.148
REMARK INTER:                  -4.937
REMARK INTRA:                  -0.212
REMARK UNBOUND:                -0.280
REMARK SMILES NC(=O)C[C@H]([NH3+])C(=O)[O-]
REMARK SMILES IDX 4 1 5 2 6 3 7 7 8 8 9 9 2 10 3 11 1 12
REMARK H PARENT 6 4 6 5 6 6 1 13 1 14
REMARK Flexibility Score: inf
ROOT
ATOM      1  C   UNL     1     -42.511 117.063   7.216  1.00  0.00     0.171 C 
ENDROOT
BRANCH   1   2
ATOM      2  C   UNL     1     -42.741 118.587   7.210  1.00  0.00     0.237 C 
BRANCH   2   3
ATOM      3  N   UNL     1     -42.171 119.212   6.010  1.00  0.00    -0.350 N 
ATOM      4  H   UNL     1     -41.491 119.957   6.281  1.00  0.00     0.345 HD
ATOM      5  H   UNL     1     -42.924 119.633   5.417  1.00  0.00     0.345 HD
ATOM      6  H   UNL     1     -41.654 118.495   5.449  1.00  0.00     0.345 HD
ENDBRANCH   2   3
BRANCH   2   7
ATOM      7  C   UNL     1     -42.133 119.195   8.447  1.00  0.00     0.100 C 
ATOM      8  O   UNL     1     -40.908 119.034   8.693  1.00  0.00    -0.544 OA
ATOM      9  O   UNL     1     -42.913 119.950   9.313  1.00  0.00    -0.544 OA
ENDBRANCH   2   7
ENDBRANCH   1   2
BRANCH   1  10
ATOM     10  C   UNL     1     -43.297 116.380   6.134  1.00  0.00     0.223 C 
ATOM     11  O   UNL     1     -43.365 116.896   4.987  1.00  0.00    -0.275 OA
ATOM     12  N   UNL     1     -43.993 115.164   6.406  1.00  0.00    -0.369 N 
ATOM     13  H   UNL     1     -43.955 114.730   7.355  1.00  0.00     0.159 HD
ATOM     14  H   UNL     1     -44.549 114.696   5.656  1.00  0.00     0.159 HD
ENDBRANCH   1  10
TORSDOF 4
ENDMDL
MODEL 4
REMARK VINA RESULT:    -4.021      2.081      2.391
REMARK INTER + INTRA:          -5.124
REMARK INTER:                  -4.877
REMARK INTRA:                  -0.246
REMARK UNBOUND:                -0.280
REMARK SMILES NC(=O)C[C@H]([NH3+])C(=O)[O-]
REMARK SMILES IDX 4 1 5 2 6 3 7 7 8 8 9 9 2 10 3 11 1 12
REMARK H PARENT 6 4 6 5 6 6 1 13 1 14
REMARK Flexibility Score: inf
ROOT
ATOM      1  C   UNL     1     -43.113 117.353   7.760  1.00  0.00     0.171 C 
ENDROOT
BRANCH   1   2
ATOM      2  C   UNL     1     -42.911 116.273   6.678  1.00  0.00     0.237 C 
BRANCH   2   3
ATOM      3  N   UNL     1     -43.570 116.644   5.419  1.00  0.00    -0.350 N 
ATOM      4  H   UNL     1     -43.367 115.930   4.684  1.00  0.00     0.345 HD
ATOM      5  H   UNL     1     -43.240 117.581   5.089  1.00  0.00     0.345 HD
ATOM      6  H   UNL     1     -44.607 116.677   5.558  1.00  0.00     0.345 HD
ENDBRANCH   2   3
BRANCH   2   7
ATOM      7  C   UNL     1     -43.445 114.955   7.173  1.00  0.00     0.100 C 
ATOM      8  O   UNL     1     -44.598 114.574   6.837  1.00  0.00    -0.544 OA
ATOM      9  O   UNL     1     -42.665 114.144   7.986  1.00  0.00    -0.544 OA
ENDBRANCH   2   7
ENDBRANCH   1   2
BRANCH   1  10
ATOM     10  C   UNL     1     -42.106 118.458   7.636  1.00  0.00     0.223 C 
ATOM     11  O   UNL     1     -42.032 119.124   6.569  1.00  0.00    -0.275 OA
ATOM     12  N   UNL     1     -41.209 118.741   8.710  1.00  0.00    -0.369 N 
ATOM     13  H   UNL     1     -41.250 118.190   9.597  1.00  0.00     0.159 HD
ATOM     14  H   UNL     1     -40.500 119.502   8.618  1.00  0.00     0.159 HD
ENDBRANCH   1  10
TORSDOF 4
ENDMDL
MODEL 5
REMARK VINA RESULT:    -3.823      2.903      3.940
REMARK INTER + INTRA:          -4.886
REMARK INTER:                  -4.633
REMARK INTRA:                  -0.252
REMARK UNBOUND:                -0.280
REMARK SMILES NC(=O)C[C@H]([NH3+])C(=O)[O-]
REMARK SMILES IDX 4 1 5 2 6 3 7 7 8 8 9 9 2 10 3 11 1 12
REMARK H PARENT 6 4 6 5 6 6 1 13 1 14
REMARK Flexibility Score: inf
ROOT
ATOM      1  C   UNL     1     -43.166 116.260   7.540  1.00  0.00     0.171 C 
ENDROOT
BRANCH   1   2
ATOM      2  C   UNL     1     -43.260 114.827   6.981  1.00  0.00     0.237 C 
BRANCH   2   3
ATOM      3  N   UNL     1     -44.628 114.505   6.556  1.00  0.00    -0.350 N 
ATOM      4  H   UNL     1     -44.612 114.028   5.627  1.00  0.00     0.345 HD
ATOM      5  H   UNL     1     -45.210 115.373   6.488  1.00  0.00     0.345 HD
ATOM      6  H   UNL     1     -45.069 113.852   7.246  1.00  0.00     0.345 HD
ENDBRANCH   2   3
BRANCH   2   7
ATOM      7  C   UNL     1     -42.799 113.846   8.026  1.00  0.00     0.100 C 
ATOM      8  O   UNL     1     -41.714 113.224   7.875  1.00  0.00    -0.544 OA
ATOM      9  O   UNL     1     -43.556 113.633   9.171  1.00  0.00    -0.544 OA
ENDBRANCH   2   7
ENDBRANCH   1   2
BRANCH   1  10
ATOM     10  C   UNL     1     -42.992 117.272   6.446  1.00  0.00     0.223 C 
ATOM     11  O   UNL     1     -43.127 116.925   5.242  1.00  0.00    -0.275 OA
ATOM     12  N   UNL     1     -42.645 118.621   6.758  1.00  0.00    -0.369 N 
ATOM     13  H   UNL     1     -42.518 118.922   7.750  1.00  0.00     0.159 HD
ATOM     14  H   UNL     1     -42.512 119.322   5.994  1.00  0.00     0.159 HD
ENDBRANCH   1  10
TORSDOF 4
ENDMDL
MODEL 6
REMARK VINA RESULT:    -3.803      9.267      9.913
REMARK INTER + INTRA:          -4.861
REMARK INTER:                  -4.655
REMARK INTRA:                  -0.207
REMARK UNBOUND:                -0.280
REMARK SMILES NC(=O)C[C@H]([NH3+])C(=O)[O-]
REMARK SMILES IDX 4 1 5 2 6 3 7 7 8 8 9 9 2 10 3 11 1 12
REMARK H PARENT 6 4 6 5 6 6 1 13 1 14
REMARK Flexibility Score: inf
ROOT
ATOM      1  C   UNL     1     -46.729 122.267  15.136  1.00  0.00     0.171 C 
ENDROOT
BRANCH   1   2
ATOM      2  C   UNL     1     -45.191 122.349  15.201  1.00  0.00     0.237 C 
BRANCH   2   3
ATOM      3  N   UNL     1     -44.598 122.379  13.858  1.00  0.00    -0.350 N 
ATOM      4  H   UNL     1     -43.581 122.608  13.920  1.00  0.00     0.345 HD
ATOM      5  H   UNL     1     -45.075 123.091  13.257  1.00  0.00     0.345 HD
ATOM      6  H   UNL     1     -44.689 121.437  13.410  1.00  0.00     0.345 HD
ENDBRANCH   2   3
BRANCH   2   7
ATOM      7  C   UNL     1     -44.654 121.176  15.978  1.00  0.00     0.100 C 
ATOM      8  O   UNL     1     -45.233 120.059  15.917  1.00  0.00    -0.544 OA
ATOM      9  O   UNL     1     -43.507 121.313  16.750  1.00  0.00    -0.544 OA
ENDBRANCH   2   7
ENDBRANCH   1   2
BRANCH   1  10
ATOM     10  C   UNL     1     -47.335 123.559  14.672  1.00  0.00     0.223 C 
ATOM     11  O   UNL     1     -46.761 124.650  14.932  1.00  0.00    -0.275 OA
ATOM     12  N   UNL     1     -48.574 123.562  13.964  1.00  0.00    -0.369 N 
ATOM     13  H   UNL     1     -49.068 122.667  13.751  1.00  0.00     0.159 HD
ATOM     14  H   UNL     1     -49.001 124.463  13.652  1.00  0.00     0.159 HD
ENDBRANCH   1  10
TORSDOF 4
ENDMDL
MODEL 7
REMARK VINA RESULT:    -3.731      8.633     10.863
REMARK INTER + INTRA:          -4.775
REMARK INTER:                  -4.268
REMARK INTRA:                  -0.507
REMARK UNBOUND:                -0.280
REMARK SMILES NC(=O)C[C@H]([NH3+])C(=O)[O-]
REMARK SMILES IDX 4 1 5 2 6 3 7 7 8 8 9 9 2 10 3 11 1 12
REMARK H PARENT 6 4 6 5 6 6 1 13 1 14
REMARK Flexibility Score: inf
ROOT
ATOM      1  C   UNL     1     -44.474 123.788  15.597  1.00  0.00     0.171 C 
ENDROOT
BRANCH   1   2
ATOM      2  C   UNL     1     -45.896 124.370  15.721  1.00  0.00     0.237 C 
BRANCH   2   3
ATOM      3  N   UNL     1     -46.814 123.755  14.754  1.00  0.00    -0.350 N 
ATOM      4  H   UNL     1     -47.703 124.300  14.707  1.00  0.00     0.345 HD
ATOM      5  H   UNL     1     -47.031 122.767  15.025  1.00  0.00     0.345 HD
ATOM      6  H   UNL     1     -46.382 123.761  13.801  1.00  0.00     0.345 HD
ENDBRANCH   2   3
BRANCH   2   7
ATOM      7  C   UNL     1     -45.852 125.861  15.515  1.00  0.00     0.100 C 
ATOM      8  O   UNL     1     -46.290 126.636  16.406  1.00  0.00    -0.544 OA
ATOM      9  O   UNL     1     -45.312 126.392  14.351  1.00  0.00    -0.544 OA
ENDBRANCH   2   7
ENDBRANCH   1   2
BRANCH   1  10
ATOM     10  C   UNL     1     -44.235 123.193  14.240  1.00  0.00     0.223 C 
ATOM     11  O   UNL     1     -44.522 121.985  14.025  1.00  0.00    -0.275 OA
ATOM     12  N   UNL     1     -43.655 123.979  13.199  1.00  0.00    -0.369 N 
ATOM     13  H   UNL     1     -43.401 124.978  13.366  1.00  0.00     0.159 HD
ATOM     14  H   UNL     1     -43.478 123.561  12.259  1.00  0.00     0.159 HD
ENDBRANCH   1  10
TORSDOF 4
ENDMDL
MODEL 8
REMARK VINA RESULT:    -3.720      9.580     10.044
REMARK INTER + INTRA:          -4.761
REMARK INTER:                  -4.477
REMARK INTRA:                  -0.285
REMARK UNBOUND:                -0.280
REMARK SMILES NC(=O)C[C@H]([NH3+])C(=O)[O-]
REMARK SMILES IDX 4 1 5 2 6 3 7 7 8 8 9 9 2 10 3 11 1 12
REMARK H PARENT 6 4 6 5 6 6 1 13 1 14
REMARK Flexibility Score: inf
ROOT
ATOM      1  C   UNL     1     -45.239 125.532  14.546  1.00  0.00     0.171 C 
ENDROOT
BRANCH   1   2
ATOM      2  C   UNL     1     -44.713 124.101  14.771  1.00  0.00     0.237 C 
BRANCH   2   3
ATOM      3  N   UNL     1     -43.964 123.615  13.604  1.00  0.00    -0.350 N 
ATOM      4  H   UNL     1     -42.969 123.927  13.661  1.00  0.00     0.345 HD
ATOM      5  H   UNL     1     -44.388 123.973  12.716  1.00  0.00     0.345 HD
ATOM      6  H   UNL     1     -43.973 122.568  13.588  1.00  0.00     0.345 HD
ENDBRANCH   2   3
BRANCH   2   7
ATOM      7  C   UNL     1     -45.865 123.178  15.066  1.00  0.00     0.100 C 
ATOM      8  O   UNL     1     -45.657 121.955  15.284  1.00  0.00    -0.544 OA
ATOM      9  O   UNL     1     -47.162 123.672  15.119  1.00  0.00    -0.544 OA
ENDBRANCH   2   7
ENDBRANCH   1   2
BRANCH   1  10
ATOM     10  C   UNL     1     -44.647 126.154  13.316  1.00  0.00     0.223 C 
ATOM     11  O   UNL     1     -43.416 126.422  13.277  1.00  0.00    -0.275 OA
ATOM     12  N   UNL     1     -45.476 126.473  12.198  1.00  0.00    -0.369 N 
ATOM     13  H   UNL     1     -46.499 126.268  12.218  1.00  0.00     0.159 HD
ATOM     14  H   UNL     1     -45.064 126.917  11.346  1.00  0.00     0.159 HD
ENDBRANCH   1  10
TORSDOF 4
ENDMDL
MODEL 9
REMARK VINA RESULT:    -3.694      9.884     11.517
REMARK INTER + INTRA:          -4.730
REMARK INTER:                  -4.442
REMARK INTRA:                  -0.288
REMARK UNBOUND:                -0.280
REMARK SMILES NC(=O)C[C@H]([NH3+])C(=O)[O-]
REMARK SMILES IDX 4 1 5 2 6 3 7 7 8 8 9 9 2 10 3 11 1 12
REMARK H PARENT 6 4 6 5 6 6 1 13 1 14
REMARK Flexibility Score: inf
ROOT
ATOM      1  C   UNL     1     -44.407 125.956  14.672  1.00  0.00     0.171 C 
ENDROOT
BRANCH   1   2
ATOM      2  C   UNL     1     -45.492 125.052  15.289  1.00  0.00     0.237 C 
BRANCH   2   3
ATOM      3  N   UNL     1     -46.586 124.802  14.341  1.00  0.00    -0.350 N 
ATOM      4  H   UNL     1     -46.268 124.149  13.591  1.00  0.00     0.345 HD
ATOM      5  H   UNL     1     -46.910 125.697  13.905  1.00  0.00     0.345 HD
ATOM      6  H   UNL     1     -47.390 124.353  14.839  1.00  0.00     0.345 HD
ENDBRANCH   2   3
BRANCH   2   7
ATOM      7  C   UNL     1     -46.030 125.691  16.543  1.00  0.00     0.100 C 
ATOM      8  O   UNL     1     -45.799 126.905  16.783  1.00  0.00    -0.544 OA
ATOM      9  O   UNL     1     -46.800 124.951  17.431  1.00  0.00    -0.544 OA
ENDBRANCH   2   7
ENDBRANCH   1   2
BRANCH   1  10
ATOM     10  C   UNL     1     -44.322 125.783  13.184  1.00  0.00     0.223 C 
ATOM     11  O   UNL     1     -44.953 126.565  12.424  1.00  0.00    -0.275 OA
ATOM     12  N   UNL     1     -43.553 124.719  12.624  1.00  0.00    -0.369 N 
ATOM     13  H   UNL     1     -43.033 124.056  13.241  1.00  0.00     0.159 HD
ATOM     14  H   UNL     1     -43.504 124.593  11.588  1.00  0.00     0.159 HD
ENDBRANCH   1  10
TORSDOF 4
ENDMDL
