MODEL 1
REMARK VINA RESULT:    -2.824      0.000      0.000
REMARK INTER + INTRA:          -4.037
REMARK INTER:                  -3.650
REMARK INTRA:                  -0.387
REMARK UNBOUND:                -0.387
REMARK SMILES CCCCCCC(=O)[O-]
REMARK SMILES IDX 5 1 6 2 7 3 8 4 9 5 4 6 3 7 2 8 1 9
REMARK H PARENT
REMARK Flexibility Score: inf
ROOT
ATOM      1  C   UNL     1     -12.616   9.771   3.502  1.00  0.00     0.006 C 
ENDROOT
BRANCH   1   2
ATOM      2  C   UNL     1     -11.683   9.595   4.711  1.00  0.00     0.053 C 
BRANCH   2   3
ATOM      3  C   UNL     1     -11.965  10.596   5.788  1.00  0.00     0.041 C 
ATOM      4  O   UNL     1     -11.508  11.765   5.701  1.00  0.00    -0.550 OA
ATOM      5  O   UNL     1     -12.705  10.227   6.905  1.00  0.00    -0.550 OA
ENDBRANCH   2   3
ENDBRANCH   1   2
BRANCH   1   6
ATOM      6  C   UNL     1     -13.868   8.875   3.535  1.00  0.00     0.000 C 
BRANCH   6   7
ATOM      7  C   UNL     1     -15.178   9.681   3.457  1.00  0.00    -0.000 C 
BRANCH   7   8
ATOM      8  C   UNL     1     -15.617  10.223   4.827  1.00  0.00    -0.003 C 
ATOM      9  C   UNL     1     -15.323  11.714   4.992  1.00  0.00     0.004 C 
ENDBRANCH   7   8
ENDBRANCH   6   7
ENDBRANCH   1   6
TORSDOF 5
ENDMDL
MODEL 2
REMARK VINA RESULT:    -2.738      1.547      2.511
REMARK INTER + INTRA:          -3.925
REMARK INTER:                  -3.526
REMARK INTRA:                  -0.400
REMARK UNBOUND:                -0.387
REMARK SMILES CCCCCCC(=O)[O-]
REMARK SMILES IDX 5 1 6 2 7 3 8 4 9 5 4 6 3 7 2 8 1 9
REMARK H PARENT
REMARK Flexibility Score: inf
ROOT
ATOM      1  C   UNL     1     -14.282  10.284   4.363  1.00  0.00     0.006 C 
ENDROOT
BRANCH   1   2
ATOM      2  C   UNL     1     -12.765  10.422   4.162  1.00  0.00     0.053 C 
BRANCH   2   3
ATOM      3  C   UNL     1     -12.054  10.732   5.444  1.00  0.00     0.041 C 
ATOM      4  O   UNL     1     -12.109   9.925   6.409  1.00  0.00    -0.550 OA
ATOM      5  O   UNL     1     -11.361  11.927   5.584  1.00  0.00    -0.550 OA
ENDBRANCH   2   3
ENDBRANCH   1   2
BRANCH   1   6
ATOM      6  C   UNL     1     -14.959  11.540   4.942  1.00  0.00     0.000 C 
BRANCH   6   7
ATOM      7  C   UNL     1     -15.529  11.312   6.353  1.00  0.00    -0.000 C 
BRANCH   7   8
ATOM      8  C   UNL     1     -15.615   9.821   6.719  1.00  0.00    -0.003 C 
ATOM      9  C   UNL     1     -15.227   9.547   8.172  1.00  0.00     0.004 C 
ENDBRANCH   7   8
ENDBRANCH   6   7
ENDBRANCH   1   6
TORSDOF 5
ENDMDL
MODEL 3
REMARK VINA RESULT:    -2.730     12.795     14.561
REMARK INTER + INTRA:          -3.915
REMARK INTER:                  -3.826
REMARK INTRA:                  -0.089
REMARK UNBOUND:                -0.387
REMARK SMILES CCCCCCC(=O)[O-]
REMARK SMILES IDX 5 1 6 2 7 3 8 4 9 5 4 6 3 7 2 8 1 9
REMARK H PARENT
REMARK Flexibility Score: inf
ROOT
ATOM      1  C   UNL     1      -1.097  14.815  11.117  1.00  0.00     0.006 C 
ENDROOT
BRANCH   1   2
ATOM      2  C   UNL     1      -1.924  14.135  10.015  1.00  0.00     0.053 C 
BRANCH   2   3
ATOM      3  C   UNL     1      -2.264  12.717  10.361  1.00  0.00     0.041 C 
ATOM      4  O   UNL     1      -2.969  12.464  11.372  1.00  0.00    -0.550 OA
ATOM      5  O   UNL     1      -1.772  11.675   9.585  1.00  0.00    -0.550 OA
ENDBRANCH   2   3
ENDBRANCH   1   2
BRANCH   1   6
ATOM      6  C   UNL     1      -1.188  16.352  11.118  1.00  0.00     0.000 C 
BRANCH   6   7
ATOM      7  C   UNL     1      -1.136  16.950  12.535  1.00  0.00    -0.000 C 
BRANCH   7   8
ATOM      8  C   UNL     1      -1.592  18.417  12.572  1.00  0.00    -0.003 C 
ATOM      9  C   UNL     1      -3.023  18.577  13.086  1.00  0.00     0.004 C 
ENDBRANCH   7   8
ENDBRANCH   6   7
ENDBRANCH   1   6
TORSDOF 5
ENDMDL
MODEL 4
REMARK VINA RESULT:    -2.728      1.734      3.271
REMARK INTER + INTRA:          -3.913
REMARK INTER:                  -3.467
REMARK INTRA:                  -0.446
REMARK UNBOUND:                -0.387
REMARK SMILES CCCCCCC(=O)[O-]
REMARK SMILES IDX 5 1 6 2 7 3 8 4 9 5 4 6 3 7 2 8 1 9
REMARK H PARENT
REMARK Flexibility Score: inf
ROOT
ATOM      1  C   UNL     1     -14.387   8.969   3.595  1.00  0.00     0.006 C 
ENDROOT
BRANCH   1   2
ATOM      2  C   UNL     1     -15.527   9.994   3.704  1.00  0.00     0.053 C 
BRANCH   2   3
ATOM      3  C   UNL     1     -15.491  10.739   5.003  1.00  0.00     0.041 C 
ATOM      4  O   UNL     1     -15.257  11.976   5.018  1.00  0.00    -0.550 OA
ATOM      5  O   UNL     1     -15.682  10.060   6.200  1.00  0.00    -0.550 OA
ENDBRANCH   2   3
ENDBRANCH   1   2
BRANCH   1   6
ATOM      6  C   UNL     1     -12.977   9.588   3.615  1.00  0.00     0.000 C 
BRANCH   6   7
ATOM      7  C   UNL     1     -12.089   9.007   4.730  1.00  0.00    -0.000 C 
BRANCH   7   8
ATOM      8  C   UNL     1     -12.074   9.888   5.989  1.00  0.00    -0.003 C 
ATOM      9  C   UNL     1     -11.855  11.367   5.671  1.00  0.00     0.004 C 
ENDBRANCH   7   8
ENDBRANCH   6   7
ENDBRANCH   1   6
TORSDOF 5
ENDMDL
MODEL 5
REMARK VINA RESULT:    -2.715      2.060      3.622
REMARK INTER + INTRA:          -3.896
REMARK INTER:                  -3.510
REMARK INTRA:                  -0.386
REMARK UNBOUND:                -0.387
REMARK SMILES CCCCCCC(=O)[O-]
REMARK SMILES IDX 5 1 6 2 7 3 8 4 9 5 4 6 3 7 2 8 1 9
REMARK H PARENT
REMARK Flexibility Score: inf
ROOT
ATOM      1  C   UNL     1     -13.053  10.048   6.995  1.00  0.00     0.006 C 
ENDROOT
BRANCH   1   2
ATOM      2  C   UNL     1     -14.563   9.773   7.076  1.00  0.00     0.053 C 
BRANCH   2   3
ATOM      3  C   UNL     1     -15.353  10.722   6.229  1.00  0.00     0.041 C 
ATOM      4  O   UNL     1     -16.501  10.404   5.823  1.00  0.00    -0.550 OA
ATOM      5  O   UNL     1     -14.806  11.945   5.860  1.00  0.00    -0.550 OA
ENDBRANCH   2   3
ENDBRANCH   1   2
BRANCH   1   6
ATOM      6  C   UNL     1     -12.333   9.291   5.864  1.00  0.00     0.000 C 
BRANCH   6   7
ATOM      7  C   UNL     1     -11.997  10.194   4.664  1.00  0.00    -0.000 C 
BRANCH   7   8
ATOM      8  C   UNL     1     -12.398   9.563   3.321  1.00  0.00    -0.003 C 
ATOM      9  C   UNL     1     -13.852   9.091   3.304  1.00  0.00     0.004 C 
ENDBRANCH   7   8
ENDBRANCH   6   7
ENDBRANCH   1   6
TORSDOF 5
ENDMDL
MODEL 6
REMARK VINA RESULT:    -2.665     13.244     14.073
REMARK INTER + INTRA:          -3.832
REMARK INTER:                  -3.465
REMARK INTRA:                  -0.367
REMARK UNBOUND:                -0.387
REMARK SMILES CCCCCCC(=O)[O-]
REMARK SMILES IDX 5 1 6 2 7 3 8 4 9 5 4 6 3 7 2 8 1 9
REMARK H PARENT
REMARK Flexibility Score: inf
ROOT
ATOM      1  C   UNL     1      -2.276  12.935  10.807  1.00  0.00     0.006 C 
ENDROOT
BRANCH   1   2
ATOM      2  C   UNL     1      -1.968  14.219  10.021  1.00  0.00     0.053 C 
BRANCH   2   3
ATOM      3  C   UNL     1      -0.986  15.094  10.738  1.00  0.00     0.041 C 
ATOM      4  O   UNL     1       0.148  14.648  11.053  1.00  0.00    -0.550 OA
ATOM      5  O   UNL     1      -1.336  16.393  11.087  1.00  0.00    -0.550 OA
ENDBRANCH   2   3
ENDBRANCH   1   2
BRANCH   1   6
ATOM      6  C   UNL     1      -1.958  11.636  10.044  1.00  0.00     0.000 C 
BRANCH   6   7
ATOM      7  C   UNL     1      -0.473  11.243  10.133  1.00  0.00    -0.000 C 
BRANCH   7   8
ATOM      8  C   UNL     1       0.263  11.415   8.795  1.00  0.00    -0.003 C 
ATOM      9  C   UNL     1      -0.690  11.454   7.600  1.00  0.00     0.004 C 
ENDBRANCH   7   8
ENDBRANCH   6   7
ENDBRANCH   1   6
TORSDOF 5
ENDMDL
MODEL 7
REMARK VINA RESULT:    -2.661     13.423     14.416
REMARK INTER + INTRA:          -3.826
REMARK INTER:                  -3.698
REMARK INTRA:                  -0.128
REMARK UNBOUND:                -0.387
REMARK SMILES CCCCCCC(=O)[O-]
REMARK SMILES IDX 5 1 6 2 7 3 8 4 9 5 4 6 3 7 2 8 1 9
REMARK H PARENT
REMARK Flexibility Score: inf
ROOT
ATOM      1  C   UNL     1      -1.162  14.523  11.151  1.00  0.00     0.006 C 
ENDROOT
BRANCH   1   2
ATOM      2  C   UNL     1      -0.925  16.035  11.014  1.00  0.00     0.053 C 
BRANCH   2   3
ATOM      3  C   UNL     1      -1.456  16.796  12.190  1.00  0.00     0.041 C 
ATOM      4  O   UNL     1      -1.582  18.047  12.131  1.00  0.00    -0.550 OA
ATOM      5  O   UNL     1      -1.779  16.125  13.363  1.00  0.00    -0.550 OA
ENDBRANCH   2   3
ENDBRANCH   1   2
BRANCH   1   6
ATOM      6  C   UNL     1      -1.984  13.906  10.004  1.00  0.00     0.000 C 
BRANCH   6   7
ATOM      7  C   UNL     1      -1.883  12.371   9.960  1.00  0.00    -0.000 C 
BRANCH   7   8
ATOM      8  C   UNL     1      -0.639  11.884   9.200  1.00  0.00    -0.003 C 
ATOM      9  C   UNL     1      -0.914  11.633   7.718  1.00  0.00     0.004 C 
ENDBRANCH   7   8
ENDBRANCH   6   7
ENDBRANCH   1   6
TORSDOF 5
ENDMDL
MODEL 8
REMARK VINA RESULT:    -2.659      1.805      2.551
REMARK INTER + INTRA:          -3.824
REMARK INTER:                  -3.431
REMARK INTRA:                  -0.393
REMARK UNBOUND:                -0.387
REMARK SMILES CCCCCCC(=O)[O-]
REMARK SMILES IDX 5 1 6 2 7 3 8 4 9 5 4 6 3 7 2 8 1 9
REMARK H PARENT
REMARK Flexibility Score: inf
ROOT
ATOM      1  C   UNL     1     -13.120   9.748   7.301  1.00  0.00     0.006 C 
ENDROOT
BRANCH   1   2
ATOM      2  C   UNL     1     -12.301   9.123   6.160  1.00  0.00     0.053 C 
BRANCH   2   3
ATOM      3  C   UNL     1     -11.990  10.117   5.082  1.00  0.00     0.041 C 
ATOM      4  O   UNL     1     -12.034   9.773   3.872  1.00  0.00    -0.550 OA
ATOM      5  O   UNL     1     -11.619  11.413   5.417  1.00  0.00    -0.550 OA
ENDBRANCH   2   3
ENDBRANCH   1   2
BRANCH   1   6
ATOM      6  C   UNL     1     -14.523   9.141   7.477  1.00  0.00     0.000 C 
BRANCH   6   7
ATOM      7  C   UNL     1     -15.529   9.655   6.431  1.00  0.00    -0.000 C 
BRANCH   7   8
ATOM      8  C   UNL     1     -15.465  11.180   6.254  1.00  0.00    -0.003 C 
ATOM      9  C   UNL     1     -15.288  11.597   4.793  1.00  0.00     0.004 C 
ENDBRANCH   7   8
ENDBRANCH   6   7
ENDBRANCH   1   6
TORSDOF 5
ENDMDL
MODEL 9
REMARK VINA RESULT:    -2.624     13.029     14.435
REMARK INTER + INTRA:          -3.779
REMARK INTER:                  -3.682
REMARK INTRA:                  -0.097
REMARK UNBOUND:                -0.387
REMARK SMILES CCCCCCC(=O)[O-]
REMARK SMILES IDX 5 1 6 2 7 3 8 4 9 5 4 6 3 7 2 8 1 9
REMARK H PARENT
REMARK Flexibility Score: inf
ROOT
ATOM      1  C   UNL     1      -1.894  13.915   9.963  1.00  0.00     0.006 C 
ENDROOT
BRANCH   1   2
ATOM      2  C   UNL     1      -1.780  12.382   9.927  1.00  0.00     0.053 C 
BRANCH   2   3
ATOM      3  C   UNL     1      -0.761  11.918   8.931  1.00  0.00     0.041 C 
ATOM      4  O   UNL     1       0.455  11.863   9.249  1.00  0.00    -0.550 OA
ATOM      5  O   UNL     1      -1.152  11.580   7.641  1.00  0.00    -0.550 OA
ENDBRANCH   2   3
ENDBRANCH   1   2
BRANCH   1   6
ATOM      6  C   UNL     1      -1.285  14.563  11.220  1.00  0.00     0.000 C 
BRANCH   6   7
ATOM      7  C   UNL     1      -1.124  16.088  11.083  1.00  0.00    -0.000 C 
BRANCH   7   8
ATOM      8  C   UNL     1      -1.103  16.801  12.444  1.00  0.00    -0.003 C 
ATOM      9  C   UNL     1      -1.737  18.192  12.391  1.00  0.00     0.004 C 
ENDBRANCH   7   8
ENDBRANCH   6   7
ENDBRANCH   1   6
TORSDOF 5
ENDMDL
