MODEL 1
REMARK VINA RESULT:    -1.368      0.000      0.000
REMARK INTER + INTRA:          -1.472
REMARK INTER:                  -1.448
REMARK INTRA:                  -0.024
REMARK UNBOUND:                -0.024
REMARK SMILES O=C([O-])c1cccnc1
REMARK SMILES IDX 4 1 5 2 9 3 6 4 8 5 7 6 2 7 1 8 3 9
REMARK H PARENT
REMARK Flexibility Score: inf
ROOT
ATOM      1  C   UNL     1       0.351  32.336  26.913  1.00  0.00     0.016 A 
ATOM      2  C   UNL     1       0.396  31.389  25.878  1.00  0.00     0.013 A 
ATOM      3  C   UNL     1      -0.431  32.053  28.046  1.00  0.00     0.120 A 
ATOM      4  C   UNL     1      -0.326  30.198  25.985  1.00  0.00     0.021 A 
ATOM      5  N   UNL     1      -1.124  30.884  28.126  1.00  0.00    -0.264 NA
ATOM      6  C   UNL     1      -1.088  29.961  27.129  1.00  0.00     0.111 A 
ENDROOT
BRANCH   1   7
ATOM      7  C   UNL     1       1.112  33.601  26.811  1.00  0.00     0.073 C 
ATOM      8  O   UNL     1       1.935  33.779  25.875  1.00  0.00    -0.545 OA
ATOM      9  O   UNL     1       0.927  34.611  27.749  1.00  0.00    -0.545 OA
ENDBRANCH   1   7
TORSDOF 1
ENDMDL
MODEL 2
REMARK VINA RESULT:    -1.364      0.927      1.601
REMARK INTER + INTRA:          -1.468
REMARK INTER:                  -1.444
REMARK INTRA:                  -0.023
REMARK UNBOUND:                -0.024
REMARK SMILES O=C([O-])c1cccnc1
REMARK SMILES IDX 4 1 5 2 9 3 6 4 8 5 7 6 2 7 1 8 3 9
REMARK H PARENT
REMARK Flexibility Score: inf
ROOT
ATOM      1  C   UNL     1       0.383  32.345  26.876  1.00  0.00     0.016 A 
ATOM      2  C   UNL     1      -0.446  32.075  27.978  1.00  0.00     0.013 A 
ATOM      3  C   UNL     1       0.505  31.365  25.876  1.00  0.00     0.120 A 
ATOM      4  C   UNL     1      -1.125  30.858  28.063  1.00  0.00     0.021 A 
ATOM      5  N   UNL     1      -0.169  30.188  25.983  1.00  0.00    -0.264 NA
ATOM      6  C   UNL     1      -0.973  29.917  27.044  1.00  0.00     0.111 A 
ENDROOT
BRANCH   1   7
ATOM      7  C   UNL     1       1.107  33.630  26.775  1.00  0.00     0.073 C 
ATOM      8  O   UNL     1       1.971  33.810  25.876  1.00  0.00    -0.545 OA
ATOM      9  O   UNL     1       0.845  34.658  27.674  1.00  0.00    -0.545 OA
ENDBRANCH   1   7
TORSDOF 1
ENDMDL
