MODEL 1
REMARK VINA RESULT:    -4.193      0.000      0.000
REMARK INTER + INTRA:          -9.725
REMARK INTER:                  -7.871
REMARK INTRA:                  -1.855
REMARK UNBOUND:                -1.855
REMARK SMILES O=C([O-])CCCCCCCCCCCCCCC(=O)[O-]
REMARK SMILES IDX 10 1 9 2 8 3 7 4 6 5 5 6 4 7 2 8 1 9 3 10 11 11 12 12 13 13
REMARK SMILES IDX 14 14 15 15 16 16 17 17 18 18 19 19 20 20
REMARK H PARENT
REMARK Flexibility Score: inf
ROOT
ATOM      1  C   UNL     1      -7.229   4.060  55.384  1.00  0.00     0.000 C 
ENDROOT
BRANCH   1   2
ATOM      2  C   UNL     1      -6.321   3.082  54.618  1.00  0.00     0.000 C 
BRANCH   2   3
ATOM      3  C   UNL     1      -5.912   3.616  53.236  1.00  0.00     0.000 C 
BRANCH   3   4
ATOM      4  C   UNL     1      -7.022   3.456  52.183  1.00  0.00     0.000 C 
BRANCH   4   5
ATOM      5  C   UNL     1      -7.241   4.715  51.317  1.00  0.00     0.000 C 
BRANCH   5   6
ATOM      6  C   UNL     1      -8.029   5.803  52.061  1.00  0.00     0.006 C 
BRANCH   6   7
ATOM      7  C   UNL     1      -9.381   5.271  52.544  1.00  0.00     0.053 C 
BRANCH   7   8
ATOM      8  C   UNL     1     -10.497   5.884  51.760  1.00  0.00     0.041 C 
ATOM      9  O   UNL     1     -10.355   6.118  50.530  1.00  0.00    -0.550 OA
ATOM     10  O   UNL     1     -11.712   6.155  52.376  1.00  0.00    -0.550 OA
ENDBRANCH   7   8
ENDBRANCH   6   7
ENDBRANCH   5   6
ENDBRANCH   4   5
ENDBRANCH   3   4
ENDBRANCH   2   3
ENDBRANCH   1   2
BRANCH   1  11
ATOM     11  C   UNL     1      -6.581   5.444  55.570  1.00  0.00     0.000 C 
BRANCH  11  12
ATOM     12  C   UNL     1      -7.588   6.514  56.024  1.00  0.00     0.000 C 
BRANCH  12  13
ATOM     13  C   UNL     1      -8.547   6.071  57.147  1.00  0.00     0.000 C 
BRANCH  13  14
ATOM     14  C   UNL     1      -8.001   6.327  58.568  1.00  0.00     0.000 C 
BRANCH  14  15
ATOM     15  C   UNL     1      -7.223   5.120  59.119  1.00  0.00     0.000 C 
BRANCH  15  16
ATOM     16  C   UNL     1      -5.751   5.446  59.412  1.00  0.00     0.006 C 
BRANCH  16  17
ATOM     17  C   UNL     1      -4.781   4.525  58.661  1.00  0.00     0.053 C 
BRANCH  17  18
ATOM     18  C   UNL     1      -4.440   3.331  59.497  1.00  0.00     0.041 C 
ATOM     19  O   UNL     1      -3.443   3.359  60.265  1.00  0.00    -0.550 OA
ATOM     20  O   UNL     1      -5.252   2.204  59.463  1.00  0.00    -0.550 OA
ENDBRANCH  17  18
ENDBRANCH  16  17
ENDBRANCH  15  16
ENDBRANCH  14  15
ENDBRANCH  13  14
ENDBRANCH  12  13
ENDBRANCH  11  12
ENDBRANCH   1  11
TORSDOF 15
ENDMDL
MODEL 2
REMARK VINA RESULT:    -4.116      1.865      7.151
REMARK INTER + INTRA:          -9.579
REMARK INTER:                  -7.673
REMARK INTRA:                  -1.906
REMARK UNBOUND:                -1.855
REMARK SMILES O=C([O-])CCCCCCCCCCCCCCC(=O)[O-]
REMARK SMILES IDX 10 1 9 2 8 3 7 4 6 5 5 6 4 7 2 8 1 9 3 10 11 11 12 12 13 13
REMARK SMILES IDX 14 14 15 15 16 16 17 17 18 18 19 19 20 20
REMARK H PARENT
REMARK Flexibility Score: inf
ROOT
ATOM      1  C   UNL     1      -5.857   3.632  53.122  1.00  0.00     0.000 C 
ENDROOT
BRANCH   1   2
ATOM      2  C   UNL     1      -5.983   3.841  54.640  1.00  0.00     0.000 C 
BRANCH   2   3
ATOM      3  C   UNL     1      -7.347   4.424  55.044  1.00  0.00     0.000 C 
BRANCH   3   4
ATOM      4  C   UNL     1      -7.283   5.929  55.357  1.00  0.00     0.000 C 
BRANCH   4   5
ATOM      5  C   UNL     1      -7.111   6.242  56.859  1.00  0.00     0.000 C 
BRANCH   5   6
ATOM      6  C   UNL     1      -7.681   5.131  57.754  1.00  0.00     0.006 C 
BRANCH   6   7
ATOM      7  C   UNL     1      -6.630   4.632  58.749  1.00  0.00     0.053 C 
BRANCH   7   8
ATOM      8  C   UNL     1      -6.127   5.760  59.592  1.00  0.00     0.041 C 
ATOM      9  O   UNL     1      -6.901   6.346  60.394  1.00  0.00    -0.550 OA
ATOM     10  O   UNL     1      -4.791   6.134  59.526  1.00  0.00    -0.550 OA
ENDBRANCH   7   8
ENDBRANCH   6   7
ENDBRANCH   5   6
ENDBRANCH   4   5
ENDBRANCH   3   4
ENDBRANCH   2   3
ENDBRANCH   1   2
BRANCH   1  11
ATOM     11  C   UNL     1      -6.949   2.703  52.562  1.00  0.00     0.000 C 
BRANCH  11  12
ATOM     12  C   UNL     1      -7.692   3.316  51.362  1.00  0.00     0.000 C 
BRANCH  12  13
ATOM     13  C   UNL     1      -7.331   4.782  51.053  1.00  0.00     0.000 C 
BRANCH  13  14
ATOM     14  C   UNL     1      -8.301   5.807  51.677  1.00  0.00     0.000 C 
BRANCH  14  15
ATOM     15  C   UNL     1      -9.672   5.812  50.979  1.00  0.00     0.000 C 
BRANCH  15  16
ATOM     16  C   UNL     1     -10.843   5.852  51.972  1.00  0.00     0.006 C 
BRANCH  16  17
ATOM     17  C   UNL     1     -10.547   5.083  53.266  1.00  0.00     0.053 C 
BRANCH  17  18
ATOM     18  C   UNL     1     -10.766   5.961  54.458  1.00  0.00     0.041 C 
ATOM     19  O   UNL     1     -11.016   5.454  55.582  1.00  0.00    -0.550 OA
ATOM     20  O   UNL     1     -10.647   7.340  54.336  1.00  0.00    -0.550 OA
ENDBRANCH  17  18
ENDBRANCH  16  17
ENDBRANCH  15  16
ENDBRANCH  14  15
ENDBRANCH  13  14
ENDBRANCH  12  13
ENDBRANCH  11  12
ENDBRANCH   1  11
TORSDOF 15
ENDMDL
MODEL 3
REMARK VINA RESULT:    -4.096      8.878     12.195
REMARK INTER + INTRA:          -9.542
REMARK INTER:                  -7.954
REMARK INTRA:                  -1.588
REMARK UNBOUND:                -1.855
REMARK SMILES O=C([O-])CCCCCCCCCCCCCCC(=O)[O-]
REMARK SMILES IDX 10 1 9 2 8 3 7 4 6 5 5 6 4 7 2 8 1 9 3 10 11 11 12 12 13 13
REMARK SMILES IDX 14 14 15 15 16 16 17 17 18 18 19 19 20 20
REMARK H PARENT
REMARK Flexibility Score: inf
ROOT
ATOM      1  C   UNL     1       2.470   0.456  56.100  1.00  0.00     0.000 C 
ENDROOT
BRANCH   1   2
ATOM      2  C   UNL     1       1.346  -0.031  57.030  1.00  0.00     0.000 C 
BRANCH   2   3
ATOM      3  C   UNL     1      -0.013  -0.117  56.317  1.00  0.00     0.000 C 
BRANCH   3   4
ATOM      4  C   UNL     1      -1.101   0.727  57.004  1.00  0.00     0.000 C 
BRANCH   4   5
ATOM      5  C   UNL     1      -0.615   1.442  58.284  1.00  0.00     0.000 C 
BRANCH   5   6
ATOM      6  C   UNL     1      -1.013   0.685  59.559  1.00  0.00     0.006 C 
BRANCH   6   7
ATOM      7  C   UNL     1       0.144   0.647  60.562  1.00  0.00     0.053 C 
BRANCH   7   8
ATOM      8  C   UNL     1       0.634   2.031  60.849  1.00  0.00     0.041 C 
ATOM      9  O   UNL     1       1.798   2.373  60.511  1.00  0.00    -0.550 OA
ATOM     10  O   UNL     1      -0.209   2.957  61.448  1.00  0.00    -0.550 OA
ENDBRANCH   7   8
ENDBRANCH   6   7
ENDBRANCH   5   6
ENDBRANCH   4   5
ENDBRANCH   3   4
ENDBRANCH   2   3
ENDBRANCH   1   2
BRANCH   1  11
ATOM     11  C   UNL     1       1.982   1.501  55.081  1.00  0.00     0.000 C 
BRANCH  11  12
ATOM     12  C   UNL     1       2.278   1.095  53.627  1.00  0.00     0.000 C 
BRANCH  12  13
ATOM     13  C   UNL     1       2.870  -0.318  53.452  1.00  0.00     0.000 C 
BRANCH  13  14
ATOM     14  C   UNL     1       1.806  -1.416  53.240  1.00  0.00     0.000 C 
BRANCH  14  15
ATOM     15  C   UNL     1       2.106  -2.684  54.058  1.00  0.00     0.000 C 
BRANCH  15  16
ATOM     16  C   UNL     1       3.569  -2.760  54.519  1.00  0.00     0.006 C 
BRANCH  16  17
ATOM     17  C   UNL     1       3.997  -4.184  54.895  1.00  0.00     0.053 C 
BRANCH  17  18
ATOM     18  C   UNL     1       4.537  -4.217  56.290  1.00  0.00     0.041 C 
ATOM     19  O   UNL     1       3.829  -3.822  57.254  1.00  0.00    -0.550 OA
ATOM     20  O   UNL     1       5.806  -4.728  56.532  1.00  0.00    -0.550 OA
ENDBRANCH  17  18
ENDBRANCH  16  17
ENDBRANCH  15  16
ENDBRANCH  14  15
ENDBRANCH  13  14
ENDBRANCH  12  13
ENDBRANCH  11  12
ENDBRANCH   1  11
TORSDOF 15
ENDMDL
MODEL 4
REMARK VINA RESULT:    -4.087      1.161      7.985
REMARK INTER + INTRA:          -9.526
REMARK INTER:                  -7.901
REMARK INTRA:                  -1.624
REMARK UNBOUND:                -1.855
REMARK SMILES O=C([O-])CCCCCCCCCCCCCCC(=O)[O-]
REMARK SMILES IDX 10 1 9 2 8 3 7 4 6 5 5 6 4 7 2 8 1 9 3 10 11 11 12 12 13 13
REMARK SMILES IDX 14 14 15 15 16 16 17 17 18 18 19 19 20 20
REMARK H PARENT
REMARK Flexibility Score: inf
ROOT
ATOM      1  C   UNL     1      -7.413   4.999  56.341  1.00  0.00     0.000 C 
ENDROOT
BRANCH   1   2
ATOM      2  C   UNL     1      -7.359   6.182  57.321  1.00  0.00     0.000 C 
BRANCH   2   3
ATOM      3  C   UNL     1      -7.610   5.755  58.776  1.00  0.00     0.000 C 
BRANCH   3   4
ATOM      4  C   UNL     1      -6.422   6.065  59.702  1.00  0.00     0.000 C 
BRANCH   4   5
ATOM      5  C   UNL     1      -5.107   5.378  59.275  1.00  0.00     0.000 C 
BRANCH   5   6
ATOM      6  C   UNL     1      -5.052   3.906  59.710  1.00  0.00     0.006 C 
BRANCH   6   7
ATOM      7  C   UNL     1      -5.052   2.973  58.496  1.00  0.00     0.053 C 
BRANCH   7   8
ATOM      8  C   UNL     1      -3.679   2.430  58.252  1.00  0.00     0.041 C 
ATOM      9  O   UNL     1      -3.233   2.340  57.078  1.00  0.00    -0.550 OA
ATOM     10  O   UNL     1      -2.875   2.067  59.325  1.00  0.00    -0.550 OA
ENDBRANCH   7   8
ENDBRANCH   6   7
ENDBRANCH   5   6
ENDBRANCH   4   5
ENDBRANCH   3   4
ENDBRANCH   2   3
ENDBRANCH   1   2
BRANCH   1  11
ATOM     11  C   UNL     1      -6.231   4.996  55.354  1.00  0.00     0.000 C 
BRANCH  11  12
ATOM     12  C   UNL     1      -5.930   3.595  54.794  1.00  0.00     0.000 C 
BRANCH  12  13
ATOM     13  C   UNL     1      -5.853   3.511  53.256  1.00  0.00     0.000 C 
BRANCH  13  14
ATOM     14  C   UNL     1      -7.088   2.853  52.607  1.00  0.00     0.000 C 
BRANCH  14  15
ATOM     15  C   UNL     1      -7.657   3.693  51.450  1.00  0.00     0.000 C 
BRANCH  15  16
ATOM     16  C   UNL     1      -7.601   5.203  51.731  1.00  0.00     0.006 C 
BRANCH  16  17
ATOM     17  C   UNL     1      -8.734   5.675  52.650  1.00  0.00     0.053 C 
BRANCH  17  18
ATOM     18  C   UNL     1      -9.979   5.925  51.859  1.00  0.00     0.041 C 
ATOM     19  O   UNL     1      -9.915   6.105  50.615  1.00  0.00    -0.550 OA
ATOM     20  O   UNL     1     -11.217   5.914  52.489  1.00  0.00    -0.550 OA
ENDBRANCH  17  18
ENDBRANCH  16  17
ENDBRANCH  15  16
ENDBRANCH  14  15
ENDBRANCH  13  14
ENDBRANCH  12  13
ENDBRANCH  11  12
ENDBRANCH   1  11
TORSDOF 15
ENDMDL
MODEL 5
REMARK VINA RESULT:    -4.070      1.315      1.934
REMARK INTER + INTRA:          -9.494
REMARK INTER:                  -7.750
REMARK INTRA:                  -1.744
REMARK UNBOUND:                -1.855
REMARK SMILES O=C([O-])CCCCCCCCCCCCCCC(=O)[O-]
REMARK SMILES IDX 10 1 9 2 8 3 7 4 6 5 5 6 4 7 2 8 1 9 3 10 11 11 12 12 13 13
REMARK SMILES IDX 14 14 15 15 16 16 17 17 18 18 19 19 20 20
REMARK H PARENT
REMARK Flexibility Score: inf
ROOT
ATOM      1  C   UNL     1      -7.543   5.760  55.144  1.00  0.00     0.000 C 
ENDROOT
BRANCH   1   2
ATOM      2  C   UNL     1      -7.257   4.254  55.260  1.00  0.00     0.000 C 
BRANCH   2   3
ATOM      3  C   UNL     1      -5.877   3.871  54.703  1.00  0.00     0.000 C 
BRANCH   3   4
ATOM      4  C   UNL     1      -5.843   3.841  53.165  1.00  0.00     0.000 C 
BRANCH   4   5
ATOM      5  C   UNL     1      -7.090   3.189  52.529  1.00  0.00     0.000 C 
BRANCH   5   6
ATOM      6  C   UNL     1      -7.501   3.876  51.219  1.00  0.00     0.006 C 
BRANCH   6   7
ATOM      7  C   UNL     1      -7.850   5.348  51.454  1.00  0.00     0.053 C 
BRANCH   7   8
ATOM      8  C   UNL     1      -9.331   5.525  51.567  1.00  0.00     0.041 C 
ATOM      9  O   UNL     1      -9.973   6.097  50.646  1.00  0.00    -0.550 OA
ATOM     10  O   UNL     1     -10.010   5.017  52.667  1.00  0.00    -0.550 OA
ENDBRANCH   7   8
ENDBRANCH   6   7
ENDBRANCH   5   6
ENDBRANCH   4   5
ENDBRANCH   3   4
ENDBRANCH   2   3
ENDBRANCH   1   2
BRANCH   1  11
ATOM     11  C   UNL     1      -7.380   6.498  56.485  1.00  0.00     0.000 C 
BRANCH  11  12
ATOM     12  C   UNL     1      -8.473   6.128  57.502  1.00  0.00     0.000 C 
BRANCH  12  13
ATOM     13  C   UNL     1      -8.040   6.199  58.980  1.00  0.00     0.000 C 
BRANCH  13  14
ATOM     14  C   UNL     1      -8.191   4.862  59.737  1.00  0.00     0.000 C 
BRANCH  14  15
ATOM     15  C   UNL     1      -7.767   3.656  58.880  1.00  0.00     0.000 C 
BRANCH  15  16
ATOM     16  C   UNL     1      -6.672   2.810  59.548  1.00  0.00     0.006 C 
BRANCH  16  17
ATOM     17  C   UNL     1      -5.435   3.634  59.924  1.00  0.00     0.053 C 
BRANCH  17  18
ATOM     18  C   UNL     1      -4.756   4.149  58.694  1.00  0.00     0.041 C 
ATOM     19  O   UNL     1      -4.292   3.346  57.843  1.00  0.00    -0.550 OA
ATOM     20  O   UNL     1      -4.677   5.517  58.465  1.00  0.00    -0.550 OA
ENDBRANCH  17  18
ENDBRANCH  16  17
ENDBRANCH  15  16
ENDBRANCH  14  15
ENDBRANCH  13  14
ENDBRANCH  12  13
ENDBRANCH  11  12
ENDBRANCH   1  11
TORSDOF 15
ENDMDL
MODEL 6
REMARK VINA RESULT:    -4.054      1.458      2.503
REMARK INTER + INTRA:          -9.464
REMARK INTER:                  -7.280
REMARK INTRA:                  -2.183
REMARK UNBOUND:                -1.855
REMARK SMILES O=C([O-])CCCCCCCCCCCCCCC(=O)[O-]
REMARK SMILES IDX 10 1 9 2 8 3 7 4 6 5 5 6 4 7 2 8 1 9 3 10 11 11 12 12 13 13
REMARK SMILES IDX 14 14 15 15 16 16 17 17 18 18 19 19 20 20
REMARK H PARENT
REMARK Flexibility Score: inf
ROOT
ATOM      1  C   UNL     1      -6.307   3.502  53.157  1.00  0.00     0.000 C 
ENDROOT
BRANCH   1   2
ATOM      2  C   UNL     1      -7.259   2.897  52.112  1.00  0.00     0.000 C 
BRANCH   2   3
ATOM      3  C   UNL     1      -7.572   3.872  50.965  1.00  0.00     0.000 C 
BRANCH   3   4
ATOM      4  C   UNL     1      -7.715   5.327  51.442  1.00  0.00     0.000 C 
BRANCH   4   5
ATOM      5  C   UNL     1      -9.175   5.829  51.471  1.00  0.00     0.000 C 
BRANCH   5   6
ATOM      6  C   UNL     1      -9.658   6.133  52.897  1.00  0.00     0.006 C 
BRANCH   6   7
ATOM      7  C   UNL     1     -10.012   4.845  53.645  1.00  0.00     0.053 C 
BRANCH   7   8
ATOM      8  C   UNL     1     -11.103   4.109  52.934  1.00  0.00     0.041 C 
ATOM      9  O   UNL     1     -12.258   4.606  52.857  1.00  0.00    -0.550 OA
ATOM     10  O   UNL     1     -10.833   2.894  52.316  1.00  0.00    -0.550 OA
ENDBRANCH   7   8
ENDBRANCH   6   7
ENDBRANCH   5   6
ENDBRANCH   4   5
ENDBRANCH   3   4
ENDBRANCH   2   3
ENDBRANCH   1   2
BRANCH   1  11
ATOM     11  C   UNL     1      -6.551   2.943  54.570  1.00  0.00     0.000 C 
BRANCH  11  12
ATOM     12  C   UNL     1      -6.460   4.025  55.660  1.00  0.00     0.000 C 
BRANCH  12  13
ATOM     13  C   UNL     1      -6.771   5.458  55.182  1.00  0.00     0.000 C 
BRANCH  13  14
ATOM     14  C   UNL     1      -7.515   6.314  56.229  1.00  0.00     0.000 C 
BRANCH  14  15
ATOM     15  C   UNL     1      -8.008   5.477  57.422  1.00  0.00     0.000 C 
BRANCH  15  16
ATOM     16  C   UNL     1      -7.495   6.008  58.770  1.00  0.00     0.006 C 
BRANCH  16  17
ATOM     17  C   UNL     1      -6.726   4.948  59.568  1.00  0.00     0.053 C 
BRANCH  17  18
ATOM     18  C   UNL     1      -5.279   4.953  59.184  1.00  0.00     0.041 C 
ATOM     19  O   UNL     1      -4.544   3.971  59.468  1.00  0.00    -0.550 OA
ATOM     20  O   UNL     1      -4.753   6.022  58.470  1.00  0.00    -0.550 OA
ENDBRANCH  17  18
ENDBRANCH  16  17
ENDBRANCH  15  16
ENDBRANCH  14  15
ENDBRANCH  13  14
ENDBRANCH  12  13
ENDBRANCH  11  12
ENDBRANCH   1  11
TORSDOF 15
ENDMDL
MODEL 7
REMARK VINA RESULT:    -4.027      1.717      2.521
REMARK INTER + INTRA:          -9.413
REMARK INTER:                  -7.861
REMARK INTRA:                  -1.553
REMARK UNBOUND:                -1.855
REMARK SMILES O=C([O-])CCCCCCCCCCCCCCC(=O)[O-]
REMARK SMILES IDX 10 1 9 2 8 3 7 4 6 5 5 6 4 7 2 8 1 9 3 10 11 11 12 12 13 13
REMARK SMILES IDX 14 14 15 15 16 16 17 17 18 18 19 19 20 20
REMARK H PARENT
REMARK Flexibility Score: inf
ROOT
ATOM      1  C   UNL     1      -6.828   4.739  55.949  1.00  0.00     0.000 C 
ENDROOT
BRANCH   1   2
ATOM      2  C   UNL     1      -5.947   4.336  54.755  1.00  0.00     0.000 C 
BRANCH   2   3
ATOM      3  C   UNL     1      -6.155   2.872  54.336  1.00  0.00     0.000 C 
BRANCH   3   4
ATOM      4  C   UNL     1      -6.294   2.701  52.814  1.00  0.00     0.000 C 
BRANCH   4   5
ATOM      5  C   UNL     1      -7.757   2.702  52.321  1.00  0.00     0.000 C 
BRANCH   5   6
ATOM      6  C   UNL     1      -7.958   3.609  51.098  1.00  0.00     0.006 C 
BRANCH   6   7
ATOM      7  C   UNL     1      -7.860   5.087  51.485  1.00  0.00     0.053 C 
BRANCH   7   8
ATOM      8  C   UNL     1      -9.224   5.682  51.633  1.00  0.00     0.041 C 
ATOM      9  O   UNL     1      -9.492   6.413  52.623  1.00  0.00    -0.550 OA
ATOM     10  O   UNL     1     -10.186   5.468  50.654  1.00  0.00    -0.550 OA
ENDBRANCH   7   8
ENDBRANCH   6   7
ENDBRANCH   5   6
ENDBRANCH   4   5
ENDBRANCH   3   4
ENDBRANCH   2   3
ENDBRANCH   1   2
BRANCH   1  11
ATOM     11  C   UNL     1      -6.133   5.750  56.880  1.00  0.00     0.000 C 
BRANCH  11  12
ATOM     12  C   UNL     1      -6.841   5.888  58.239  1.00  0.00     0.000 C 
BRANCH  12  13
ATOM     13  C   UNL     1      -5.933   5.690  59.469  1.00  0.00     0.000 C 
BRANCH  13  14
ATOM     14  C   UNL     1      -4.750   4.730  59.221  1.00  0.00     0.000 C 
BRANCH  14  15
ATOM     15  C   UNL     1      -5.085   3.280  59.609  1.00  0.00     0.000 C 
BRANCH  15  16
ATOM     16  C   UNL     1      -4.949   2.304  58.430  1.00  0.00     0.006 C 
BRANCH  16  17
ATOM     17  C   UNL     1      -3.765   2.643  57.516  1.00  0.00     0.053 C 
BRANCH  17  18
ATOM     18  C   UNL     1      -2.609   1.737  57.801  1.00  0.00     0.041 C 
ATOM     19  O   UNL     1      -1.663   1.636  56.976  1.00  0.00    -0.550 OA
ATOM     20  O   UNL     1      -2.552   1.039  59.001  1.00  0.00    -0.550 OA
ENDBRANCH  17  18
ENDBRANCH  16  17
ENDBRANCH  15  16
ENDBRANCH  14  15
ENDBRANCH  13  14
ENDBRANCH  12  13
ENDBRANCH  11  12
ENDBRANCH   1  11
TORSDOF 15
ENDMDL
MODEL 8
REMARK VINA RESULT:    -4.010      1.371      7.332
REMARK INTER + INTRA:          -9.380
REMARK INTER:                  -6.914
REMARK INTRA:                  -2.467
REMARK UNBOUND:                -1.855
REMARK SMILES O=C([O-])CCCCCCCCCCCCCCC(=O)[O-]
REMARK SMILES IDX 10 1 9 2 8 3 7 4 6 5 5 6 4 7 2 8 1 9 3 10 11 11 12 12 13 13
REMARK SMILES IDX 14 14 15 15 16 16 17 17 18 18 19 19 20 20
REMARK H PARENT
REMARK Flexibility Score: inf
ROOT
ATOM      1  C   UNL     1      -8.354   4.627  57.048  1.00  0.00     0.000 C 
ENDROOT
BRANCH   1   2
ATOM      2  C   UNL     1      -8.628   4.917  58.533  1.00  0.00     0.000 C 
BRANCH   2   3
ATOM      3  C   UNL     1      -7.924   6.191  59.026  1.00  0.00     0.000 C 
BRANCH   3   4
ATOM      4  C   UNL     1      -6.754   5.894  59.979  1.00  0.00     0.000 C 
BRANCH   4   5
ATOM      5  C   UNL     1      -5.369   5.952  59.298  1.00  0.00     0.000 C 
BRANCH   5   6
ATOM      6  C   UNL     1      -4.723   4.565  59.178  1.00  0.00     0.006 C 
BRANCH   6   7
ATOM      7  C   UNL     1      -5.507   3.519  59.975  1.00  0.00     0.053 C 
BRANCH   7   8
ATOM      8  C   UNL     1      -5.592   2.234  59.215  1.00  0.00     0.041 C 
ATOM      9  O   UNL     1      -6.661   1.912  58.631  1.00  0.00    -0.550 OA
ATOM     10  O   UNL     1      -4.477   1.413  59.111  1.00  0.00    -0.550 OA
ENDBRANCH   7   8
ENDBRANCH   6   7
ENDBRANCH   5   6
ENDBRANCH   4   5
ENDBRANCH   3   4
ENDBRANCH   2   3
ENDBRANCH   1   2
BRANCH   1  11
ATOM     11  C   UNL     1      -7.633   5.790  56.343  1.00  0.00     0.000 C 
BRANCH  11  12
ATOM     12  C   UNL     1      -6.359   5.339  55.607  1.00  0.00     0.000 C 
BRANCH  12  13
ATOM     13  C   UNL     1      -5.968   3.864  55.826  1.00  0.00     0.000 C 
BRANCH  13  14
ATOM     14  C   UNL     1      -6.268   2.955  54.615  1.00  0.00     0.000 C 
BRANCH  14  15
ATOM     15  C   UNL     1      -5.821   3.589  53.286  1.00  0.00     0.000 C 
BRANCH  15  16
ATOM     16  C   UNL     1      -6.977   3.746  52.287  1.00  0.00     0.006 C 
BRANCH  16  17
ATOM     17  C   UNL     1      -8.353   3.571  52.942  1.00  0.00     0.053 C 
BRANCH  17  18
ATOM     18  C   UNL     1      -9.073   4.881  53.005  1.00  0.00     0.041 C 
ATOM     19  O   UNL     1     -10.130   4.992  53.679  1.00  0.00    -0.550 OA
ATOM     20  O   UNL     1      -8.550   5.993  52.356  1.00  0.00    -0.550 OA
ENDBRANCH  17  18
ENDBRANCH  16  17
ENDBRANCH  15  16
ENDBRANCH  14  15
ENDBRANCH  13  14
ENDBRANCH  12  13
ENDBRANCH  11  12
ENDBRANCH   1  11
TORSDOF 15
ENDMDL
MODEL 9
REMARK VINA RESULT:    -3.918      1.500      7.557
REMARK INTER + INTRA:          -9.209
REMARK INTER:                  -7.043
REMARK INTRA:                  -2.166
REMARK UNBOUND:                -1.855
REMARK SMILES O=C([O-])CCCCCCCCCCCCCCC(=O)[O-]
REMARK SMILES IDX 10 1 9 2 8 3 7 4 6 5 5 6 4 7 2 8 1 9 3 10 11 11 12 12 13 13
REMARK SMILES IDX 14 14 15 15 16 16 17 17 18 18 19 19 20 20
REMARK H PARENT
REMARK Flexibility Score: inf
ROOT
ATOM      1  C   UNL     1      -7.920   5.964  56.512  1.00  0.00     0.000 C 
ENDROOT
BRANCH   1   2
ATOM      2  C   UNL     1      -8.945   4.868  56.176  1.00  0.00     0.000 C 
BRANCH   2   3
ATOM      3  C   UNL     1      -9.784   4.450  57.395  1.00  0.00     0.000 C 
BRANCH   3   4
ATOM      4  C   UNL     1      -8.930   4.216  58.653  1.00  0.00     0.000 C 
BRANCH   4   5
ATOM      5  C   UNL     1      -8.185   2.864  58.653  1.00  0.00     0.000 C 
BRANCH   5   6
ATOM      6  C   UNL     1      -6.805   2.961  59.320  1.00  0.00     0.006 C 
BRANCH   6   7
ATOM      7  C   UNL     1      -6.477   4.408  59.699  1.00  0.00     0.053 C 
BRANCH   7   8
ATOM      8  C   UNL     1      -5.148   4.808  59.142  1.00  0.00     0.041 C 
ATOM      9  O   UNL     1      -4.380   3.941  58.648  1.00  0.00    -0.550 OA
ATOM     10  O   UNL     1      -4.776   6.147  59.126  1.00  0.00    -0.550 OA
ENDBRANCH   7   8
ENDBRANCH   6   7
ENDBRANCH   5   6
ENDBRANCH   4   5
ENDBRANCH   3   4
ENDBRANCH   2   3
ENDBRANCH   1   2
BRANCH   1  11
ATOM     11  C   UNL     1      -6.544   5.700  55.875  1.00  0.00     0.000 C 
BRANCH  11  12
ATOM     12  C   UNL     1      -6.306   4.210  55.573  1.00  0.00     0.000 C 
BRANCH  12  13
ATOM     13  C   UNL     1      -5.939   3.893  54.110  1.00  0.00     0.000 C 
BRANCH  13  14
ATOM     14  C   UNL     1      -7.161   3.614  53.209  1.00  0.00     0.000 C 
BRANCH  14  15
ATOM     15  C   UNL     1      -6.931   4.073  51.758  1.00  0.00     0.000 C 
BRANCH  15  16
ATOM     16  C   UNL     1      -7.634   5.402  51.439  1.00  0.00     0.006 C 
BRANCH  16  17
ATOM     17  C   UNL     1      -8.726   5.752  52.457  1.00  0.00     0.053 C 
BRANCH  17  18
ATOM     18  C   UNL     1     -10.070   5.770  51.798  1.00  0.00     0.041 C 
ATOM     19  O   UNL     1     -10.179   6.108  50.590  1.00  0.00    -0.550 OA
ATOM     20  O   UNL     1     -11.196   5.369  52.505  1.00  0.00    -0.550 OA
ENDBRANCH  17  18
ENDBRANCH  16  17
ENDBRANCH  15  16
ENDBRANCH  14  15
ENDBRANCH  13  14
ENDBRANCH  12  13
ENDBRANCH  11  12
ENDBRANCH   1  11
TORSDOF 15
ENDMDL
