MODEL 1
REMARK VINA RESULT:    -5.196      0.000      0.000
REMARK INTER + INTRA:         -10.508
REMARK INTER:                  -9.448
REMARK INTRA:                  -1.060
REMARK UNBOUND:                -1.060
REMARK SMILES CCCCCC=CCC=CCCCCCCCC(=O)[O-]
REMARK SMILES IDX 11 1 12 2 13 3 14 4 15 5 16 6 17 7 18 8 19 9 20 10 10 11
REMARK SMILES IDX 9 12 8 13 7 14 6 15 5 16 4 17 3 18 2 19 1 20
REMARK H PARENT
REMARK Flexibility Score: inf
ROOT
ATOM      1  C   UNL     1      -3.615  -8.265   4.722  1.00  0.00     0.027 C 
ENDROOT
BRANCH   1   2
ATOM      2  C   UNL     1      -3.066  -8.182   6.153  1.00  0.00     0.004 C 
BRANCH   2   3
ATOM      3  C   UNL     1      -1.712  -8.896   6.301  1.00  0.00     0.000 C 
BRANCH   3   4
ATOM      4  C   UNL     1      -0.762  -8.170   7.266  1.00  0.00     0.000 C 
BRANCH   4   5
ATOM      5  C   UNL     1       0.126  -7.133   6.555  1.00  0.00     0.000 C 
BRANCH   5   6
ATOM      6  C   UNL     1       1.306  -6.669   7.432  1.00  0.00     0.006 C 
BRANCH   6   7
ATOM      7  C   UNL     1       1.347  -5.149   7.653  1.00  0.00     0.053 C 
BRANCH   7   8
ATOM      8  C   UNL     1       2.740  -4.604   7.596  1.00  0.00     0.041 C 
ATOM      9  O   UNL     1       3.607  -5.151   6.864  1.00  0.00    -0.550 OA
ATOM     10  O   UNL     1       3.076  -3.477   8.335  1.00  0.00    -0.550 OA
ENDBRANCH   7   8
ENDBRANCH   6   7
ENDBRANCH   5   6
ENDBRANCH   4   5
ENDBRANCH   3   4
ENDBRANCH   2   3
ENDBRANCH   1   2
BRANCH   1  11
ATOM     11  C   UNL     1      -2.597  -8.848   3.770  1.00  0.00    -0.031 C 
ATOM     12  C   UNL     1      -2.504  -8.574   2.454  1.00  0.00    -0.027 C 
BRANCH  12  13
ATOM     13  C   UNL     1      -3.443  -7.691   1.672  1.00  0.00     0.054 C 
BRANCH  13  14
ATOM     14  C   UNL     1      -2.679  -6.844   0.697  1.00  0.00    -0.027 C 
ATOM     15  C   UNL     1      -1.355  -6.656   0.811  1.00  0.00    -0.031 C 
BRANCH  15  16
ATOM     16  C   UNL     1      -0.592  -5.814  -0.175  1.00  0.00     0.027 C 
BRANCH  16  17
ATOM     17  C   UNL     1      -0.988  -4.335  -0.061  1.00  0.00     0.004 C 
BRANCH  17  18
ATOM     18  C   UNL     1      -0.601  -3.715   1.291  1.00  0.00     0.000 C 
BRANCH  18  19
ATOM     19  C   UNL     1      -0.512  -2.175   1.262  1.00  0.00    -0.003 C 
ATOM     20  C   UNL     1       0.487  -1.629   2.282  1.00  0.00     0.004 C 
ENDBRANCH  18  19
ENDBRANCH  17  18
ENDBRANCH  16  17
ENDBRANCH  15  16
ENDBRANCH  13  14
ENDBRANCH  12  13
ENDBRANCH   1  11
TORSDOF 14
ENDMDL
MODEL 2
REMARK VINA RESULT:    -5.161      2.165      4.115
REMARK INTER + INTRA:         -10.444
REMARK INTER:                  -9.326
REMARK INTRA:                  -1.118
REMARK UNBOUND:                -1.060
REMARK SMILES CCCCCC=CCC=CCCCCCCCC(=O)[O-]
REMARK SMILES IDX 11 1 12 2 13 3 14 4 15 5 16 6 17 7 18 8 19 9 20 10 10 11
REMARK SMILES IDX 9 12 8 13 7 14 6 15 5 16 4 17 3 18 2 19 1 20
REMARK H PARENT
REMARK Flexibility Score: inf
ROOT
ATOM      1  C   UNL     1      -1.808  -7.750   1.755  1.00  0.00     0.027 C 
ENDROOT
BRANCH   1   2
ATOM      2  C   UNL     1      -2.474  -9.109   2.010  1.00  0.00     0.004 C 
BRANCH   2   3
ATOM      3  C   UNL     1      -2.752  -9.351   3.503  1.00  0.00     0.000 C 
BRANCH   3   4
ATOM      4  C   UNL     1      -3.965  -8.561   4.016  1.00  0.00     0.000 C 
BRANCH   4   5
ATOM      5  C   UNL     1      -4.002  -8.463   5.552  1.00  0.00     0.000 C 
BRANCH   5   6
ATOM      6  C   UNL     1      -2.683  -8.928   6.203  1.00  0.00     0.006 C 
BRANCH   6   7
ATOM      7  C   UNL     1      -1.947  -7.814   6.964  1.00  0.00     0.053 C 
BRANCH   7   8
ATOM      8  C   UNL     1      -0.472  -7.832   6.710  1.00  0.00     0.041 C 
ATOM      9  O   UNL     1       0.338  -7.840   7.675  1.00  0.00    -0.550 OA
ATOM     10  O   UNL     1       0.009  -7.862   5.408  1.00  0.00    -0.550 OA
ENDBRANCH   7   8
ENDBRANCH   6   7
ENDBRANCH   5   6
ENDBRANCH   4   5
ENDBRANCH   3   4
ENDBRANCH   2   3
ENDBRANCH   1   2
BRANCH   1  11
ATOM     11  C   UNL     1      -2.722  -6.816   0.997  1.00  0.00    -0.031 C 
ATOM     12  C   UNL     1      -2.329  -5.855   0.140  1.00  0.00    -0.027 C 
BRANCH  12  13
ATOM     13  C   UNL     1      -0.900  -5.482  -0.168  1.00  0.00     0.054 C 
BRANCH  13  14
ATOM     14  C   UNL     1      -0.652  -4.038   0.155  1.00  0.00    -0.027 C 
ATOM     15  C   UNL     1      -0.557  -3.603   1.421  1.00  0.00    -0.031 C 
BRANCH  15  16
ATOM     16  C   UNL     1      -0.299  -2.155   1.738  1.00  0.00     0.027 C 
BRANCH  16  17
ATOM     17  C   UNL     1      -0.290  -1.303   0.461  1.00  0.00     0.004 C 
BRANCH  17  18
ATOM     18  C   UNL     1       0.116   0.157   0.720  1.00  0.00     0.000 C 
BRANCH  18  19
ATOM     19  C   UNL     1      -0.129   1.089  -0.485  1.00  0.00    -0.003 C 
ATOM     20  C   UNL     1      -0.412   0.316  -1.772  1.00  0.00     0.004 C 
ENDBRANCH  18  19
ENDBRANCH  17  18
ENDBRANCH  16  17
ENDBRANCH  15  16
ENDBRANCH  13  14
ENDBRANCH  12  13
ENDBRANCH   1  11
TORSDOF 14
ENDMDL
MODEL 3
REMARK VINA RESULT:    -5.063      4.208      5.423
REMARK INTER + INTRA:         -10.267
REMARK INTER:                  -9.280
REMARK INTRA:                  -0.987
REMARK UNBOUND:                -1.060
REMARK SMILES CCCCCC=CCC=CCCCCCCCC(=O)[O-]
REMARK SMILES IDX 11 1 12 2 13 3 14 4 15 5 16 6 17 7 18 8 19 9 20 10 10 11
REMARK SMILES IDX 9 12 8 13 7 14 6 15 5 16 4 17 3 18 2 19 1 20
REMARK H PARENT
REMARK Flexibility Score: inf
ROOT
ATOM      1  C   UNL     1      -1.806  -7.442   1.619  1.00  0.00     0.027 C 
ENDROOT
BRANCH   1   2
ATOM      2  C   UNL     1      -2.405  -8.854   1.618  1.00  0.00     0.004 C 
BRANCH   2   3
ATOM      3  C   UNL     1      -2.827  -9.311   3.024  1.00  0.00     0.000 C 
BRANCH   3   4
ATOM      4  C   UNL     1      -2.053  -8.591   4.139  1.00  0.00     0.000 C 
BRANCH   4   5
ATOM      5  C   UNL     1      -2.599  -8.912   5.542  1.00  0.00     0.000 C 
BRANCH   5   6
ATOM      6  C   UNL     1      -3.548  -7.816   6.068  1.00  0.00     0.006 C 
BRANCH   6   7
ATOM      7  C   UNL     1      -4.305  -8.219   7.343  1.00  0.00     0.053 C 
BRANCH   7   8
ATOM      8  C   UNL     1      -5.789  -8.196   7.154  1.00  0.00     0.041 C 
ATOM      9  O   UNL     1      -6.317  -8.821   6.196  1.00  0.00    -0.550 OA
ATOM     10  O   UNL     1      -6.594  -7.502   8.049  1.00  0.00    -0.550 OA
ENDBRANCH   7   8
ENDBRANCH   6   7
ENDBRANCH   5   6
ENDBRANCH   4   5
ENDBRANCH   3   4
ENDBRANCH   2   3
ENDBRANCH   1   2
BRANCH   1  11
ATOM     11  C   UNL     1      -2.674  -6.470   0.853  1.00  0.00    -0.031 C 
ATOM     12  C   UNL     1      -2.247  -5.608  -0.089  1.00  0.00    -0.027 C 
BRANCH  12  13
ATOM     13  C   UNL     1      -0.812  -5.401  -0.505  1.00  0.00     0.054 C 
BRANCH  13  14
ATOM     14  C   UNL     1      -0.299  -4.089   0.012  1.00  0.00    -0.027 C 
ATOM     15  C   UNL     1      -0.493  -3.706   1.283  1.00  0.00    -0.031 C 
BRANCH  15  16
ATOM     16  C   UNL     1       0.032  -2.394   1.799  1.00  0.00     0.027 C 
BRANCH  16  17
ATOM     17  C   UNL     1      -0.745  -1.214   1.198  1.00  0.00     0.004 C 
BRANCH  17  18
ATOM     18  C   UNL     1       0.148   0.003   0.907  1.00  0.00     0.000 C 
BRANCH  18  19
ATOM     19  C   UNL     1      -0.313   0.829  -0.312  1.00  0.00    -0.003 C 
ATOM     20  C   UNL     1      -0.437  -0.018  -1.578  1.00  0.00     0.004 C 
ENDBRANCH  18  19
ENDBRANCH  17  18
ENDBRANCH  16  17
ENDBRANCH  15  16
ENDBRANCH  13  14
ENDBRANCH  12  13
ENDBRANCH   1  11
TORSDOF 14
ENDMDL
MODEL 4
REMARK VINA RESULT:    -5.036      3.273      6.648
REMARK INTER + INTRA:         -10.218
REMARK INTER:                  -9.097
REMARK INTRA:                  -1.121
REMARK UNBOUND:                -1.060
REMARK SMILES CCCCCC=CCC=CCCCCCCCC(=O)[O-]
REMARK SMILES IDX 11 1 12 2 13 3 14 4 15 5 16 6 17 7 18 8 19 9 20 10 10 11
REMARK SMILES IDX 9 12 8 13 7 14 6 15 5 16 4 17 3 18 2 19 1 20
REMARK H PARENT
REMARK Flexibility Score: inf
ROOT
ATOM      1  C   UNL     1      -4.081  -9.037   4.898  1.00  0.00     0.027 C 
ENDROOT
BRANCH   1   2
ATOM      2  C   UNL     1      -3.864  -8.543   3.461  1.00  0.00     0.004 C 
BRANCH   2   3
ATOM      3  C   UNL     1      -2.375  -8.351   3.128  1.00  0.00     0.000 C 
BRANCH   3   4
ATOM      4  C   UNL     1      -2.134  -8.057   1.639  1.00  0.00     0.000 C 
BRANCH   4   5
ATOM      5  C   UNL     1      -3.273  -7.240   1.004  1.00  0.00     0.000 C 
BRANCH   5   6
ATOM      6  C   UNL     1      -2.750  -6.124   0.077  1.00  0.00     0.006 C 
BRANCH   6   7
ATOM      7  C   UNL     1      -1.428  -5.499   0.553  1.00  0.00     0.053 C 
BRANCH   7   8
ATOM      8  C   UNL     1      -0.512  -5.175  -0.586  1.00  0.00     0.041 C 
ATOM      9  O   UNL     1       0.531  -5.856  -0.775  1.00  0.00    -0.550 OA
ATOM     10  O   UNL     1      -0.820  -4.134  -1.452  1.00  0.00    -0.550 OA
ENDBRANCH   7   8
ENDBRANCH   6   7
ENDBRANCH   5   6
ENDBRANCH   4   5
ENDBRANCH   3   4
ENDBRANCH   2   3
ENDBRANCH   1   2
BRANCH   1  11
ATOM     11  C   UNL     1      -4.173  -7.886   5.873  1.00  0.00    -0.031 C 
ATOM     12  C   UNL     1      -3.298  -7.620   6.861  1.00  0.00    -0.027 C 
BRANCH  12  13
ATOM     13  C   UNL     1      -2.101  -8.462   7.225  1.00  0.00     0.054 C 
BRANCH  13  14
ATOM     14  C   UNL     1      -0.875  -7.967   6.514  1.00  0.00    -0.027 C 
ATOM     15  C   UNL     1       0.026  -7.181   7.123  1.00  0.00    -0.031 C 
BRANCH  15  16
ATOM     16  C   UNL     1       1.258  -6.696   6.409  1.00  0.00     0.027 C 
BRANCH  16  17
ATOM     17  C   UNL     1       2.176  -5.916   7.361  1.00  0.00     0.004 C 
BRANCH  17  18
ATOM     18  C   UNL     1       1.612  -4.537   7.739  1.00  0.00     0.000 C 
BRANCH  18  19
ATOM     19  C   UNL     1       2.652  -3.600   8.388  1.00  0.00    -0.003 C 
ATOM     20  C   UNL     1       2.881  -2.329   7.572  1.00  0.00     0.004 C 
ENDBRANCH  18  19
ENDBRANCH  17  18
ENDBRANCH  16  17
ENDBRANCH  15  16
ENDBRANCH  13  14
ENDBRANCH  12  13
ENDBRANCH   1  11
TORSDOF 14
ENDMDL
MODEL 5
REMARK VINA RESULT:    -5.026      0.984      1.868
REMARK INTER + INTRA:         -10.200
REMARK INTER:                  -9.097
REMARK INTRA:                  -1.103
REMARK UNBOUND:                -1.060
REMARK SMILES CCCCCC=CCC=CCCCCCCCC(=O)[O-]
REMARK SMILES IDX 11 1 12 2 13 3 14 4 15 5 16 6 17 7 18 8 19 9 20 10 10 11
REMARK SMILES IDX 9 12 8 13 7 14 6 15 5 16 4 17 3 18 2 19 1 20
REMARK H PARENT
REMARK Flexibility Score: inf
ROOT
ATOM      1  C   UNL     1      -3.597  -7.540   6.378  1.00  0.00     0.027 C 
ENDROOT
BRANCH   1   2
ATOM      2  C   UNL     1      -3.385  -8.435   7.606  1.00  0.00     0.004 C 
BRANCH   2   3
ATOM      3  C   UNL     1      -2.078  -9.241   7.522  1.00  0.00     0.000 C 
BRANCH   3   4
ATOM      4  C   UNL     1      -0.830  -8.372   7.737  1.00  0.00     0.000 C 
BRANCH   4   5
ATOM      5  C   UNL     1      -0.296  -7.767   6.426  1.00  0.00     0.000 C 
BRANCH   5   6
ATOM      6  C   UNL     1       0.548  -6.498   6.665  1.00  0.00     0.006 C 
BRANCH   6   7
ATOM      7  C   UNL     1       1.648  -6.682   7.722  1.00  0.00     0.053 C 
BRANCH   7   8
ATOM      8  C   UNL     1       2.840  -5.817   7.457  1.00  0.00     0.041 C 
ATOM      9  O   UNL     1       3.872  -6.304   6.923  1.00  0.00    -0.550 OA
ATOM     10  O   UNL     1       2.804  -4.466   7.780  1.00  0.00    -0.550 OA
ENDBRANCH   7   8
ENDBRANCH   6   7
ENDBRANCH   5   6
ENDBRANCH   4   5
ENDBRANCH   3   4
ENDBRANCH   2   3
ENDBRANCH   1   2
BRANCH   1  11
ATOM     11  C   UNL     1      -4.324  -8.274   5.275  1.00  0.00    -0.031 C 
ATOM     12  C   UNL     1      -3.750  -8.847   4.200  1.00  0.00    -0.027 C 
BRANCH  12  13
ATOM     13  C   UNL     1      -2.282  -8.802   3.860  1.00  0.00     0.054 C 
BRANCH  13  14
ATOM     14  C   UNL     1      -2.087  -8.418   2.422  1.00  0.00    -0.027 C 
ATOM     15  C   UNL     1      -3.048  -7.797   1.720  1.00  0.00    -0.031 C 
BRANCH  15  16
ATOM     16  C   UNL     1      -2.844  -7.406   0.282  1.00  0.00     0.027 C 
BRANCH  16  17
ATOM     17  C   UNL     1      -1.569  -6.567   0.114  1.00  0.00     0.004 C 
BRANCH  17  18
ATOM     18  C   UNL     1      -1.645  -5.213   0.837  1.00  0.00     0.000 C 
BRANCH  18  19
ATOM     19  C   UNL     1      -0.536  -4.226   0.418  1.00  0.00    -0.003 C 
ATOM     20  C   UNL     1      -0.449  -3.017   1.349  1.00  0.00     0.004 C 
ENDBRANCH  18  19
ENDBRANCH  17  18
ENDBRANCH  16  17
ENDBRANCH  15  16
ENDBRANCH  13  14
ENDBRANCH  12  13
ENDBRANCH   1  11
TORSDOF 14
ENDMDL
MODEL 6
REMARK VINA RESULT:    -4.892      5.537      9.041
REMARK INTER + INTRA:          -9.956
REMARK INTER:                  -7.918
REMARK INTRA:                  -2.038
REMARK UNBOUND:                -1.060
REMARK SMILES CCCCCC=CCC=CCCCCCCCC(=O)[O-]
REMARK SMILES IDX 11 1 12 2 13 3 14 4 15 5 16 6 17 7 18 8 19 9 20 10 10 11
REMARK SMILES IDX 9 12 8 13 7 14 6 15 5 16 4 17 3 18 2 19 1 20
REMARK H PARENT
REMARK Flexibility Score: inf
ROOT
ATOM      1  C   UNL     1      -1.693  -5.278   0.616  1.00  0.00     0.027 C 
ENDROOT
BRANCH   1   2
ATOM      2  C   UNL     1      -0.635  -4.738  -0.355  1.00  0.00     0.004 C 
BRANCH   2   3
ATOM      3  C   UNL     1      -0.059  -5.838  -1.263  1.00  0.00     0.000 C 
BRANCH   3   4
ATOM      4  C   UNL     1      -0.735  -5.884  -2.641  1.00  0.00     0.000 C 
BRANCH   4   5
ATOM      5  C   UNL     1      -1.849  -6.944  -2.719  1.00  0.00     0.000 C 
BRANCH   5   6
ATOM      6  C   UNL     1      -3.257  -6.325  -2.611  1.00  0.00     0.006 C 
BRANCH   6   7
ATOM      7  C   UNL     1      -3.392  -4.974  -3.333  1.00  0.00     0.053 C 
BRANCH   7   8
ATOM      8  C   UNL     1      -3.681  -5.137  -4.792  1.00  0.00     0.041 C 
ATOM      9  O   UNL     1      -3.197  -4.329  -5.629  1.00  0.00    -0.550 OA
ATOM     10  O   UNL     1      -4.469  -6.193  -5.232  1.00  0.00    -0.550 OA
ENDBRANCH   7   8
ENDBRANCH   6   7
ENDBRANCH   5   6
ENDBRANCH   4   5
ENDBRANCH   3   4
ENDBRANCH   2   3
ENDBRANCH   1   2
BRANCH   1  11
ATOM     11  C   UNL     1      -1.390  -6.699   1.033  1.00  0.00    -0.031 C 
ATOM     12  C   UNL     1      -2.290  -7.695   1.143  1.00  0.00    -0.027 C 
BRANCH  12  13
ATOM     13  C   UNL     1      -3.778  -7.560   0.942  1.00  0.00     0.054 C 
BRANCH  13  14
ATOM     14  C   UNL     1      -4.523  -8.240   2.054  1.00  0.00    -0.027 C 
ATOM     15  C   UNL     1      -5.753  -7.851   2.422  1.00  0.00    -0.031 C 
BRANCH  15  16
ATOM     16  C   UNL     1      -6.499  -8.542   3.530  1.00  0.00     0.027 C 
BRANCH  16  17
ATOM     17  C   UNL     1      -5.539  -9.326   4.436  1.00  0.00     0.004 C 
BRANCH  17  18
ATOM     18  C   UNL     1      -5.352  -8.673   5.815  1.00  0.00     0.000 C 
BRANCH  18  19
ATOM     19  C   UNL     1      -4.073  -7.817   5.925  1.00  0.00    -0.003 C 
ATOM     20  C   UNL     1      -2.849  -8.519   5.338  1.00  0.00     0.004 C 
ENDBRANCH  18  19
ENDBRANCH  17  18
ENDBRANCH  16  17
ENDBRANCH  15  16
ENDBRANCH  13  14
ENDBRANCH  12  13
ENDBRANCH   1  11
TORSDOF 14
ENDMDL
MODEL 7
REMARK VINA RESULT:    -4.890      5.485      9.225
REMARK INTER + INTRA:          -9.952
REMARK INTER:                  -8.342
REMARK INTRA:                  -1.610
REMARK UNBOUND:                -1.060
REMARK SMILES CCCCCC=CCC=CCCCCCCCC(=O)[O-]
REMARK SMILES IDX 11 1 12 2 13 3 14 4 15 5 16 6 17 7 18 8 19 9 20 10 10 11
REMARK SMILES IDX 9 12 8 13 7 14 6 15 5 16 4 17 3 18 2 19 1 20
REMARK H PARENT
REMARK Flexibility Score: inf
ROOT
ATOM      1  C   UNL     1      -1.385  -4.963   0.697  1.00  0.00     0.027 C 
ENDROOT
BRANCH   1   2
ATOM      2  C   UNL     1      -0.647  -4.619  -0.603  1.00  0.00     0.004 C 
BRANCH   2   3
ATOM      3  C   UNL     1      -0.091  -5.868  -1.308  1.00  0.00     0.000 C 
BRANCH   3   4
ATOM      4  C   UNL     1      -0.610  -6.018  -2.746  1.00  0.00     0.000 C 
BRANCH   4   5
ATOM      5  C   UNL     1      -1.479  -7.274  -2.933  1.00  0.00     0.000 C 
BRANCH   5   6
ATOM      6  C   UNL     1      -2.986  -6.946  -2.973  1.00  0.00     0.006 C 
BRANCH   6   7
ATOM      7  C   UNL     1      -3.286  -5.484  -3.341  1.00  0.00     0.053 C 
BRANCH   7   8
ATOM      8  C   UNL     1      -3.692  -5.332  -4.774  1.00  0.00     0.041 C 
ATOM      9  O   UNL     1      -3.215  -4.399  -5.473  1.00  0.00    -0.550 OA
ATOM     10  O   UNL     1      -4.582  -6.233  -5.344  1.00  0.00    -0.550 OA
ENDBRANCH   7   8
ENDBRANCH   6   7
ENDBRANCH   5   6
ENDBRANCH   4   5
ENDBRANCH   3   4
ENDBRANCH   2   3
ENDBRANCH   1   2
BRANCH   1  11
ATOM     11  C   UNL     1      -2.584  -5.845   0.438  1.00  0.00    -0.031 C 
ATOM     12  C   UNL     1      -2.760  -7.094   0.913  1.00  0.00    -0.027 C 
BRANCH  12  13
ATOM     13  C   UNL     1      -1.760  -7.871   1.732  1.00  0.00     0.054 C 
BRANCH  13  14
ATOM     14  C   UNL     1      -2.443  -8.571   2.870  1.00  0.00    -0.027 C 
ATOM     15  C   UNL     1      -1.887  -8.646   4.089  1.00  0.00    -0.031 C 
BRANCH  15  16
ATOM     16  C   UNL     1      -2.580  -9.341   5.229  1.00  0.00     0.027 C 
BRANCH  16  17
ATOM     17  C   UNL     1      -3.985  -8.764   5.454  1.00  0.00     0.004 C 
BRANCH  17  18
ATOM     18  C   UNL     1      -3.993  -7.571   6.424  1.00  0.00     0.000 C 
BRANCH  18  19
ATOM     19  C   UNL     1      -4.892  -7.785   7.659  1.00  0.00    -0.003 C 
ATOM     20  C   UNL     1      -5.336  -9.239   7.812  1.00  0.00     0.004 C 
ENDBRANCH  18  19
ENDBRANCH  17  18
ENDBRANCH  16  17
ENDBRANCH  15  16
ENDBRANCH  13  14
ENDBRANCH  12  13
ENDBRANCH   1  11
TORSDOF 14
ENDMDL
MODEL 8
REMARK VINA RESULT:    -4.858      3.376      5.890
REMARK INTER + INTRA:          -9.893
REMARK INTER:                  -8.127
REMARK INTRA:                  -1.766
REMARK UNBOUND:                -1.060
REMARK SMILES CCCCCC=CCC=CCCCCCCCC(=O)[O-]
REMARK SMILES IDX 11 1 12 2 13 3 14 4 15 5 16 6 17 7 18 8 19 9 20 10 10 11
REMARK SMILES IDX 9 12 8 13 7 14 6 15 5 16 4 17 3 18 2 19 1 20
REMARK H PARENT
REMARK Flexibility Score: inf
ROOT
ATOM      1  C   UNL     1      -1.424  -5.249   0.736  1.00  0.00     0.027 C 
ENDROOT
BRANCH   1   2
ATOM      2  C   UNL     1      -2.769  -5.886   0.363  1.00  0.00     0.004 C 
BRANCH   2   3
ATOM      3  C   UNL     1      -2.822  -7.383   0.712  1.00  0.00     0.000 C 
BRANCH   3   4
ATOM      4  C   UNL     1      -1.837  -7.768   1.826  1.00  0.00     0.000 C 
BRANCH   4   5
ATOM      5  C   UNL     1      -2.319  -8.975   2.651  1.00  0.00     0.000 C 
BRANCH   5   6
ATOM      6  C   UNL     1      -2.784  -8.572   4.065  1.00  0.00     0.006 C 
BRANCH   6   7
ATOM      7  C   UNL     1      -2.235  -9.482   5.175  1.00  0.00     0.053 C 
BRANCH   7   8
ATOM      8  C   UNL     1      -1.057  -8.880   5.874  1.00  0.00     0.041 C 
ATOM      9  O   UNL     1      -0.806  -9.180   7.071  1.00  0.00    -0.550 OA
ATOM     10  O   UNL     1      -0.221  -8.002   5.195  1.00  0.00    -0.550 OA
ENDBRANCH   7   8
ENDBRANCH   6   7
ENDBRANCH   5   6
ENDBRANCH   4   5
ENDBRANCH   3   4
ENDBRANCH   2   3
ENDBRANCH   1   2
BRANCH   1  11
ATOM     11  C   UNL     1      -0.838  -4.471  -0.419  1.00  0.00    -0.031 C 
ATOM     12  C   UNL     1      -0.236  -5.001  -1.500  1.00  0.00    -0.027 C 
BRANCH  12  13
ATOM     13  C   UNL     1       0.030  -6.469  -1.726  1.00  0.00     0.054 C 
BRANCH  13  14
ATOM     14  C   UNL     1      -1.053  -7.076  -2.569  1.00  0.00    -0.027 C 
ATOM     15  C   UNL     1      -0.992  -7.069  -3.910  1.00  0.00    -0.031 C 
BRANCH  15  16
ATOM     16  C   UNL     1      -2.076  -7.688  -4.750  1.00  0.00     0.027 C 
BRANCH  16  17
ATOM     17  C   UNL     1      -3.465  -7.226  -4.286  1.00  0.00     0.004 C 
BRANCH  17  18
ATOM     18  C   UNL     1      -3.984  -6.011  -5.071  1.00  0.00     0.000 C 
BRANCH  18  19
ATOM     19  C   UNL     1      -3.385  -4.669  -4.600  1.00  0.00    -0.003 C 
ATOM     20  C   UNL     1      -3.568  -4.443  -3.100  1.00  0.00     0.004 C 
ENDBRANCH  18  19
ENDBRANCH  17  18
ENDBRANCH  16  17
ENDBRANCH  15  16
ENDBRANCH  13  14
ENDBRANCH  12  13
ENDBRANCH   1  11
TORSDOF 14
ENDMDL
MODEL 9
REMARK VINA RESULT:    -4.758      5.632      9.218
REMARK INTER + INTRA:          -9.712
REMARK INTER:                  -7.199
REMARK INTRA:                  -2.513
REMARK UNBOUND:                -1.060
REMARK SMILES CCCCCC=CCC=CCCCCCCCC(=O)[O-]
REMARK SMILES IDX 11 1 12 2 13 3 14 4 15 5 16 6 17 7 18 8 19 9 20 10 10 11
REMARK SMILES IDX 9 12 8 13 7 14 6 15 5 16 4 17 3 18 2 19 1 20
REMARK H PARENT
REMARK Flexibility Score: inf
ROOT
ATOM      1  C   UNL     1      -2.971  -4.492  -2.622  1.00  0.00     0.027 C 
ENDROOT
BRANCH   1   2
ATOM      2  C   UNL     1      -3.563  -5.649  -3.438  1.00  0.00     0.004 C 
BRANCH   2   3
ATOM      3  C   UNL     1      -3.619  -6.960  -2.635  1.00  0.00     0.000 C 
BRANCH   3   4
ATOM      4  C   UNL     1      -2.805  -8.089  -3.285  1.00  0.00     0.000 C 
BRANCH   4   5
ATOM      5  C   UNL     1      -1.379  -8.194  -2.716  1.00  0.00     0.000 C 
BRANCH   5   6
ATOM      6  C   UNL     1      -0.311  -7.694  -3.710  1.00  0.00     0.006 C 
BRANCH   6   7
ATOM      7  C   UNL     1      -0.803  -7.640  -5.165  1.00  0.00     0.053 C 
BRANCH   7   8
ATOM      8  C   UNL     1      -0.308  -6.426  -5.888  1.00  0.00     0.041 C 
ATOM      9  O   UNL     1       0.872  -6.384  -6.326  1.00  0.00    -0.550 OA
ATOM     10  O   UNL     1      -1.158  -5.347  -6.097  1.00  0.00    -0.550 OA
ENDBRANCH   7   8
ENDBRANCH   6   7
ENDBRANCH   5   6
ENDBRANCH   4   5
ENDBRANCH   3   4
ENDBRANCH   2   3
ENDBRANCH   1   2
BRANCH   1  11
ATOM     11  C   UNL     1      -1.468  -4.428  -2.757  1.00  0.00    -0.031 C 
ATOM     12  C   UNL     1      -0.584  -4.468  -1.742  1.00  0.00    -0.027 C 
BRANCH  12  13
ATOM     13  C   UNL     1      -0.933  -4.511  -0.275  1.00  0.00     0.054 C 
BRANCH  13  14
ATOM     14  C   UNL     1      -1.096  -5.930   0.185  1.00  0.00    -0.027 C 
ATOM     15  C   UNL     1      -2.256  -6.382   0.687  1.00  0.00    -0.031 C 
BRANCH  15  16
ATOM     16  C   UNL     1      -2.416  -7.808   1.138  1.00  0.00     0.027 C 
BRANCH  16  17
ATOM     17  C   UNL     1      -1.697  -8.049   2.473  1.00  0.00     0.004 C 
BRANCH  17  18
ATOM     18  C   UNL     1      -2.307  -9.207   3.279  1.00  0.00     0.000 C 
BRANCH  18  19
ATOM     19  C   UNL     1      -3.838  -9.108   3.441  1.00  0.00    -0.003 C 
ATOM     20  C   UNL     1      -4.242  -8.325   4.690  1.00  0.00     0.004 C 
ENDBRANCH  18  19
ENDBRANCH  17  18
ENDBRANCH  16  17
ENDBRANCH  15  16
ENDBRANCH  13  14
ENDBRANCH  12  13
ENDBRANCH   1  11
TORSDOF 14
ENDMDL
