MODEL 1
REMARK VINA RESULT:    -5.189      0.000      0.000
REMARK INTER + INTRA:         -11.197
REMARK INTER:                  -9.740
REMARK INTRA:                  -1.458
REMARK UNBOUND:                -1.458
REMARK SMILES O=C([O-])CCCCCCCCCCCCCCC(=O)[O-]
REMARK SMILES IDX 10 1 9 2 8 3 7 4 6 5 5 6 4 7 2 8 1 9 3 10 11 11 12 12 13 13
REMARK SMILES IDX 14 14 15 15 16 16 17 17 18 18 19 19 20 20
REMARK H PARENT
REMARK Flexibility Score: inf
ROOT
ATOM      1  C   UNL     1      48.361  -7.946  23.173  1.00  0.00     0.000 C 
ENDROOT
BRANCH   1   2
ATOM      2  C   UNL     1      46.954  -7.795  22.571  1.00  0.00     0.000 C 
BRANCH   2   3
ATOM      3  C   UNL     1      46.014  -6.975  23.471  1.00  0.00     0.000 C 
BRANCH   3   4
ATOM      4  C   UNL     1      45.271  -7.840  24.507  1.00  0.00     0.000 C 
BRANCH   4   5
ATOM      5  C   UNL     1      45.890  -7.850  25.917  1.00  0.00     0.000 C 
BRANCH   5   6
ATOM      6  C   UNL     1      45.150  -6.932  26.905  1.00  0.00     0.006 C 
BRANCH   6   7
ATOM      7  C   UNL     1      44.212  -5.950  26.192  1.00  0.00     0.053 C 
BRANCH   7   8
ATOM      8  C   UNL     1      43.080  -5.519  27.074  1.00  0.00     0.041 C 
ATOM      9  O   UNL     1      43.212  -5.531  28.326  1.00  0.00    -0.550 OA
ATOM     10  O   UNL     1      41.868  -5.131  26.514  1.00  0.00    -0.550 OA
ENDBRANCH   7   8
ENDBRANCH   6   7
ENDBRANCH   5   6
ENDBRANCH   4   5
ENDBRANCH   3   4
ENDBRANCH   2   3
ENDBRANCH   1   2
BRANCH   1  11
ATOM     11  C   UNL     1      48.918  -6.619  23.720  1.00  0.00     0.000 C 
BRANCH  11  12
ATOM     12  C   UNL     1      49.295  -6.707  25.207  1.00  0.00     0.000 C 
BRANCH  12  13
ATOM     13  C   UNL     1      50.057  -5.468  25.699  1.00  0.00     0.000 C 
BRANCH  13  14
ATOM     14  C   UNL     1      49.208  -4.658  26.690  1.00  0.00     0.000 C 
BRANCH  14  15
ATOM     15  C   UNL     1      47.775  -4.404  26.185  1.00  0.00     0.000 C 
BRANCH  15  16
ATOM     16  C   UNL     1      47.126  -3.105  26.699  1.00  0.00     0.006 C 
BRANCH  16  17
ATOM     17  C   UNL     1      45.871  -3.357  27.543  1.00  0.00     0.053 C 
BRANCH  17  18
ATOM     18  C   UNL     1      45.399  -2.084  28.170  1.00  0.00     0.041 C 
ATOM     19  O   UNL     1      44.439  -2.096  28.984  1.00  0.00    -0.550 OA
ATOM     20  O   UNL     1      45.989  -0.876  27.819  1.00  0.00    -0.550 OA
ENDBRANCH  17  18
ENDBRANCH  16  17
ENDBRANCH  15  16
ENDBRANCH  14  15
ENDBRANCH  13  14
ENDBRANCH  12  13
ENDBRANCH  11  12
ENDBRANCH   1  11
TORSDOF 15
ENDMDL
MODEL 2
REMARK VINA RESULT:    -5.126      3.762      7.210
REMARK INTER + INTRA:         -11.078
REMARK INTER:                 -10.289
REMARK INTRA:                  -0.789
REMARK UNBOUND:                -1.458
REMARK SMILES O=C([O-])CCCCCCCCCCCCCCC(=O)[O-]
REMARK SMILES IDX 10 1 9 2 8 3 7 4 6 5 5 6 4 7 2 8 1 9 3 10 11 11 12 12 13 13
REMARK SMILES IDX 14 14 15 15 16 16 17 17 18 18 19 19 20 20
REMARK H PARENT
REMARK Flexibility Score: inf
ROOT
ATOM      1  C   UNL     1      45.594  -5.622  27.481  1.00  0.00     0.000 C 
ENDROOT
BRANCH   1   2
ATOM      2  C   UNL     1      45.639  -5.965  25.983  1.00  0.00     0.000 C 
BRANCH   2   3
ATOM      3  C   UNL     1      45.700  -7.481  25.728  1.00  0.00     0.000 C 
BRANCH   3   4
ATOM      4  C   UNL     1      45.294  -7.863  24.292  1.00  0.00     0.000 C 
BRANCH   4   5
ATOM      5  C   UNL     1      46.056  -7.124  23.177  1.00  0.00     0.000 C 
BRANCH   5   6
ATOM      6  C   UNL     1      47.131  -7.994  22.505  1.00  0.00     0.006 C 
BRANCH   6   7
ATOM      7  C   UNL     1      48.522  -7.349  22.567  1.00  0.00     0.053 C 
BRANCH   7   8
ATOM      8  C   UNL     1      48.879  -6.926  23.960  1.00  0.00     0.041 C 
ATOM      9  O   UNL     1      49.124  -7.792  24.842  1.00  0.00    -0.550 OA
ATOM     10  O   UNL     1      48.911  -5.577  24.293  1.00  0.00    -0.550 OA
ENDBRANCH   7   8
ENDBRANCH   6   7
ENDBRANCH   5   6
ENDBRANCH   4   5
ENDBRANCH   3   4
ENDBRANCH   2   3
ENDBRANCH   1   2
BRANCH   1  11
ATOM     11  C   UNL     1      44.735  -4.379  27.780  1.00  0.00     0.000 C 
BRANCH  11  12
ATOM     12  C   UNL     1      43.286  -4.737  28.144  1.00  0.00     0.000 C 
BRANCH  12  13
ATOM     13  C   UNL     1      42.518  -5.359  26.968  1.00  0.00     0.000 C 
BRANCH  13  14
ATOM     14  C   UNL     1      41.137  -4.706  26.809  1.00  0.00     0.000 C 
BRANCH  14  15
ATOM     15  C   UNL     1      39.988  -5.732  26.768  1.00  0.00     0.000 C 
BRANCH  15  16
ATOM     16  C   UNL     1      38.762  -5.302  25.942  1.00  0.00     0.006 C 
BRANCH  16  17
ATOM     17  C   UNL     1      38.296  -6.381  24.957  1.00  0.00     0.053 C 
BRANCH  17  18
ATOM     18  C   UNL     1      36.951  -6.902  25.351  1.00  0.00     0.041 C 
ATOM     19  O   UNL     1      36.200  -7.434  24.492  1.00  0.00    -0.550 OA
ATOM     20  O   UNL     1      36.504  -6.755  26.659  1.00  0.00    -0.550 OA
ENDBRANCH  17  18
ENDBRANCH  16  17
ENDBRANCH  15  16
ENDBRANCH  14  15
ENDBRANCH  13  14
ENDBRANCH  12  13
ENDBRANCH  11  12
ENDBRANCH   1  11
TORSDOF 15
ENDMDL
MODEL 3
REMARK VINA RESULT:    -5.016      4.352      6.758
REMARK INTER + INTRA:         -10.871
REMARK INTER:                  -9.693
REMARK INTRA:                  -1.178
REMARK UNBOUND:                -1.458
REMARK SMILES O=C([O-])CCCCCCCCCCCCCCC(=O)[O-]
REMARK SMILES IDX 10 1 9 2 8 3 7 4 6 5 5 6 4 7 2 8 1 9 3 10 11 11 12 12 13 13
REMARK SMILES IDX 14 14 15 15 16 16 17 17 18 18 19 19 20 20
REMARK H PARENT
REMARK Flexibility Score: inf
ROOT
ATOM      1  C   UNL     1      41.496  -5.223  28.259  1.00  0.00     0.000 C 
ENDROOT
BRANCH   1   2
ATOM      2  C   UNL     1      41.374  -4.825  26.779  1.00  0.00     0.000 C 
BRANCH   2   3
ATOM      3  C   UNL     1      40.011  -4.192  26.450  1.00  0.00     0.000 C 
BRANCH   3   4
ATOM      4  C   UNL     1      38.834  -5.165  26.648  1.00  0.00     0.000 C 
BRANCH   4   5
ATOM      5  C   UNL     1      38.402  -5.936  25.387  1.00  0.00     0.000 C 
BRANCH   5   6
ATOM      6  C   UNL     1      38.427  -7.463  25.577  1.00  0.00     0.006 C 
BRANCH   6   7
ATOM      7  C   UNL     1      37.141  -7.986  26.230  1.00  0.00     0.053 C 
BRANCH   7   8
ATOM      8  C   UNL     1      35.917  -7.358  25.635  1.00  0.00     0.041 C 
ATOM      9  O   UNL     1      35.112  -6.721  26.364  1.00  0.00    -0.550 OA
ATOM     10  O   UNL     1      35.649  -7.503  24.279  1.00  0.00    -0.550 OA
ENDBRANCH   7   8
ENDBRANCH   6   7
ENDBRANCH   5   6
ENDBRANCH   4   5
ENDBRANCH   3   4
ENDBRANCH   2   3
ENDBRANCH   1   2
BRANCH   1  11
ATOM     11  C   UNL     1      42.937  -5.591  28.658  1.00  0.00     0.000 C 
BRANCH  11  12
ATOM     12  C   UNL     1      43.941  -4.473  28.336  1.00  0.00     0.000 C 
BRANCH  12  13
ATOM     13  C   UNL     1      45.218  -5.001  27.667  1.00  0.00     0.000 C 
BRANCH  13  14
ATOM     14  C   UNL     1      45.012  -6.428  27.138  1.00  0.00     0.000 C 
BRANCH  14  15
ATOM     15  C   UNL     1      44.805  -6.479  25.612  1.00  0.00     0.000 C 
BRANCH  15  16
ATOM     16  C   UNL     1      45.782  -7.397  24.855  1.00  0.00     0.006 C 
BRANCH  16  17
ATOM     17  C   UNL     1      47.214  -7.327  25.400  1.00  0.00     0.053 C 
BRANCH  17  18
ATOM     18  C   UNL     1      47.920  -6.124  24.861  1.00  0.00     0.041 C 
ATOM     19  O   UNL     1      48.120  -5.123  25.598  1.00  0.00    -0.550 OA
ATOM     20  O   UNL     1      48.314  -6.088  23.529  1.00  0.00    -0.550 OA
ENDBRANCH  17  18
ENDBRANCH  16  17
ENDBRANCH  15  16
ENDBRANCH  14  15
ENDBRANCH  13  14
ENDBRANCH  12  13
ENDBRANCH  11  12
ENDBRANCH   1  11
TORSDOF 15
ENDMDL
MODEL 4
REMARK VINA RESULT:    -4.968      3.227      7.033
REMARK INTER + INTRA:         -10.783
REMARK INTER:                  -9.108
REMARK INTRA:                  -1.675
REMARK UNBOUND:                -1.458
REMARK SMILES O=C([O-])CCCCCCCCCCCCCCC(=O)[O-]
REMARK SMILES IDX 10 1 9 2 8 3 7 4 6 5 5 6 4 7 2 8 1 9 3 10 11 11 12 12 13 13
REMARK SMILES IDX 14 14 15 15 16 16 17 17 18 18 19 19 20 20
REMARK H PARENT
REMARK Flexibility Score: inf
ROOT
ATOM      1  C   UNL     1      40.626  -4.520  28.716  1.00  0.00     0.000 C 
ENDROOT
BRANCH   1   2
ATOM      2  C   UNL     1      40.086  -3.085  28.818  1.00  0.00     0.000 C 
BRANCH   2   3
ATOM      3  C   UNL     1      40.772  -2.276  29.933  1.00  0.00     0.000 C 
BRANCH   3   4
ATOM      4  C   UNL     1      41.697  -3.135  30.814  1.00  0.00     0.000 C 
BRANCH   4   5
ATOM      5  C   UNL     1      43.160  -2.663  30.885  1.00  0.00     0.000 C 
BRANCH   5   6
ATOM      6  C   UNL     1      43.533  -1.687  29.756  1.00  0.00     0.006 C 
BRANCH   6   7
ATOM      7  C   UNL     1      44.373  -2.359  28.662  1.00  0.00     0.053 C 
BRANCH   7   8
ATOM      8  C   UNL     1      45.495  -1.480  28.200  1.00  0.00     0.041 C 
ATOM      9  O   UNL     1      46.404  -1.946  27.465  1.00  0.00    -0.550 OA
ATOM     10  O   UNL     1      45.552  -0.152  28.606  1.00  0.00    -0.550 OA
ENDBRANCH   7   8
ENDBRANCH   6   7
ENDBRANCH   5   6
ENDBRANCH   4   5
ENDBRANCH   3   4
ENDBRANCH   2   3
ENDBRANCH   1   2
BRANCH   1  11
ATOM     11  C   UNL     1      40.896  -4.951  27.262  1.00  0.00     0.000 C 
BRANCH  11  12
ATOM     12  C   UNL     1      42.393  -4.953  26.916  1.00  0.00     0.000 C 
BRANCH  12  13
ATOM     13  C   UNL     1      43.250  -5.618  28.004  1.00  0.00     0.000 C 
BRANCH  13  14
ATOM     14  C   UNL     1      44.534  -6.211  27.404  1.00  0.00     0.000 C 
BRANCH  14  15
ATOM     15  C   UNL     1      45.086  -5.383  26.229  1.00  0.00     0.000 C 
BRANCH  15  16
ATOM     16  C   UNL     1      46.608  -5.487  26.020  1.00  0.00     0.006 C 
BRANCH  16  17
ATOM     17  C   UNL     1      47.037  -6.820  25.395  1.00  0.00     0.053 C 
BRANCH  17  18
ATOM     18  C   UNL     1      48.061  -6.592  24.329  1.00  0.00     0.041 C 
ATOM     19  O   UNL     1      48.479  -5.429  24.091  1.00  0.00    -0.550 OA
ATOM     20  O   UNL     1      48.518  -7.659  23.564  1.00  0.00    -0.550 OA
ENDBRANCH  17  18
ENDBRANCH  16  17
ENDBRANCH  15  16
ENDBRANCH  14  15
ENDBRANCH  13  14
ENDBRANCH  12  13
ENDBRANCH  11  12
ENDBRANCH   1  11
TORSDOF 15
ENDMDL
MODEL 5
REMARK VINA RESULT:    -4.965      3.113      5.989
REMARK INTER + INTRA:         -10.777
REMARK INTER:                  -9.301
REMARK INTRA:                  -1.476
REMARK UNBOUND:                -1.458
REMARK SMILES O=C([O-])CCCCCCCCCCCCCCC(=O)[O-]
REMARK SMILES IDX 10 1 9 2 8 3 7 4 6 5 5 6 4 7 2 8 1 9 3 10 11 11 12 12 13 13
REMARK SMILES IDX 14 14 15 15 16 16 17 17 18 18 19 19 20 20
REMARK H PARENT
REMARK Flexibility Score: inf
ROOT
ATOM      1  C   UNL     1      43.107  -5.192  26.552  1.00  0.00     0.000 C 
ENDROOT
BRANCH   1   2
ATOM      2  C   UNL     1      43.849  -5.718  27.792  1.00  0.00     0.000 C 
BRANCH   2   3
ATOM      3  C   UNL     1      45.327  -6.034  27.505  1.00  0.00     0.000 C 
BRANCH   3   4
ATOM      4  C   UNL     1      45.637  -6.130  26.000  1.00  0.00     0.000 C 
BRANCH   4   5
ATOM      5  C   UNL     1      46.342  -7.425  25.557  1.00  0.00     0.000 C 
BRANCH   5   6
ATOM      6  C   UNL     1      47.832  -7.219  25.233  1.00  0.00     0.006 C 
BRANCH   6   7
ATOM      7  C   UNL     1      48.039  -6.461  23.916  1.00  0.00     0.053 C 
BRANCH   7   8
ATOM      8  C   UNL     1      47.798  -7.337  22.724  1.00  0.00     0.041 C 
ATOM      9  O   UNL     1      48.724  -8.062  22.273  1.00  0.00    -0.550 OA
ATOM     10  O   UNL     1      46.560  -7.331  22.093  1.00  0.00    -0.550 OA
ENDBRANCH   7   8
ENDBRANCH   6   7
ENDBRANCH   5   6
ENDBRANCH   4   5
ENDBRANCH   3   4
ENDBRANCH   2   3
ENDBRANCH   1   2
BRANCH   1  11
ATOM     11  C   UNL     1      41.626  -4.879  26.834  1.00  0.00     0.000 C 
BRANCH  11  12
ATOM     12  C   UNL     1      41.120  -5.542  28.125  1.00  0.00     0.000 C 
BRANCH  12  13
ATOM     13  C   UNL     1      40.442  -4.544  29.075  1.00  0.00     0.000 C 
BRANCH  13  14
ATOM     14  C   UNL     1      41.320  -3.302  29.284  1.00  0.00     0.000 C 
BRANCH  14  15
ATOM     15  C   UNL     1      42.380  -3.493  30.386  1.00  0.00     0.000 C 
BRANCH  15  16
ATOM     16  C   UNL     1      43.530  -2.469  30.366  1.00  0.00     0.006 C 
BRANCH  16  17
ATOM     17  C   UNL     1      43.543  -1.608  29.097  1.00  0.00     0.053 C 
BRANCH  17  18
ATOM     18  C   UNL     1      44.928  -1.521  28.539  1.00  0.00     0.041 C 
ATOM     19  O   UNL     1      45.524  -0.413  28.493  1.00  0.00    -0.550 OA
ATOM     20  O   UNL     1      45.543  -2.656  28.025  1.00  0.00    -0.550 OA
ENDBRANCH  17  18
ENDBRANCH  16  17
ENDBRANCH  15  16
ENDBRANCH  14  15
ENDBRANCH  13  14
ENDBRANCH  12  13
ENDBRANCH  11  12
ENDBRANCH   1  11
TORSDOF 15
ENDMDL
MODEL 6
REMARK VINA RESULT:    -4.943      2.740      5.864
REMARK INTER + INTRA:         -10.734
REMARK INTER:                  -9.487
REMARK INTRA:                  -1.247
REMARK UNBOUND:                -1.458
REMARK SMILES O=C([O-])CCCCCCCCCCCCCCC(=O)[O-]
REMARK SMILES IDX 10 1 9 2 8 3 7 4 6 5 5 6 4 7 2 8 1 9 3 10 11 11 12 12 13 13
REMARK SMILES IDX 14 14 15 15 16 16 17 17 18 18 19 19 20 20
REMARK H PARENT
REMARK Flexibility Score: inf
ROOT
ATOM      1  C   UNL     1      46.496  -2.251  27.130  1.00  0.00     0.000 C 
ENDROOT
BRANCH   1   2
ATOM      2  C   UNL     1      45.417  -2.478  28.202  1.00  0.00     0.000 C 
BRANCH   2   3
ATOM      3  C   UNL     1      44.705  -1.176  28.606  1.00  0.00     0.000 C 
BRANCH   3   4
ATOM      4  C   UNL     1      43.734  -1.365  29.786  1.00  0.00     0.000 C 
BRANCH   4   5
ATOM      5  C   UNL     1      42.985  -2.711  29.811  1.00  0.00     0.000 C 
BRANCH   5   6
ATOM      6  C   UNL     1      42.004  -2.874  28.637  1.00  0.00     0.006 C 
BRANCH   6   7
ATOM      7  C   UNL     1      42.081  -4.271  28.008  1.00  0.00     0.053 C 
BRANCH   7   8
ATOM      8  C   UNL     1      40.733  -4.921  27.925  1.00  0.00     0.041 C 
ATOM      9  O   UNL     1      39.688  -4.219  27.965  1.00  0.00    -0.550 OA
ATOM     10  O   UNL     1      40.630  -6.303  27.831  1.00  0.00    -0.550 OA
ENDBRANCH   7   8
ENDBRANCH   6   7
ENDBRANCH   5   6
ENDBRANCH   4   5
ENDBRANCH   3   4
ENDBRANCH   2   3
ENDBRANCH   1   2
BRANCH   1  11
ATOM     11  C   UNL     1      46.890  -3.548  26.400  1.00  0.00     0.000 C 
BRANCH  11  12
ATOM     12  C   UNL     1      46.280  -4.799  27.051  1.00  0.00     0.000 C 
BRANCH  12  13
ATOM     13  C   UNL     1      45.175  -5.433  26.194  1.00  0.00     0.000 C 
BRANCH  13  14
ATOM     14  C   UNL     1      45.026  -6.929  26.510  1.00  0.00     0.000 C 
BRANCH  14  15
ATOM     15  C   UNL     1      45.814  -7.830  25.541  1.00  0.00     0.000 C 
BRANCH  15  16
ATOM     16  C   UNL     1      45.798  -7.373  24.070  1.00  0.00     0.006 C 
BRANCH  16  17
ATOM     17  C   UNL     1      47.132  -7.615  23.354  1.00  0.00     0.053 C 
BRANCH  17  18
ATOM     18  C   UNL     1      48.254  -6.977  24.108  1.00  0.00     0.041 C 
ATOM     19  O   UNL     1      49.053  -7.684  24.776  1.00  0.00    -0.550 OA
ATOM     20  O   UNL     1      48.390  -5.593  24.114  1.00  0.00    -0.550 OA
ENDBRANCH  17  18
ENDBRANCH  16  17
ENDBRANCH  15  16
ENDBRANCH  14  15
ENDBRANCH  13  14
ENDBRANCH  12  13
ENDBRANCH  11  12
ENDBRANCH   1  11
TORSDOF 15
ENDMDL
MODEL 7
REMARK VINA RESULT:    -4.924      3.656      6.166
REMARK INTER + INTRA:         -10.699
REMARK INTER:                  -9.722
REMARK INTRA:                  -0.978
REMARK UNBOUND:                -1.458
REMARK SMILES O=C([O-])CCCCCCCCCCCCCCC(=O)[O-]
REMARK SMILES IDX 10 1 9 2 8 3 7 4 6 5 5 6 4 7 2 8 1 9 3 10 11 11 12 12 13 13
REMARK SMILES IDX 14 14 15 15 16 16 17 17 18 18 19 19 20 20
REMARK H PARENT
REMARK Flexibility Score: inf
ROOT
ATOM      1  C   UNL     1      43.347  -3.994  28.252  1.00  0.00     0.000 C 
ENDROOT
BRANCH   1   2
ATOM      2  C   UNL     1      42.283  -4.974  28.775  1.00  0.00     0.000 C 
BRANCH   2   3
ATOM      3  C   UNL     1      41.299  -5.414  27.678  1.00  0.00     0.000 C 
BRANCH   3   4
ATOM      4  C   UNL     1      40.027  -4.548  27.631  1.00  0.00     0.000 C 
BRANCH   4   5
ATOM      5  C   UNL     1      39.112  -4.791  26.416  1.00  0.00     0.000 C 
BRANCH   5   6
ATOM      6  C   UNL     1      39.020  -6.275  26.020  1.00  0.00     0.006 C 
BRANCH   6   7
ATOM      7  C   UNL     1      38.171  -6.487  24.761  1.00  0.00     0.053 C 
BRANCH   7   8
ATOM      8  C   UNL     1      36.805  -7.009  25.089  1.00  0.00     0.041 C 
ATOM      9  O   UNL     1      35.985  -7.264  24.168  1.00  0.00    -0.550 OA
ATOM     10  O   UNL     1      36.427  -7.184  26.415  1.00  0.00    -0.550 OA
ENDBRANCH   7   8
ENDBRANCH   6   7
ENDBRANCH   5   6
ENDBRANCH   4   5
ENDBRANCH   3   4
ENDBRANCH   2   3
ENDBRANCH   1   2
BRANCH   1  11
ATOM     11  C   UNL     1      44.704  -4.675  27.992  1.00  0.00     0.000 C 
BRANCH  11  12
ATOM     12  C   UNL     1      44.550  -6.109  27.459  1.00  0.00     0.000 C 
BRANCH  12  13
ATOM     13  C   UNL     1      44.456  -6.164  25.927  1.00  0.00     0.000 C 
BRANCH  13  14
ATOM     14  C   UNL     1      45.233  -7.367  25.373  1.00  0.00     0.000 C 
BRANCH  14  15
ATOM     15  C   UNL     1      46.571  -7.605  26.098  1.00  0.00     0.000 C 
BRANCH  15  16
ATOM     16  C   UNL     1      47.825  -7.417  25.225  1.00  0.00     0.006 C 
BRANCH  16  17
ATOM     17  C   UNL     1      47.893  -6.036  24.563  1.00  0.00     0.053 C 
BRANCH  17  18
ATOM     18  C   UNL     1      48.030  -4.966  25.599  1.00  0.00     0.041 C 
ATOM     19  O   UNL     1      47.170  -4.050  25.682  1.00  0.00    -0.550 OA
ATOM     20  O   UNL     1      49.133  -4.954  26.444  1.00  0.00    -0.550 OA
ENDBRANCH  17  18
ENDBRANCH  16  17
ENDBRANCH  15  16
ENDBRANCH  14  15
ENDBRANCH  13  14
ENDBRANCH  12  13
ENDBRANCH  11  12
ENDBRANCH   1  11
TORSDOF 15
ENDMDL
MODEL 8
REMARK VINA RESULT:    -4.880      4.451      8.363
REMARK INTER + INTRA:         -10.616
REMARK INTER:                  -9.672
REMARK INTRA:                  -0.944
REMARK UNBOUND:                -1.458
REMARK SMILES O=C([O-])CCCCCCCCCCCCCCC(=O)[O-]
REMARK SMILES IDX 10 1 9 2 8 3 7 4 6 5 5 6 4 7 2 8 1 9 3 10 11 11 12 12 13 13
REMARK SMILES IDX 14 14 15 15 16 16 17 17 18 18 19 19 20 20
REMARK H PARENT
REMARK Flexibility Score: inf
ROOT
ATOM      1  C   UNL     1      42.357  -4.499  28.008  1.00  0.00     0.000 C 
ENDROOT
BRANCH   1   2
ATOM      2  C   UNL     1      43.867  -4.661  27.771  1.00  0.00     0.000 C 
BRANCH   2   3
ATOM      3  C   UNL     1      44.183  -5.670  26.654  1.00  0.00     0.000 C 
BRANCH   3   4
ATOM      4  C   UNL     1      45.138  -6.789  27.110  1.00  0.00     0.000 C 
BRANCH   4   5
ATOM      5  C   UNL     1      45.421  -7.878  26.059  1.00  0.00     0.000 C 
BRANCH   5   6
ATOM      6  C   UNL     1      45.371  -7.348  24.616  1.00  0.00     0.006 C 
BRANCH   6   7
ATOM      7  C   UNL     1      46.724  -7.477  23.903  1.00  0.00     0.053 C 
BRANCH   7   8
ATOM      8  C   UNL     1      47.829  -6.834  24.684  1.00  0.00     0.041 C 
ATOM      9  O   UNL     1      47.790  -5.602  24.941  1.00  0.00    -0.550 OA
ATOM     10  O   UNL     1      48.918  -7.589  25.102  1.00  0.00    -0.550 OA
ENDBRANCH   7   8
ENDBRANCH   6   7
ENDBRANCH   5   6
ENDBRANCH   4   5
ENDBRANCH   3   4
ENDBRANCH   2   3
ENDBRANCH   1   2
BRANCH   1  11
ATOM     11  C   UNL     1      41.520  -4.843  26.762  1.00  0.00     0.000 C 
BRANCH  11  12
ATOM     12  C   UNL     1      40.154  -5.451  27.119  1.00  0.00     0.000 C 
BRANCH  12  13
ATOM     13  C   UNL     1      39.065  -5.100  26.094  1.00  0.00     0.000 C 
BRANCH  13  14
ATOM     14  C   UNL     1      38.605  -6.352  25.332  1.00  0.00     0.000 C 
BRANCH  14  15
ATOM     15  C   UNL     1      37.147  -6.742  25.643  1.00  0.00     0.000 C 
BRANCH  15  16
ATOM     16  C   UNL     1      36.977  -8.080  26.387  1.00  0.00     0.006 C 
BRANCH  16  17
ATOM     17  C   UNL     1      38.314  -8.709  26.801  1.00  0.00     0.053 C 
BRANCH  17  18
ATOM     18  C   UNL     1      38.081  -9.924  27.640  1.00  0.00     0.041 C 
ATOM     19  O   UNL     1      38.957 -10.826  27.705  1.00  0.00    -0.550 OA
ATOM     20  O   UNL     1      36.875 -10.085  28.312  1.00  0.00    -0.550 OA
ENDBRANCH  17  18
ENDBRANCH  16  17
ENDBRANCH  15  16
ENDBRANCH  14  15
ENDBRANCH  13  14
ENDBRANCH  12  13
ENDBRANCH  11  12
ENDBRANCH   1  11
TORSDOF 15
ENDMDL
MODEL 9
REMARK VINA RESULT:    -4.800      5.001      8.610
REMARK INTER + INTRA:         -10.468
REMARK INTER:                  -9.875
REMARK INTRA:                  -0.593
REMARK UNBOUND:                -1.458
REMARK SMILES O=C([O-])CCCCCCCCCCCCCCC(=O)[O-]
REMARK SMILES IDX 10 1 9 2 8 3 7 4 6 5 5 6 4 7 2 8 1 9 3 10 11 11 12 12 13 13
REMARK SMILES IDX 14 14 15 15 16 16 17 17 18 18 19 19 20 20
REMARK H PARENT
REMARK Flexibility Score: inf
ROOT
ATOM      1  C   UNL     1      43.333  -4.643  28.170  1.00  0.00     0.000 C 
ENDROOT
BRANCH   1   2
ATOM      2  C   UNL     1      44.785  -4.882  27.724  1.00  0.00     0.000 C 
BRANCH   2   3
ATOM      3  C   UNL     1      44.878  -5.780  26.478  1.00  0.00     0.000 C 
BRANCH   3   4
ATOM      4  C   UNL     1      45.444  -7.178  26.788  1.00  0.00     0.000 C 
BRANCH   4   5
ATOM      5  C   UNL     1      46.407  -7.746  25.730  1.00  0.00     0.000 C 
BRANCH   5   6
ATOM      6  C   UNL     1      47.121  -6.652  24.918  1.00  0.00     0.006 C 
BRANCH   6   7
ATOM      7  C   UNL     1      48.296  -7.208  24.103  1.00  0.00     0.053 C 
BRANCH   7   8
ATOM      8  C   UNL     1      47.881  -7.593  22.715  1.00  0.00     0.041 C 
ATOM      9  O   UNL     1      48.716  -8.104  21.924  1.00  0.00    -0.550 OA
ATOM     10  O   UNL     1      46.580  -7.359  22.287  1.00  0.00    -0.550 OA
ENDBRANCH   7   8
ENDBRANCH   6   7
ENDBRANCH   5   6
ENDBRANCH   4   5
ENDBRANCH   3   4
ENDBRANCH   2   3
ENDBRANCH   1   2
BRANCH   1  11
ATOM     11  C   UNL     1      42.308  -5.029  27.087  1.00  0.00     0.000 C 
BRANCH  11  12
ATOM     12  C   UNL     1      40.857  -4.876  27.569  1.00  0.00     0.000 C 
BRANCH  12  13
ATOM     13  C   UNL     1      39.838  -5.015  26.429  1.00  0.00     0.000 C 
BRANCH  13  14
ATOM     14  C   UNL     1      38.971  -6.269  26.618  1.00  0.00     0.000 C 
BRANCH  14  15
ATOM     15  C   UNL     1      38.624  -6.966  25.289  1.00  0.00     0.000 C 
BRANCH  15  16
ATOM     16  C   UNL     1      37.167  -6.786  24.822  1.00  0.00     0.006 C 
BRANCH  16  17
ATOM     17  C   UNL     1      36.180  -7.682  25.581  1.00  0.00     0.053 C 
BRANCH  17  18
ATOM     18  C   UNL     1      34.773  -7.351  25.197  1.00  0.00     0.041 C 
ATOM     19  O   UNL     1      34.448  -7.278  23.983  1.00  0.00    -0.550 OA
ATOM     20  O   UNL     1      33.831  -7.076  26.180  1.00  0.00    -0.550 OA
ENDBRANCH  17  18
ENDBRANCH  16  17
ENDBRANCH  15  16
ENDBRANCH  14  15
ENDBRANCH  13  14
ENDBRANCH  12  13
ENDBRANCH  11  12
ENDBRANCH   1  11
TORSDOF 15
ENDMDL
