MODEL 1
REMARK VINA RESULT:    -4.688      0.000      0.000
REMARK INTER + INTRA:         -16.779
REMARK INTER:                 -11.813
REMARK INTRA:                  -4.966
REMARK UNBOUND:                -4.966
REMARK SMILES CCCCCCCCCCCCCCCCCCCCCCCCCCCC(=O)[O-]
REMARK SMILES IDX 15 1 16 2 17 3 18 4 19 5 20 6 21 7 22 8 23 9 24 10 25 11
REMARK SMILES IDX 26 12 27 13 28 14 29 15 30 16 14 17 13 18 12 19 11 20 10 21
REMARK SMILES IDX 9 22 8 23 7 24 6 25 5 26 4 27 3 28 2 29 1 30
REMARK H PARENT
REMARK Flexibility Score: inf
ROOT
ATOM      1  C   UNL     1      43.146  62.531   7.316  1.00  0.00     0.000 C 
ENDROOT
BRANCH   1   2
ATOM      2  C   UNL     1      42.096  62.402   6.195  1.00  0.00     0.000 C 
BRANCH   2   3
ATOM      3  C   UNL     1      41.094  63.568   6.090  1.00  0.00     0.000 C 
BRANCH   3   4
ATOM      4  C   UNL     1      40.455  63.975   7.436  1.00  0.00     0.000 C 
BRANCH   4   5
ATOM      5  C   UNL     1      40.363  65.503   7.611  1.00  0.00     0.000 C 
BRANCH   5   6
ATOM      6  C   UNL     1      41.559  66.075   8.392  1.00  0.00     0.000 C 
BRANCH   6   7
ATOM      7  C   UNL     1      42.457  66.961   7.510  1.00  0.00     0.000 C 
BRANCH   7   8
ATOM      8  C   UNL     1      43.536  66.161   6.756  1.00  0.00     0.000 C 
BRANCH   8   9
ATOM      9  C   UNL     1      43.512  66.322   5.226  1.00  0.00     0.000 C 
BRANCH   9  10
ATOM     10  C   UNL     1      42.220  66.977   4.709  1.00  0.00     0.000 C 
BRANCH  10  11
ATOM     11  C   UNL     1      42.497  68.034   3.620  1.00  0.00     0.000 C 
BRANCH  11  12
ATOM     12  C   UNL     1      41.684  69.331   3.786  1.00  0.00     0.006 C 
BRANCH  12  13
ATOM     13  C   UNL     1      40.936  69.436   5.127  1.00  0.00     0.053 C 
BRANCH  13  14
ATOM     14  C   UNL     1      41.368  70.623   5.937  1.00  0.00     0.041 C 
ATOM     15  O   UNL     1      41.920  70.460   7.057  1.00  0.00    -0.550 OA
ATOM     16  O   UNL     1      41.208  71.908   5.434  1.00  0.00    -0.550 OA
ENDBRANCH  13  14
ENDBRANCH  12  13
ENDBRANCH  11  12
ENDBRANCH  10  11
ENDBRANCH   9  10
ENDBRANCH   8   9
ENDBRANCH   7   8
ENDBRANCH   6   7
ENDBRANCH   5   6
ENDBRANCH   4   5
ENDBRANCH   3   4
ENDBRANCH   2   3
ENDBRANCH   1   2
BRANCH   1  17
ATOM     17  C   UNL     1      43.161  61.380   8.338  1.00  0.00     0.000 C 
BRANCH  17  18
ATOM     18  C   UNL     1      44.487  61.209   9.101  1.00  0.00     0.000 C 
BRANCH  18  19
ATOM     19  C   UNL     1      44.435  60.137  10.210  1.00  0.00     0.000 C 
BRANCH  19  20
ATOM     20  C   UNL     1      42.995  59.818  10.648  1.00  0.00     0.000 C 
BRANCH  20  21
ATOM     21  C   UNL     1      42.852  59.606  12.167  1.00  0.00     0.000 C 
BRANCH  21  22
ATOM     22  C   UNL     1      44.086  59.986  13.007  1.00  0.00    -0.000 C 
BRANCH  22  23
ATOM     23  C   UNL     1      43.948  61.351  13.706  1.00  0.00    -0.000 C 
BRANCH  23  24
ATOM     24  C   UNL     1      45.030  62.346  13.254  1.00  0.00    -0.000 C 
BRANCH  24  25
ATOM     25  C   UNL     1      44.494  63.386  12.253  1.00  0.00    -0.000 C 
BRANCH  25  26
ATOM     26  C   UNL     1      42.973  63.572  12.368  1.00  0.00    -0.000 C 
BRANCH  26  27
ATOM     27  C   UNL     1      42.299  63.735  10.996  1.00  0.00    -0.000 C 
BRANCH  27  28
ATOM     28  C   UNL     1      41.044  62.859  10.852  1.00  0.00    -0.000 C 
BRANCH  28  29
ATOM     29  C   UNL     1      40.557  62.308  12.201  1.00  0.00    -0.003 C 
ATOM     30  C   UNL     1      39.222  62.933  12.602  1.00  0.00     0.004 C 
ENDBRANCH  28  29
ENDBRANCH  27  28
ENDBRANCH  26  27
ENDBRANCH  25  26
ENDBRANCH  24  25
ENDBRANCH  23  24
ENDBRANCH  22  23
ENDBRANCH  21  22
ENDBRANCH  20  21
ENDBRANCH  19  20
ENDBRANCH  18  19
ENDBRANCH  17  18
ENDBRANCH   1  17
TORSDOF 26
ENDMDL
MODEL 2
REMARK VINA RESULT:    -4.578      1.155      2.084
REMARK INTER + INTRA:         -16.502
REMARK INTER:                 -11.424
REMARK INTRA:                  -5.078
REMARK UNBOUND:                -4.966
REMARK SMILES CCCCCCCCCCCCCCCCCCCCCCCCCCCC(=O)[O-]
REMARK SMILES IDX 15 1 16 2 17 3 18 4 19 5 20 6 21 7 22 8 23 9 24 10 25 11
REMARK SMILES IDX 26 12 27 13 28 14 29 15 30 16 14 17 13 18 12 19 11 20 10 21
REMARK SMILES IDX 9 22 8 23 7 24 6 25 5 26 4 27 3 28 2 29 1 30
REMARK H PARENT
REMARK Flexibility Score: inf
ROOT
ATOM      1  C   UNL     1      43.166  62.389   7.329  1.00  0.00     0.000 C 
ENDROOT
BRANCH   1   2
ATOM      2  C   UNL     1      41.962  62.341   6.369  1.00  0.00     0.000 C 
BRANCH   2   3
ATOM      3  C   UNL     1      42.074  63.236   5.120  1.00  0.00     0.000 C 
BRANCH   3   4
ATOM      4  C   UNL     1      43.303  64.171   5.122  1.00  0.00     0.000 C 
BRANCH   4   5
ATOM      5  C   UNL     1      42.969  65.590   4.622  1.00  0.00     0.000 C 
BRANCH   5   6
ATOM      6  C   UNL     1      43.224  66.663   5.694  1.00  0.00     0.000 C 
BRANCH   6   7
ATOM      7  C   UNL     1      43.709  66.053   7.021  1.00  0.00     0.000 C 
BRANCH   7   8
ATOM      8  C   UNL     1      42.702  66.236   8.171  1.00  0.00     0.000 C 
BRANCH   8   9
ATOM      9  C   UNL     1      41.310  65.629   7.917  1.00  0.00     0.000 C 
BRANCH   9  10
ATOM     10  C   UNL     1      40.161  66.566   8.325  1.00  0.00     0.000 C 
BRANCH  10  11
ATOM     11  C   UNL     1      40.188  67.896   7.543  1.00  0.00     0.000 C 
BRANCH  11  12
ATOM     12  C   UNL     1      39.832  67.751   6.052  1.00  0.00     0.006 C 
BRANCH  12  13
ATOM     13  C   UNL     1      39.375  69.061   5.384  1.00  0.00     0.053 C 
BRANCH  13  14
ATOM     14  C   UNL     1      40.465  70.091   5.330  1.00  0.00     0.041 C 
ATOM     15  O   UNL     1      41.619  69.773   4.939  1.00  0.00    -0.550 OA
ATOM     16  O   UNL     1      40.195  71.412   5.662  1.00  0.00    -0.550 OA
ENDBRANCH  13  14
ENDBRANCH  12  13
ENDBRANCH  11  12
ENDBRANCH  10  11
ENDBRANCH   9  10
ENDBRANCH   8   9
ENDBRANCH   7   8
ENDBRANCH   6   7
ENDBRANCH   5   6
ENDBRANCH   4   5
ENDBRANCH   3   4
ENDBRANCH   2   3
ENDBRANCH   1   2
BRANCH   1  17
ATOM     17  C   UNL     1      43.385  61.120   8.174  1.00  0.00     0.000 C 
BRANCH  17  18
ATOM     18  C   UNL     1      44.747  61.044   8.886  1.00  0.00     0.000 C 
BRANCH  18  19
ATOM     19  C   UNL     1      44.686  60.382  10.279  1.00  0.00     0.000 C 
BRANCH  19  20
ATOM     20  C   UNL     1      43.300  59.787  10.583  1.00  0.00     0.000 C 
BRANCH  20  21
ATOM     21  C   UNL     1      42.982  59.718  12.088  1.00  0.00     0.000 C 
BRANCH  21  22
ATOM     22  C   UNL     1      44.154  60.062  13.028  1.00  0.00    -0.000 C 
BRANCH  22  23
ATOM     23  C   UNL     1      43.982  61.413  13.746  1.00  0.00    -0.000 C 
BRANCH  23  24
ATOM     24  C   UNL     1      45.021  62.449  13.286  1.00  0.00    -0.000 C 
BRANCH  24  25
ATOM     25  C   UNL     1      44.412  63.531  12.376  1.00  0.00    -0.000 C 
BRANCH  25  26
ATOM     26  C   UNL     1      42.883  63.414  12.276  1.00  0.00    -0.000 C 
BRANCH  26  27
ATOM     27  C   UNL     1      42.386  63.480  10.824  1.00  0.00    -0.000 C 
BRANCH  27  28
ATOM     28  C   UNL     1      40.855  63.380  10.723  1.00  0.00    -0.000 C 
BRANCH  28  29
ATOM     29  C   UNL     1      40.394  62.036  10.139  1.00  0.00    -0.003 C 
ATOM     30  C   UNL     1      39.802  61.138  11.223  1.00  0.00     0.004 C 
ENDBRANCH  28  29
ENDBRANCH  27  28
ENDBRANCH  26  27
ENDBRANCH  25  26
ENDBRANCH  24  25
ENDBRANCH  23  24
ENDBRANCH  22  23
ENDBRANCH  21  22
ENDBRANCH  20  21
ENDBRANCH  19  20
ENDBRANCH  18  19
ENDBRANCH  17  18
ENDBRANCH   1  17
TORSDOF 26
ENDMDL
MODEL 3
REMARK VINA RESULT:    -4.442      1.905      2.750
REMARK INTER + INTRA:         -16.160
REMARK INTER:                 -10.804
REMARK INTRA:                  -5.356
REMARK UNBOUND:                -4.966
REMARK SMILES CCCCCCCCCCCCCCCCCCCCCCCCCCCC(=O)[O-]
REMARK SMILES IDX 15 1 16 2 17 3 18 4 19 5 20 6 21 7 22 8 23 9 24 10 25 11
REMARK SMILES IDX 26 12 27 13 28 14 29 15 30 16 14 17 13 18 12 19 11 20 10 21
REMARK SMILES IDX 9 22 8 23 7 24 6 25 5 26 4 27 3 28 2 29 1 30
REMARK H PARENT
REMARK Flexibility Score: inf
ROOT
ATOM      1  C   UNL     1      42.827  62.422   7.423  1.00  0.00     0.000 C 
ENDROOT
BRANCH   1   2
ATOM      2  C   UNL     1      41.522  62.378   6.606  1.00  0.00     0.000 C 
BRANCH   2   3
ATOM      3  C   UNL     1      40.638  63.636   6.702  1.00  0.00     0.000 C 
BRANCH   3   4
ATOM      4  C   UNL     1      39.320  63.424   7.478  1.00  0.00     0.000 C 
BRANCH   4   5
ATOM      5  C   UNL     1      38.831  64.706   8.179  1.00  0.00     0.000 C 
BRANCH   5   6
ATOM      6  C   UNL     1      39.994  65.575   8.687  1.00  0.00     0.000 C 
BRANCH   6   7
ATOM      7  C   UNL     1      39.851  67.045   8.255  1.00  0.00     0.000 C 
BRANCH   7   8
ATOM      8  C   UNL     1      40.395  67.311   6.839  1.00  0.00     0.000 C 
BRANCH   8   9
ATOM      9  C   UNL     1      41.808  67.918   6.790  1.00  0.00     0.000 C 
BRANCH   9  10
ATOM     10  C   UNL     1      42.840  67.107   7.593  1.00  0.00     0.000 C 
BRANCH  10  11
ATOM     11  C   UNL     1      43.481  65.984   6.751  1.00  0.00     0.000 C 
BRANCH  11  12
ATOM     12  C   UNL     1      43.534  66.289   5.242  1.00  0.00     0.006 C 
BRANCH  12  13
ATOM     13  C   UNL     1      43.136  65.101   4.347  1.00  0.00     0.053 C 
BRANCH  13  14
ATOM     14  C   UNL     1      41.850  65.339   3.612  1.00  0.00     0.041 C 
ATOM     15  O   UNL     1      41.444  66.513   3.405  1.00  0.00    -0.550 OA
ATOM     16  O   UNL     1      41.123  64.266   3.110  1.00  0.00    -0.550 OA
ENDBRANCH  13  14
ENDBRANCH  12  13
ENDBRANCH  11  12
ENDBRANCH  10  11
ENDBRANCH   9  10
ENDBRANCH   8   9
ENDBRANCH   7   8
ENDBRANCH   6   7
ENDBRANCH   5   6
ENDBRANCH   4   5
ENDBRANCH   3   4
ENDBRANCH   2   3
ENDBRANCH   1   2
BRANCH   1  17
ATOM     17  C   UNL     1      43.198  61.112   8.142  1.00  0.00     0.000 C 
BRANCH  17  18
ATOM     18  C   UNL     1      44.353  61.233   9.152  1.00  0.00     0.000 C 
BRANCH  18  19
ATOM     19  C   UNL     1      44.386  60.100  10.200  1.00  0.00     0.000 C 
BRANCH  19  20
ATOM     20  C   UNL     1      42.976  59.674  10.644  1.00  0.00     0.000 C 
BRANCH  20  21
ATOM     21  C   UNL     1      42.750  59.800  12.161  1.00  0.00     0.000 C 
BRANCH  21  22
ATOM     22  C   UNL     1      44.017  60.056  13.000  1.00  0.00    -0.000 C 
BRANCH  22  23
ATOM     23  C   UNL     1      43.977  61.389  13.769  1.00  0.00    -0.000 C 
BRANCH  23  24
ATOM     24  C   UNL     1      45.036  62.383  13.263  1.00  0.00    -0.000 C 
BRANCH  24  25
ATOM     25  C   UNL     1      44.476  63.356  12.210  1.00  0.00    -0.000 C 
BRANCH  25  26
ATOM     26  C   UNL     1      42.959  63.556  12.352  1.00  0.00    -0.000 C 
BRANCH  26  27
ATOM     27  C   UNL     1      42.262  63.716  10.992  1.00  0.00    -0.000 C 
BRANCH  27  28
ATOM     28  C   UNL     1      41.038  62.796  10.848  1.00  0.00    -0.000 C 
BRANCH  28  29
ATOM     29  C   UNL     1      40.082  62.905  12.046  1.00  0.00    -0.003 C 
ATOM     30  C   UNL     1      38.703  63.392  11.607  1.00  0.00     0.004 C 
ENDBRANCH  28  29
ENDBRANCH  27  28
ENDBRANCH  26  27
ENDBRANCH  25  26
ENDBRANCH  24  25
ENDBRANCH  23  24
ENDBRANCH  22  23
ENDBRANCH  21  22
ENDBRANCH  20  21
ENDBRANCH  19  20
ENDBRANCH  18  19
ENDBRANCH  17  18
ENDBRANCH   1  17
TORSDOF 26
ENDMDL
MODEL 4
REMARK VINA RESULT:    -4.428      1.263      3.697
REMARK INTER + INTRA:         -16.125
REMARK INTER:                 -10.704
REMARK INTRA:                  -5.420
REMARK UNBOUND:                -4.966
REMARK SMILES CCCCCCCCCCCCCCCCCCCCCCCCCCCC(=O)[O-]
REMARK SMILES IDX 15 1 16 2 17 3 18 4 19 5 20 6 21 7 22 8 23 9 24 10 25 11
REMARK SMILES IDX 26 12 27 13 28 14 29 15 30 16 14 17 13 18 12 19 11 20 10 21
REMARK SMILES IDX 9 22 8 23 7 24 6 25 5 26 4 27 3 28 2 29 1 30
REMARK H PARENT
REMARK Flexibility Score: inf
ROOT
ATOM      1  C   UNL     1      43.219  66.453   5.214  1.00  0.00     0.000 C 
ENDROOT
BRANCH   1   2
ATOM      2  C   UNL     1      42.675  67.028   6.536  1.00  0.00     0.000 C 
BRANCH   2   3
ATOM      3  C   UNL     1      43.460  66.634   7.802  1.00  0.00     0.000 C 
BRANCH   3   4
ATOM      4  C   UNL     1      42.670  65.742   8.784  1.00  0.00     0.000 C 
BRANCH   4   5
ATOM      5  C   UNL     1      41.151  65.997   8.727  1.00  0.00     0.000 C 
BRANCH   5   6
ATOM      6  C   UNL     1      40.336  64.694   8.786  1.00  0.00     0.000 C 
BRANCH   6   7
ATOM      7  C   UNL     1      39.355  64.571   7.607  1.00  0.00     0.000 C 
BRANCH   7   8
ATOM      8  C   UNL     1      39.231  65.870   6.790  1.00  0.00     0.000 C 
BRANCH   8   9
ATOM      9  C   UNL     1      38.903  65.670   5.299  1.00  0.00     0.000 C 
BRANCH   9  10
ATOM     10  C   UNL     1      39.618  66.679   4.385  1.00  0.00     0.000 C 
BRANCH  10  11
ATOM     11  C   UNL     1      39.575  68.113   4.953  1.00  0.00     0.000 C 
BRANCH  11  12
ATOM     12  C   UNL     1      40.172  69.176   4.012  1.00  0.00     0.006 C 
BRANCH  12  13
ATOM     13  C   UNL     1      41.433  69.867   4.563  1.00  0.00     0.053 C 
BRANCH  13  14
ATOM     14  C   UNL     1      41.128  70.803   5.695  1.00  0.00     0.041 C 
ATOM     15  O   UNL     1      41.903  70.875   6.685  1.00  0.00    -0.550 OA
ATOM     16  O   UNL     1      40.017  71.635   5.635  1.00  0.00    -0.550 OA
ENDBRANCH  13  14
ENDBRANCH  12  13
ENDBRANCH  11  12
ENDBRANCH  10  11
ENDBRANCH   9  10
ENDBRANCH   8   9
ENDBRANCH   7   8
ENDBRANCH   6   7
ENDBRANCH   5   6
ENDBRANCH   4   5
ENDBRANCH   3   4
ENDBRANCH   2   3
ENDBRANCH   1   2
BRANCH   1  17
ATOM     17  C   UNL     1      43.512  64.942   5.225  1.00  0.00     0.000 C 
BRANCH  17  18
ATOM     18  C   UNL     1      42.272  64.042   5.078  1.00  0.00     0.000 C 
BRANCH  18  19
ATOM     19  C   UNL     1      42.220  62.880   6.093  1.00  0.00     0.000 C 
BRANCH  19  20
ATOM     20  C   UNL     1      43.464  62.838   6.997  1.00  0.00     0.000 C 
BRANCH  20  21
ATOM     21  C   UNL     1      43.398  61.741   8.076  1.00  0.00     0.000 C 
BRANCH  21  22
ATOM     22  C   UNL     1      42.214  61.849   9.056  1.00  0.00    -0.000 C 
BRANCH  22  23
ATOM     23  C   UNL     1      41.943  60.545   9.828  1.00  0.00    -0.000 C 
BRANCH  23  24
ATOM     24  C   UNL     1      43.223  59.962  10.449  1.00  0.00    -0.000 C 
BRANCH  24  25
ATOM     25  C   UNL     1      43.224  60.044  11.986  1.00  0.00    -0.000 C 
BRANCH  25  26
ATOM     26  C   UNL     1      44.573  60.529  12.540  1.00  0.00    -0.000 C 
BRANCH  26  27
ATOM     27  C   UNL     1      45.045  61.830  11.873  1.00  0.00    -0.000 C 
BRANCH  27  28
ATOM     28  C   UNL     1      44.581  63.082  12.635  1.00  0.00    -0.000 C 
BRANCH  28  29
ATOM     29  C   UNL     1      43.517  63.876  11.860  1.00  0.00    -0.003 C 
ATOM     30  C   UNL     1      42.114  63.566  12.377  1.00  0.00     0.004 C 
ENDBRANCH  28  29
ENDBRANCH  27  28
ENDBRANCH  26  27
ENDBRANCH  25  26
ENDBRANCH  24  25
ENDBRANCH  23  24
ENDBRANCH  22  23
ENDBRANCH  21  22
ENDBRANCH  20  21
ENDBRANCH  19  20
ENDBRANCH  18  19
ENDBRANCH  17  18
ENDBRANCH   1  17
TORSDOF 26
ENDMDL
MODEL 5
REMARK VINA RESULT:    -4.407      1.202      2.943
REMARK INTER + INTRA:         -16.071
REMARK INTER:                 -10.792
REMARK INTRA:                  -5.279
REMARK UNBOUND:                -4.966
REMARK SMILES CCCCCCCCCCCCCCCCCCCCCCCCCCCC(=O)[O-]
REMARK SMILES IDX 15 1 16 2 17 3 18 4 19 5 20 6 21 7 22 8 23 9 24 10 25 11
REMARK SMILES IDX 26 12 27 13 28 14 29 15 30 16 14 17 13 18 12 19 11 20 10 21
REMARK SMILES IDX 9 22 8 23 7 24 6 25 5 26 4 27 3 28 2 29 1 30
REMARK H PARENT
REMARK Flexibility Score: inf
ROOT
ATOM      1  C   UNL     1      43.184  62.294   7.201  1.00  0.00     0.000 C 
ENDROOT
BRANCH   1   2
ATOM      2  C   UNL     1      41.659  62.428   7.032  1.00  0.00     0.000 C 
BRANCH   2   3
ATOM      3  C   UNL     1      41.157  62.485   5.576  1.00  0.00     0.000 C 
BRANCH   3   4
ATOM      4  C   UNL     1      40.866  63.912   5.063  1.00  0.00     0.000 C 
BRANCH   4   5
ATOM      5  C   UNL     1      42.012  64.478   4.202  1.00  0.00     0.000 C 
BRANCH   5   6
ATOM      6  C   UNL     1      42.140  66.005   4.328  1.00  0.00     0.000 C 
BRANCH   6   7
ATOM      7  C   UNL     1      43.450  66.422   5.019  1.00  0.00     0.000 C 
BRANCH   7   8
ATOM      8  C   UNL     1      43.709  65.654   6.329  1.00  0.00     0.000 C 
BRANCH   8   9
ATOM      9  C   UNL     1      43.283  66.394   7.610  1.00  0.00     0.000 C 
BRANCH   9  10
ATOM     10  C   UNL     1      41.956  65.875   8.191  1.00  0.00     0.000 C 
BRANCH  10  11
ATOM     11  C   UNL     1      40.759  66.763   7.792  1.00  0.00     0.000 C 
BRANCH  11  12
ATOM     12  C   UNL     1      41.154  68.190   7.369  1.00  0.00     0.006 C 
BRANCH  12  13
ATOM     13  C   UNL     1      40.445  68.688   6.096  1.00  0.00     0.053 C 
BRANCH  13  14
ATOM     14  C   UNL     1      41.216  69.763   5.389  1.00  0.00     0.041 C 
ATOM     15  O   UNL     1      41.430  70.867   5.955  1.00  0.00    -0.550 OA
ATOM     16  O   UNL     1      41.743  69.529   4.125  1.00  0.00    -0.550 OA
ENDBRANCH  13  14
ENDBRANCH  12  13
ENDBRANCH  11  12
ENDBRANCH  10  11
ENDBRANCH   9  10
ENDBRANCH   8   9
ENDBRANCH   7   8
ENDBRANCH   6   7
ENDBRANCH   5   6
ENDBRANCH   4   5
ENDBRANCH   3   4
ENDBRANCH   2   3
ENDBRANCH   1   2
BRANCH   1  17
ATOM     17  C   UNL     1      43.654  61.842   8.596  1.00  0.00     0.000 C 
BRANCH  17  18
ATOM     18  C   UNL     1      44.722  60.735   8.592  1.00  0.00     0.000 C 
BRANCH  18  19
ATOM     19  C   UNL     1      44.260  59.420   9.255  1.00  0.00     0.000 C 
BRANCH  19  20
ATOM     20  C   UNL     1      42.739  59.384   9.484  1.00  0.00     0.000 C 
BRANCH  20  21
ATOM     21  C   UNL     1      42.348  59.196  10.962  1.00  0.00     0.000 C 
BRANCH  21  22
ATOM     22  C   UNL     1      41.298  60.186  11.499  1.00  0.00    -0.000 C 
BRANCH  22  23
ATOM     23  C   UNL     1      40.674  61.067  10.401  1.00  0.00    -0.000 C 
BRANCH  23  24
ATOM     24  C   UNL     1      40.774  62.565  10.733  1.00  0.00    -0.000 C 
BRANCH  24  25
ATOM     25  C   UNL     1      40.722  62.839  12.247  1.00  0.00    -0.000 C 
BRANCH  25  26
ATOM     26  C   UNL     1      41.904  63.698  12.722  1.00  0.00    -0.000 C 
BRANCH  26  27
ATOM     27  C   UNL     1      43.074  63.684  11.726  1.00  0.00    -0.000 C 
BRANCH  27  28
ATOM     28  C   UNL     1      44.409  63.314  12.393  1.00  0.00    -0.000 C 
BRANCH  28  29
ATOM     29  C   UNL     1      44.815  61.858  12.119  1.00  0.00    -0.003 C 
ATOM     30  C   UNL     1      44.498  60.963  13.315  1.00  0.00     0.004 C 
ENDBRANCH  28  29
ENDBRANCH  27  28
ENDBRANCH  26  27
ENDBRANCH  25  26
ENDBRANCH  24  25
ENDBRANCH  23  24
ENDBRANCH  22  23
ENDBRANCH  21  22
ENDBRANCH  20  21
ENDBRANCH  19  20
ENDBRANCH  18  19
ENDBRANCH  17  18
ENDBRANCH   1  17
TORSDOF 26
ENDMDL
MODEL 6
REMARK VINA RESULT:    -4.390      1.235      2.697
REMARK INTER + INTRA:         -16.028
REMARK INTER:                 -11.088
REMARK INTRA:                  -4.940
REMARK UNBOUND:                -4.966
REMARK SMILES CCCCCCCCCCCCCCCCCCCCCCCCCCCC(=O)[O-]
REMARK SMILES IDX 15 1 16 2 17 3 18 4 19 5 20 6 21 7 22 8 23 9 24 10 25 11
REMARK SMILES IDX 26 12 27 13 28 14 29 15 30 16 14 17 13 18 12 19 11 20 10 21
REMARK SMILES IDX 9 22 8 23 7 24 6 25 5 26 4 27 3 28 2 29 1 30
REMARK H PARENT
REMARK Flexibility Score: inf
ROOT
ATOM      1  C   UNL     1      42.759  63.763   4.964  1.00  0.00     0.000 C 
ENDROOT
BRANCH   1   2
ATOM      2  C   UNL     1      42.048  65.128   4.907  1.00  0.00     0.000 C 
BRANCH   2   3
ATOM      3  C   UNL     1      42.924  66.346   5.256  1.00  0.00     0.000 C 
BRANCH   3   4
ATOM      4  C   UNL     1      43.476  66.335   6.698  1.00  0.00     0.000 C 
BRANCH   4   5
ATOM      5  C   UNL     1      42.436  66.799   7.736  1.00  0.00     0.000 C 
BRANCH   5   6
ATOM      6  C   UNL     1      41.972  65.653   8.651  1.00  0.00     0.000 C 
BRANCH   6   7
ATOM      7  C   UNL     1      40.441  65.617   8.804  1.00  0.00     0.000 C 
BRANCH   7   8
ATOM      8  C   UNL     1      39.761  64.648   7.820  1.00  0.00     0.000 C 
BRANCH   8   9
ATOM      9  C   UNL     1      38.635  65.267   6.973  1.00  0.00     0.000 C 
BRANCH   9  10
ATOM     10  C   UNL     1      38.650  66.805   6.983  1.00  0.00     0.000 C 
BRANCH  10  11
ATOM     11  C   UNL     1      39.375  67.388   5.752  1.00  0.00     0.000 C 
BRANCH  11  12
ATOM     12  C   UNL     1      39.469  68.926   5.753  1.00  0.00     0.006 C 
BRANCH  12  13
ATOM     13  C   UNL     1      40.869  69.471   5.416  1.00  0.00     0.053 C 
BRANCH  13  14
ATOM     14  C   UNL     1      41.008  70.932   5.724  1.00  0.00     0.041 C 
ATOM     15  O   UNL     1      40.068  71.729   5.460  1.00  0.00    -0.550 OA
ATOM     16  O   UNL     1      42.153  71.409   6.348  1.00  0.00    -0.550 OA
ENDBRANCH  13  14
ENDBRANCH  12  13
ENDBRANCH  11  12
ENDBRANCH  10  11
ENDBRANCH   9  10
ENDBRANCH   8   9
ENDBRANCH   7   8
ENDBRANCH   6   7
ENDBRANCH   5   6
ENDBRANCH   4   5
ENDBRANCH   3   4
ENDBRANCH   2   3
ENDBRANCH   1   2
BRANCH   1  17
ATOM     17  C   UNL     1      42.336  62.848   6.128  1.00  0.00     0.000 C 
BRANCH  17  18
ATOM     18  C   UNL     1      43.410  62.638   7.209  1.00  0.00     0.000 C 
BRANCH  18  19
ATOM     19  C   UNL     1      43.126  61.447   8.148  1.00  0.00     0.000 C 
BRANCH  19  20
ATOM     20  C   UNL     1      44.418  60.786   8.661  1.00  0.00     0.000 C 
BRANCH  20  21
ATOM     21  C   UNL     1      44.173  59.749   9.773  1.00  0.00     0.000 C 
BRANCH  21  22
ATOM     22  C   UNL     1      44.185  60.306  11.210  1.00  0.00    -0.000 C 
BRANCH  22  23
ATOM     23  C   UNL     1      45.113  61.522  11.383  1.00  0.00    -0.000 C 
BRANCH  23  24
ATOM     24  C   UNL     1      44.793  62.318  12.659  1.00  0.00    -0.000 C 
BRANCH  24  25
ATOM     25  C   UNL     1      44.288  63.740  12.356  1.00  0.00    -0.000 C 
BRANCH  25  26
ATOM     26  C   UNL     1      42.897  63.735  11.701  1.00  0.00    -0.000 C 
BRANCH  26  27
ATOM     27  C   UNL     1      41.784  63.372  12.696  1.00  0.00    -0.000 C 
BRANCH  27  28
ATOM     28  C   UNL     1      40.445  63.084  11.999  1.00  0.00    -0.000 C 
BRANCH  28  29
ATOM     29  C   UNL     1      40.610  62.176  10.770  1.00  0.00    -0.003 C 
ATOM     30  C   UNL     1      40.624  60.703  11.171  1.00  0.00     0.004 C 
ENDBRANCH  28  29
ENDBRANCH  27  28
ENDBRANCH  26  27
ENDBRANCH  25  26
ENDBRANCH  24  25
ENDBRANCH  23  24
ENDBRANCH  22  23
ENDBRANCH  21  22
ENDBRANCH  20  21
ENDBRANCH  19  20
ENDBRANCH  18  19
ENDBRANCH  17  18
ENDBRANCH   1  17
TORSDOF 26
ENDMDL
MODEL 7
REMARK VINA RESULT:    -4.375      1.681      5.578
REMARK INTER + INTRA:         -15.990
REMARK INTER:                 -10.034
REMARK INTRA:                  -5.955
REMARK UNBOUND:                -4.966
REMARK SMILES CCCCCCCCCCCCCCCCCCCCCCCCCCCC(=O)[O-]
REMARK SMILES IDX 15 1 16 2 17 3 18 4 19 5 20 6 21 7 22 8 23 9 24 10 25 11
REMARK SMILES IDX 26 12 27 13 28 14 29 15 30 16 14 17 13 18 12 19 11 20 10 21
REMARK SMILES IDX 9 22 8 23 7 24 6 25 5 26 4 27 3 28 2 29 1 30
REMARK H PARENT
REMARK Flexibility Score: inf
ROOT
ATOM      1  C   UNL     1      44.510  63.059  12.511  1.00  0.00     0.000 C 
ENDROOT
BRANCH   1   2
ATOM      2  C   UNL     1      45.006  61.879  13.369  1.00  0.00     0.000 C 
BRANCH   2   3
ATOM      3  C   UNL     1      44.595  60.480  12.870  1.00  0.00     0.000 C 
BRANCH   3   4
ATOM      4  C   UNL     1      44.452  60.372  11.337  1.00  0.00     0.000 C 
BRANCH   4   5
ATOM      5  C   UNL     1      43.027  59.985  10.899  1.00  0.00     0.000 C 
BRANCH   5   6
ATOM      6  C   UNL     1      42.649  60.589   9.535  1.00  0.00     0.000 C 
BRANCH   6   7
ATOM      7  C   UNL     1      43.887  60.883   8.669  1.00  0.00     0.000 C 
BRANCH   7   8
ATOM      8  C   UNL     1      43.711  62.120   7.770  1.00  0.00     0.000 C 
BRANCH   8   9
ATOM      9  C   UNL     1      42.453  62.105   6.884  1.00  0.00     0.000 C 
BRANCH   9  10
ATOM     10  C   UNL     1      42.405  63.273   5.885  1.00  0.00     0.000 C 
BRANCH  10  11
ATOM     11  C   UNL     1      43.566  64.267   6.095  1.00  0.00     0.000 C 
BRANCH  11  12
ATOM     12  C   UNL     1      43.275  65.687   5.574  1.00  0.00     0.006 C 
BRANCH  12  13
ATOM     13  C   UNL     1      41.776  66.011   5.437  1.00  0.00     0.053 C 
BRANCH  13  14
ATOM     14  C   UNL     1      41.420  67.349   6.016  1.00  0.00     0.041 C 
ATOM     15  O   UNL     1      42.150  67.873   6.898  1.00  0.00    -0.550 OA
ATOM     16  O   UNL     1      40.311  68.041   5.545  1.00  0.00    -0.550 OA
ENDBRANCH  13  14
ENDBRANCH  12  13
ENDBRANCH  11  12
ENDBRANCH  10  11
ENDBRANCH   9  10
ENDBRANCH   8   9
ENDBRANCH   7   8
ENDBRANCH   6   7
ENDBRANCH   5   6
ENDBRANCH   4   5
ENDBRANCH   3   4
ENDBRANCH   2   3
ENDBRANCH   1   2
BRANCH   1  17
ATOM     17  C   UNL     1      43.010  63.381  12.640  1.00  0.00     0.000 C 
BRANCH  17  18
ATOM     18  C   UNL     1      42.305  63.720  11.315  1.00  0.00     0.000 C 
BRANCH  18  19
ATOM     19  C   UNL     1      43.048  64.770  10.463  1.00  0.00     0.000 C 
BRANCH  19  20
ATOM     20  C   UNL     1      42.222  65.229   9.248  1.00  0.00     0.000 C 
BRANCH  20  21
ATOM     21  C   UNL     1      40.904  64.452   9.078  1.00  0.00     0.000 C 
BRANCH  21  22
ATOM     22  C   UNL     1      39.719  65.272   8.533  1.00  0.00    -0.000 C 
BRANCH  22  23
ATOM     23  C   UNL     1      38.915  64.531   7.449  1.00  0.00    -0.000 C 
BRANCH  23  24
ATOM     24  C   UNL     1      38.176  63.305   8.012  1.00  0.00    -0.000 C 
BRANCH  24  25
ATOM     25  C   UNL     1      38.787  61.976   7.531  1.00  0.00    -0.000 C 
BRANCH  25  26
ATOM     26  C   UNL     1      39.043  61.002   8.691  1.00  0.00    -0.000 C 
BRANCH  26  27
ATOM     27  C   UNL     1      38.409  61.481  10.007  1.00  0.00    -0.000 C 
BRANCH  27  28
ATOM     28  C   UNL     1      39.430  61.560  11.154  1.00  0.00    -0.000 C 
BRANCH  28  29
ATOM     29  C   UNL     1      38.989  62.530  12.262  1.00  0.00    -0.003 C 
ATOM     30  C   UNL     1      38.228  63.719  11.682  1.00  0.00     0.004 C 
ENDBRANCH  28  29
ENDBRANCH  27  28
ENDBRANCH  26  27
ENDBRANCH  25  26
ENDBRANCH  24  25
ENDBRANCH  23  24
ENDBRANCH  22  23
ENDBRANCH  21  22
ENDBRANCH  20  21
ENDBRANCH  19  20
ENDBRANCH  18  19
ENDBRANCH  17  18
ENDBRANCH   1  17
TORSDOF 26
ENDMDL
MODEL 8
REMARK VINA RESULT:    -4.343      1.495      3.968
REMARK INTER + INTRA:         -15.910
REMARK INTER:                 -11.642
REMARK INTRA:                  -4.268
REMARK UNBOUND:                -4.966
REMARK SMILES CCCCCCCCCCCCCCCCCCCCCCCCCCCC(=O)[O-]
REMARK SMILES IDX 15 1 16 2 17 3 18 4 19 5 20 6 21 7 22 8 23 9 24 10 25 11
REMARK SMILES IDX 26 12 27 13 28 14 29 15 30 16 14 17 13 18 12 19 11 20 10 21
REMARK SMILES IDX 9 22 8 23 7 24 6 25 5 26 4 27 3 28 2 29 1 30
REMARK H PARENT
REMARK Flexibility Score: inf
ROOT
ATOM      1  C   UNL     1      43.708  66.348   7.309  1.00  0.00     0.000 C 
ENDROOT
BRANCH   1   2
ATOM      2  C   UNL     1      43.476  65.553   6.011  1.00  0.00     0.000 C 
BRANCH   2   3
ATOM      3  C   UNL     1      43.495  66.384   4.713  1.00  0.00     0.000 C 
BRANCH   3   4
ATOM      4  C   UNL     1      42.818  65.692   3.510  1.00  0.00     0.000 C 
BRANCH   4   5
ATOM      5  C   UNL     1      42.954  64.158   3.553  1.00  0.00     0.000 C 
BRANCH   5   6
ATOM      6  C   UNL     1      41.591  63.448   3.484  1.00  0.00     0.000 C 
BRANCH   6   7
ATOM      7  C   UNL     1      41.077  63.044   4.877  1.00  0.00     0.000 C 
BRANCH   7   8
ATOM      8  C   UNL     1      39.706  63.658   5.214  1.00  0.00     0.000 C 
BRANCH   8   9
ATOM      9  C   UNL     1      39.756  64.895   6.127  1.00  0.00     0.000 C 
BRANCH   9  10
ATOM     10  C   UNL     1      39.427  66.203   5.387  1.00  0.00     0.000 C 
BRANCH  10  11
ATOM     11  C   UNL     1      39.701  67.449   6.256  1.00  0.00     0.000 C 
BRANCH  11  12
ATOM     12  C   UNL     1      40.919  68.273   5.799  1.00  0.00     0.006 C 
BRANCH  12  13
ATOM     13  C   UNL     1      41.159  69.551   6.624  1.00  0.00     0.053 C 
BRANCH  13  14
ATOM     14  C   UNL     1      41.509  70.732   5.768  1.00  0.00     0.041 C 
ATOM     15  O   UNL     1      42.240  71.651   6.224  1.00  0.00    -0.550 OA
ATOM     16  O   UNL     1      41.072  70.795   4.452  1.00  0.00    -0.550 OA
ENDBRANCH  13  14
ENDBRANCH  12  13
ENDBRANCH  11  12
ENDBRANCH  10  11
ENDBRANCH   9  10
ENDBRANCH   8   9
ENDBRANCH   7   8
ENDBRANCH   6   7
ENDBRANCH   5   6
ENDBRANCH   4   5
ENDBRANCH   3   4
ENDBRANCH   2   3
ENDBRANCH   1   2
BRANCH   1  17
ATOM     17  C   UNL     1      42.731  66.034   8.457  1.00  0.00     0.000 C 
BRANCH  17  18
ATOM     18  C   UNL     1      42.139  64.614   8.432  1.00  0.00     0.000 C 
BRANCH  18  19
ATOM     19  C   UNL     1      41.973  63.982   9.830  1.00  0.00     0.000 C 
BRANCH  19  20
ATOM     20  C   UNL     1      43.053  64.457  10.818  1.00  0.00     0.000 C 
BRANCH  20  21
ATOM     21  C   UNL     1      43.194  63.548  12.053  1.00  0.00     0.000 C 
BRANCH  21  22
ATOM     22  C   UNL     1      44.622  63.412  12.615  1.00  0.00    -0.000 C 
BRANCH  22  23
ATOM     23  C   UNL     1      44.855  62.093  13.372  1.00  0.00    -0.000 C 
BRANCH  23  24
ATOM     24  C   UNL     1      43.546  61.321  13.608  1.00  0.00    -0.000 C 
BRANCH  24  25
ATOM     25  C   UNL     1      43.499  59.989  12.837  1.00  0.00    -0.000 C 
BRANCH  25  26
ATOM     26  C   UNL     1      42.489  60.024  11.679  1.00  0.00    -0.000 C 
BRANCH  26  27
ATOM     27  C   UNL     1      43.128  59.641  10.334  1.00  0.00    -0.000 C 
BRANCH  27  28
ATOM     28  C   UNL     1      44.545  60.217  10.173  1.00  0.00    -0.000 C 
BRANCH  28  29
ATOM     29  C   UNL     1      44.709  61.006   8.865  1.00  0.00    -0.003 C 
ATOM     30  C   UNL     1      43.379  61.130   8.126  1.00  0.00     0.004 C 
ENDBRANCH  28  29
ENDBRANCH  27  28
ENDBRANCH  26  27
ENDBRANCH  25  26
ENDBRANCH  24  25
ENDBRANCH  23  24
ENDBRANCH  22  23
ENDBRANCH  21  22
ENDBRANCH  20  21
ENDBRANCH  19  20
ENDBRANCH  18  19
ENDBRANCH  17  18
ENDBRANCH   1  17
TORSDOF 26
ENDMDL
MODEL 9
REMARK VINA RESULT:    -4.300      2.819      7.556
REMARK INTER + INTRA:         -15.802
REMARK INTER:                 -10.747
REMARK INTRA:                  -5.056
REMARK UNBOUND:                -4.966
REMARK SMILES CCCCCCCCCCCCCCCCCCCCCCCCCCCC(=O)[O-]
REMARK SMILES IDX 15 1 16 2 17 3 18 4 19 5 20 6 21 7 22 8 23 9 24 10 25 11
REMARK SMILES IDX 26 12 27 13 28 14 29 15 30 16 14 17 13 18 12 19 11 20 10 21
REMARK SMILES IDX 9 22 8 23 7 24 6 25 5 26 4 27 3 28 2 29 1 30
REMARK H PARENT
REMARK Flexibility Score: inf
ROOT
ATOM      1  C   UNL     1      40.861  62.362   5.276  1.00  0.00     0.000 C 
ENDROOT
BRANCH   1   2
ATOM      2  C   UNL     1      40.878  61.099   6.159  1.00  0.00     0.000 C 
BRANCH   2   3
ATOM      3  C   UNL     1      40.919  61.354   7.678  1.00  0.00     0.000 C 
BRANCH   3   4
ATOM      4  C   UNL     1      42.118  60.700   8.397  1.00  0.00     0.000 C 
BRANCH   4   5
ATOM      5  C   UNL     1      43.427  61.490   8.208  1.00  0.00     0.000 C 
BRANCH   5   6
ATOM      6  C   UNL     1      44.644  60.758   8.800  1.00  0.00     0.000 C 
BRANCH   6   7
ATOM      7  C   UNL     1      44.423  60.363  10.271  1.00  0.00     0.000 C 
BRANCH   7   8
ATOM      8  C   UNL     1      45.310  61.158  11.247  1.00  0.00     0.000 C 
BRANCH   8   9
ATOM      9  C   UNL     1      44.562  61.798  12.430  1.00  0.00     0.000 C 
BRANCH   9  10
ATOM     10  C   UNL     1      44.454  63.328  12.317  1.00  0.00     0.000 C 
BRANCH  10  11
ATOM     11  C   UNL     1      42.994  63.798  12.151  1.00  0.00     0.000 C 
BRANCH  11  12
ATOM     12  C   UNL     1      41.965  62.651  12.144  1.00  0.00     0.006 C 
BRANCH  12  13
ATOM     13  C   UNL     1      40.814  62.845  11.140  1.00  0.00     0.053 C 
BRANCH  13  14
ATOM     14  C   UNL     1      39.489  63.044  11.815  1.00  0.00     0.041 C 
ATOM     15  O   UNL     1      39.375  62.865  13.056  1.00  0.00    -0.550 OA
ATOM     16  O   UNL     1      38.390  63.477  11.083  1.00  0.00    -0.550 OA
ENDBRANCH  13  14
ENDBRANCH  12  13
ENDBRANCH  11  12
ENDBRANCH  10  11
ENDBRANCH   9  10
ENDBRANCH   8   9
ENDBRANCH   7   8
ENDBRANCH   6   7
ENDBRANCH   5   6
ENDBRANCH   4   5
ENDBRANCH   3   4
ENDBRANCH   2   3
ENDBRANCH   1   2
BRANCH   1  17
ATOM     17  C   UNL     1      42.224  63.054   5.093  1.00  0.00     0.000 C 
BRANCH  17  18
ATOM     18  C   UNL     1      42.157  64.462   4.477  1.00  0.00     0.000 C 
BRANCH  18  19
ATOM     19  C   UNL     1      43.371  65.352   4.820  1.00  0.00     0.000 C 
BRANCH  19  20
ATOM     20  C   UNL     1      43.848  65.156   6.269  1.00  0.00     0.000 C 
BRANCH  20  21
ATOM     21  C   UNL     1      43.547  66.361   7.180  1.00  0.00     0.000 C 
BRANCH  21  22
ATOM     22  C   UNL     1      42.823  66.028   8.498  1.00  0.00    -0.000 C 
BRANCH  22  23
ATOM     23  C   UNL     1      41.924  64.783   8.401  1.00  0.00    -0.000 C 
BRANCH  23  24
ATOM     24  C   UNL     1      40.547  65.107   7.800  1.00  0.00    -0.000 C 
BRANCH  24  25
ATOM     25  C   UNL     1      39.830  66.247   8.547  1.00  0.00    -0.000 C 
BRANCH  25  26
ATOM     26  C   UNL     1      39.718  67.520   7.694  1.00  0.00    -0.000 C 
BRANCH  26  27
ATOM     27  C   UNL     1      40.086  67.272   6.222  1.00  0.00    -0.000 C 
BRANCH  27  28
ATOM     28  C   UNL     1      40.986  68.377   5.648  1.00  0.00    -0.000 C 
BRANCH  28  29
ATOM     29  C   UNL     1      41.368  69.427   6.703  1.00  0.00    -0.003 C 
ATOM     30  C   UNL     1      41.671  70.775   6.054  1.00  0.00     0.004 C 
ENDBRANCH  28  29
ENDBRANCH  27  28
ENDBRANCH  26  27
ENDBRANCH  25  26
ENDBRANCH  24  25
ENDBRANCH  23  24
ENDBRANCH  22  23
ENDBRANCH  21  22
ENDBRANCH  20  21
ENDBRANCH  19  20
ENDBRANCH  18  19
ENDBRANCH  17  18
ENDBRANCH   1  17
TORSDOF 26
ENDMDL
