MODEL 1
REMARK VINA RESULT:    -7.069      0.000      0.000
REMARK INTER + INTRA:          -7.904
REMARK INTER:                  -7.689
REMARK INTRA:                  -0.215
REMARK UNBOUND:                -0.215
REMARK SMILES C=C1C[C@]2(O)O[C@]3(C[C@H]2C(C)C)[C@H](C)CC[C@@H]13
REMARK SMILES IDX 14 1 13 2 15 3 16 4 17 5 7 6 8 7 9 8 4 9 6 10 3 11 2 12 1 13
REMARK SMILES IDX 10 14 11 15 12 16 5 17
REMARK H PARENT 5 18
REMARK Flexibility Score: inf
ROOT
ATOM      1  C   UNL     1      27.031  18.842 -30.814  1.00  0.00     0.011 C 
ATOM      2  C   UNL     1      27.999  19.367 -29.740  1.00  0.00     0.019 C 
ATOM      3  C   UNL     1      28.299  20.877 -29.927  1.00  0.00     0.007 C 
ATOM      4  C   UNL     1      29.750  21.001 -30.433  1.00  0.00     0.011 C 
ATOM      5  C   UNL     1      30.131  19.580 -30.818  1.00  0.00     0.047 C 
ATOM      6  C   UNL     1      29.387  18.705 -29.810  1.00  0.00     0.081 C 
ATOM      7  C   UNL     1      30.070  18.662 -28.412  1.00  0.00     0.046 C 
ATOM      8  C   UNL     1      30.849  17.348 -28.436  1.00  0.00     0.054 C 
ATOM      9  C   UNL     1      30.713  16.936 -29.920  1.00  0.00     0.173 C 
ATOM     10  O   UNL     1      29.426  17.386 -30.309  1.00  0.00    -0.342 OA
ATOM     11  C   UNL     1      31.814  17.645 -30.794  1.00  0.00     0.096 C 
ATOM     12  C   UNL     1      31.574  19.146 -30.879  1.00  0.00    -0.066 C 
ATOM     13  C   UNL     1      32.564  19.988 -31.205  1.00  0.00     0.008 C 
ENDROOT
BRANCH   8  14
ATOM     14  C   UNL     1      30.326  16.282 -27.415  1.00  0.00    -0.009 C 
ATOM     15  C   UNL     1      31.489  15.553 -26.724  1.00  0.00     0.008 C 
ATOM     16  C   UNL     1      29.342  16.834 -26.365  1.00  0.00     0.008 C 
ENDBRANCH   8  14
BRANCH   9  17
ATOM     17  O   UNL     1      30.791  15.544 -30.099  1.00  0.00    -0.365 OA
ATOM     18  H   UNL     1      31.736  15.278 -29.943  1.00  0.00     0.214 HD
ENDBRANCH   9  17
TORSDOF 2
ENDMDL
MODEL 2
REMARK VINA RESULT:    -7.061      1.848      2.628
REMARK INTER + INTRA:          -7.895
REMARK INTER:                  -7.643
REMARK INTRA:                  -0.251
REMARK UNBOUND:                -0.215
REMARK SMILES C=C1C[C@]2(O)O[C@]3(C[C@H]2C(C)C)[C@H](C)CC[C@@H]13
REMARK SMILES IDX 14 1 13 2 15 3 16 4 17 5 7 6 8 7 9 8 4 9 6 10 3 11 2 12 1 13
REMARK SMILES IDX 10 14 11 15 12 16 5 17
REMARK H PARENT 5 18
REMARK Flexibility Score: inf
ROOT
ATOM      1  C   UNL     1      28.127  21.235 -29.844  1.00  0.00     0.011 C 
ATOM      2  C   UNL     1      29.395  20.370 -29.952  1.00  0.00     0.019 C 
ATOM      3  C   UNL     1      30.173  20.654 -31.263  1.00  0.00     0.007 C 
ATOM      4  C   UNL     1      29.990  19.432 -32.184  1.00  0.00     0.011 C 
ATOM      5  C   UNL     1      28.877  18.634 -31.524  1.00  0.00     0.047 C 
ATOM      6  C   UNL     1      29.086  18.864 -30.027  1.00  0.00     0.081 C 
ATOM      7  C   UNL     1      30.245  18.013 -29.432  1.00  0.00     0.046 C 
ATOM      8  C   UNL     1      29.524  16.831 -28.784  1.00  0.00     0.054 C 
ATOM      9  C   UNL     1      28.081  17.028 -29.304  1.00  0.00     0.173 C 
ATOM     10  O   UNL     1      27.908  18.433 -29.382  1.00  0.00    -0.342 OA
ATOM     11  C   UNL     1      27.917  16.390 -30.734  1.00  0.00     0.096 C 
ATOM     12  C   UNL     1      28.717  17.155 -31.779  1.00  0.00    -0.066 C 
ATOM     13  C   UNL     1      29.057  16.587 -32.944  1.00  0.00     0.008 C 
ENDROOT
BRANCH   8  14
ATOM     14  C   UNL     1      29.651  16.788 -27.224  1.00  0.00    -0.009 C 
ATOM     15  C   UNL     1      30.716  15.773 -26.779  1.00  0.00     0.008 C 
ATOM     16  C   UNL     1      29.913  18.158 -26.568  1.00  0.00     0.008 C 
ENDBRANCH   8  14
BRANCH   9  17
ATOM     17  O   UNL     1      27.119  16.490 -28.433  1.00  0.00    -0.365 OA
ATOM     18  H   UNL     1      27.190  15.500 -28.489  1.00  0.00     0.214 HD
ENDBRANCH   9  17
TORSDOF 2
ENDMDL
MODEL 3
REMARK VINA RESULT:    -7.052      2.005      4.123
REMARK INTER + INTRA:          -7.885
REMARK INTER:                  -7.607
REMARK INTRA:                  -0.278
REMARK UNBOUND:                -0.215
REMARK SMILES C=C1C[C@]2(O)O[C@]3(C[C@H]2C(C)C)[C@H](C)CC[C@@H]13
REMARK SMILES IDX 14 1 13 2 15 3 16 4 17 5 7 6 8 7 9 8 4 9 6 10 3 11 2 12 1 13
REMARK SMILES IDX 10 14 11 15 12 16 5 17
REMARK H PARENT 5 18
REMARK Flexibility Score: inf
ROOT
ATOM      1  C   UNL     1      30.299  17.981 -27.371  1.00  0.00     0.011 C 
ATOM      2  C   UNL     1      30.564  18.293 -28.854  1.00  0.00     0.019 C 
ATOM      3  C   UNL     1      31.213  19.689 -29.040  1.00  0.00     0.007 C 
ATOM      4  C   UNL     1      30.148  20.616 -29.659  1.00  0.00     0.011 C 
ATOM      5  C   UNL     1      28.852  19.834 -29.521  1.00  0.00     0.047 C 
ATOM      6  C   UNL     1      29.273  18.374 -29.688  1.00  0.00     0.081 C 
ATOM      7  C   UNL     1      29.525  17.974 -31.171  1.00  0.00     0.046 C 
ATOM      8  C   UNL     1      28.230  17.271 -31.576  1.00  0.00     0.054 C 
ATOM      9  C   UNL     1      27.320  17.579 -30.364  1.00  0.00     0.173 C 
ATOM     10  O   UNL     1      28.191  17.586 -29.245  1.00  0.00    -0.342 OA
ATOM     11  C   UNL     1      26.645  18.992 -30.523  1.00  0.00     0.096 C 
ATOM     12  C   UNL     1      27.670  20.113 -30.418  1.00  0.00    -0.066 C 
ATOM     13  C   UNL     1      27.418  21.331 -30.915  1.00  0.00     0.008 C 
ENDROOT
BRANCH   8  14
ATOM     14  C   UNL     1      28.405  15.746 -31.886  1.00  0.00    -0.009 C 
ATOM     15  C   UNL     1      28.184  15.451 -33.378  1.00  0.00     0.008 C 
ATOM     16  C   UNL     1      29.747  15.151 -31.416  1.00  0.00     0.008 C 
ENDBRANCH   8  14
BRANCH   9  17
ATOM     17  O   UNL     1      26.329  16.600 -30.175  1.00  0.00    -0.365 OA
ATOM     18  H   UNL     1      25.685  16.683 -30.928  1.00  0.00     0.214 HD
ENDBRANCH   9  17
TORSDOF 2
ENDMDL
MODEL 4
REMARK VINA RESULT:    -7.007      1.906      4.223
REMARK INTER + INTRA:          -7.836
REMARK INTER:                  -7.620
REMARK INTRA:                  -0.216
REMARK UNBOUND:                -0.215
REMARK SMILES C=C1C[C@]2(O)O[C@]3(C[C@H]2C(C)C)[C@H](C)CC[C@@H]13
REMARK SMILES IDX 14 1 13 2 15 3 16 4 17 5 7 6 8 7 9 8 4 9 6 10 3 11 2 12 1 13
REMARK SMILES IDX 10 14 11 15 12 16 5 17
REMARK H PARENT 5 18
REMARK Flexibility Score: inf
ROOT
ATOM      1  C   UNL     1      26.426  19.141 -30.761  1.00  0.00     0.011 C 
ATOM      2  C   UNL     1      27.548  18.092 -30.845  1.00  0.00     0.019 C 
ATOM      3  C   UNL     1      27.027  16.666 -30.527  1.00  0.00     0.007 C 
ATOM      4  C   UNL     1      27.583  16.268 -29.146  1.00  0.00     0.011 C 
ATOM      5  C   UNL     1      28.133  17.567 -28.579  1.00  0.00     0.047 C 
ATOM      6  C   UNL     1      28.658  18.319 -29.802  1.00  0.00     0.081 C 
ATOM      7  C   UNL     1      30.032  17.789 -30.306  1.00  0.00     0.046 C 
ATOM      8  C   UNL     1      31.035  18.779 -29.716  1.00  0.00     0.054 C 
ATOM      9  C   UNL     1      30.136  19.592 -28.755  1.00  0.00     0.173 C 
ATOM     10  O   UNL     1      28.873  19.653 -29.398  1.00  0.00    -0.342 OA
ATOM     11  C   UNL     1      29.994  18.855 -27.372  1.00  0.00     0.096 C 
ATOM     12  C   UNL     1      29.195  17.566 -27.507  1.00  0.00    -0.066 C 
ATOM     13  C   UNL     1      29.290  16.593 -26.592  1.00  0.00     0.008 C 
ENDROOT
BRANCH   8  14
ATOM     14  C   UNL     1      31.784  19.639 -30.788  1.00  0.00    -0.009 C 
ATOM     15  C   UNL     1      33.122  18.995 -31.184  1.00  0.00     0.008 C 
ATOM     16  C   UNL     1      30.951  19.957 -32.045  1.00  0.00     0.008 C 
ENDBRANCH   8  14
BRANCH   9  17
ATOM     17  O   UNL     1      30.614  20.897 -28.549  1.00  0.00    -0.365 OA
ATOM     18  H   UNL     1      31.117  21.160 -29.365  1.00  0.00     0.214 HD
ENDBRANCH   9  17
TORSDOF 2
ENDMDL
MODEL 5
REMARK VINA RESULT:    -6.985      1.689      3.192
REMARK INTER + INTRA:          -7.813
REMARK INTER:                  -7.547
REMARK INTRA:                  -0.266
REMARK UNBOUND:                -0.215
REMARK SMILES C=C1C[C@]2(O)O[C@]3(C[C@H]2C(C)C)[C@H](C)CC[C@@H]13
REMARK SMILES IDX 14 1 13 2 15 3 16 4 17 5 7 6 8 7 9 8 4 9 6 10 3 11 2 12 1 13
REMARK SMILES IDX 10 14 11 15 12 16 5 17
REMARK H PARENT 5 18
REMARK Flexibility Score: inf
ROOT
ATOM      1  C   UNL     1      28.578  17.502 -33.206  1.00  0.00     0.011 C 
ATOM      2  C   UNL     1      27.889  17.460 -31.832  1.00  0.00     0.019 C 
ATOM      3  C   UNL     1      26.393  17.858 -31.927  1.00  0.00     0.007 C 
ATOM      4  C   UNL     1      26.244  19.252 -31.285  1.00  0.00     0.011 C 
ATOM      5  C   UNL     1      27.674  19.743 -31.128  1.00  0.00     0.047 C 
ATOM      6  C   UNL     1      28.477  18.475 -30.835  1.00  0.00     0.081 C 
ATOM      7  C   UNL     1      28.332  17.983 -29.366  1.00  0.00     0.046 C 
ATOM      8  C   UNL     1      29.597  18.508 -28.687  1.00  0.00     0.054 C 
ATOM      9  C   UNL     1      30.172  19.436 -29.783  1.00  0.00     0.173 C 
ATOM     10  O   UNL     1      29.837  18.806 -31.009  1.00  0.00    -0.342 OA
ATOM     11  C   UNL     1      29.500  20.858 -29.713  1.00  0.00     0.096 C 
ATOM     12  C   UNL     1      28.032  20.800 -30.113  1.00  0.00    -0.066 C 
ATOM     13  C   UNL     1      27.177  21.764 -29.748  1.00  0.00     0.008 C 
ENDROOT
BRANCH   8  14
ATOM     14  C   UNL     1      30.575  17.383 -28.209  1.00  0.00    -0.009 C 
ATOM     15  C   UNL     1      30.512  17.199 -26.685  1.00  0.00     0.008 C 
ATOM     16  C   UNL     1      30.383  16.029 -28.920  1.00  0.00     0.008 C 
ENDBRANCH   8  14
BRANCH   9  17
ATOM     17  O   UNL     1      31.568  19.567 -29.695  1.00  0.00    -0.365 OA
ATOM     18  H   UNL     1      31.856  19.108 -28.862  1.00  0.00     0.214 HD
ENDBRANCH   9  17
TORSDOF 2
ENDMDL
MODEL 6
REMARK VINA RESULT:    -6.861      1.807      3.605
REMARK INTER + INTRA:          -7.677
REMARK INTER:                  -7.399
REMARK INTRA:                  -0.278
REMARK UNBOUND:                -0.215
REMARK SMILES C=C1C[C@]2(O)O[C@]3(C[C@H]2C(C)C)[C@H](C)CC[C@@H]13
REMARK SMILES IDX 14 1 13 2 15 3 16 4 17 5 7 6 8 7 9 8 4 9 6 10 3 11 2 12 1 13
REMARK SMILES IDX 10 14 11 15 12 16 5 17
REMARK H PARENT 5 18
REMARK Flexibility Score: inf
ROOT
ATOM      1  C   UNL     1      31.766  19.927 -31.319  1.00  0.00     0.011 C 
ATOM      2  C   UNL     1      30.362  19.470 -30.889  1.00  0.00     0.019 C 
ATOM      3  C   UNL     1      29.707  20.475 -29.906  1.00  0.00     0.007 C 
ATOM      4  C   UNL     1      29.690  19.815 -28.513  1.00  0.00     0.011 C 
ATOM      5  C   UNL     1      30.601  18.607 -28.664  1.00  0.00     0.047 C 
ATOM      6  C   UNL     1      30.379  18.145 -30.104  1.00  0.00     0.081 C 
ATOM      7  C   UNL     1      29.054  17.352 -30.297  1.00  0.00     0.046 C 
ATOM      8  C   UNL     1      29.507  15.892 -30.279  1.00  0.00     0.054 C 
ATOM      9  C   UNL     1      30.981  16.032 -29.834  1.00  0.00     0.173 C 
ATOM     10  O   UNL     1      31.424  17.250 -30.410  1.00  0.00    -0.342 OA
ATOM     11  C   UNL     1      31.080  16.118 -28.265  1.00  0.00     0.096 C 
ATOM     12  C   UNL     1      30.485  17.419 -27.741  1.00  0.00    -0.066 C 
ATOM     13  C   UNL     1      30.090  17.536 -26.466  1.00  0.00     0.008 C 
ENDROOT
BRANCH   8  14
ATOM     14  C   UNL     1      29.309  15.150 -31.644  1.00  0.00    -0.009 C 
ATOM     15  C   UNL     1      28.315  13.986 -31.506  1.00  0.00     0.008 C 
ATOM     16  C   UNL     1      28.901  16.066 -32.814  1.00  0.00     0.008 C 
ENDBRANCH   8  14
BRANCH   9  17
ATOM     17  O   UNL     1      31.785  14.978 -30.301  1.00  0.00    -0.365 OA
ATOM     18  H   UNL     1      31.591  14.866 -31.269  1.00  0.00     0.214 HD
ENDBRANCH   9  17
TORSDOF 2
ENDMDL
MODEL 7
REMARK VINA RESULT:    -6.821      2.669      4.250
REMARK INTER + INTRA:          -7.634
REMARK INTER:                  -7.358
REMARK INTRA:                  -0.276
REMARK UNBOUND:                -0.215
REMARK SMILES C=C1C[C@]2(O)O[C@]3(C[C@H]2C(C)C)[C@H](C)CC[C@@H]13
REMARK SMILES IDX 14 1 13 2 15 3 16 4 17 5 7 6 8 7 9 8 4 9 6 10 3 11 2 12 1 13
REMARK SMILES IDX 10 14 11 15 12 16 5 17
REMARK H PARENT 5 18
REMARK Flexibility Score: inf
ROOT
ATOM      1  C   UNL     1      27.793  21.462 -29.732  1.00  0.00     0.011 C 
ATOM      2  C   UNL     1      28.301  20.011 -29.758  1.00  0.00     0.019 C 
ATOM      3  C   UNL     1      29.162  19.681 -28.511  1.00  0.00     0.007 C 
ATOM      4  C   UNL     1      30.627  19.565 -28.977  1.00  0.00     0.011 C 
ATOM      5  C   UNL     1      30.612  20.131 -30.388  1.00  0.00     0.047 C 
ATOM      6  C   UNL     1      29.245  19.728 -30.941  1.00  0.00     0.081 C 
ATOM      7  C   UNL     1      29.175  18.238 -31.383  1.00  0.00     0.046 C 
ATOM      8  C   UNL     1      29.367  18.306 -32.898  1.00  0.00     0.054 C 
ATOM      9  C   UNL     1      29.767  19.787 -33.092  1.00  0.00     0.173 C 
ATOM     10  O   UNL     1      29.035  20.496 -32.106  1.00  0.00    -0.342 OA
ATOM     11  C   UNL     1      31.311  19.979 -32.852  1.00  0.00     0.096 C 
ATOM     12  C   UNL     1      31.678  19.761 -31.391  1.00  0.00    -0.066 C 
ATOM     13  C   UNL     1      32.935  19.471 -31.028  1.00  0.00     0.008 C 
ENDROOT
BRANCH   8  14
ATOM     14  C   UNL     1      28.110  17.860 -33.718  1.00  0.00    -0.009 C 
ATOM     15  C   UNL     1      28.353  16.517 -34.425  1.00  0.00     0.008 C 
ATOM     16  C   UNL     1      26.804  17.805 -32.901  1.00  0.00     0.008 C 
ENDBRANCH   8  14
BRANCH   9  17
ATOM     17  O   UNL     1      29.422  20.273 -34.364  1.00  0.00    -0.365 OA
ATOM     18  H   UNL     1      29.493  19.512 -35.001  1.00  0.00     0.214 HD
ENDBRANCH   9  17
TORSDOF 2
ENDMDL
MODEL 8
REMARK VINA RESULT:    -6.631      1.570      4.478
REMARK INTER + INTRA:          -7.427
REMARK INTER:                  -7.150
REMARK INTRA:                  -0.277
REMARK UNBOUND:                -0.215
REMARK SMILES C=C1C[C@]2(O)O[C@]3(C[C@H]2C(C)C)[C@H](C)CC[C@@H]13
REMARK SMILES IDX 14 1 13 2 15 3 16 4 17 5 7 6 8 7 9 8 4 9 6 10 3 11 2 12 1 13
REMARK SMILES IDX 10 14 11 15 12 16 5 17
REMARK H PARENT 5 18
REMARK Flexibility Score: inf
ROOT
ATOM      1  C   UNL     1      31.698  15.687 -27.107  1.00  0.00     0.011 C 
ATOM      2  C   UNL     1      31.060  17.071 -27.314  1.00  0.00     0.019 C 
ATOM      3  C   UNL     1      29.906  17.326 -26.310  1.00  0.00     0.007 C 
ATOM      4  C   UNL     1      28.584  17.267 -27.101  1.00  0.00     0.011 C 
ATOM      5  C   UNL     1      28.982  16.679 -28.445  1.00  0.00     0.047 C 
ATOM      6  C   UNL     1      30.390  17.221 -28.691  1.00  0.00     0.081 C 
ATOM      7  C   UNL     1      30.402  18.701 -29.173  1.00  0.00     0.046 C 
ATOM      8  C   UNL     1      30.572  18.582 -30.687  1.00  0.00     0.054 C 
ATOM      9  C   UNL     1      30.386  17.061 -30.900  1.00  0.00     0.173 C 
ATOM     10  O   UNL     1      30.941  16.459 -29.742  1.00  0.00    -0.342 OA
ATOM     11  C   UNL     1      28.857  16.700 -31.007  1.00  0.00     0.096 C 
ATOM     12  C   UNL     1      28.143  16.905 -29.679  1.00  0.00    -0.066 C 
ATOM     13  C   UNL     1      26.813  17.059 -29.624  1.00  0.00     0.008 C 
ENDROOT
BRANCH   8  14
ATOM     14  C   UNL     1      31.930  19.150 -31.220  1.00  0.00    -0.009 C 
ATOM     15  C   UNL     1      31.715  20.430 -32.043  1.00  0.00     0.008 C 
ATOM     16  C   UNL     1      32.993  19.388 -30.129  1.00  0.00     0.008 C 
ENDBRANCH   8  14
BRANCH   9  17
ATOM     17  O   UNL     1      31.064  16.592 -32.037  1.00  0.00    -0.365 OA
ATOM     18  H   UNL     1      31.616  15.816 -31.753  1.00  0.00     0.214 HD
ENDBRANCH   9  17
TORSDOF 2
ENDMDL
MODEL 9
REMARK VINA RESULT:    -6.620      1.519      4.746
REMARK INTER + INTRA:          -7.416
REMARK INTER:                  -7.140
REMARK INTRA:                  -0.276
REMARK UNBOUND:                -0.215
REMARK SMILES C=C1C[C@]2(O)O[C@]3(C[C@H]2C(C)C)[C@H](C)CC[C@@H]13
REMARK SMILES IDX 14 1 13 2 15 3 16 4 17 5 7 6 8 7 9 8 4 9 6 10 3 11 2 12 1 13
REMARK SMILES IDX 10 14 11 15 12 16 5 17
REMARK H PARENT 5 18
REMARK Flexibility Score: inf
ROOT
ATOM      1  C   UNL     1      31.068  16.647 -32.056  1.00  0.00     0.011 C 
ATOM      2  C   UNL     1      31.162  17.766 -31.005  1.00  0.00     0.019 C 
ATOM      3  C   UNL     1      32.296  17.499 -29.981  1.00  0.00     0.007 C 
ATOM      4  C   UNL     1      31.630  17.124 -28.642  1.00  0.00     0.011 C 
ATOM      5  C   UNL     1      30.175  16.881 -29.007  1.00  0.00     0.047 C 
ATOM      6  C   UNL     1      29.898  17.876 -30.133  1.00  0.00     0.081 C 
ATOM      7  C   UNL     1      29.678  19.332 -29.627  1.00  0.00     0.046 C 
ATOM      8  C   UNL     1      28.157  19.478 -29.611  1.00  0.00     0.054 C 
ATOM      9  C   UNL     1      27.705  18.021 -29.867  1.00  0.00     0.173 C 
ATOM     10  O   UNL     1      28.686  17.481 -30.736  1.00  0.00    -0.342 OA
ATOM     11  C   UNL     1      27.677  17.205 -28.521  1.00  0.00     0.096 C 
ATOM     12  C   UNL     1      29.080  16.989 -27.973  1.00  0.00    -0.066 C 
ATOM     13  C   UNL     1      29.282  16.697 -26.681  1.00  0.00     0.008 C 
ENDROOT
BRANCH   8  14
ATOM     14  C   UNL     1      27.608  20.520 -30.643  1.00  0.00    -0.009 C 
ATOM     15  C   UNL     1      27.054  21.766 -29.936  1.00  0.00     0.008 C 
ATOM     16  C   UNL     1      28.618  20.928 -31.733  1.00  0.00     0.008 C 
ENDBRANCH   8  14
BRANCH   9  17
ATOM     17  O   UNL     1      26.446  17.953 -30.488  1.00  0.00    -0.365 OA
ATOM     18  H   UNL     1      26.175  18.883 -30.710  1.00  0.00     0.214 HD
ENDBRANCH   9  17
TORSDOF 2
ENDMDL
