MODEL 1
REMARK VINA RESULT:    -5.749      0.000      0.000
REMARK INTER + INTRA:          -6.253
REMARK INTER:                  -6.253
REMARK INTRA:                   0.000
REMARK UNBOUND:                 0.000
REMARK SMILES Oc1cccc(O)c1O
REMARK SMILES IDX 4 1 5 2 6 3 8 4 2 5 3 6 7 7 1 9 9 11
REMARK H PARENT 7 8 1 10 9 12
REMARK Flexibility Score: inf
ROOT
ATOM      1  C   UNL     1      12.625 -12.945  28.503  1.00  0.00     0.008 A 
ATOM      2  C   UNL     1      11.371 -13.227  27.963  1.00  0.00     0.050 A 
ATOM      3  C   UNL     1      10.205 -12.780  28.597  1.00  0.00     0.161 A 
ATOM      4  C   UNL     1      10.304 -12.034  29.798  1.00  0.00     0.200 A 
ATOM      5  C   UNL     1      11.577 -11.755  30.335  1.00  0.00     0.161 A 
ATOM      6  C   UNL     1      12.728 -12.211  29.685  1.00  0.00     0.050 A 
ENDROOT
BRANCH   3   7
ATOM      7  O   UNL     1       8.981 -13.098  28.003  1.00  0.00    -0.504 OA
ATOM      8  H   UNL     1       8.350 -13.806  28.350  1.00  0.00     0.293 HD
ENDBRANCH   3   7
BRANCH   5   9
ATOM      9  O   UNL     1      11.718 -11.024  31.514  1.00  0.00    -0.504 OA
ATOM     10  H   UNL     1      12.383 -11.281  32.233  1.00  0.00     0.293 HD
ENDBRANCH   5   9
BRANCH   4  11
ATOM     11  O   UNL     1       9.179 -11.562  30.477  1.00  0.00    -0.502 OA
ATOM     12  H   UNL     1       9.059 -10.607  30.782  1.00  0.00     0.293 HD
ENDBRANCH   4  11
TORSDOF 3
ENDMDL
MODEL 2
REMARK VINA RESULT:    -5.658      0.060      2.825
REMARK INTER + INTRA:          -6.154
REMARK INTER:                  -6.154
REMARK INTRA:                   0.000
REMARK UNBOUND:                 0.000
REMARK SMILES Oc1cccc(O)c1O
REMARK SMILES IDX 4 1 5 2 6 3 8 4 2 5 3 6 7 7 1 9 9 11
REMARK H PARENT 7 8 1 10 9 12
REMARK Flexibility Score: inf
ROOT
ATOM      1  C   UNL     1      12.629 -12.950  28.538  1.00  0.00     0.008 A 
ATOM      2  C   UNL     1      12.731 -12.201  29.710  1.00  0.00     0.050 A 
ATOM      3  C   UNL     1      11.583 -11.712  30.346  1.00  0.00     0.161 A 
ATOM      4  C   UNL     1      10.307 -11.985  29.791  1.00  0.00     0.200 A 
ATOM      5  C   UNL     1      10.216 -12.743  28.607  1.00  0.00     0.161 A 
ATOM      6  C   UNL     1      11.376 -13.221  27.989  1.00  0.00     0.050 A 
ENDROOT
BRANCH   3   7
ATOM      7  O   UNL     1      11.756 -10.968  31.515  1.00  0.00    -0.504 OA
ATOM      8  H   UNL     1      11.095 -10.283  31.854  1.00  0.00     0.293 HD
ENDBRANCH   3   7
BRANCH   5   9
ATOM      9  O   UNL     1       8.981 -13.033  28.029  1.00  0.00    -0.504 OA
ATOM     10  H   UNL     1       8.884 -13.274  27.051  1.00  0.00     0.293 HD
ENDBRANCH   5   9
BRANCH   4  11
ATOM     11  O   UNL     1       9.126 -11.525  30.378  1.00  0.00    -0.502 OA
ATOM     12  H   UNL     1       8.220 -11.949  30.238  1.00  0.00     0.293 HD
ENDBRANCH   4  11
TORSDOF 3
ENDMDL
MODEL 3
REMARK VINA RESULT:    -5.596      1.140      2.797
REMARK INTER + INTRA:          -6.087
REMARK INTER:                  -6.087
REMARK INTRA:                   0.000
REMARK UNBOUND:                 0.000
REMARK SMILES Oc1cccc(O)c1O
REMARK SMILES IDX 4 1 5 2 6 3 8 4 2 5 3 6 7 7 1 9 9 11
REMARK H PARENT 7 8 1 10 9 12
REMARK Flexibility Score: inf
ROOT
ATOM      1  C   UNL     1      12.449 -11.604  29.697  1.00  0.00     0.008 A 
ATOM      2  C   UNL     1      11.238 -11.166  30.234  1.00  0.00     0.050 A 
ATOM      3  C   UNL     1      10.021 -11.622  29.713  1.00  0.00     0.161 A 
ATOM      4  C   UNL     1      10.023 -12.539  28.631  1.00  0.00     0.200 A 
ATOM      5  C   UNL     1      11.252 -12.974  28.098  1.00  0.00     0.161 A 
ATOM      6  C   UNL     1      12.456 -12.506  28.633  1.00  0.00     0.050 A 
ENDROOT
BRANCH   3   7
ATOM      7  O   UNL     1       8.846 -11.144  30.296  1.00  0.00    -0.504 OA
ATOM      8  H   UNL     1       7.920 -11.470  30.057  1.00  0.00     0.293 HD
ENDBRANCH   3   7
BRANCH   5   9
ATOM      9  O   UNL     1      11.298 -13.875  27.034  1.00  0.00    -0.504 OA
ATOM     10  H   UNL     1      11.627 -14.826  27.144  1.00  0.00     0.293 HD
ENDBRANCH   5   9
BRANCH   4  11
ATOM     11  O   UNL     1       8.843 -13.029  28.068  1.00  0.00    -0.502 OA
ATOM     12  H   UNL     1       8.617 -12.975  27.086  1.00  0.00     0.293 HD
ENDBRANCH   4  11
TORSDOF 3
ENDMDL
MODEL 4
REMARK VINA RESULT:    -5.443      1.601      2.461
REMARK INTER + INTRA:          -5.921
REMARK INTER:                  -5.921
REMARK INTRA:                   0.000
REMARK UNBOUND:                 0.000
REMARK SMILES Oc1cccc(O)c1O
REMARK SMILES IDX 4 1 5 2 6 3 8 4 2 5 3 6 7 7 1 9 9 11
REMARK H PARENT 7 8 1 10 9 12
REMARK Flexibility Score: inf
ROOT
ATOM      1  C   UNL     1      12.040 -10.898  29.558  1.00  0.00     0.008 A 
ATOM      2  C   UNL     1      12.267 -12.015  28.754  1.00  0.00     0.050 A 
ATOM      3  C   UNL     1      11.194 -12.733  28.212  1.00  0.00     0.161 A 
ATOM      4  C   UNL     1       9.866 -12.317  28.484  1.00  0.00     0.200 A 
ATOM      5  C   UNL     1       9.649 -11.187  29.297  1.00  0.00     0.161 A 
ATOM      6  C   UNL     1      10.736 -10.485  29.828  1.00  0.00     0.050 A 
ENDROOT
BRANCH   3   7
ATOM      7  O   UNL     1      11.491 -13.842  27.417  1.00  0.00    -0.504 OA
ATOM      8  H   UNL     1      12.137 -13.827  26.642  1.00  0.00     0.293 HD
ENDBRANCH   3   7
BRANCH   5   9
ATOM      9  O   UNL     1       8.359 -10.745  29.588  1.00  0.00    -0.504 OA
ATOM     10  H   UNL     1       7.978 -10.768  30.526  1.00  0.00     0.293 HD
ENDBRANCH   5   9
BRANCH   4  11
ATOM     11  O   UNL     1       8.755 -12.992  27.973  1.00  0.00    -0.502 OA
ATOM     12  H   UNL     1       7.952 -12.535  27.564  1.00  0.00     0.293 HD
ENDBRANCH   4  11
TORSDOF 3
ENDMDL
MODEL 5
REMARK VINA RESULT:    -5.310      1.864      3.632
REMARK INTER + INTRA:          -5.775
REMARK INTER:                  -5.775
REMARK INTRA:                   0.000
REMARK UNBOUND:                 0.000
REMARK SMILES Oc1cccc(O)c1O
REMARK SMILES IDX 4 1 5 2 6 3 8 4 2 5 3 6 7 7 1 9 9 11
REMARK H PARENT 7 8 1 10 9 12
REMARK Flexibility Score: inf
ROOT
ATOM      1  C   UNL     1      10.419 -10.373  29.305  1.00  0.00     0.008 A 
ATOM      2  C   UNL     1      11.766 -10.733  29.265  1.00  0.00     0.050 A 
ATOM      3  C   UNL     1      12.160 -11.958  28.714  1.00  0.00     0.161 A 
ATOM      4  C   UNL     1      11.178 -12.838  28.191  1.00  0.00     0.200 A 
ATOM      5  C   UNL     1       9.821 -12.463  28.237  1.00  0.00     0.161 A 
ATOM      6  C   UNL     1       9.450 -11.234  28.793  1.00  0.00     0.050 A 
ENDROOT
BRANCH   3   7
ATOM      7  O   UNL     1      13.524 -12.258  28.705  1.00  0.00    -0.504 OA
ATOM      8  H   UNL     1      14.197 -11.857  29.343  1.00  0.00     0.293 HD
ENDBRANCH   3   7
BRANCH   5   9
ATOM      9  O   UNL     1       8.825 -13.299  27.733  1.00  0.00    -0.504 OA
ATOM     10  H   UNL     1       8.003 -12.939  27.263  1.00  0.00     0.293 HD
ENDBRANCH   5   9
BRANCH   4  11
ATOM     11  O   UNL     1      11.508 -14.073  27.629  1.00  0.00    -0.502 OA
ATOM     12  H   UNL     1      11.322 -14.964  28.066  1.00  0.00     0.293 HD
ENDBRANCH   4  11
TORSDOF 3
ENDMDL
MODEL 6
REMARK VINA RESULT:    -5.285      1.360      2.318
REMARK INTER + INTRA:          -5.748
REMARK INTER:                  -5.748
REMARK INTRA:                   0.000
REMARK UNBOUND:                 0.000
REMARK SMILES Oc1cccc(O)c1O
REMARK SMILES IDX 4 1 5 2 6 3 8 4 2 5 3 6 7 7 1 9 9 11
REMARK H PARENT 7 8 1 10 9 12
REMARK Flexibility Score: inf
ROOT
ATOM      1  C   UNL     1      10.250 -12.651  27.485  1.00  0.00     0.008 A 
ATOM      2  C   UNL     1       9.366 -11.915  28.273  1.00  0.00     0.050 A 
ATOM      3  C   UNL     1       9.703 -11.567  29.587  1.00  0.00     0.161 A 
ATOM      4  C   UNL     1      10.955 -11.969  30.117  1.00  0.00     0.200 A 
ATOM      5  C   UNL     1      11.839 -12.713  29.312  1.00  0.00     0.161 A 
ATOM      6  C   UNL     1      11.482 -13.049  28.002  1.00  0.00     0.050 A 
ENDROOT
BRANCH   3   7
ATOM      7  O   UNL     1       8.773 -10.829  30.322  1.00  0.00    -0.504 OA
ATOM      8  H   UNL     1       8.534  -9.867  30.131  1.00  0.00     0.293 HD
ENDBRANCH   3   7
BRANCH   5   9
ATOM      9  O   UNL     1      13.080 -13.128  29.796  1.00  0.00    -0.504 OA
ATOM     10  H   UNL     1      13.950 -12.867  29.347  1.00  0.00     0.293 HD
ENDBRANCH   5   9
BRANCH   4  11
ATOM     11  O   UNL     1      11.348 -11.655  31.420  1.00  0.00    -0.502 OA
ATOM     12  H   UNL     1      10.805 -11.087  32.055  1.00  0.00     0.293 HD
ENDBRANCH   4  11
TORSDOF 3
ENDMDL
MODEL 7
REMARK VINA RESULT:    -5.277      1.359      2.647
REMARK INTER + INTRA:          -5.739
REMARK INTER:                  -5.739
REMARK INTRA:                   0.000
REMARK UNBOUND:                 0.000
REMARK SMILES Oc1cccc(O)c1O
REMARK SMILES IDX 4 1 5 2 6 3 8 4 2 5 3 6 7 7 1 9 9 11
REMARK H PARENT 7 8 1 10 9 12
REMARK Flexibility Score: inf
ROOT
ATOM      1  C   UNL     1      10.261 -12.656  27.472  1.00  0.00     0.008 A 
ATOM      2  C   UNL     1      11.489 -13.065  27.994  1.00  0.00     0.050 A 
ATOM      3  C   UNL     1      11.845 -12.745  29.310  1.00  0.00     0.161 A 
ATOM      4  C   UNL     1      10.948 -12.001  30.116  1.00  0.00     0.200 A 
ATOM      5  C   UNL     1       9.711 -11.593  29.578  1.00  0.00     0.161 A 
ATOM      6  C   UNL     1       9.376 -11.924  28.261  1.00  0.00     0.050 A 
ENDROOT
BRANCH   3   7
ATOM      7  O   UNL     1      13.089 -13.185  29.770  1.00  0.00    -0.504 OA
ATOM      8  H   UNL     1      13.214 -13.826  30.540  1.00  0.00     0.293 HD
ENDBRANCH   3   7
BRANCH   5   9
ATOM      9  O   UNL     1       8.801 -10.860  30.338  1.00  0.00    -0.504 OA
ATOM     10  H   UNL     1       8.241 -10.115  29.941  1.00  0.00     0.293 HD
ENDBRANCH   5   9
BRANCH   4  11
ATOM     11  O   UNL     1      11.246 -11.651  31.435  1.00  0.00    -0.502 OA
ATOM     12  H   UNL     1      10.563 -11.332  32.106  1.00  0.00     0.293 HD
ENDBRANCH   4  11
TORSDOF 3
ENDMDL
MODEL 8
REMARK VINA RESULT:    -5.137     11.817     12.732
REMARK INTER + INTRA:          -5.588
REMARK INTER:                  -5.588
REMARK INTRA:                   0.000
REMARK UNBOUND:                 0.000
REMARK SMILES Oc1cccc(O)c1O
REMARK SMILES IDX 4 1 5 2 6 3 8 4 2 5 3 6 7 7 1 9 9 11
REMARK H PARENT 7 8 1 10 9 12
REMARK Flexibility Score: inf
ROOT
ATOM      1  C   UNL     1      15.307  -2.604  27.631  1.00  0.00     0.008 A 
ATOM      2  C   UNL     1      15.203  -1.364  27.000  1.00  0.00     0.050 A 
ATOM      3  C   UNL     1      16.327  -0.762  26.422  1.00  0.00     0.161 A 
ATOM      4  C   UNL     1      17.580  -1.422  26.479  1.00  0.00     0.200 A 
ATOM      5  C   UNL     1      17.673  -2.674  27.119  1.00  0.00     0.161 A 
ATOM      6  C   UNL     1      16.537  -3.256  27.690  1.00  0.00     0.050 A 
ENDROOT
BRANCH   3   7
ATOM      7  O   UNL     1      16.154   0.480  25.807  1.00  0.00    -0.504 OA
ATOM      8  H   UNL     1      15.272   0.970  25.756  1.00  0.00     0.293 HD
ENDBRANCH   3   7
BRANCH   5   9
ATOM      9  O   UNL     1      18.887  -3.356  27.197  1.00  0.00    -0.504 OA
ATOM     10  H   UNL     1      19.029  -4.138  27.825  1.00  0.00     0.293 HD
ENDBRANCH   5   9
BRANCH   4  11
ATOM     11  O   UNL     1      18.738  -0.873  25.922  1.00  0.00    -0.502 OA
ATOM     12  H   UNL     1      19.052   0.073  26.083  1.00  0.00     0.293 HD
ENDBRANCH   4  11
TORSDOF 3
ENDMDL
MODEL 9
REMARK VINA RESULT:    -5.090     11.818     12.771
REMARK INTER + INTRA:          -5.536
REMARK INTER:                  -5.536
REMARK INTRA:                   0.000
REMARK UNBOUND:                 0.000
REMARK SMILES Oc1cccc(O)c1O
REMARK SMILES IDX 4 1 5 2 6 3 8 4 2 5 3 6 7 7 1 9 9 11
REMARK H PARENT 7 8 1 10 9 12
REMARK Flexibility Score: inf
ROOT
ATOM      1  C   UNL     1      15.158  -2.492  27.656  1.00  0.00     0.008 A 
ATOM      2  C   UNL     1      16.368  -3.184  27.695  1.00  0.00     0.050 A 
ATOM      3  C   UNL     1      17.515  -2.649  27.096  1.00  0.00     0.161 A 
ATOM      4  C   UNL     1      17.441  -1.391  26.446  1.00  0.00     0.200 A 
ATOM      5  C   UNL     1      16.213  -0.701  26.413  1.00  0.00     0.161 A 
ATOM      6  C   UNL     1      15.080  -1.255  27.018  1.00  0.00     0.050 A 
ENDROOT
BRANCH   3   7
ATOM      7  O   UNL     1      18.694  -3.393  27.171  1.00  0.00    -0.504 OA
ATOM      8  H   UNL     1      19.523  -3.199  26.627  1.00  0.00     0.293 HD
ENDBRANCH   3   7
BRANCH   5   9
ATOM      9  O   UNL     1      16.099   0.538  25.784  1.00  0.00    -0.504 OA
ATOM     10  H   UNL     1      16.386   0.686  24.824  1.00  0.00     0.293 HD
ENDBRANCH   5   9
BRANCH   4  11
ATOM     11  O   UNL     1      18.550  -0.805  25.830  1.00  0.00    -0.502 OA
ATOM     12  H   UNL     1      19.489  -1.172  25.884  1.00  0.00     0.293 HD
ENDBRANCH   4  11
TORSDOF 3
ENDMDL
