MODEL 1
REMARK VINA RESULT:    -3.490      0.000      0.000
REMARK INTER + INTRA:         -12.744
REMARK INTER:                  -8.795
REMARK INTRA:                  -3.949
REMARK UNBOUND:                -3.949
REMARK SMILES CCCCCCCCCCCCCCCCCCCCCCCCCCCC(=O)[O-]
REMARK SMILES IDX 15 1 16 2 17 3 18 4 19 5 20 6 21 7 22 8 23 9 24 10 25 11
REMARK SMILES IDX 26 12 27 13 28 14 29 15 30 16 14 17 13 18 12 19 11 20 10 21
REMARK SMILES IDX 9 22 8 23 7 24 6 25 5 26 4 27 3 28 2 29 1 30
REMARK H PARENT
REMARK Flexibility Score: inf
ROOT
ATOM      1  C   UNL     1       6.315  -2.640  19.106  1.00  0.00     0.000 C 
ENDROOT
BRANCH   1   2
ATOM      2  C   UNL     1       5.902  -1.633  18.017  1.00  0.00     0.000 C 
BRANCH   2   3
ATOM      3  C   UNL     1       6.476  -1.987  16.631  1.00  0.00     0.000 C 
BRANCH   3   4
ATOM      4  C   UNL     1       7.524  -3.126  16.635  1.00  0.00     0.000 C 
BRANCH   4   5
ATOM      5  C   UNL     1       8.930  -2.689  16.188  1.00  0.00     0.000 C 
BRANCH   5   6
ATOM      6  C   UNL     1       9.661  -1.853  17.258  1.00  0.00     0.000 C 
BRANCH   6   7
ATOM      7  C   UNL     1      10.790  -2.645  17.949  1.00  0.00     0.000 C 
BRANCH   7   8
ATOM      8  C   UNL     1      11.035  -2.222  19.413  1.00  0.00     0.000 C 
BRANCH   8   9
ATOM      9  C   UNL     1      11.115  -3.399  20.403  1.00  0.00     0.000 C 
BRANCH   9  10
ATOM     10  C   UNL     1       9.973  -4.405  20.205  1.00  0.00     0.000 C 
BRANCH  10  11
ATOM     11  C   UNL     1      10.479  -5.849  20.319  1.00  0.00     0.000 C 
BRANCH  11  12
ATOM     12  C   UNL     1       9.779  -6.752  19.292  1.00  0.00     0.006 C 
BRANCH  12  13
ATOM     13  C   UNL     1       9.025  -5.949  18.220  1.00  0.00     0.053 C 
BRANCH  13  14
ATOM     14  C   UNL     1       8.587  -6.806  17.070  1.00  0.00     0.041 C 
ATOM     15  O   UNL     1       7.715  -7.699  17.237  1.00  0.00    -0.550 OA
ATOM     16  O   UNL     1       9.101  -6.578  15.797  1.00  0.00    -0.550 OA
ENDBRANCH  13  14
ENDBRANCH  12  13
ENDBRANCH  11  12
ENDBRANCH  10  11
ENDBRANCH   9  10
ENDBRANCH   8   9
ENDBRANCH   7   8
ENDBRANCH   6   7
ENDBRANCH   5   6
ENDBRANCH   4   5
ENDBRANCH   3   4
ENDBRANCH   2   3
ENDBRANCH   1   2
BRANCH   1  17
ATOM     17  C   UNL     1       7.358  -2.060  20.080  1.00  0.00     0.000 C 
BRANCH  17  18
ATOM     18  C   UNL     1       7.453  -0.524  20.093  1.00  0.00     0.000 C 
BRANCH  18  19
ATOM     19  C   UNL     1       8.222   0.016  21.315  1.00  0.00     0.000 C 
BRANCH  19  20
ATOM     20  C   UNL     1       8.733  -1.105  22.234  1.00  0.00     0.000 C 
BRANCH  20  21
ATOM     21  C   UNL     1      10.171  -0.848  22.714  1.00  0.00     0.000 C 
BRANCH  21  22
ATOM     22  C   UNL     1      10.346  -1.071  24.225  1.00  0.00    -0.000 C 
BRANCH  22  23
ATOM     23  C   UNL     1       9.570  -0.093  25.132  1.00  0.00    -0.000 C 
BRANCH  23  24
ATOM     24  C   UNL     1       8.549  -0.744  26.088  1.00  0.00    -0.000 C 
BRANCH  24  25
ATOM     25  C   UNL     1       8.274  -2.239  25.840  1.00  0.00    -0.000 C 
BRANCH  25  26
ATOM     26  C   UNL     1       7.832  -2.987  27.105  1.00  0.00    -0.000 C 
BRANCH  26  27
ATOM     27  C   UNL     1       6.610  -3.874  26.817  1.00  0.00    -0.000 C 
BRANCH  27  28
ATOM     28  C   UNL     1       5.542  -3.161  25.971  1.00  0.00    -0.000 C 
BRANCH  28  29
ATOM     29  C   UNL     1       4.722  -2.150  26.783  1.00  0.00    -0.003 C 
ATOM     30  C   UNL     1       3.556  -1.604  25.964  1.00  0.00     0.004 C 
ENDBRANCH  28  29
ENDBRANCH  27  28
ENDBRANCH  26  27
ENDBRANCH  25  26
ENDBRANCH  24  25
ENDBRANCH  23  24
ENDBRANCH  22  23
ENDBRANCH  21  22
ENDBRANCH  20  21
ENDBRANCH  19  20
ENDBRANCH  18  19
ENDBRANCH  17  18
ENDBRANCH   1  17
TORSDOF 26
ENDMDL
MODEL 2
REMARK VINA RESULT:    -3.470      3.786      7.586
REMARK INTER + INTRA:         -12.695
REMARK INTER:                  -7.198
REMARK INTRA:                  -5.496
REMARK UNBOUND:                -3.949
REMARK SMILES CCCCCCCCCCCCCCCCCCCCCCCCCCCC(=O)[O-]
REMARK SMILES IDX 15 1 16 2 17 3 18 4 19 5 20 6 21 7 22 8 23 9 24 10 25 11
REMARK SMILES IDX 26 12 27 13 28 14 29 15 30 16 14 17 13 18 12 19 11 20 10 21
REMARK SMILES IDX 9 22 8 23 7 24 6 25 5 26 4 27 3 28 2 29 1 30
REMARK H PARENT
REMARK Flexibility Score: inf
ROOT
ATOM      1  C   UNL     1      10.912  -3.793  20.200  1.00  0.00     0.000 C 
ENDROOT
BRANCH   1   2
ATOM      2  C   UNL     1      10.591  -2.738  21.274  1.00  0.00     0.000 C 
BRANCH   2   3
ATOM      3  C   UNL     1       9.096  -2.360  21.309  1.00  0.00     0.000 C 
BRANCH   3   4
ATOM      4  C   UNL     1       8.231  -3.041  20.221  1.00  0.00     0.000 C 
BRANCH   4   5
ATOM      5  C   UNL     1       7.018  -2.208  19.769  1.00  0.00     0.000 C 
BRANCH   5   6
ATOM      6  C   UNL     1       6.303  -2.815  18.545  1.00  0.00     0.000 C 
BRANCH   6   7
ATOM      7  C   UNL     1       5.492  -1.763  17.761  1.00  0.00     0.000 C 
BRANCH   7   8
ATOM      8  C   UNL     1       5.397  -0.397  18.474  1.00  0.00     0.000 C 
BRANCH   8   9
ATOM      9  C   UNL     1       4.405   0.585  17.823  1.00  0.00     0.000 C 
BRANCH   9  10
ATOM     10  C   UNL     1       4.979   2.003  17.704  1.00  0.00     0.000 C 
BRANCH  10  11
ATOM     11  C   UNL     1       5.351   2.331  16.253  1.00  0.00     0.000 C 
BRANCH  11  12
ATOM     12  C   UNL     1       5.991   1.113  15.568  1.00  0.00     0.006 C 
BRANCH  12  13
ATOM     13  C   UNL     1       5.421   0.862  14.163  1.00  0.00     0.053 C 
BRANCH  13  14
ATOM     14  C   UNL     1       4.232  -0.053  14.186  1.00  0.00     0.041 C 
ATOM     15  O   UNL     1       4.386  -1.301  14.110  1.00  0.00    -0.550 OA
ATOM     16  O   UNL     1       2.954   0.471  14.354  1.00  0.00    -0.550 OA
ENDBRANCH  13  14
ENDBRANCH  12  13
ENDBRANCH  11  12
ENDBRANCH  10  11
ENDBRANCH   9  10
ENDBRANCH   8   9
ENDBRANCH   7   8
ENDBRANCH   6   7
ENDBRANCH   5   6
ENDBRANCH   4   5
ENDBRANCH   3   4
ENDBRANCH   2   3
ENDBRANCH   1   2
BRANCH   1  17
ATOM     17  C   UNL     1      11.125  -5.197  20.797  1.00  0.00     0.000 C 
BRANCH  17  18
ATOM     18  C   UNL     1      10.084  -6.248  20.373  1.00  0.00     0.000 C 
BRANCH  18  19
ATOM     19  C   UNL     1       9.959  -6.381  18.843  1.00  0.00     0.000 C 
BRANCH  19  20
ATOM     20  C   UNL     1       8.529  -6.130  18.342  1.00  0.00     0.000 C 
BRANCH  20  21
ATOM     21  C   UNL     1       8.505  -5.261  17.074  1.00  0.00     0.000 C 
BRANCH  21  22
ATOM     22  C   UNL     1       9.738  -4.351  16.948  1.00  0.00    -0.000 C 
BRANCH  22  23
ATOM     23  C   UNL     1       9.440  -2.884  16.575  1.00  0.00    -0.000 C 
BRANCH  23  24
ATOM     24  C   UNL     1      10.519  -1.862  16.992  1.00  0.00    -0.000 C 
BRANCH  24  25
ATOM     25  C   UNL     1      10.052  -0.782  17.985  1.00  0.00    -0.000 C 
BRANCH  25  26
ATOM     26  C   UNL     1       8.870   0.047  17.462  1.00  0.00    -0.000 C 
BRANCH  26  27
ATOM     27  C   UNL     1       8.667   1.309  18.315  1.00  0.00    -0.000 C 
BRANCH  27  28
ATOM     28  C   UNL     1       9.076   1.109  19.783  1.00  0.00    -0.000 C 
BRANCH  28  29
ATOM     29  C   UNL     1       7.872   1.069  20.733  1.00  0.00    -0.003 C 
ATOM     30  C   UNL     1       8.033   2.080  21.866  1.00  0.00     0.004 C 
ENDBRANCH  28  29
ENDBRANCH  27  28
ENDBRANCH  26  27
ENDBRANCH  25  26
ENDBRANCH  24  25
ENDBRANCH  23  24
ENDBRANCH  22  23
ENDBRANCH  21  22
ENDBRANCH  20  21
ENDBRANCH  19  20
ENDBRANCH  18  19
ENDBRANCH  17  18
ENDBRANCH   1  17
TORSDOF 26
ENDMDL
MODEL 3
REMARK VINA RESULT:    -3.427      7.290     10.340
REMARK INTER + INTRA:         -12.584
REMARK INTER:                  -8.239
REMARK INTRA:                  -4.345
REMARK UNBOUND:                -3.949
REMARK SMILES CCCCCCCCCCCCCCCCCCCCCCCCCCCC(=O)[O-]
REMARK SMILES IDX 15 1 16 2 17 3 18 4 19 5 20 6 21 7 22 8 23 9 24 10 25 11
REMARK SMILES IDX 26 12 27 13 28 14 29 15 30 16 14 17 13 18 12 19 11 20 10 21
REMARK SMILES IDX 9 22 8 23 7 24 6 25 5 26 4 27 3 28 2 29 1 30
REMARK H PARENT
REMARK Flexibility Score: inf
ROOT
ATOM      1  C   UNL     1       2.215   4.265  16.888  1.00  0.00     0.000 C 
ENDROOT
BRANCH   1   2
ATOM      2  C   UNL     1       1.514   5.251  17.840  1.00  0.00     0.000 C 
BRANCH   2   3
ATOM      3  C   UNL     1       1.578   6.708  17.340  1.00  0.00     0.000 C 
BRANCH   3   4
ATOM      4  C   UNL     1       0.251   7.251  16.757  1.00  0.00     0.000 C 
BRANCH   4   5
ATOM      5  C   UNL     1       0.274   7.459  15.232  1.00  0.00     0.000 C 
BRANCH   5   6
ATOM      6  C   UNL     1      -0.273   6.244  14.458  1.00  0.00     0.000 C 
BRANCH   6   7
ATOM      7  C   UNL     1       0.736   5.709  13.420  1.00  0.00     0.000 C 
BRANCH   7   8
ATOM      8  C   UNL     1       2.206   6.024  13.767  1.00  0.00     0.000 C 
BRANCH   8   9
ATOM      9  C   UNL     1       3.221   5.034  13.164  1.00  0.00     0.000 C 
BRANCH   9  10
ATOM     10  C   UNL     1       2.590   4.135  12.091  1.00  0.00     0.000 C 
BRANCH  10  11
ATOM     11  C   UNL     1       3.508   2.955  11.747  1.00  0.00     0.000 C 
BRANCH  11  12
ATOM     12  C   UNL     1       2.729   1.631  11.789  1.00  0.00     0.006 C 
BRANCH  12  13
ATOM     13  C   UNL     1       3.655   0.405  11.822  1.00  0.00     0.053 C 
BRANCH  13  14
ATOM     14  C   UNL     1       3.164  -0.653  12.766  1.00  0.00     0.041 C 
ATOM     15  O   UNL     1       3.979  -1.423  13.339  1.00  0.00    -0.550 OA
ATOM     16  O   UNL     1       1.808  -0.747  13.061  1.00  0.00    -0.550 OA
ENDBRANCH  13  14
ENDBRANCH  12  13
ENDBRANCH  11  12
ENDBRANCH  10  11
ENDBRANCH   9  10
ENDBRANCH   8   9
ENDBRANCH   7   8
ENDBRANCH   6   7
ENDBRANCH   5   6
ENDBRANCH   4   5
ENDBRANCH   3   4
ENDBRANCH   2   3
ENDBRANCH   1   2
BRANCH   1  17
ATOM     17  C   UNL     1       1.241   3.237  16.281  1.00  0.00     0.000 C 
BRANCH  17  18
ATOM     18  C   UNL     1       1.903   2.136  15.433  1.00  0.00     0.000 C 
BRANCH  18  19
ATOM     19  C   UNL     1       3.441   2.240  15.415  1.00  0.00     0.000 C 
BRANCH  19  20
ATOM     20  C   UNL     1       4.124   1.001  16.014  1.00  0.00     0.000 C 
BRANCH  20  21
ATOM     21  C   UNL     1       4.789   1.306  17.366  1.00  0.00     0.000 C 
BRANCH  21  22
ATOM     22  C   UNL     1       4.095   0.609  18.547  1.00  0.00    -0.000 C 
BRANCH  22  23
ATOM     23  C   UNL     1       3.017   1.446  19.267  1.00  0.00    -0.000 C 
BRANCH  23  24
ATOM     24  C   UNL     1       1.605   0.824  19.299  1.00  0.00    -0.000 C 
BRANCH  24  25
ATOM     25  C   UNL     1       0.942   0.769  20.688  1.00  0.00    -0.000 C 
BRANCH  25  26
ATOM     26  C   UNL     1      -0.452   0.125  20.664  1.00  0.00    -0.000 C 
BRANCH  26  27
ATOM     27  C   UNL     1      -0.360  -1.385  20.939  1.00  0.00    -0.000 C 
BRANCH  27  28
ATOM     28  C   UNL     1      -0.798  -1.760  22.364  1.00  0.00    -0.000 C 
BRANCH  28  29
ATOM     29  C   UNL     1       0.248  -2.608  23.100  1.00  0.00    -0.003 C 
ATOM     30  C   UNL     1       0.929  -1.803  24.203  1.00  0.00     0.004 C 
ENDBRANCH  28  29
ENDBRANCH  27  28
ENDBRANCH  26  27
ENDBRANCH  25  26
ENDBRANCH  24  25
ENDBRANCH  23  24
ENDBRANCH  22  23
ENDBRANCH  21  22
ENDBRANCH  20  21
ENDBRANCH  19  20
ENDBRANCH  18  19
ENDBRANCH  17  18
ENDBRANCH   1  17
TORSDOF 26
ENDMDL
MODEL 4
REMARK VINA RESULT:    -3.388      3.213      6.906
REMARK INTER + INTRA:         -12.488
REMARK INTER:                  -7.796
REMARK INTRA:                  -4.692
REMARK UNBOUND:                -3.949
REMARK SMILES CCCCCCCCCCCCCCCCCCCCCCCCCCCC(=O)[O-]
REMARK SMILES IDX 15 1 16 2 17 3 18 4 19 5 20 6 21 7 22 8 23 9 24 10 25 11
REMARK SMILES IDX 26 12 27 13 28 14 29 15 30 16 14 17 13 18 12 19 11 20 10 21
REMARK SMILES IDX 9 22 8 23 7 24 6 25 5 26 4 27 3 28 2 29 1 30
REMARK H PARENT
REMARK Flexibility Score: inf
ROOT
ATOM      1  C   UNL     1       8.490  -2.082  17.696  1.00  0.00     0.000 C 
ENDROOT
BRANCH   1   2
ATOM      2  C   UNL     1       7.247  -2.955  17.945  1.00  0.00     0.000 C 
BRANCH   2   3
ATOM      3  C   UNL     1       6.219  -2.277  18.872  1.00  0.00     0.000 C 
BRANCH   3   4
ATOM      4  C   UNL     1       4.989  -1.679  18.147  1.00  0.00     0.000 C 
BRANCH   4   5
ATOM      5  C   UNL     1       4.641  -0.244  18.578  1.00  0.00     0.000 C 
BRANCH   5   6
ATOM      6  C   UNL     1       5.885   0.658  18.702  1.00  0.00     0.000 C 
BRANCH   6   7
ATOM      7  C   UNL     1       6.139   1.483  17.424  1.00  0.00     0.000 C 
BRANCH   7   8
ATOM      8  C   UNL     1       7.619   1.500  16.983  1.00  0.00     0.000 C 
BRANCH   8   9
ATOM      9  C   UNL     1       7.884   0.784  15.645  1.00  0.00     0.000 C 
BRANCH   9  10
ATOM     10  C   UNL     1       6.686  -0.061  15.189  1.00  0.00     0.000 C 
BRANCH  10  11
ATOM     11  C   UNL     1       6.176   0.395  13.816  1.00  0.00     0.000 C 
BRANCH  11  12
ATOM     12  C   UNL     1       4.755   0.968  13.929  1.00  0.00     0.006 C 
BRANCH  12  13
ATOM     13  C   UNL     1       3.919   0.723  12.663  1.00  0.00     0.053 C 
BRANCH  13  14
ATOM     14  C   UNL     1       3.394  -0.680  12.591  1.00  0.00     0.041 C 
ATOM     15  O   UNL     1       2.275  -0.968  13.092  1.00  0.00    -0.550 OA
ATOM     16  O   UNL     1       4.115  -1.659  11.915  1.00  0.00    -0.550 OA
ENDBRANCH  13  14
ENDBRANCH  12  13
ENDBRANCH  11  12
ENDBRANCH  10  11
ENDBRANCH   9  10
ENDBRANCH   8   9
ENDBRANCH   7   8
ENDBRANCH   6   7
ENDBRANCH   5   6
ENDBRANCH   4   5
ENDBRANCH   3   4
ENDBRANCH   2   3
ENDBRANCH   1   2
BRANCH   1  17
ATOM     17  C   UNL     1       9.527  -2.776  16.793  1.00  0.00     0.000 C 
BRANCH  17  18
ATOM     18  C   UNL     1       8.974  -3.922  15.928  1.00  0.00     0.000 C 
BRANCH  18  19
ATOM     19  C   UNL     1       9.586  -5.291  16.288  1.00  0.00     0.000 C 
BRANCH  19  20
ATOM     20  C   UNL     1       8.523  -6.329  16.677  1.00  0.00     0.000 C 
BRANCH  20  21
ATOM     21  C   UNL     1       8.373  -6.460  18.202  1.00  0.00     0.000 C 
BRANCH  21  22
ATOM     22  C   UNL     1       9.679  -6.874  18.899  1.00  0.00    -0.000 C 
BRANCH  22  23
ATOM     23  C   UNL     1      10.043  -6.059  20.157  1.00  0.00    -0.000 C 
BRANCH  23  24
ATOM     24  C   UNL     1       9.748  -4.547  20.077  1.00  0.00    -0.000 C 
BRANCH  24  25
ATOM     25  C   UNL     1      10.982  -3.630  20.181  1.00  0.00    -0.000 C 
BRANCH  25  26
ATOM     26  C   UNL     1      10.701  -2.329  20.947  1.00  0.00    -0.000 C 
BRANCH  26  27
ATOM     27  C   UNL     1       9.222  -2.246  21.358  1.00  0.00    -0.000 C 
BRANCH  27  28
ATOM     28  C   UNL     1       8.649  -0.824  21.242  1.00  0.00    -0.000 C 
BRANCH  28  29
ATOM     29  C   UNL     1       8.435  -0.159  22.608  1.00  0.00    -0.003 C 
ATOM     30  C   UNL     1       8.470  -1.191  23.732  1.00  0.00     0.004 C 
ENDBRANCH  28  29
ENDBRANCH  27  28
ENDBRANCH  26  27
ENDBRANCH  25  26
ENDBRANCH  24  25
ENDBRANCH  23  24
ENDBRANCH  22  23
ENDBRANCH  21  22
ENDBRANCH  20  21
ENDBRANCH  19  20
ENDBRANCH  18  19
ENDBRANCH  17  18
ENDBRANCH   1  17
TORSDOF 26
ENDMDL
MODEL 5
REMARK VINA RESULT:    -3.313      4.601      8.731
REMARK INTER + INTRA:         -12.297
REMARK INTER:                  -7.139
REMARK INTRA:                  -5.158
REMARK UNBOUND:                -3.949
REMARK SMILES CCCCCCCCCCCCCCCCCCCCCCCCCCCC(=O)[O-]
REMARK SMILES IDX 15 1 16 2 17 3 18 4 19 5 20 6 21 7 22 8 23 9 24 10 25 11
REMARK SMILES IDX 26 12 27 13 28 14 29 15 30 16 14 17 13 18 12 19 11 20 10 21
REMARK SMILES IDX 9 22 8 23 7 24 6 25 5 26 4 27 3 28 2 29 1 30
REMARK H PARENT
REMARK Flexibility Score: inf
ROOT
ATOM      1  C   UNL     1      10.599  -3.626  19.977  1.00  0.00     0.000 C 
ENDROOT
BRANCH   1   2
ATOM      2  C   UNL     1      10.064  -2.516  20.899  1.00  0.00     0.000 C 
BRANCH   2   3
ATOM      3  C   UNL     1       8.536  -2.333  20.786  1.00  0.00     0.000 C 
BRANCH   3   4
ATOM      4  C   UNL     1       7.880  -3.088  19.606  1.00  0.00     0.000 C 
BRANCH   4   5
ATOM      5  C   UNL     1       6.482  -2.567  19.225  1.00  0.00     0.000 C 
BRANCH   5   6
ATOM      6  C   UNL     1       6.264  -2.509  17.700  1.00  0.00     0.000 C 
BRANCH   6   7
ATOM      7  C   UNL     1       5.483  -1.251  17.268  1.00  0.00     0.000 C 
BRANCH   7   8
ATOM      8  C   UNL     1       5.432  -1.050  15.738  1.00  0.00     0.000 C 
BRANCH   8   9
ATOM      9  C   UNL     1       5.399   0.426  15.299  1.00  0.00     0.000 C 
BRANCH   9  10
ATOM     10  C   UNL     1       4.236   1.198  15.937  1.00  0.00     0.000 C 
BRANCH  10  11
ATOM     11  C   UNL     1       3.164   1.547  14.897  1.00  0.00     0.000 C 
BRANCH  11  12
ATOM     12  C   UNL     1       2.863   3.054  14.913  1.00  0.00     0.006 C 
BRANCH  12  13
ATOM     13  C   UNL     1       1.439   3.364  15.401  1.00  0.00     0.053 C 
BRANCH  13  14
ATOM     14  C   UNL     1       1.293   3.179  16.883  1.00  0.00     0.041 C 
ATOM     15  O   UNL     1       0.935   2.067  17.353  1.00  0.00    -0.550 OA
ATOM     16  O   UNL     1       1.612   4.220  17.748  1.00  0.00    -0.550 OA
ENDBRANCH  13  14
ENDBRANCH  12  13
ENDBRANCH  11  12
ENDBRANCH  10  11
ENDBRANCH   9  10
ENDBRANCH   8   9
ENDBRANCH   7   8
ENDBRANCH   6   7
ENDBRANCH   5   6
ENDBRANCH   4   5
ENDBRANCH   3   4
ENDBRANCH   2   3
ENDBRANCH   1   2
BRANCH   1  17
ATOM     17  C   UNL     1      11.063  -4.869  20.759  1.00  0.00     0.000 C 
BRANCH  17  18
ATOM     18  C   UNL     1      10.244  -6.146  20.498  1.00  0.00     0.000 C 
BRANCH  18  19
ATOM     19  C   UNL     1      10.084  -6.455  18.996  1.00  0.00     0.000 C 
BRANCH  19  20
ATOM     20  C   UNL     1       8.612  -6.530  18.562  1.00  0.00     0.000 C 
BRANCH  20  21
ATOM     21  C   UNL     1       8.360  -5.782  17.243  1.00  0.00     0.000 C 
BRANCH  21  22
ATOM     22  C   UNL     1       9.617  -5.083  16.701  1.00  0.00    -0.000 C 
BRANCH  22  23
ATOM     23  C   UNL     1       9.376  -3.711  16.039  1.00  0.00    -0.000 C 
BRANCH  23  24
ATOM     24  C   UNL     1      10.450  -2.639  16.320  1.00  0.00    -0.000 C 
BRANCH  24  25
ATOM     25  C   UNL     1       9.953  -1.391  17.072  1.00  0.00    -0.000 C 
BRANCH  25  26
ATOM     26  C   UNL     1       9.038  -0.500  16.220  1.00  0.00    -0.000 C 
BRANCH  26  27
ATOM     27  C   UNL     1       8.710   0.809  16.957  1.00  0.00    -0.000 C 
BRANCH  27  28
ATOM     28  C   UNL     1       8.467   0.603  18.460  1.00  0.00    -0.000 C 
BRANCH  28  29
ATOM     29  C   UNL     1       7.476   1.619  19.045  1.00  0.00    -0.003 C 
ATOM     30  C   UNL     1       6.546   0.958  20.058  1.00  0.00     0.004 C 
ENDBRANCH  28  29
ENDBRANCH  27  28
ENDBRANCH  26  27
ENDBRANCH  25  26
ENDBRANCH  24  25
ENDBRANCH  23  24
ENDBRANCH  22  23
ENDBRANCH  21  22
ENDBRANCH  20  21
ENDBRANCH  19  20
ENDBRANCH  18  19
ENDBRANCH  17  18
ENDBRANCH   1  17
TORSDOF 26
ENDMDL
MODEL 6
REMARK VINA RESULT:    -3.292      2.699      5.837
REMARK INTER + INTRA:         -12.246
REMARK INTER:                  -9.085
REMARK INTRA:                  -3.161
REMARK UNBOUND:                -3.949
REMARK SMILES CCCCCCCCCCCCCCCCCCCCCCCCCCCC(=O)[O-]
REMARK SMILES IDX 15 1 16 2 17 3 18 4 19 5 20 6 21 7 22 8 23 9 24 10 25 11
REMARK SMILES IDX 26 12 27 13 28 14 29 15 30 16 14 17 13 18 12 19 11 20 10 21
REMARK SMILES IDX 9 22 8 23 7 24 6 25 5 26 4 27 3 28 2 29 1 30
REMARK H PARENT
REMARK Flexibility Score: inf
ROOT
ATOM      1  C   UNL     1       6.885   0.325  25.073  1.00  0.00     0.000 C 
ENDROOT
BRANCH   1   2
ATOM      2  C   UNL     1       8.027   0.223  24.046  1.00  0.00     0.000 C 
BRANCH   2   3
ATOM      3  C   UNL     1       8.470  -1.232  23.790  1.00  0.00     0.000 C 
BRANCH   3   4
ATOM      4  C   UNL     1       9.836  -1.611  24.409  1.00  0.00     0.000 C 
BRANCH   4   5
ATOM      5  C   UNL     1      10.861  -2.146  23.393  1.00  0.00     0.000 C 
BRANCH   5   6
ATOM      6  C   UNL     1      10.655  -1.566  21.979  1.00  0.00     0.000 C 
BRANCH   6   7
ATOM      7  C   UNL     1      10.265  -2.650  20.953  1.00  0.00     0.000 C 
BRANCH   7   8
ATOM      8  C   UNL     1       9.168  -2.199  19.964  1.00  0.00     0.000 C 
BRANCH   8   9
ATOM      9  C   UNL     1       7.737  -2.561  20.405  1.00  0.00     0.000 C 
BRANCH   9  10
ATOM     10  C   UNL     1       6.794  -2.764  19.212  1.00  0.00     0.000 C 
BRANCH  10  11
ATOM     11  C   UNL     1       7.579  -2.930  17.905  1.00  0.00     0.000 C 
BRANCH  11  12
ATOM     12  C   UNL     1       6.727  -2.496  16.702  1.00  0.00     0.006 C 
BRANCH  12  13
ATOM     13  C   UNL     1       5.670  -1.445  17.077  1.00  0.00     0.053 C 
BRANCH  13  14
ATOM     14  C   UNL     1       5.286  -0.583  15.911  1.00  0.00     0.041 C 
ATOM     15  O   UNL     1       5.612  -0.914  14.740  1.00  0.00    -0.550 OA
ATOM     16  O   UNL     1       4.514   0.556  16.112  1.00  0.00    -0.550 OA
ENDBRANCH  13  14
ENDBRANCH  12  13
ENDBRANCH  11  12
ENDBRANCH  10  11
ENDBRANCH   9  10
ENDBRANCH   8   9
ENDBRANCH   7   8
ENDBRANCH   6   7
ENDBRANCH   5   6
ENDBRANCH   4   5
ENDBRANCH   3   4
ENDBRANCH   2   3
ENDBRANCH   1   2
BRANCH   1  17
ATOM     17  C   UNL     1       7.266   1.181  26.295  1.00  0.00     0.000 C 
BRANCH  17  18
ATOM     18  C   UNL     1       7.336   0.416  27.629  1.00  0.00     0.000 C 
BRANCH  18  19
ATOM     19  C   UNL     1       8.434  -0.666  27.639  1.00  0.00     0.000 C 
BRANCH  19  20
ATOM     20  C   UNL     1       8.414  -1.515  28.920  1.00  0.00     0.000 C 
BRANCH  20  21
ATOM     21  C   UNL     1       8.347  -3.020  28.615  1.00  0.00     0.000 C 
BRANCH  21  22
ATOM     22  C   UNL     1       6.938  -3.487  28.214  1.00  0.00    -0.000 C 
BRANCH  22  23
ATOM     23  C   UNL     1       6.785  -3.935  26.745  1.00  0.00    -0.000 C 
BRANCH  23  24
ATOM     24  C   UNL     1       5.780  -3.121  25.904  1.00  0.00    -0.000 C 
BRANCH  24  25
ATOM     25  C   UNL     1       4.772  -2.284  26.713  1.00  0.00    -0.000 C 
BRANCH  25  26
ATOM     26  C   UNL     1       3.688  -1.636  25.838  1.00  0.00    -0.000 C 
BRANCH  26  27
ATOM     27  C   UNL     1       2.845  -2.710  25.131  1.00  0.00    -0.000 C 
BRANCH  27  28
ATOM     28  C   UNL     1       1.441  -2.212  24.752  1.00  0.00    -0.000 C 
BRANCH  28  29
ATOM     29  C   UNL     1       0.500  -3.352  24.340  1.00  0.00    -0.003 C 
ATOM     30  C   UNL     1       1.273  -4.650  24.121  1.00  0.00     0.004 C 
ENDBRANCH  28  29
ENDBRANCH  27  28
ENDBRANCH  26  27
ENDBRANCH  25  26
ENDBRANCH  24  25
ENDBRANCH  23  24
ENDBRANCH  22  23
ENDBRANCH  21  22
ENDBRANCH  20  21
ENDBRANCH  19  20
ENDBRANCH  18  19
ENDBRANCH  17  18
ENDBRANCH   1  17
TORSDOF 26
ENDMDL
MODEL 7
REMARK VINA RESULT:    -3.271      6.433     10.101
REMARK INTER + INTRA:         -12.192
REMARK INTER:                  -6.970
REMARK INTRA:                  -5.223
REMARK UNBOUND:                -3.949
REMARK SMILES CCCCCCCCCCCCCCCCCCCCCCCCCCCC(=O)[O-]
REMARK SMILES IDX 15 1 16 2 17 3 18 4 19 5 20 6 21 7 22 8 23 9 24 10 25 11
REMARK SMILES IDX 26 12 27 13 28 14 29 15 30 16 14 17 13 18 12 19 11 20 10 21
REMARK SMILES IDX 9 22 8 23 7 24 6 25 5 26 4 27 3 28 2 29 1 30
REMARK H PARENT
REMARK Flexibility Score: inf
ROOT
ATOM      1  C   UNL     1       1.524  -2.019  24.860  1.00  0.00     0.000 C 
ENDROOT
BRANCH   1   2
ATOM      2  C   UNL     1       1.155  -3.468  24.496  1.00  0.00     0.000 C 
BRANCH   2   3
ATOM      3  C   UNL     1       0.303  -3.561  23.214  1.00  0.00     0.000 C 
BRANCH   3   4
ATOM      4  C   UNL     1      -0.722  -2.416  23.034  1.00  0.00     0.000 C 
BRANCH   4   5
ATOM      5  C   UNL     1      -2.036  -2.620  23.809  1.00  0.00     0.000 C 
BRANCH   5   6
ATOM      6  C   UNL     1      -3.182  -1.734  23.282  1.00  0.00     0.000 C 
BRANCH   6   7
ATOM      7  C   UNL     1      -3.126  -1.555  21.750  1.00  0.00     0.000 C 
BRANCH   7   8
ATOM      8  C   UNL     1      -2.968  -0.085  21.305  1.00  0.00     0.000 C 
BRANCH   8   9
ATOM      9  C   UNL     1      -3.364   0.944  22.381  1.00  0.00     0.000 C 
BRANCH   9  10
ATOM     10  C   UNL     1      -2.186   1.837  22.794  1.00  0.00     0.000 C 
BRANCH  10  11
ATOM     11  C   UNL     1      -1.319   2.208  21.585  1.00  0.00     0.000 C 
BRANCH  11  12
ATOM     12  C   UNL     1       0.173   2.087  21.930  1.00  0.00     0.006 C 
BRANCH  12  13
ATOM     13  C   UNL     1       0.697   0.649  21.781  1.00  0.00     0.053 C 
BRANCH  13  14
ATOM     14  C   UNL     1       0.704   0.192  20.352  1.00  0.00     0.041 C 
ATOM     15  O   UNL     1       1.222   0.909  19.456  1.00  0.00    -0.550 OA
ATOM     16  O   UNL     1       0.192  -1.058  20.019  1.00  0.00    -0.550 OA
ENDBRANCH  13  14
ENDBRANCH  12  13
ENDBRANCH  11  12
ENDBRANCH  10  11
ENDBRANCH   9  10
ENDBRANCH   8   9
ENDBRANCH   7   8
ENDBRANCH   6   7
ENDBRANCH   5   6
ENDBRANCH   4   5
ENDBRANCH   3   4
ENDBRANCH   2   3
ENDBRANCH   1   2
BRANCH   1  17
ATOM     17  C   UNL     1       1.085  -1.640  26.287  1.00  0.00     0.000 C 
BRANCH  17  18
ATOM     18  C   UNL     1      -0.154  -0.731  26.366  1.00  0.00     0.000 C 
BRANCH  18  19
ATOM     19  C   UNL     1      -0.139   0.392  25.310  1.00  0.00     0.000 C 
BRANCH  19  20
ATOM     20  C   UNL     1       0.088   1.780  25.928  1.00  0.00     0.000 C 
BRANCH  20  21
ATOM     21  C   UNL     1       1.420   2.402  25.477  1.00  0.00     0.000 C 
BRANCH  21  22
ATOM     22  C   UNL     1       2.641   1.756  26.152  1.00  0.00    -0.000 C 
BRANCH  22  23
ATOM     23  C   UNL     1       3.723   1.224  25.188  1.00  0.00    -0.000 C 
BRANCH  23  24
ATOM     24  C   UNL     1       4.522   0.005  25.695  1.00  0.00    -0.000 C 
BRANCH  24  25
ATOM     25  C   UNL     1       4.316  -0.344  27.181  1.00  0.00    -0.000 C 
BRANCH  25  26
ATOM     26  C   UNL     1       4.550  -1.831  27.487  1.00  0.00    -0.000 C 
BRANCH  26  27
ATOM     27  C   UNL     1       4.956  -2.593  26.215  1.00  0.00    -0.000 C 
BRANCH  27  28
ATOM     28  C   UNL     1       6.300  -3.323  26.359  1.00  0.00    -0.000 C 
BRANCH  28  29
ATOM     29  C   UNL     1       7.458  -2.570  25.690  1.00  0.00    -0.003 C 
ATOM     30  C   UNL     1       8.000  -1.474  26.603  1.00  0.00     0.004 C 
ENDBRANCH  28  29
ENDBRANCH  27  28
ENDBRANCH  26  27
ENDBRANCH  25  26
ENDBRANCH  24  25
ENDBRANCH  23  24
ENDBRANCH  22  23
ENDBRANCH  21  22
ENDBRANCH  20  21
ENDBRANCH  19  20
ENDBRANCH  18  19
ENDBRANCH  17  18
ENDBRANCH   1  17
TORSDOF 26
ENDMDL
MODEL 8
REMARK VINA RESULT:    -3.252      4.046      7.619
REMARK INTER + INTRA:         -12.145
REMARK INTER:                  -7.483
REMARK INTRA:                  -4.662
REMARK UNBOUND:                -3.949
REMARK SMILES CCCCCCCCCCCCCCCCCCCCCCCCCCCC(=O)[O-]
REMARK SMILES IDX 15 1 16 2 17 3 18 4 19 5 20 6 21 7 22 8 23 9 24 10 25 11
REMARK SMILES IDX 26 12 27 13 28 14 29 15 30 16 14 17 13 18 12 19 11 20 10 21
REMARK SMILES IDX 9 22 8 23 7 24 6 25 5 26 4 27 3 28 2 29 1 30
REMARK H PARENT
REMARK Flexibility Score: inf
ROOT
ATOM      1  C   UNL     1       6.775  -1.989  16.377  1.00  0.00     0.000 C 
ENDROOT
BRANCH   1   2
ATOM      2  C   UNL     1       7.498  -0.768  15.780  1.00  0.00     0.000 C 
BRANCH   2   3
ATOM      3  C   UNL     1       8.603  -0.218  16.706  1.00  0.00     0.000 C 
BRANCH   3   4
ATOM      4  C   UNL     1       8.342   1.206  17.250  1.00  0.00     0.000 C 
BRANCH   4   5
ATOM      5  C   UNL     1       7.380   2.043  16.388  1.00  0.00     0.000 C 
BRANCH   5   6
ATOM      6  C   UNL     1       6.848   3.287  17.127  1.00  0.00     0.000 C 
BRANCH   6   7
ATOM      7  C   UNL     1       5.315   3.251  17.303  1.00  0.00     0.000 C 
BRANCH   7   8
ATOM      8  C   UNL     1       4.658   1.971  16.746  1.00  0.00     0.000 C 
BRANCH   8   9
ATOM      9  C   UNL     1       3.382   2.226  15.923  1.00  0.00     0.000 C 
BRANCH   9  10
ATOM     10  C   UNL     1       3.138   1.135  14.871  1.00  0.00     0.000 C 
BRANCH  10  11
ATOM     11  C   UNL     1       4.427   0.797  14.114  1.00  0.00     0.000 C 
BRANCH  11  12
ATOM     12  C   UNL     1       4.377  -0.641  13.572  1.00  0.00     0.006 C 
BRANCH  12  13
ATOM     13  C   UNL     1       3.630  -0.739  12.232  1.00  0.00     0.053 C 
BRANCH  13  14
ATOM     14  C   UNL     1       2.326  -1.469  12.360  1.00  0.00     0.041 C 
ATOM     15  O   UNL     1       2.309  -2.718  12.524  1.00  0.00    -0.550 OA
ATOM     16  O   UNL     1       1.129  -0.760  12.360  1.00  0.00    -0.550 OA
ENDBRANCH  13  14
ENDBRANCH  12  13
ENDBRANCH  11  12
ENDBRANCH  10  11
ENDBRANCH   9  10
ENDBRANCH   8   9
ENDBRANCH   7   8
ENDBRANCH   6   7
ENDBRANCH   5   6
ENDBRANCH   4   5
ENDBRANCH   3   4
ENDBRANCH   2   3
ENDBRANCH   1   2
BRANCH   1  17
ATOM     17  C   UNL     1       5.401  -1.627  16.972  1.00  0.00     0.000 C 
BRANCH  17  18
ATOM     18  C   UNL     1       5.300  -1.762  18.502  1.00  0.00     0.000 C 
BRANCH  18  19
ATOM     19  C   UNL     1       6.472  -2.557  19.111  1.00  0.00     0.000 C 
BRANCH  19  20
ATOM     20  C   UNL     1       7.400  -1.680  19.964  1.00  0.00     0.000 C 
BRANCH  20  21
ATOM     21  C   UNL     1       8.868  -2.125  19.864  1.00  0.00     0.000 C 
BRANCH  21  22
ATOM     22  C   UNL     1       9.509  -2.392  21.236  1.00  0.00    -0.000 C 
BRANCH  22  23
ATOM     23  C   UNL     1      10.788  -3.254  21.211  1.00  0.00    -0.000 C 
BRANCH  23  24
ATOM     24  C   UNL     1      11.124  -3.903  19.852  1.00  0.00    -0.000 C 
BRANCH  24  25
ATOM     25  C   UNL     1      11.081  -5.442  19.829  1.00  0.00    -0.000 C 
BRANCH  25  26
ATOM     26  C   UNL     1       9.655  -6.006  19.914  1.00  0.00    -0.000 C 
BRANCH  26  27
ATOM     27  C   UNL     1       9.149  -6.421  18.523  1.00  0.00    -0.000 C 
BRANCH  27  28
ATOM     28  C   UNL     1       8.492  -5.262  17.756  1.00  0.00    -0.000 C 
BRANCH  28  29
ATOM     29  C   UNL     1       9.119  -5.035  16.374  1.00  0.00    -0.003 C 
ATOM     30  C   UNL     1       9.989  -3.781  16.366  1.00  0.00     0.004 C 
ENDBRANCH  28  29
ENDBRANCH  27  28
ENDBRANCH  26  27
ENDBRANCH  25  26
ENDBRANCH  24  25
ENDBRANCH  23  24
ENDBRANCH  22  23
ENDBRANCH  21  22
ENDBRANCH  20  21
ENDBRANCH  19  20
ENDBRANCH  18  19
ENDBRANCH  17  18
ENDBRANCH   1  17
TORSDOF 26
ENDMDL
MODEL 9
REMARK VINA RESULT:    -3.229      9.486     13.019
REMARK INTER + INTRA:         -12.087
REMARK INTER:                  -6.570
REMARK INTRA:                  -5.517
REMARK UNBOUND:                -3.949
REMARK SMILES CCCCCCCCCCCCCCCCCCCCCCCCCCCC(=O)[O-]
REMARK SMILES IDX 15 1 16 2 17 3 18 4 19 5 20 6 21 7 22 8 23 9 24 10 25 11
REMARK SMILES IDX 26 12 27 13 28 14 29 15 30 16 14 17 13 18 12 19 11 20 10 21
REMARK SMILES IDX 9 22 8 23 7 24 6 25 5 26 4 27 3 28 2 29 1 30
REMARK H PARENT
REMARK Flexibility Score: inf
ROOT
ATOM      1  C   UNL     1      -2.163  -0.125  22.455  1.00  0.00     0.000 C 
ENDROOT
BRANCH   1   2
ATOM      2  C   UNL     1      -2.393  -1.621  22.174  1.00  0.00     0.000 C 
BRANCH   2   3
ATOM      3  C   UNL     1      -2.918  -2.385  23.406  1.00  0.00     0.000 C 
BRANCH   3   4
ATOM      4  C   UNL     1      -4.170  -1.762  24.069  1.00  0.00     0.000 C 
BRANCH   4   5
ATOM      5  C   UNL     1      -5.210  -2.794  24.541  1.00  0.00     0.000 C 
BRANCH   5   6
ATOM      6  C   UNL     1      -5.198  -4.081  23.693  1.00  0.00     0.000 C 
BRANCH   6   7
ATOM      7  C   UNL     1      -6.138  -3.987  22.473  1.00  0.00     0.000 C 
BRANCH   7   8
ATOM      8  C   UNL     1      -5.400  -4.024  21.118  1.00  0.00     0.000 C 
BRANCH   8   9
ATOM      9  C   UNL     1      -5.581  -2.753  20.268  1.00  0.00     0.000 C 
BRANCH   9  10
ATOM     10  C   UNL     1      -6.397  -1.676  20.996  1.00  0.00     0.000 C 
BRANCH  10  11
ATOM     11  C   UNL     1      -5.627  -0.352  21.072  1.00  0.00     0.000 C 
BRANCH  11  12
ATOM     12  C   UNL     1      -5.248   0.136  19.665  1.00  0.00     0.006 C 
BRANCH  12  13
ATOM     13  C   UNL     1      -6.397   0.888  18.974  1.00  0.00     0.053 C 
BRANCH  13  14
ATOM     14  C   UNL     1      -6.262   2.376  19.104  1.00  0.00     0.041 C 
ATOM     15  O   UNL     1      -5.207   2.882  19.571  1.00  0.00    -0.550 OA
ATOM     16  O   UNL     1      -7.280   3.210  18.651  1.00  0.00    -0.550 OA
ENDBRANCH  13  14
ENDBRANCH  12  13
ENDBRANCH  11  12
ENDBRANCH  10  11
ENDBRANCH   9  10
ENDBRANCH   8   9
ENDBRANCH   7   8
ENDBRANCH   6   7
ENDBRANCH   5   6
ENDBRANCH   4   5
ENDBRANCH   3   4
ENDBRANCH   2   3
ENDBRANCH   1   2
BRANCH   1  17
ATOM     17  C   UNL     1      -0.668   0.233  22.556  1.00  0.00     0.000 C 
BRANCH  17  18
ATOM     18  C   UNL     1       0.280  -0.971  22.697  1.00  0.00     0.000 C 
BRANCH  18  19
ATOM     19  C   UNL     1       1.007  -1.001  24.056  1.00  0.00     0.000 C 
BRANCH  19  20
ATOM     20  C   UNL     1       1.379  -2.426  24.495  1.00  0.00     0.000 C 
BRANCH  20  21
ATOM     21  C   UNL     1       0.557  -3.492  23.753  1.00  0.00     0.000 C 
BRANCH  21  22
ATOM     22  C   UNL     1       0.930  -4.927  24.159  1.00  0.00    -0.000 C 
BRANCH  22  23
ATOM     23  C   UNL     1      -0.016  -5.592  25.179  1.00  0.00    -0.000 C 
BRANCH  23  24
ATOM     24  C   UNL     1      -1.414  -4.951  25.304  1.00  0.00    -0.000 C 
BRANCH  24  25
ATOM     25  C   UNL     1      -1.860  -4.619  26.740  1.00  0.00    -0.000 C 
BRANCH  25  26
ATOM     26  C   UNL     1      -2.037  -3.112  26.981  1.00  0.00    -0.000 C 
BRANCH  26  27
ATOM     27  C   UNL     1      -0.706  -2.465  27.395  1.00  0.00    -0.000 C 
BRANCH  27  28
ATOM     28  C   UNL     1      -0.758  -0.929  27.382  1.00  0.00    -0.000 C 
BRANCH  28  29
ATOM     29  C   UNL     1      -1.930  -0.384  26.555  1.00  0.00    -0.003 C 
ATOM     30  C   UNL     1      -1.605   0.994  25.986  1.00  0.00     0.004 C 
ENDBRANCH  28  29
ENDBRANCH  27  28
ENDBRANCH  26  27
ENDBRANCH  25  26
ENDBRANCH  24  25
ENDBRANCH  23  24
ENDBRANCH  22  23
ENDBRANCH  21  22
ENDBRANCH  20  21
ENDBRANCH  19  20
ENDBRANCH  18  19
ENDBRANCH  17  18
ENDBRANCH   1  17
TORSDOF 26
ENDMDL
