MODEL 1
REMARK VINA RESULT:    52.684      0.000      0.000
REMARK INTER + INTRA:         102.787
REMARK INTER:                 100.422
REMARK INTRA:                   2.365
REMARK UNBOUND:                 2.365
REMARK SMILES C[C@H]1O[C@H](O[C@@H]2[C@H](O)[C@@H](OCCc3ccc(O)c(O)c3)O[C@@H](CO)[C@H]2OC(=O)C=Cc2ccc(O)c(O)c2)[C@H](O)[C@@H](O)[C@H]1O
REMARK SMILES IDX 6 1 7 2 9 3 21 4 22 5 25 6 5 7 4 8 1 9 2 10 43 11 3 12 41 13
REMARK SMILES IDX 39 14 44 15 42 17 40 19 8 21 26 23 27 24 28 25 29 26 30 27
REMARK SMILES IDX 31 28 38 29 32 30 36 31 33 32 34 33 37 34 35 36 10 38 11 39
REMARK SMILES IDX 12 40 13 41 20 42 14 43 18 44 15 45 16 46 19 47 17 49 23 51
REMARK SMILES IDX 24 52
REMARK H PARENT 44 16 42 18 40 20 8 22 37 35 35 37 19 48 17 50 24 53
REMARK Flexibility Score: inf
ROOT
ATOM      1  C   UNL     1      25.170  29.490   1.089  1.00  0.00     0.199 C 
ATOM      2  C   UNL     1      25.453  30.618   0.075  1.00  0.00     0.203 C 
ATOM      3  C   UNL     1      24.883  32.010   0.475  1.00  0.00     0.282 C 
ATOM      4  O   UNL     1      24.934  32.331   1.863  1.00  0.00    -0.340 OA
ATOM      5  C   UNL     1      24.609  31.279   2.754  1.00  0.00     0.190 C 
ATOM      6  C   UNL     1      25.438  30.001   2.504  1.00  0.00     0.240 C 
ENDROOT
BRANCH   1   7
ATOM      7  O   UNL     1      26.028  28.374   0.872  1.00  0.00    -0.340 OA
BRANCH   7   8
ATOM      8  C   UNL     1      26.351  27.679   2.080  1.00  0.00     0.282 C 
ATOM      9  C   UNL     1      25.480  24.298   0.969  1.00  0.00     0.041 C 
ATOM     10  C   UNL     1      26.278  25.595   1.005  1.00  0.00     0.150 C 
ATOM     11  C   UNL     1      27.783  25.322   1.181  1.00  0.00     0.174 C 
ATOM     12  O   UNL     1      25.777  26.382   2.071  1.00  0.00    -0.344 OA
ATOM     13  C   UNL     1      28.523  26.680   1.197  1.00  0.00     0.179 C 
ATOM     14  C   UNL     1      27.886  27.601   2.264  1.00  0.00     0.202 C 
BRANCH  11  15
ATOM     15  O   UNL     1      28.036  24.623   2.374  1.00  0.00    -0.388 OA
ATOM     16  H   UNL     1      28.755  23.966   2.172  1.00  0.00     0.211 HD
ENDBRANCH  11  15
BRANCH  13  17
ATOM     17  O   UNL     1      29.892  26.506   1.493  1.00  0.00    -0.387 OA
ATOM     18  H   UNL     1      30.243  27.396   1.775  1.00  0.00     0.211 HD
ENDBRANCH  13  17
BRANCH  14  19
ATOM     19  O   UNL     1      28.451  28.890   2.256  1.00  0.00    -0.385 OA
ATOM     20  H   UNL     1      29.071  28.983   3.015  1.00  0.00     0.211 HD
ENDBRANCH  14  19
ENDBRANCH   7   8
ENDBRANCH   1   7
BRANCH   2  21
ATOM     21  O   UNL     1      26.855  30.731  -0.105  1.00  0.00    -0.385 OA
ATOM     22  H   UNL     1      27.270  30.715   0.791  1.00  0.00     0.211 HD
ENDBRANCH   2  21
BRANCH   6  23
ATOM     23  O   UNL     1      25.175  28.953   3.463  1.00  0.00    -0.453 OA
BRANCH  23  24
ATOM     24  C   UNL     1      25.779  28.864   4.728  1.00  0.00     0.331 C 
ATOM     25  O   UNL     1      26.608  27.952   4.999  1.00  0.00    -0.247 OA
BRANCH  24  26
ATOM     26  C   UNL     1      25.464  29.859   5.758  1.00  0.00     0.094 C 
ATOM     27  C   UNL     1      25.193  29.470   7.007  1.00  0.00     0.016 C 
BRANCH  27  28
ATOM     28  C   UNL     1      24.670  30.383   8.044  1.00  0.00    -0.021 A 
ATOM     29  C   UNL     1      24.406  31.742   7.785  1.00  0.00     0.058 A 
ATOM     30  C   UNL     1      24.250  29.821   9.260  1.00  0.00     0.012 A 
ATOM     31  C   UNL     1      23.717  32.524   8.719  1.00  0.00     0.157 A 
ATOM     32  C   UNL     1      23.586  30.612  10.203  1.00  0.00     0.051 A 
ATOM     33  C   UNL     1      23.305  31.955   9.934  1.00  0.00     0.157 A 
BRANCH  31  34
ATOM     34  O   UNL     1      23.418  33.853   8.405  1.00  0.00    -0.504 OA
ATOM     35  H   UNL     1      22.676  34.364   8.875  1.00  0.00     0.293 HD
ENDBRANCH  31  34
BRANCH  33  36
ATOM     36  O   UNL     1      22.593  32.715  10.854  1.00  0.00    -0.504 OA
ATOM     37  H   UNL     1      21.779  32.359  11.322  1.00  0.00     0.293 HD
ENDBRANCH  33  36
ENDBRANCH  27  28
ENDBRANCH  24  26
ENDBRANCH  23  24
ENDBRANCH   6  23
BRANCH   3  38
ATOM     38  O   UNL     1      23.598  32.228  -0.095  1.00  0.00    -0.350 OA
BRANCH  38  39
ATOM     39  C   UNL     1      23.214  33.607  -0.107  1.00  0.00     0.168 C 
BRANCH  39  40
ATOM     40  C   UNL     1      22.270  34.044   1.037  1.00  0.00     0.064 C 
BRANCH  40  41
ATOM     41  C   UNL     1      20.941  33.325   0.998  1.00  0.00    -0.042 A 
ATOM     42  C   UNL     1      19.765  33.974   1.405  1.00  0.00     0.054 A 
ATOM     43  C   UNL     1      20.887  31.970   0.644  1.00  0.00     0.008 A 
ATOM     44  C   UNL     1      18.552  33.279   1.462  1.00  0.00     0.157 A 
ATOM     45  C   UNL     1      19.683  31.275   0.712  1.00  0.00     0.050 A 
ATOM     46  C   UNL     1      18.505  31.925   1.108  1.00  0.00     0.157 A 
BRANCH  44  47
ATOM     47  O   UNL     1      17.380  33.931   1.870  1.00  0.00    -0.504 OA
ATOM     48  H   UNL     1      16.585  33.417   2.231  1.00  0.00     0.293 HD
ENDBRANCH  44  47
BRANCH  46  49
ATOM     49  O   UNL     1      17.301  31.239   1.156  1.00  0.00    -0.504 OA
ATOM     50  H   UNL     1      16.858  30.877   0.319  1.00  0.00     0.293 HD
ENDBRANCH  46  49
ENDBRANCH  40  41
ENDBRANCH  39  40
ENDBRANCH  38  39
ENDBRANCH   3  38
BRANCH   5  51
ATOM     51  C   UNL     1      23.089  31.061   2.951  1.00  0.00     0.192 C 
BRANCH  51  52
ATOM     52  O   UNL     1      22.447  32.193   3.457  1.00  0.00    -0.394 OA
ATOM     53  H   UNL     1      21.902  32.592   2.723  1.00  0.00     0.210 HD
ENDBRANCH  51  52
ENDBRANCH   5  51
TORSDOF 20
ENDMDL
