MODEL 1
REMARK VINA RESULT:    -3.947      0.000      0.000
REMARK INTER + INTRA:          -6.272
REMARK INTER:                  -5.792
REMARK INTRA:                  -0.480
REMARK UNBOUND:                -0.480
REMARK SMILES O=C([O-])CCCCCCCC(=O)[O-]
REMARK SMILES IDX 7 1 6 2 5 3 4 4 2 5 1 6 3 7 8 8 9 9 10 10 11 11 12 12 13 13
REMARK H PARENT
REMARK Flexibility Score: inf
ROOT
ATOM      1  C   UNL     1       4.033  -4.879  -7.728  1.00  0.00     0.000 C 
ENDROOT
BRANCH   1   2
ATOM      2  C   UNL     1       3.070  -6.053  -7.499  1.00  0.00     0.000 C 
BRANCH   2   3
ATOM      3  C   UNL     1       3.536  -7.007  -6.384  1.00  0.00     0.006 C 
BRANCH   3   4
ATOM      4  C   UNL     1       3.822  -6.308  -5.043  1.00  0.00     0.053 C 
BRANCH   4   5
ATOM      5  C   UNL     1       5.002  -6.890  -4.326  1.00  0.00     0.041 C 
ATOM      6  O   UNL     1       4.864  -7.904  -3.592  1.00  0.00    -0.550 OA
ATOM      7  O   UNL     1       6.250  -6.293  -4.444  1.00  0.00    -0.550 OA
ENDBRANCH   4   5
ENDBRANCH   3   4
ENDBRANCH   2   3
ENDBRANCH   1   2
BRANCH   1   8
ATOM      8  C   UNL     1       3.331  -3.537  -7.488  1.00  0.00     0.000 C 
BRANCH   8   9
ATOM      9  C   UNL     1       1.806  -3.698  -7.533  1.00  0.00     0.006 C 
BRANCH   9  10
ATOM     10  C   UNL     1       1.157  -2.566  -8.334  1.00  0.00     0.053 C 
BRANCH  10  11
ATOM     11  C   UNL     1       0.386  -3.117  -9.490  1.00  0.00     0.041 C 
ATOM     12  O   UNL     1      -0.415  -2.382 -10.125  1.00  0.00    -0.550 OA
ATOM     13  O   UNL     1       0.514  -4.455  -9.837  1.00  0.00    -0.550 OA
ENDBRANCH  10  11
ENDBRANCH   9  10
ENDBRANCH   8   9
ENDBRANCH   1   8
TORSDOF 8
ENDMDL
MODEL 2
REMARK VINA RESULT:    -3.935      1.098      1.526
REMARK INTER + INTRA:          -6.255
REMARK INTER:                  -5.958
REMARK INTRA:                  -0.296
REMARK UNBOUND:                -0.480
REMARK SMILES O=C([O-])CCCCCCCC(=O)[O-]
REMARK SMILES IDX 7 1 6 2 5 3 4 4 2 5 1 6 3 7 8 8 9 9 10 10 11 11 12 12 13 13
REMARK H PARENT
REMARK Flexibility Score: inf
ROOT
ATOM      1  C   UNL     1       3.305  -3.760  -7.176  1.00  0.00     0.000 C 
ENDROOT
BRANCH   1   2
ATOM      2  C   UNL     1       2.691  -5.165  -7.085  1.00  0.00     0.000 C 
BRANCH   2   3
ATOM      3  C   UNL     1       3.319  -6.026  -5.974  1.00  0.00     0.006 C 
BRANCH   3   4
ATOM      4  C   UNL     1       4.857  -5.992  -5.949  1.00  0.00     0.053 C 
BRANCH   4   5
ATOM      5  C   UNL     1       5.432  -6.664  -4.739  1.00  0.00     0.041 C 
ATOM      6  O   UNL     1       6.666  -6.590  -4.497  1.00  0.00    -0.550 OA
ATOM      7  O   UNL     1       4.610  -7.398  -3.894  1.00  0.00    -0.550 OA
ENDBRANCH   4   5
ENDBRANCH   3   4
ENDBRANCH   2   3
ENDBRANCH   1   2
BRANCH   1   8
ATOM      8  C   UNL     1       2.305  -2.761  -7.771  1.00  0.00     0.000 C 
BRANCH   8   9
ATOM      9  C   UNL     1       1.050  -3.477  -8.285  1.00  0.00     0.006 C 
BRANCH   9  10
ATOM     10  C   UNL     1       0.728  -3.059  -9.722  1.00  0.00     0.053 C 
BRANCH  10  11
ATOM     11  C   UNL     1      -0.718  -2.702  -9.853  1.00  0.00     0.041 C 
ATOM     12  O   UNL     1      -1.076  -1.494  -9.841  1.00  0.00    -0.550 OA
ATOM     13  O   UNL     1      -1.677  -3.702  -9.939  1.00  0.00    -0.550 OA
ENDBRANCH  10  11
ENDBRANCH   9  10
ENDBRANCH   8   9
ENDBRANCH   1   8
TORSDOF 8
ENDMDL
MODEL 3
REMARK VINA RESULT:    -3.919      0.782      6.727
REMARK INTER + INTRA:          -6.232
REMARK INTER:                  -5.845
REMARK INTRA:                  -0.387
REMARK UNBOUND:                -0.480
REMARK SMILES O=C([O-])CCCCCCCC(=O)[O-]
REMARK SMILES IDX 7 1 6 2 5 3 4 4 2 5 1 6 3 7 8 8 9 9 10 10 11 11 12 12 13 13
REMARK H PARENT
REMARK Flexibility Score: inf
ROOT
ATOM      1  C   UNL     1       4.003  -4.655  -7.181  1.00  0.00     0.000 C 
ENDROOT
BRANCH   1   2
ATOM      2  C   UNL     1       3.260  -3.371  -7.578  1.00  0.00     0.000 C 
BRANCH   2   3
ATOM      3  C   UNL     1       1.728  -3.516  -7.512  1.00  0.00     0.006 C 
BRANCH   3   4
ATOM      4  C   UNL     1       0.973  -2.645  -8.531  1.00  0.00     0.053 C 
BRANCH   4   5
ATOM      5  C   UNL     1       0.171  -3.454  -9.504  1.00  0.00     0.041 C 
ATOM      6  O   UNL     1       0.551  -4.607  -9.838  1.00  0.00    -0.550 OA
ATOM      7  O   UNL     1      -0.983  -2.923 -10.065  1.00  0.00    -0.550 OA
ENDBRANCH   4   5
ENDBRANCH   3   4
ENDBRANCH   2   3
ENDBRANCH   1   2
BRANCH   1   8
ATOM      8  C   UNL     1       3.018  -5.753  -6.762  1.00  0.00     0.000 C 
BRANCH   8   9
ATOM      9  C   UNL     1       3.458  -6.417  -5.452  1.00  0.00     0.006 C 
BRANCH   9  10
ATOM     10  C   UNL     1       4.953  -6.205  -5.203  1.00  0.00     0.053 C 
BRANCH  10  11
ATOM     11  C   UNL     1       5.547  -7.398  -4.524  1.00  0.00     0.041 C 
ATOM     12  O   UNL     1       5.114  -7.768  -3.401  1.00  0.00    -0.550 OA
ATOM     13  O   UNL     1       6.609  -8.074  -5.108  1.00  0.00    -0.550 OA
ENDBRANCH  10  11
ENDBRANCH   9  10
ENDBRANCH   8   9
ENDBRANCH   1   8
TORSDOF 8
ENDMDL
MODEL 4
REMARK VINA RESULT:    -3.880      2.249      3.288
REMARK INTER + INTRA:          -6.174
REMARK INTER:                  -5.718
REMARK INTRA:                  -0.456
REMARK UNBOUND:                -0.480
REMARK SMILES O=C([O-])CCCCCCCC(=O)[O-]
REMARK SMILES IDX 7 1 6 2 5 3 4 4 2 5 1 6 3 7 8 8 9 9 10 10 11 11 12 12 13 13
REMARK H PARENT
REMARK Flexibility Score: inf
ROOT
ATOM      1  C   UNL     1       4.128  -6.351  -4.786  1.00  0.00     0.000 C 
ENDROOT
BRANCH   1   2
ATOM      2  C   UNL     1       4.350  -7.809  -4.361  1.00  0.00     0.000 C 
BRANCH   2   3
ATOM      3  C   UNL     1       5.832  -8.226  -4.387  1.00  0.00     0.006 C 
BRANCH   3   4
ATOM      4  C   UNL     1       6.797  -7.082  -4.744  1.00  0.00     0.053 C 
BRANCH   4   5
ATOM      5  C   UNL     1       7.426  -7.253  -6.093  1.00  0.00     0.041 C 
ATOM      6  O   UNL     1       8.680  -7.268  -6.213  1.00  0.00    -0.550 OA
ATOM      7  O   UNL     1       6.628  -7.365  -7.223  1.00  0.00    -0.550 OA
ENDBRANCH   4   5
ENDBRANCH   3   4
ENDBRANCH   2   3
ENDBRANCH   1   2
BRANCH   1   8
ATOM      8  C   UNL     1       3.323  -6.274  -6.090  1.00  0.00     0.000 C 
BRANCH   8   9
ATOM      9  C   UNL     1       3.597  -4.960  -6.831  1.00  0.00     0.006 C 
BRANCH   9  10
ATOM     10  C   UNL     1       2.294  -4.211  -7.123  1.00  0.00     0.053 C 
BRANCH  10  11
ATOM     11  C   UNL     1       2.581  -2.893  -7.769  1.00  0.00     0.041 C 
ATOM     12  O   UNL     1       1.635  -2.175  -8.189  1.00  0.00    -0.550 OA
ATOM     13  O   UNL     1       3.893  -2.479  -7.952  1.00  0.00    -0.550 OA
ENDBRANCH  10  11
ENDBRANCH   9  10
ENDBRANCH   8   9
ENDBRANCH   1   8
TORSDOF 8
ENDMDL
MODEL 5
REMARK VINA RESULT:    -3.870      2.303      6.340
REMARK INTER + INTRA:          -6.161
REMARK INTER:                  -5.649
REMARK INTRA:                  -0.512
REMARK UNBOUND:                -0.480
REMARK SMILES O=C([O-])CCCCCCCC(=O)[O-]
REMARK SMILES IDX 7 1 6 2 5 3 4 4 2 5 1 6 3 7 8 8 9 9 10 10 11 11 12 12 13 13
REMARK H PARENT
REMARK Flexibility Score: inf
ROOT
ATOM      1  C   UNL     1       3.487  -6.427  -4.886  1.00  0.00     0.000 C 
ENDROOT
BRANCH   1   2
ATOM      2  C   UNL     1       3.322  -6.423  -6.412  1.00  0.00     0.000 C 
BRANCH   2   3
ATOM      3  C   UNL     1       3.568  -5.040  -7.042  1.00  0.00     0.006 C 
BRANCH   3   4
ATOM      4  C   UNL     1       2.296  -4.188  -7.197  1.00  0.00     0.053 C 
BRANCH   4   5
ATOM      5  C   UNL     1       2.560  -2.863  -7.845  1.00  0.00     0.041 C 
ATOM      6  O   UNL     1       1.604  -2.151  -8.252  1.00  0.00    -0.550 OA
ATOM      7  O   UNL     1       3.866  -2.426  -8.027  1.00  0.00    -0.550 OA
ENDBRANCH   4   5
ENDBRANCH   3   4
ENDBRANCH   2   3
ENDBRANCH   1   2
BRANCH   1   8
ATOM      8  C   UNL     1       4.717  -7.242  -4.468  1.00  0.00     0.000 C 
BRANCH   8   9
ATOM      9  C   UNL     1       6.004  -6.426  -4.640  1.00  0.00     0.006 C 
BRANCH   9  10
ATOM     10  C   UNL     1       7.165  -7.318  -5.088  1.00  0.00     0.053 C 
BRANCH  10  11
ATOM     11  C   UNL     1       6.993  -7.723  -6.518  1.00  0.00     0.041 C 
ATOM     12  O   UNL     1       7.154  -8.924  -6.859  1.00  0.00    -0.550 OA
ATOM     13  O   UNL     1       6.704  -6.766  -7.481  1.00  0.00    -0.550 OA
ENDBRANCH  10  11
ENDBRANCH   9  10
ENDBRANCH   8   9
ENDBRANCH   1   8
TORSDOF 8
ENDMDL
MODEL 6
REMARK VINA RESULT:    -3.789      1.532      2.048
REMARK INTER + INTRA:          -6.042
REMARK INTER:                  -5.457
REMARK INTRA:                  -0.584
REMARK UNBOUND:                -0.480
REMARK SMILES O=C([O-])CCCCCCCC(=O)[O-]
REMARK SMILES IDX 7 1 6 2 5 3 4 4 2 5 1 6 3 7 8 8 9 9 10 10 11 11 12 12 13 13
REMARK H PARENT
REMARK Flexibility Score: inf
ROOT
ATOM      1  C   UNL     1       4.816  -5.661  -7.749  1.00  0.00     0.000 C 
ENDROOT
BRANCH   1   2
ATOM      2  C   UNL     1       5.278  -7.058  -7.312  1.00  0.00     0.000 C 
BRANCH   2   3
ATOM      3  C   UNL     1       6.333  -7.021  -6.191  1.00  0.00     0.006 C 
BRANCH   3   4
ATOM      4  C   UNL     1       5.815  -6.438  -4.864  1.00  0.00     0.053 C 
BRANCH   4   5
ATOM      5  C   UNL     1       4.658  -7.208  -4.305  1.00  0.00     0.041 C 
ATOM      6  O   UNL     1       4.841  -8.333  -3.769  1.00  0.00    -0.550 OA
ATOM      7  O   UNL     1       3.370  -6.697  -4.404  1.00  0.00    -0.550 OA
ENDBRANCH   4   5
ENDBRANCH   3   4
ENDBRANCH   2   3
ENDBRANCH   1   2
BRANCH   1   8
ATOM      8  C   UNL     1       3.288  -5.599  -7.868  1.00  0.00     0.000 C 
BRANCH   8   9
ATOM      9  C   UNL     1       2.704  -4.542  -6.923  1.00  0.00     0.006 C 
BRANCH   9  10
ATOM     10  C   UNL     1       2.888  -3.133  -7.492  1.00  0.00     0.053 C 
BRANCH  10  11
ATOM     11  C   UNL     1       2.000  -2.925  -8.677  1.00  0.00     0.041 C 
ATOM     12  O   UNL     1       2.500  -2.751  -9.819  1.00  0.00    -0.550 OA
ATOM     13  O   UNL     1       0.623  -2.876  -8.513  1.00  0.00    -0.550 OA
ENDBRANCH  10  11
ENDBRANCH   9  10
ENDBRANCH   8   9
ENDBRANCH   1   8
TORSDOF 8
ENDMDL
MODEL 7
REMARK VINA RESULT:    -3.784      2.058      5.970
REMARK INTER + INTRA:          -6.033
REMARK INTER:                  -5.330
REMARK INTRA:                  -0.703
REMARK UNBOUND:                -0.480
REMARK SMILES O=C([O-])CCCCCCCC(=O)[O-]
REMARK SMILES IDX 7 1 6 2 5 3 4 4 2 5 1 6 3 7 8 8 9 9 10 10 11 11 12 12 13 13
REMARK H PARENT
REMARK Flexibility Score: inf
ROOT
ATOM      1  C   UNL     1       5.488  -6.172  -7.664  1.00  0.00     0.000 C 
ENDROOT
BRANCH   1   2
ATOM      2  C   UNL     1       4.154  -6.424  -8.381  1.00  0.00     0.000 C 
BRANCH   2   3
ATOM      3  C   UNL     1       3.002  -5.562  -7.833  1.00  0.00     0.006 C 
BRANCH   3   4
ATOM      4  C   UNL     1       3.467  -4.341  -7.019  1.00  0.00     0.053 C 
BRANCH   4   5
ATOM      5  C   UNL     1       3.176  -3.042  -7.706  1.00  0.00     0.041 C 
ATOM      6  O   UNL     1       4.110  -2.367  -8.214  1.00  0.00    -0.550 OA
ATOM      7  O   UNL     1       1.875  -2.559  -7.757  1.00  0.00    -0.550 OA
ENDBRANCH   4   5
ENDBRANCH   3   4
ENDBRANCH   2   3
ENDBRANCH   1   2
BRANCH   1   8
ATOM      8  C   UNL     1       6.030  -7.465  -7.042  1.00  0.00     0.000 C 
BRANCH   8   9
ATOM      9  C   UNL     1       6.743  -7.181  -5.714  1.00  0.00     0.006 C 
BRANCH   9  10
ATOM     10  C   UNL     1       5.851  -6.364  -4.775  1.00  0.00     0.053 C 
BRANCH  10  11
ATOM     11  C   UNL     1       4.687  -7.182  -4.314  1.00  0.00     0.041 C 
ATOM     12  O   UNL     1       4.875  -8.317  -3.801  1.00  0.00    -0.550 OA
ATOM     13  O   UNL     1       3.393  -6.714  -4.495  1.00  0.00    -0.550 OA
ENDBRANCH  10  11
ENDBRANCH   9  10
ENDBRANCH   8   9
ENDBRANCH   1   8
TORSDOF 8
ENDMDL
MODEL 8
REMARK VINA RESULT:    -3.713     10.839     12.364
REMARK INTER + INTRA:          -5.929
REMARK INTER:                  -5.424
REMARK INTRA:                  -0.505
REMARK UNBOUND:                -0.480
REMARK SMILES O=C([O-])CCCCCCCC(=O)[O-]
REMARK SMILES IDX 7 1 6 2 5 3 4 4 2 5 1 6 3 7 8 8 9 9 10 10 11 11 12 12 13 13
REMARK H PARENT
REMARK Flexibility Score: inf
ROOT
ATOM      1  C   UNL     1       5.649   7.357  -8.468  1.00  0.00     0.000 C 
ENDROOT
BRANCH   1   2
ATOM      2  C   UNL     1       5.783   6.462  -9.708  1.00  0.00     0.000 C 
BRANCH   2   3
ATOM      3  C   UNL     1       5.357   5.005  -9.448  1.00  0.00     0.006 C 
BRANCH   3   4
ATOM      4  C   UNL     1       6.126   4.323  -8.303  1.00  0.00     0.053 C 
BRANCH   4   5
ATOM      5  C   UNL     1       6.438   2.885  -8.589  1.00  0.00     0.041 C 
ATOM      6  O   UNL     1       6.606   2.071  -7.644  1.00  0.00    -0.550 OA
ATOM      7  O   UNL     1       6.572   2.450  -9.901  1.00  0.00    -0.550 OA
ENDBRANCH   4   5
ENDBRANCH   3   4
ENDBRANCH   2   3
ENDBRANCH   1   2
BRANCH   1   8
ATOM      8  C   UNL     1       6.986   8.025  -8.125  1.00  0.00     0.000 C 
BRANCH   8   9
ATOM      9  C   UNL     1       7.173   8.136  -6.607  1.00  0.00     0.006 C 
BRANCH   9  10
ATOM     10  C   UNL     1       6.007   7.483  -5.860  1.00  0.00     0.053 C 
BRANCH  10  11
ATOM     11  C   UNL     1       6.012   7.891  -4.422  1.00  0.00     0.041 C 
ATOM     12  O   UNL     1       6.705   8.873  -4.045  1.00  0.00    -0.550 OA
ATOM     13  O   UNL     1       5.291   7.159  -3.489  1.00  0.00    -0.550 OA
ENDBRANCH  10  11
ENDBRANCH   9  10
ENDBRANCH   8   9
ENDBRANCH   1   8
TORSDOF 8
ENDMDL
