MODEL 1
REMARK VINA RESULT:    -5.916      0.000      0.000
REMARK INTER + INTRA:          -7.544
REMARK INTER:                  -7.300
REMARK INTRA:                  -0.244
REMARK UNBOUND:                -0.244
REMARK SMILES C=CC[C@H](C)C(=O)CC
REMARK SMILES IDX 4 1 5 2 6 3 7 4 8 5 9 6 3 7 2 8 1 9
REMARK H PARENT
REMARK Flexibility Score: inf
ROOT
ATOM      1  C   UNL     1      10.659  24.593  23.620  1.00  0.00     0.057 C 
ATOM      2  C   UNL     1      10.289  24.282  22.165  1.00  0.00     0.016 C 
ENDROOT
BRANCH   1   3
ATOM      3  C   UNL     1      12.071  24.125  23.905  1.00  0.00     0.135 C 
ATOM      4  O   UNL     1      12.255  23.038  24.433  1.00  0.00    -0.299 OA
BRANCH   3   5
ATOM      5  C   UNL     1      13.262  24.971  23.534  1.00  0.00     0.072 C 
ATOM      6  C   UNL     1      13.139  26.375  24.117  1.00  0.00     0.012 C 
ENDBRANCH   3   5
ENDBRANCH   1   3
BRANCH   1   7
ATOM      7  C   UNL     1       9.648  23.940  24.585  1.00  0.00     0.038 C 
BRANCH   7   8
ATOM      8  C   UNL     1       8.471  23.343  23.858  1.00  0.00    -0.034 C 
ATOM      9  C   UNL     1       7.981  22.142  24.179  1.00  0.00     0.004 C 
ENDBRANCH   7   8
ENDBRANCH   1   7
TORSDOF 4
ENDMDL
MODEL 2
REMARK VINA RESULT:    -5.844      1.567      4.394
REMARK INTER + INTRA:          -7.454
REMARK INTER:                  -7.239
REMARK INTRA:                  -0.215
REMARK UNBOUND:                -0.244
REMARK SMILES C=CC[C@H](C)C(=O)CC
REMARK SMILES IDX 4 1 5 2 6 3 7 4 8 5 9 6 3 7 2 8 1 9
REMARK H PARENT
REMARK Flexibility Score: inf
ROOT
ATOM      1  C   UNL     1      10.395  23.473  23.689  1.00  0.00     0.057 C 
ATOM      2  C   UNL     1      10.770  23.609  22.209  1.00  0.00     0.016 C 
ENDROOT
BRANCH   1   3
ATOM      3  C   UNL     1       8.963  23.918  23.902  1.00  0.00     0.135 C 
ATOM      4  O   UNL     1       8.730  25.073  24.232  1.00  0.00    -0.299 OA
BRANCH   3   5
ATOM      5  C   UNL     1       7.812  22.967  23.700  1.00  0.00     0.072 C 
ATOM      6  C   UNL     1       7.958  21.734  24.585  1.00  0.00     0.012 C 
ENDBRANCH   3   5
ENDBRANCH   1   3
BRANCH   1   7
ATOM      7  C   UNL     1      11.369  24.282  24.569  1.00  0.00     0.038 C 
BRANCH   7   8
ATOM      8  C   UNL     1      12.679  24.548  23.873  1.00  0.00    -0.034 C 
ATOM      9  C   UNL     1      13.246  25.758  23.879  1.00  0.00     0.004 C 
ENDBRANCH   7   8
ENDBRANCH   1   7
TORSDOF 4
ENDMDL
MODEL 3
REMARK VINA RESULT:    -5.656      1.533      1.623
REMARK INTER + INTRA:          -7.223
REMARK INTER:                  -7.376
REMARK INTRA:                   0.153
REMARK UNBOUND:                -0.244
REMARK SMILES C=CC[C@H](C)C(=O)CC
REMARK SMILES IDX 4 1 5 2 6 3 7 4 8 5 9 6 3 7 2 8 1 9
REMARK H PARENT
REMARK Flexibility Score: inf
ROOT
ATOM      1  C   UNL     1      10.106  23.838  23.098  1.00  0.00     0.057 C 
ATOM      2  C   UNL     1      10.694  22.450  23.376  1.00  0.00     0.016 C 
ENDROOT
BRANCH   1   3
ATOM      3  C   UNL     1      11.147  24.904  23.374  1.00  0.00     0.135 C 
ATOM      4  O   UNL     1      10.853  26.084  23.246  1.00  0.00    -0.299 OA
BRANCH   3   5
ATOM      5  C   UNL     1      12.539  24.538  23.820  1.00  0.00     0.072 C 
ATOM      6  C   UNL     1      13.429  25.774  23.905  1.00  0.00     0.012 C 
ENDBRANCH   3   5
ENDBRANCH   1   3
BRANCH   1   7
ATOM      7  C   UNL     1       8.835  24.064  23.942  1.00  0.00     0.038 C 
BRANCH   7   8
ATOM      8  C   UNL     1       7.814  22.976  23.738  1.00  0.00    -0.034 C 
ATOM      9  C   UNL     1       7.756  21.907  24.538  1.00  0.00     0.004 C 
ENDBRANCH   7   8
ENDBRANCH   1   7
TORSDOF 4
ENDMDL
MODEL 4
REMARK VINA RESULT:    -3.426     11.457     12.757
REMARK INTER + INTRA:          -4.471
REMARK INTER:                  -4.275
REMARK INTRA:                  -0.196
REMARK UNBOUND:                -0.244
REMARK SMILES C=CC[C@H](C)C(=O)CC
REMARK SMILES IDX 4 1 5 2 6 3 7 4 8 5 9 6 3 7 2 8 1 9
REMARK H PARENT
REMARK Flexibility Score: inf
ROOT
ATOM      1  C   UNL     1       5.784  31.663  16.094  1.00  0.00     0.057 C 
ATOM      2  C   UNL     1       6.644  32.910  16.326  1.00  0.00     0.016 C 
ENDROOT
BRANCH   1   3
ATOM      3  C   UNL     1       6.646  30.529  15.580  1.00  0.00     0.135 C 
ATOM      4  O   UNL     1       7.652  30.779  14.930  1.00  0.00    -0.299 OA
BRANCH   3   5
ATOM      5  C   UNL     1       6.298  29.092  15.866  1.00  0.00     0.072 C 
ATOM      6  C   UNL     1       6.531  28.216  14.639  1.00  0.00     0.012 C 
ENDBRANCH   3   5
ENDBRANCH   1   3
BRANCH   1   7
ATOM      7  C   UNL     1       4.630  31.976  15.119  1.00  0.00     0.038 C 
BRANCH   7   8
ATOM      8  C   UNL     1       4.664  33.402  14.636  1.00  0.00    -0.034 C 
ATOM      9  C   UNL     1       3.559  34.033  14.226  1.00  0.00     0.004 C 
ENDBRANCH   7   8
ENDBRANCH   1   7
TORSDOF 4
ENDMDL
MODEL 5
REMARK VINA RESULT:    -3.332     11.572     13.025
REMARK INTER + INTRA:          -4.356
REMARK INTER:                  -4.015
REMARK INTRA:                  -0.341
REMARK UNBOUND:                -0.244
REMARK SMILES C=CC[C@H](C)C(=O)CC
REMARK SMILES IDX 4 1 5 2 6 3 7 4 8 5 9 6 3 7 2 8 1 9
REMARK H PARENT
REMARK Flexibility Score: inf
ROOT
ATOM      1  C   UNL     1       6.560  31.019  15.942  1.00  0.00     0.057 C 
ATOM      2  C   UNL     1       6.851  29.688  15.241  1.00  0.00     0.016 C 
ENDROOT
BRANCH   1   3
ATOM      3  C   UNL     1       5.207  31.546  15.507  1.00  0.00     0.135 C 
ATOM      4  O   UNL     1       4.240  30.798  15.498  1.00  0.00    -0.299 OA
BRANCH   3   5
ATOM      5  C   UNL     1       5.025  32.985  15.100  1.00  0.00     0.072 C 
ATOM      6  C   UNL     1       4.568  33.089  13.648  1.00  0.00     0.012 C 
ENDBRANCH   3   5
ENDBRANCH   1   3
BRANCH   1   7
ATOM      7  C   UNL     1       7.678  32.039  15.649  1.00  0.00     0.038 C 
BRANCH   7   8
ATOM      8  C   UNL     1       8.470  31.679  14.419  1.00  0.00    -0.034 C 
ATOM      9  C   UNL     1       9.666  32.221  14.169  1.00  0.00     0.004 C 
ENDBRANCH   7   8
ENDBRANCH   1   7
TORSDOF 4
ENDMDL
MODEL 6
REMARK VINA RESULT:    -3.300     10.647     12.052
REMARK INTER + INTRA:          -4.316
REMARK INTER:                  -3.913
REMARK INTRA:                  -0.402
REMARK UNBOUND:                -0.244
REMARK SMILES C=CC[C@H](C)C(=O)CC
REMARK SMILES IDX 4 1 5 2 6 3 7 4 8 5 9 6 3 7 2 8 1 9
REMARK H PARENT
REMARK Flexibility Score: inf
ROOT
ATOM      1  C   UNL     1       4.618  18.679  15.653  1.00  0.00     0.057 C 
ATOM      2  C   UNL     1       3.666  19.842  15.954  1.00  0.00     0.016 C 
ENDROOT
BRANCH   1   3
ATOM      3  C   UNL     1       5.996  19.213  15.319  1.00  0.00     0.135 C 
ATOM      4  O   UNL     1       6.127  20.034  14.423  1.00  0.00    -0.299 OA
BRANCH   3   5
ATOM      5  C   UNL     1       7.213  18.761  16.084  1.00  0.00     0.072 C 
ATOM      6  C   UNL     1       7.922  17.620  15.362  1.00  0.00     0.012 C 
ENDBRANCH   3   5
ENDBRANCH   1   3
BRANCH   1   7
ATOM      7  C   UNL     1       4.062  17.810  14.506  1.00  0.00     0.038 C 
BRANCH   7   8
ATOM      8  C   UNL     1       4.355  16.346  14.708  1.00  0.00    -0.034 C 
ATOM      9  C   UNL     1       5.089  15.648  13.835  1.00  0.00     0.004 C 
ENDBRANCH   7   8
ENDBRANCH   1   7
TORSDOF 4
ENDMDL
MODEL 7
REMARK VINA RESULT:    -3.279     10.991     12.053
REMARK INTER + INTRA:          -4.289
REMARK INTER:                  -3.815
REMARK INTRA:                  -0.474
REMARK UNBOUND:                -0.244
REMARK SMILES C=CC[C@H](C)C(=O)CC
REMARK SMILES IDX 4 1 5 2 6 3 7 4 8 5 9 6 3 7 2 8 1 9
REMARK H PARENT
REMARK Flexibility Score: inf
ROOT
ATOM      1  C   UNL     1      15.089  16.045  17.107  1.00  0.00     0.057 C 
ATOM      2  C   UNL     1      16.524  16.112  16.572  1.00  0.00     0.016 C 
ENDROOT
BRANCH   1   3
ATOM      3  C   UNL     1      14.280  15.055  16.294  1.00  0.00     0.135 C 
ATOM      4  O   UNL     1      14.789  14.506  15.328  1.00  0.00    -0.299 OA
BRANCH   3   5
ATOM      5  C   UNL     1      12.859  14.720  16.664  1.00  0.00     0.072 C 
ATOM      6  C   UNL     1      11.897  15.098  15.542  1.00  0.00     0.012 C 
ENDBRANCH   3   5
ENDBRANCH   1   3
BRANCH   1   7
ATOM      7  C   UNL     1      14.441  17.445  17.090  1.00  0.00     0.038 C 
BRANCH   7   8
ATOM      8  C   UNL     1      14.490  18.079  15.724  1.00  0.00    -0.034 C 
ATOM      9  C   UNL     1      13.430  18.699  15.198  1.00  0.00     0.004 C 
ENDBRANCH   7   8
ENDBRANCH   1   7
TORSDOF 4
ENDMDL
MODEL 8
REMARK VINA RESULT:    -3.262     11.160     12.149
REMARK INTER + INTRA:          -4.269
REMARK INTER:                  -3.817
REMARK INTRA:                  -0.452
REMARK UNBOUND:                -0.244
REMARK SMILES C=CC[C@H](C)C(=O)CC
REMARK SMILES IDX 4 1 5 2 6 3 7 4 8 5 9 6 3 7 2 8 1 9
REMARK H PARENT
REMARK Flexibility Score: inf
ROOT
ATOM      1  C   UNL     1      14.078  16.370  15.778  1.00  0.00     0.057 C 
ATOM      2  C   UNL     1      13.034  16.808  14.745  1.00  0.00     0.016 C 
ENDROOT
BRANCH   1   3
ATOM      3  C   UNL     1      13.584  15.148  16.524  1.00  0.00     0.135 C 
ATOM      4  O   UNL     1      12.397  14.857  16.493  1.00  0.00    -0.299 OA
BRANCH   3   5
ATOM      5  C   UNL     1      14.534  14.269  17.296  1.00  0.00     0.072 C 
ATOM      6  C   UNL     1      15.734  13.875  16.440  1.00  0.00     0.012 C 
ENDBRANCH   3   5
ENDBRANCH   1   3
BRANCH   1   7
ATOM      7  C   UNL     1      14.397  17.527  16.747  1.00  0.00     0.038 C 
BRANCH   7   8
ATOM      8  C   UNL     1      15.708  18.195  16.423  1.00  0.00    -0.034 C 
ATOM      9  C   UNL     1      16.775  17.496  16.025  1.00  0.00     0.004 C 
ENDBRANCH   7   8
ENDBRANCH   1   7
TORSDOF 4
ENDMDL
