MODEL 1
REMARK VINA RESULT:    -5.984      0.000      0.000
REMARK INTER + INTRA:          -7.297
REMARK INTER:                  -7.034
REMARK INTRA:                  -0.263
REMARK UNBOUND:                -0.263
REMARK SMILES O=c1cc(-c2ccc(O)c(O)c2)oc2cc(O)cc(O)c12
REMARK SMILES IDX 4 1 3 2 2 3 1 4 21 5 19 6 18 7 16 8 15 9 14 10 13 11 5 12
REMARK SMILES IDX 6 13 7 14 8 15 12 16 10 17 9 18 11 20 20 22 17 24
REMARK H PARENT 9 19 11 21 20 23 17 25
REMARK Flexibility Score: inf
ROOT
ATOM      1  C   UNL     1      25.898  43.566 140.835  1.00  0.00     0.138 A 
ATOM      2  C   UNL     1      24.524  43.301 140.925  1.00  0.00     0.100 A 
ATOM      3  C   UNL     1      23.678  43.686 139.884  1.00  0.00     0.197 A 
ATOM      4  O   UNL     1      22.459  43.385 139.970  1.00  0.00    -0.289 OA
ATOM      5  C   UNL     1      24.205  44.373 138.764  1.00  0.00     0.107 A 
ATOM      6  C   UNL     1      23.432  44.846 137.661  1.00  0.00     0.134 A 
ATOM      7  C   UNL     1      24.080  45.426 136.563  1.00  0.00     0.093 A 
ATOM      8  C   UNL     1      25.465  45.603 136.555  1.00  0.00     0.123 A 
ATOM      9  C   UNL     1      26.222  45.192 137.649  1.00  0.00     0.094 A 
ATOM     10  C   UNL     1      25.611  44.579 138.744  1.00  0.00     0.146 A 
ATOM     11  O   UNL     1      26.373  44.185 139.759  1.00  0.00    -0.456 OA
ENDROOT
BRANCH   1  12
ATOM     12  C   UNL     1      26.844  43.182 141.912  1.00  0.00     0.021 A 
ATOM     13  C   UNL     1      27.510  41.946 141.839  1.00  0.00     0.016 A 
ATOM     14  C   UNL     1      28.400  41.558 142.844  1.00  0.00     0.051 A 
ATOM     15  C   UNL     1      28.633  42.390 143.942  1.00  0.00     0.157 A 
ATOM     16  C   UNL     1      27.073  44.011 143.028  1.00  0.00     0.062 A 
ATOM     17  C   UNL     1      27.965  43.621 144.038  1.00  0.00     0.158 A 
BRANCH  15  18
ATOM     18  O   UNL     1      29.528  41.975 144.928  1.00  0.00    -0.504 OA
ATOM     19  H   UNL     1      29.860  42.602 145.651  1.00  0.00     0.293 HD
ENDBRANCH  15  18
BRANCH  17  20
ATOM     20  O   UNL     1      28.184  44.450 145.137  1.00  0.00    -0.504 OA
ATOM     21  H   UNL     1      28.512  44.084 146.022  1.00  0.00     0.293 HD
ENDBRANCH  17  20
ENDBRANCH   1  12
BRANCH   6  22
ATOM     22  O   UNL     1      22.036  44.791 137.601  1.00  0.00    -0.507 OA
ATOM     23  H   UNL     1      21.418  44.883 138.392  1.00  0.00     0.293 HD
ENDBRANCH   6  22
BRANCH   8  24
ATOM     24  O   UNL     1      26.100  46.196 135.464  1.00  0.00    -0.508 OA
ATOM     25  H   UNL     1      27.104  46.144 135.342  1.00  0.00     0.293 HD
ENDBRANCH   8  24
TORSDOF 5
ENDMDL
MODEL 2
REMARK VINA RESULT:    -5.838      3.592      7.613
REMARK INTER + INTRA:          -7.125
REMARK INTER:                  -6.833
REMARK INTRA:                  -0.291
REMARK UNBOUND:                -0.263
REMARK SMILES O=c1cc(-c2ccc(O)c(O)c2)oc2cc(O)cc(O)c12
REMARK SMILES IDX 4 1 3 2 2 3 1 4 21 5 19 6 18 7 16 8 15 9 14 10 13 11 5 12
REMARK SMILES IDX 6 13 7 14 8 15 12 16 10 17 9 18 11 20 20 22 17 24
REMARK H PARENT 9 19 11 21 20 23 17 25
REMARK Flexibility Score: inf
ROOT
ATOM      1  C   UNL     1      28.797  43.054 143.197  1.00  0.00     0.138 A 
ATOM      2  C   UNL     1      29.019  42.362 144.396  1.00  0.00     0.100 A 
ATOM      3  C   UNL     1      30.240  41.719 144.604  1.00  0.00     0.197 A 
ATOM      4  O   UNL     1      30.429  41.153 145.713  1.00  0.00    -0.289 OA
ATOM      5  C   UNL     1      31.230  41.738 143.592  1.00  0.00     0.107 A 
ATOM      6  C   UNL     1      32.497  41.087 143.679  1.00  0.00     0.134 A 
ATOM      7  C   UNL     1      33.434  41.260 142.652  1.00  0.00     0.093 A 
ATOM      8  C   UNL     1      33.126  42.011 141.515  1.00  0.00     0.123 A 
ATOM      9  C   UNL     1      31.873  42.607 141.398  1.00  0.00     0.094 A 
ATOM     10  C   UNL     1      30.930  42.483 142.420  1.00  0.00     0.146 A 
ATOM     11  O   UNL     1      29.753  43.084 142.274  1.00  0.00    -0.456 OA
ENDROOT
BRANCH   1  12
ATOM     12  C   UNL     1      27.517  43.754 142.920  1.00  0.00     0.021 A 
ATOM     13  C   UNL     1      27.492  44.803 141.986  1.00  0.00     0.016 A 
ATOM     14  C   UNL     1      26.302  45.483 141.712  1.00  0.00     0.051 A 
ATOM     15  C   UNL     1      25.121  45.134 142.372  1.00  0.00     0.157 A 
ATOM     16  C   UNL     1      26.327  43.414 143.592  1.00  0.00     0.062 A 
ATOM     17  C   UNL     1      25.132  44.098 143.319  1.00  0.00     0.158 A 
BRANCH  15  18
ATOM     18  O   UNL     1      23.949  45.830 142.076  1.00  0.00    -0.504 OA
ATOM     19  H   UNL     1      23.723  46.126 141.134  1.00  0.00     0.293 HD
ENDBRANCH  15  18
BRANCH  17  20
ATOM     20  O   UNL     1      23.960  43.753 143.990  1.00  0.00    -0.504 OA
ATOM     21  H   UNL     1      23.944  43.024 144.693  1.00  0.00     0.293 HD
ENDBRANCH  17  20
ENDBRANCH   1  12
BRANCH   6  22
ATOM     22  O   UNL     1      32.877  40.250 144.733  1.00  0.00    -0.507 OA
ATOM     23  H   UNL     1      33.403  39.396 144.634  1.00  0.00     0.293 HD
ENDBRANCH   6  22
BRANCH   8  24
ATOM     24  O   UNL     1      34.059  42.164 140.491  1.00  0.00    -0.508 OA
ATOM     25  H   UNL     1      34.983  41.753 140.550  1.00  0.00     0.293 HD
ENDBRANCH   8  24
TORSDOF 5
ENDMDL
MODEL 3
REMARK VINA RESULT:    -5.821     12.137     13.593
REMARK INTER + INTRA:          -7.105
REMARK INTER:                  -6.815
REMARK INTRA:                  -0.290
REMARK UNBOUND:                -0.263
REMARK SMILES O=c1cc(-c2ccc(O)c(O)c2)oc2cc(O)cc(O)c12
REMARK SMILES IDX 4 1 3 2 2 3 1 4 21 5 19 6 18 7 16 8 15 9 14 10 13 11 5 12
REMARK SMILES IDX 6 13 7 14 8 15 12 16 10 17 9 18 11 20 20 22 17 24
REMARK H PARENT 9 19 11 21 20 23 17 25
REMARK Flexibility Score: inf
ROOT
ATOM      1  C   UNL     1      28.448  31.770 137.768  1.00  0.00     0.138 A 
ATOM      2  C   UNL     1      28.718  30.582 138.460  1.00  0.00     0.100 A 
ATOM      3  C   UNL     1      27.663  29.828 138.974  1.00  0.00     0.197 A 
ATOM      4  O   UNL     1      27.935  28.738 139.542  1.00  0.00    -0.289 OA
ATOM      5  C   UNL     1      26.331  30.285 138.826  1.00  0.00     0.107 A 
ATOM      6  C   UNL     1      25.179  29.617 139.340  1.00  0.00     0.134 A 
ATOM      7  C   UNL     1      23.904  30.116 139.044  1.00  0.00     0.093 A 
ATOM      8  C   UNL     1      23.742  31.290 138.304  1.00  0.00     0.123 A 
ATOM      9  C   UNL     1      24.863  31.976 137.843  1.00  0.00     0.094 A 
ATOM     10  C   UNL     1      26.146  31.486 138.090  1.00  0.00     0.146 A 
ATOM     11  O   UNL     1      27.187  32.163 137.615  1.00  0.00    -0.456 OA
ENDROOT
BRANCH   1  12
ATOM     12  C   UNL     1      29.530  32.614 137.202  1.00  0.00     0.021 A 
ATOM     13  C   UNL     1      29.261  33.431 136.091  1.00  0.00     0.016 A 
ATOM     14  C   UNL     1      30.264  34.229 135.535  1.00  0.00     0.051 A 
ATOM     15  C   UNL     1      31.555  34.219 136.072  1.00  0.00     0.157 A 
ATOM     16  C   UNL     1      30.836  32.597 137.732  1.00  0.00     0.062 A 
ATOM     17  C   UNL     1      31.844  33.397 137.173  1.00  0.00     0.158 A 
BRANCH  15  18
ATOM     18  O   UNL     1      32.534  35.027 135.496  1.00  0.00    -0.504 OA
ATOM     19  H   UNL     1      32.998  35.762 136.016  1.00  0.00     0.293 HD
ENDBRANCH  15  18
BRANCH  17  20
ATOM     20  O   UNL     1      33.132  33.373 137.706  1.00  0.00    -0.504 OA
ATOM     21  H   UNL     1      33.323  32.976 138.617  1.00  0.00     0.293 HD
ENDBRANCH  17  20
ENDBRANCH   1  12
BRANCH   6  22
ATOM     22  O   UNL     1      25.229  28.483 140.156  1.00  0.00    -0.507 OA
ATOM     23  H   UNL     1      25.023  27.543 139.857  1.00  0.00     0.293 HD
ENDBRANCH   6  22
BRANCH   8  24
ATOM     24  O   UNL     1      22.470  31.787 138.029  1.00  0.00    -0.508 OA
ATOM     25  H   UNL     1      22.109  31.826 137.083  1.00  0.00     0.293 HD
ENDBRANCH   8  24
TORSDOF 5
ENDMDL
MODEL 4
REMARK VINA RESULT:    -5.690     11.981     14.785
REMARK INTER + INTRA:          -6.951
REMARK INTER:                  -6.688
REMARK INTRA:                  -0.263
REMARK UNBOUND:                -0.263
REMARK SMILES O=c1cc(-c2ccc(O)c(O)c2)oc2cc(O)cc(O)c12
REMARK SMILES IDX 4 1 3 2 2 3 1 4 21 5 19 6 18 7 16 8 15 9 14 10 13 11 5 12
REMARK SMILES IDX 6 13 7 14 8 15 12 16 10 17 9 18 11 20 20 22 17 24
REMARK H PARENT 9 19 11 21 20 23 17 25
REMARK Flexibility Score: inf
ROOT
ATOM      1  C   UNL     1      27.069  31.081 140.589  1.00  0.00     0.138 A 
ATOM      2  C   UNL     1      25.706  31.103 140.912  1.00  0.00     0.100 A 
ATOM      3  C   UNL     1      25.286  30.657 142.166  1.00  0.00     0.197 A 
ATOM      4  O   UNL     1      24.061  30.742 142.446  1.00  0.00    -0.289 OA
ATOM      5  C   UNL     1      26.233  30.151 143.088  1.00  0.00     0.107 A 
ATOM      6  C   UNL     1      25.918  29.637 144.382  1.00  0.00     0.134 A 
ATOM      7  C   UNL     1      26.953  29.256 145.245  1.00  0.00     0.093 A 
ATOM      8  C   UNL     1      28.288  29.315 144.839  1.00  0.00     0.123 A 
ATOM      9  C   UNL     1      28.603  29.768 143.560  1.00  0.00     0.094 A 
ATOM     10  C   UNL     1      27.597  30.188 142.689  1.00  0.00     0.146 A 
ATOM     11  O   UNL     1      27.943  30.631 141.484  1.00  0.00    -0.456 OA
ENDROOT
BRANCH   1  12
ATOM     12  C   UNL     1      27.572  31.540 139.270  1.00  0.00     0.021 A 
ATOM     13  C   UNL     1      27.965  32.879 139.109  1.00  0.00     0.016 A 
ATOM     14  C   UNL     1      28.435  33.339 137.876  1.00  0.00     0.051 A 
ATOM     15  C   UNL     1      28.511  32.473 136.781  1.00  0.00     0.157 A 
ATOM     16  C   UNL     1      27.638  30.674 138.161  1.00  0.00     0.062 A 
ATOM     17  C   UNL     1      28.108  31.135 136.921  1.00  0.00     0.158 A 
BRANCH  15  18
ATOM     18  O   UNL     1      28.986  32.960 135.564  1.00  0.00    -0.504 OA
ATOM     19  H   UNL     1      29.711  33.666 135.513  1.00  0.00     0.293 HD
ENDBRANCH  15  18
BRANCH  17  20
ATOM     20  O   UNL     1      28.170  30.270 135.831  1.00  0.00    -0.504 OA
ATOM     21  H   UNL     1      27.414  30.204 135.161  1.00  0.00     0.293 HD
ENDBRANCH  17  20
ENDBRANCH   1  12
BRANCH   6  22
ATOM     22  O   UNL     1      24.615  29.460 144.858  1.00  0.00    -0.507 OA
ATOM     23  H   UNL     1      23.777  29.742 144.373  1.00  0.00     0.293 HD
ENDBRANCH   6  22
BRANCH   8  24
ATOM     24  O   UNL     1      29.311  28.919 145.699  1.00  0.00    -0.508 OA
ATOM     25  H   UNL     1      29.287  28.023 146.172  1.00  0.00     0.293 HD
ENDBRANCH   8  24
TORSDOF 5
ENDMDL
MODEL 5
REMARK VINA RESULT:    -5.608      7.824     12.234
REMARK INTER + INTRA:          -6.854
REMARK INTER:                  -6.539
REMARK INTRA:                  -0.315
REMARK UNBOUND:                -0.263
REMARK SMILES O=c1cc(-c2ccc(O)c(O)c2)oc2cc(O)cc(O)c12
REMARK SMILES IDX 4 1 3 2 2 3 1 4 21 5 19 6 18 7 16 8 15 9 14 10 13 11 5 12
REMARK SMILES IDX 6 13 7 14 8 15 12 16 10 17 9 18 11 20 20 22 17 24
REMARK H PARENT 9 19 11 21 20 23 17 25
REMARK Flexibility Score: inf
ROOT
ATOM      1  C   UNL     1      35.518  42.131 141.742  1.00  0.00     0.138 A 
ATOM      2  C   UNL     1      36.729  42.037 141.041  1.00  0.00     0.100 A 
ATOM      3  C   UNL     1      37.935  42.197 141.724  1.00  0.00     0.197 A 
ATOM      4  O   UNL     1      39.006  42.052 141.078  1.00  0.00    -0.289 OA
ATOM      5  C   UNL     1      37.928  42.489 143.110  1.00  0.00     0.107 A 
ATOM      6  C   UNL     1      39.095  42.707 143.902  1.00  0.00     0.134 A 
ATOM      7  C   UNL     1      38.966  42.890 145.285  1.00  0.00     0.093 A 
ATOM      8  C   UNL     1      37.709  42.922 145.893  1.00  0.00     0.123 A 
ATOM      9  C   UNL     1      36.561  42.762 145.120  1.00  0.00     0.094 A 
ATOM     10  C   UNL     1      36.658  42.542 143.745  1.00  0.00     0.146 A 
ATOM     11  O   UNL     1      35.538  42.375 143.048  1.00  0.00    -0.456 OA
ENDROOT
BRANCH   1  12
ATOM     12  C   UNL     1      34.206  41.972 141.067  1.00  0.00     0.021 A 
ATOM     13  C   UNL     1      34.156  41.434 139.770  1.00  0.00     0.016 A 
ATOM     14  C   UNL     1      32.935  41.281 139.109  1.00  0.00     0.051 A 
ATOM     15  C   UNL     1      31.743  41.672 139.727  1.00  0.00     0.157 A 
ATOM     16  C   UNL     1      33.004  42.377 141.680  1.00  0.00     0.062 A 
ATOM     17  C   UNL     1      31.776  42.226 141.017  1.00  0.00     0.158 A 
BRANCH  15  18
ATOM     18  O   UNL     1      30.540  41.506 139.043  1.00  0.00    -0.504 OA
ATOM     19  H   UNL     1      30.213  42.178 138.359  1.00  0.00     0.293 HD
ENDBRANCH  15  18
BRANCH  17  20
ATOM     20  O   UNL     1      30.593  42.629 141.634  1.00  0.00    -0.504 OA
ATOM     21  H   UNL     1      30.280  43.591 141.606  1.00  0.00     0.293 HD
ENDBRANCH  17  20
ENDBRANCH   1  12
BRANCH   6  22
ATOM     22  O   UNL     1      40.392  42.774 143.385  1.00  0.00    -0.507 OA
ATOM     23  H   UNL     1      41.102  43.425 143.681  1.00  0.00     0.293 HD
ENDBRANCH   6  22
BRANCH   8  24
ATOM     24  O   UNL     1      37.589  43.122 147.268  1.00  0.00    -0.508 OA
ATOM     25  H   UNL     1      37.320  42.370 147.890  1.00  0.00     0.293 HD
ENDBRANCH   8  24
TORSDOF 5
ENDMDL
MODEL 6
REMARK VINA RESULT:    -5.542      5.042      9.068
REMARK INTER + INTRA:          -6.778
REMARK INTER:                  -6.469
REMARK INTRA:                  -0.308
REMARK UNBOUND:                -0.263
REMARK SMILES O=c1cc(-c2ccc(O)c(O)c2)oc2cc(O)cc(O)c12
REMARK SMILES IDX 4 1 3 2 2 3 1 4 21 5 19 6 18 7 16 8 15 9 14 10 13 11 5 12
REMARK SMILES IDX 6 13 7 14 8 15 12 16 10 17 9 18 11 20 20 22 17 24
REMARK H PARENT 9 19 11 21 20 23 17 25
REMARK Flexibility Score: inf
ROOT
ATOM      1  C   UNL     1      31.579  42.391 142.291  1.00  0.00     0.138 A 
ATOM      2  C   UNL     1      31.975  42.075 140.985  1.00  0.00     0.100 A 
ATOM      3  C   UNL     1      33.332  41.942 140.688  1.00  0.00     0.197 A 
ATOM      4  O   UNL     1      33.653  41.603 139.519  1.00  0.00    -0.289 OA
ATOM      5  C   UNL     1      34.300  42.164 141.697  1.00  0.00     0.107 A 
ATOM      6  C   UNL     1      35.712  42.091 141.503  1.00  0.00     0.134 A 
ATOM      7  C   UNL     1      36.569  42.234 142.602  1.00  0.00     0.093 A 
ATOM      8  C   UNL     1      36.067  42.505 143.876  1.00  0.00     0.123 A 
ATOM      9  C   UNL     1      34.692  42.628 144.067  1.00  0.00     0.094 A 
ATOM     10  C   UNL     1      33.810  42.457 142.999  1.00  0.00     0.146 A 
ATOM     11  O   UNL     1      32.505  42.565 143.229  1.00  0.00    -0.456 OA
ENDROOT
BRANCH   1  12
ATOM     12  C   UNL     1      30.151  42.548 142.663  1.00  0.00     0.021 A 
ATOM     13  C   UNL     1      29.165  41.883 141.915  1.00  0.00     0.016 A 
ATOM     14  C   UNL     1      27.813  42.019 142.240  1.00  0.00     0.051 A 
ATOM     15  C   UNL     1      27.421  42.829 143.309  1.00  0.00     0.157 A 
ATOM     16  C   UNL     1      29.750  43.374 143.732  1.00  0.00     0.062 A 
ATOM     17  C   UNL     1      28.392  43.513 144.058  1.00  0.00     0.158 A 
BRANCH  15  18
ATOM     18  O   UNL     1      26.064  42.944 143.609  1.00  0.00    -0.504 OA
ATOM     19  H   UNL     1      25.519  43.753 143.334  1.00  0.00     0.293 HD
ENDBRANCH  15  18
BRANCH  17  20
ATOM     20  O   UNL     1      28.007  44.332 145.118  1.00  0.00    -0.504 OA
ATOM     21  H   UNL     1      27.358  44.013 145.827  1.00  0.00     0.293 HD
ENDBRANCH  17  20
ENDBRANCH   1  12
BRANCH   6  22
ATOM     22  O   UNL     1      36.323  41.905 140.259  1.00  0.00    -0.507 OA
ATOM     23  H   UNL     1      37.270  41.592 140.118  1.00  0.00     0.293 HD
ENDBRANCH   6  22
BRANCH   8  24
ATOM     24  O   UNL     1      36.928  42.661 144.961  1.00  0.00    -0.508 OA
ATOM     25  H   UNL     1      37.913  42.856 144.831  1.00  0.00     0.293 HD
ENDBRANCH   8  24
TORSDOF 5
ENDMDL
MODEL 7
REMARK VINA RESULT:    -5.485     12.549     13.420
REMARK INTER + INTRA:          -6.710
REMARK INTER:                  -6.445
REMARK INTRA:                  -0.265
REMARK UNBOUND:                -0.263
REMARK SMILES O=c1cc(-c2ccc(O)c(O)c2)oc2cc(O)cc(O)c12
REMARK SMILES IDX 4 1 3 2 2 3 1 4 21 5 19 6 18 7 16 8 15 9 14 10 13 11 5 12
REMARK SMILES IDX 6 13 7 14 8 15 12 16 10 17 9 18 11 20 20 22 17 24
REMARK H PARENT 9 19 11 21 20 23 17 25
REMARK Flexibility Score: inf
ROOT
ATOM      1  C   UNL     1      28.226  30.909 141.517  1.00  0.00     0.138 A 
ATOM      2  C   UNL     1      27.371  30.115 140.741  1.00  0.00     0.100 A 
ATOM      3  C   UNL     1      27.472  30.147 139.350  1.00  0.00     0.197 A 
ATOM      4  O   UNL     1      26.728  29.381 138.683  1.00  0.00    -0.289 OA
ATOM      5  C   UNL     1      28.410  31.008 138.730  1.00  0.00     0.107 A 
ATOM      6  C   UNL     1      28.579  31.151 137.320  1.00  0.00     0.134 A 
ATOM      7  C   UNL     1      29.609  31.961 136.827  1.00  0.00     0.093 A 
ATOM      8  C   UNL     1      30.439  32.679 137.691  1.00  0.00     0.123 A 
ATOM      9  C   UNL     1      30.249  32.586 139.068  1.00  0.00     0.094 A 
ATOM     10  C   UNL     1      29.254  31.759 139.592  1.00  0.00     0.146 A 
ATOM     11  O   UNL     1      29.120  31.686 140.913  1.00  0.00    -0.456 OA
ENDROOT
BRANCH   1  12
ATOM     12  C   UNL     1      28.161  30.917 143.000  1.00  0.00     0.021 A 
ATOM     13  C   UNL     1      27.720  32.073 143.666  1.00  0.00     0.016 A 
ATOM     14  C   UNL     1      27.656  32.110 145.061  1.00  0.00     0.051 A 
ATOM     15  C   UNL     1      28.041  30.998 145.816  1.00  0.00     0.157 A 
ATOM     16  C   UNL     1      28.560  29.803 143.765  1.00  0.00     0.062 A 
ATOM     17  C   UNL     1      28.498  29.840 145.166  1.00  0.00     0.158 A 
BRANCH  15  18
ATOM     18  O   UNL     1      27.965  31.064 147.206  1.00  0.00    -0.504 OA
ATOM     19  H   UNL     1      27.609  31.881 147.687  1.00  0.00     0.293 HD
ENDBRANCH  15  18
BRANCH  17  20
ATOM     20  O   UNL     1      28.894  28.732 145.913  1.00  0.00    -0.504 OA
ATOM     21  H   UNL     1      28.599  28.604 146.873  1.00  0.00     0.293 HD
ENDBRANCH  17  20
ENDBRANCH   1  12
BRANCH   6  22
ATOM     22  O   UNL     1      27.755  30.542 136.368  1.00  0.00    -0.507 OA
ATOM     23  H   UNL     1      26.870  30.903 136.051  1.00  0.00     0.293 HD
ENDBRANCH   6  22
BRANCH   8  24
ATOM     24  O   UNL     1      31.451  33.495 137.190  1.00  0.00    -0.508 OA
ATOM     25  H   UNL     1      31.636  33.560 136.196  1.00  0.00     0.293 HD
ENDBRANCH   8  24
TORSDOF 5
ENDMDL
MODEL 8
REMARK VINA RESULT:    -5.386      4.966      7.938
REMARK INTER + INTRA:          -6.594
REMARK INTER:                  -6.303
REMARK INTRA:                  -0.291
REMARK UNBOUND:                -0.263
REMARK SMILES O=c1cc(-c2ccc(O)c(O)c2)oc2cc(O)cc(O)c12
REMARK SMILES IDX 4 1 3 2 2 3 1 4 21 5 19 6 18 7 16 8 15 9 14 10 13 11 5 12
REMARK SMILES IDX 6 13 7 14 8 15 12 16 10 17 9 18 11 20 20 22 17 24
REMARK H PARENT 9 19 11 21 20 23 17 25
REMARK Flexibility Score: inf
ROOT
ATOM      1  C   UNL     1      31.214  42.283 141.815  1.00  0.00     0.138 A 
ATOM      2  C   UNL     1      32.376  42.410 142.589  1.00  0.00     0.100 A 
ATOM      3  C   UNL     1      33.622  42.171 142.008  1.00  0.00     0.197 A 
ATOM      4  O   UNL     1      34.649  42.347 142.714  1.00  0.00    -0.289 OA
ATOM      5  C   UNL     1      33.702  41.766 140.654  1.00  0.00     0.107 A 
ATOM      6  C   UNL     1      34.915  41.460 139.966  1.00  0.00     0.134 A 
ATOM      7  C   UNL     1      34.876  41.166 138.597  1.00  0.00     0.093 A 
ATOM      8  C   UNL     1      33.663  41.109 137.906  1.00  0.00     0.123 A 
ATOM      9  C   UNL     1      32.470  41.355 138.581  1.00  0.00     0.094 A 
ATOM     10  C   UNL     1      32.478  41.686 139.937  1.00  0.00     0.146 A 
ATOM     11  O   UNL     1      31.318  41.932 140.538  1.00  0.00    -0.456 OA
ENDROOT
BRANCH   1  12
ATOM     12  C   UNL     1      29.863  42.523 142.381  1.00  0.00     0.021 A 
ATOM     13  C   UNL     1      28.743  41.938 141.767  1.00  0.00     0.016 A 
ATOM     14  C   UNL     1      27.459  42.153 142.275  1.00  0.00     0.051 A 
ATOM     15  C   UNL     1      27.270  42.963 143.399  1.00  0.00     0.157 A 
ATOM     16  C   UNL     1      29.666  43.349 143.506  1.00  0.00     0.062 A 
ATOM     17  C   UNL     1      28.378  43.567 144.016  1.00  0.00     0.158 A 
BRANCH  15  18
ATOM     18  O   UNL     1      25.978  43.158 143.883  1.00  0.00    -0.504 OA
ATOM     19  H   UNL     1      25.663  44.056 144.229  1.00  0.00     0.293 HD
ENDBRANCH  15  18
BRANCH  17  20
ATOM     20  O   UNL     1      28.195  44.385 145.129  1.00  0.00    -0.504 OA
ATOM     21  H   UNL     1      28.810  44.336 145.932  1.00  0.00     0.293 HD
ENDBRANCH  17  20
ENDBRANCH   1  12
BRANCH   6  22
ATOM     22  O   UNL     1      36.171  41.410 140.577  1.00  0.00    -0.507 OA
ATOM     23  H   UNL     1      36.834  40.657 140.480  1.00  0.00     0.293 HD
ENDBRANCH   6  22
BRANCH   8  24
ATOM     24  O   UNL     1      33.633  40.799 136.548  1.00  0.00    -0.508 OA
ATOM     25  H   UNL     1      34.257  40.108 136.148  1.00  0.00     0.293 HD
ENDBRANCH   8  24
TORSDOF 5
ENDMDL
MODEL 9
REMARK VINA RESULT:    -5.275     10.934     12.636
REMARK INTER + INTRA:          -6.463
REMARK INTER:                  -6.168
REMARK INTRA:                  -0.295
REMARK UNBOUND:                -0.263
REMARK SMILES O=c1cc(-c2ccc(O)c(O)c2)oc2cc(O)cc(O)c12
REMARK SMILES IDX 4 1 3 2 2 3 1 4 21 5 19 6 18 7 16 8 15 9 14 10 13 11 5 12
REMARK SMILES IDX 6 13 7 14 8 15 12 16 10 17 9 18 11 20 20 22 17 24
REMARK H PARENT 9 19 11 21 20 23 17 25
REMARK Flexibility Score: inf
ROOT
ATOM      1  C   UNL     1      35.865  41.580 145.618  1.00  0.00     0.138 A 
ATOM      2  C   UNL     1      35.843  40.684 144.541  1.00  0.00     0.100 A 
ATOM      3  C   UNL     1      36.810  40.785 143.540  1.00  0.00     0.197 A 
ATOM      4  O   UNL     1      36.797  39.931 142.615  1.00  0.00    -0.289 OA
ATOM      5  C   UNL     1      37.782  41.813 143.598  1.00  0.00     0.107 A 
ATOM      6  C   UNL     1      38.794  42.035 142.617  1.00  0.00     0.134 A 
ATOM      7  C   UNL     1      39.761  43.025 142.834  1.00  0.00     0.093 A 
ATOM      8  C   UNL     1      39.717  43.838 143.968  1.00  0.00     0.123 A 
ATOM      9  C   UNL     1      38.703  43.663 144.907  1.00  0.00     0.094 A 
ATOM     10  C   UNL     1      37.745  42.663 144.737  1.00  0.00     0.146 A 
ATOM     11  O   UNL     1      36.806  42.518 145.667  1.00  0.00    -0.456 OA
ENDROOT
BRANCH   1  12
ATOM     12  C   UNL     1      34.860  41.522 146.709  1.00  0.00     0.021 A 
ATOM     13  C   UNL     1      35.074  42.260 147.885  1.00  0.00     0.016 A 
ATOM     14  C   UNL     1      34.147  42.217 148.930  1.00  0.00     0.051 A 
ATOM     15  C   UNL     1      32.998  41.428 148.824  1.00  0.00     0.157 A 
ATOM     16  C   UNL     1      33.706  40.719 146.611  1.00  0.00     0.062 A 
ATOM     17  C   UNL     1      32.776  40.673 147.661  1.00  0.00     0.158 A 
BRANCH  15  18
ATOM     18  O   UNL     1      32.091  41.407 149.883  1.00  0.00    -0.504 OA
ATOM     19  H   UNL     1      32.084  40.662 150.569  1.00  0.00     0.293 HD
ENDBRANCH  15  18
BRANCH  17  20
ATOM     20  O   UNL     1      31.638  39.876 147.554  1.00  0.00    -0.504 OA
ATOM     21  H   UNL     1      31.142  39.545 148.371  1.00  0.00     0.293 HD
ENDBRANCH  17  20
ENDBRANCH   1  12
BRANCH   6  22
ATOM     22  O   UNL     1      38.882  41.333 141.410  1.00  0.00    -0.507 OA
ATOM     23  H   UNL     1      38.102  41.096 140.819  1.00  0.00     0.293 HD
ENDBRANCH   6  22
BRANCH   8  24
ATOM     24  O   UNL     1      40.675  44.831 144.168  1.00  0.00    -0.508 OA
ATOM     25  H   UNL     1      40.612  45.480 144.943  1.00  0.00     0.293 HD
ENDBRANCH   8  24
TORSDOF 5
ENDMDL
