MODEL 1
REMARK VINA RESULT:    -6.941      0.000      0.000
REMARK INTER + INTRA:          -7.590
REMARK INTER:                  -7.347
REMARK INTRA:                  -0.243
REMARK UNBOUND:                -0.243
REMARK SMILES O=c1cc(-c2ccccc2)oc2ccccc12
REMARK SMILES IDX 4 1 3 2 2 3 1 4 17 5 16 6 15 7 14 8 13 9 12 10 11 11 5 12
REMARK SMILES IDX 8 13 7 14 9 15 6 16 10 17
REMARK H PARENT
REMARK Flexibility Score: inf
ROOT
ATOM      1  C   UNL     1       5.998   9.449   2.949  1.00  0.00     0.138 A 
ATOM      2  C   UNL     1       6.246  10.834   2.926  1.00  0.00     0.100 A 
ATOM      3  C   UNL     1       5.379  11.696   3.599  1.00  0.00     0.193 A 
ATOM      4  O   UNL     1       5.598  12.938   3.580  1.00  0.00    -0.289 OA
ATOM      5  C   UNL     1       4.275  11.167   4.284  1.00  0.00     0.065 A 
ATOM      6  C   UNL     1       3.362  11.979   4.983  1.00  0.00     0.016 A 
ATOM      7  C   UNL     1       2.275  11.400   5.644  1.00  0.00     0.001 A 
ATOM      8  C   UNL     1       2.088  10.015   5.614  1.00  0.00     0.004 A 
ATOM      9  C   UNL     1       2.988   9.201   4.921  1.00  0.00     0.048 A 
ATOM     10  C   UNL     1       4.082   9.768   4.256  1.00  0.00     0.138 A 
ATOM     11  O   UNL     1       4.933   8.984   3.602  1.00  0.00    -0.456 OA
ENDROOT
BRANCH   1  12
ATOM     12  C   UNL     1       6.884   8.483   2.251  1.00  0.00     0.017 A 
ATOM     13  C   UNL     1       8.532   6.666   0.874  1.00  0.00     0.000 A 
ATOM     14  C   UNL     1       8.315   6.511   2.244  1.00  0.00     0.001 A 
ATOM     15  C   UNL     1       7.923   7.716   0.185  1.00  0.00     0.001 A 
ATOM     16  C   UNL     1       7.493   7.410   2.932  1.00  0.00     0.012 A 
ATOM     17  C   UNL     1       7.100   8.618   0.867  1.00  0.00     0.012 A 
ENDBRANCH   1  12
TORSDOF 1
ENDMDL
MODEL 2
REMARK VINA RESULT:    -6.621      1.360      1.697
REMARK INTER + INTRA:          -7.251
REMARK INTER:                  -6.978
REMARK INTRA:                  -0.273
REMARK UNBOUND:                -0.243
REMARK SMILES O=c1cc(-c2ccccc2)oc2ccccc12
REMARK SMILES IDX 4 1 3 2 2 3 1 4 17 5 16 6 15 7 14 8 13 9 12 10 11 11 5 12
REMARK SMILES IDX 8 13 7 14 9 15 6 16 10 17
REMARK H PARENT
REMARK Flexibility Score: inf
ROOT
ATOM      1  C   UNL     1       5.112   9.994   3.274  1.00  0.00     0.138 A 
ATOM      2  C   UNL     1       5.696  11.248   3.536  1.00  0.00     0.100 A 
ATOM      3  C   UNL     1       5.170  12.047   4.552  1.00  0.00     0.193 A 
ATOM      4  O   UNL     1       5.690  13.172   4.789  1.00  0.00    -0.289 OA
ATOM      5  C   UNL     1       4.070  11.589   5.292  1.00  0.00     0.065 A 
ATOM      6  C   UNL     1       3.492  12.345   6.329  1.00  0.00     0.016 A 
ATOM      7  C   UNL     1       2.392  11.843   7.031  1.00  0.00     0.001 A 
ATOM      8  C   UNL     1       1.861  10.591   6.707  1.00  0.00     0.004 A 
ATOM      9  C   UNL     1       2.428   9.834   5.677  1.00  0.00     0.048 A 
ATOM     10  C   UNL     1       3.530  10.325   4.968  1.00  0.00     0.138 A 
ATOM     11  O   UNL     1       4.062   9.596   3.992  1.00  0.00    -0.456 OA
ENDROOT
BRANCH   1  12
ATOM     12  C   UNL     1       5.626   9.099   2.206  1.00  0.00     0.017 A 
ATOM     13  C   UNL     1       6.564   7.358   0.205  1.00  0.00     0.000 A 
ATOM     14  C   UNL     1       7.341   8.449   0.601  1.00  0.00     0.001 A 
ATOM     15  C   UNL     1       5.327   7.126   0.809  1.00  0.00     0.001 A 
ATOM     16  C   UNL     1       6.880   9.315   1.598  1.00  0.00     0.012 A 
ATOM     17  C   UNL     1       4.862   7.988   1.807  1.00  0.00     0.012 A 
ENDBRANCH   1  12
TORSDOF 1
ENDMDL
MODEL 3
REMARK VINA RESULT:    -6.581      3.653      4.280
REMARK INTER + INTRA:          -7.210
REMARK INTER:                  -6.982
REMARK INTRA:                  -0.228
REMARK UNBOUND:                -0.243
REMARK SMILES O=c1cc(-c2ccccc2)oc2ccccc12
REMARK SMILES IDX 4 1 3 2 2 3 1 4 17 5 16 6 15 7 14 8 13 9 12 10 11 11 5 12
REMARK SMILES IDX 8 13 7 14 9 15 6 16 10 17
REMARK H PARENT
REMARK Flexibility Score: inf
ROOT
ATOM      1  C   UNL     1       4.672   6.497   1.097  1.00  0.00     0.138 A 
ATOM      2  C   UNL     1       5.782   7.271   0.711  1.00  0.00     0.100 A 
ATOM      3  C   UNL     1       6.126   8.396   1.461  1.00  0.00     0.193 A 
ATOM      4  O   UNL     1       7.120   9.093   1.117  1.00  0.00    -0.289 OA
ATOM      5  C   UNL     1       5.359   8.738   2.585  1.00  0.00     0.065 A 
ATOM      6  C   UNL     1       5.650   9.858   3.384  1.00  0.00     0.016 A 
ATOM      7  C   UNL     1       4.849  10.156   4.490  1.00  0.00     0.001 A 
ATOM      8  C   UNL     1       3.755   9.345   4.807  1.00  0.00     0.004 A 
ATOM      9  C   UNL     1       3.457   8.230   4.018  1.00  0.00     0.048 A 
ATOM     10  C   UNL     1       4.252   7.921   2.908  1.00  0.00     0.138 A 
ATOM     11  O   UNL     1       3.961   6.858   2.165  1.00  0.00    -0.456 OA
ENDROOT
BRANCH   1  12
ATOM     12  C   UNL     1       4.257   5.291   0.338  1.00  0.00     0.017 A 
ATOM     13  C   UNL     1       3.413   3.030  -1.108  1.00  0.00     0.000 A 
ATOM     14  C   UNL     1       4.455   2.919  -0.186  1.00  0.00     0.001 A 
ATOM     15  C   UNL     1       2.782   4.259  -1.304  1.00  0.00     0.001 A 
ATOM     16  C   UNL     1       4.876   4.040   0.538  1.00  0.00     0.012 A 
ATOM     17  C   UNL     1       3.198   5.383  -0.583  1.00  0.00     0.012 A 
ENDBRANCH   1  12
TORSDOF 1
ENDMDL
MODEL 4
REMARK VINA RESULT:    -6.354      1.620      6.292
REMARK INTER + INTRA:          -6.969
REMARK INTER:                  -6.694
REMARK INTRA:                  -0.275
REMARK UNBOUND:                -0.243
REMARK SMILES O=c1cc(-c2ccccc2)oc2ccccc12
REMARK SMILES IDX 4 1 3 2 2 3 1 4 17 5 16 6 15 7 14 8 13 9 12 10 11 11 5 12
REMARK SMILES IDX 8 13 7 14 9 15 6 16 10 17
REMARK H PARENT
REMARK Flexibility Score: inf
ROOT
ATOM      1  C   UNL     1       4.033   9.256   4.042  1.00  0.00     0.138 A 
ATOM      2  C   UNL     1       3.483   7.986   3.783  1.00  0.00     0.100 A 
ATOM      3  C   UNL     1       4.060   7.179   2.802  1.00  0.00     0.193 A 
ATOM      4  O   UNL     1       3.569   6.040   2.566  1.00  0.00    -0.289 OA
ATOM      5  C   UNL     1       5.175   7.646   2.090  1.00  0.00     0.065 A 
ATOM      6  C   UNL     1       5.804   6.884   1.089  1.00  0.00     0.016 A 
ATOM      7  C   UNL     1       6.909   7.401   0.407  1.00  0.00     0.001 A 
ATOM      8  C   UNL     1       7.393   8.676   0.713  1.00  0.00     0.004 A 
ATOM      9  C   UNL     1       6.773   9.441   1.705  1.00  0.00     0.048 A 
ATOM     10  C   UNL     1       5.667   8.935   2.397  1.00  0.00     0.138 A 
ATOM     11  O   UNL     1       5.086   9.670   3.340  1.00  0.00    -0.456 OA
ENDROOT
BRANCH   1  12
ATOM     12  C   UNL     1       3.462  10.160   5.072  1.00  0.00     0.017 A 
ATOM     13  C   UNL     1       2.438  11.899   7.033  1.00  0.00     0.000 A 
ATOM     14  C   UNL     1       1.801  10.683   6.777  1.00  0.00     0.001 A 
ATOM     15  C   UNL     1       3.589  12.247   6.323  1.00  0.00     0.001 A 
ATOM     16  C   UNL     1       2.309   9.814   5.806  1.00  0.00     0.012 A 
ATOM     17  C   UNL     1       4.101  11.382   5.352  1.00  0.00     0.012 A 
ENDBRANCH   1  12
TORSDOF 1
ENDMDL
MODEL 5
REMARK VINA RESULT:    -6.240      1.115      2.620
REMARK INTER + INTRA:          -6.848
REMARK INTER:                  -6.612
REMARK INTRA:                  -0.236
REMARK UNBOUND:                -0.243
REMARK SMILES O=c1cc(-c2ccccc2)oc2ccccc12
REMARK SMILES IDX 4 1 3 2 2 3 1 4 17 5 16 6 15 7 14 8 13 9 12 10 11 11 5 12
REMARK SMILES IDX 8 13 7 14 9 15 6 16 10 17
REMARK H PARENT
REMARK Flexibility Score: inf
ROOT
ATOM      1  C   UNL     1       5.735   9.118   3.100  1.00  0.00     0.138 A 
ATOM      2  C   UNL     1       4.530   8.575   3.585  1.00  0.00     0.100 A 
ATOM      3  C   UNL     1       3.685   9.370   4.360  1.00  0.00     0.193 A 
ATOM      4  O   UNL     1       2.604   8.887   4.797  1.00  0.00    -0.289 OA
ATOM      5  C   UNL     1       4.051  10.695   4.644  1.00  0.00     0.065 A 
ATOM      6  C   UNL     1       3.245  11.550   5.418  1.00  0.00     0.016 A 
ATOM      7  C   UNL     1       3.662  12.859   5.675  1.00  0.00     0.001 A 
ATOM      8  C   UNL     1       4.878  13.325   5.167  1.00  0.00     0.004 A 
ATOM      9  C   UNL     1       5.685  12.482   4.398  1.00  0.00     0.048 A 
ATOM     10  C   UNL     1       5.280  11.169   4.132  1.00  0.00     0.138 A 
ATOM     11  O   UNL     1       6.054  10.377   3.399  1.00  0.00    -0.456 OA
ENDROOT
BRANCH   1  12
ATOM     12  C   UNL     1       6.675   8.321   2.273  1.00  0.00     0.017 A 
ATOM     13  C   UNL     1       8.488   6.793   0.757  1.00  0.00     0.000 A 
ATOM     14  C   UNL     1       7.820   7.869   0.169  1.00  0.00     0.001 A 
ATOM     15  C   UNL     1       8.265   6.482   2.099  1.00  0.00     0.001 A 
ATOM     16  C   UNL     1       6.921   8.633   0.920  1.00  0.00     0.012 A 
ATOM     17  C   UNL     1       7.367   7.243   2.855  1.00  0.00     0.012 A 
ENDBRANCH   1  12
TORSDOF 1
ENDMDL
MODEL 6
REMARK VINA RESULT:    -6.229      1.248      6.255
REMARK INTER + INTRA:          -6.836
REMARK INTER:                  -6.591
REMARK INTRA:                  -0.245
REMARK UNBOUND:                -0.243
REMARK SMILES O=c1cc(-c2ccccc2)oc2ccccc12
REMARK SMILES IDX 4 1 3 2 2 3 1 4 17 5 16 6 15 7 14 8 13 9 12 10 11 11 5 12
REMARK SMILES IDX 8 13 7 14 9 15 6 16 10 17
REMARK H PARENT
REMARK Flexibility Score: inf
ROOT
ATOM      1  C   UNL     1       5.342   8.956   3.892  1.00  0.00     0.138 A 
ATOM      2  C   UNL     1       5.928   7.965   4.700  1.00  0.00     0.100 A 
ATOM      3  C   UNL     1       6.909   7.133   4.158  1.00  0.00     0.193 A 
ATOM      4  O   UNL     1       7.437   6.242   4.880  1.00  0.00    -0.289 OA
ATOM      5  C   UNL     1       7.292   7.298   2.819  1.00  0.00     0.065 A 
ATOM      6  C   UNL     1       8.274   6.494   2.211  1.00  0.00     0.016 A 
ATOM      7  C   UNL     1       8.612   6.698   0.870  1.00  0.00     0.001 A 
ATOM      8  C   UNL     1       7.978   7.697   0.127  1.00  0.00     0.004 A 
ATOM      9  C   UNL     1       7.000   8.500   0.722  1.00  0.00     0.048 A 
ATOM     10  C   UNL     1       6.653   8.307   2.064  1.00  0.00     0.138 A 
ATOM     11  O   UNL     1       5.723   9.077   2.621  1.00  0.00    -0.456 OA
ENDROOT
BRANCH   1  12
ATOM     12  C   UNL     1       4.292   9.869   4.411  1.00  0.00     0.017 A 
ATOM     13  C   UNL     1       2.261  11.554   5.387  1.00  0.00     0.000 A 
ATOM     14  C   UNL     1       3.403  12.105   4.802  1.00  0.00     0.001 A 
ATOM     15  C   UNL     1       2.122  10.168   5.478  1.00  0.00     0.001 A 
ATOM     16  C   UNL     1       4.414  11.271   4.313  1.00  0.00     0.012 A 
ATOM     17  C   UNL     1       3.129   9.329   4.989  1.00  0.00     0.012 A 
ENDBRANCH   1  12
TORSDOF 1
ENDMDL
MODEL 7
REMARK VINA RESULT:    -6.219      1.959      5.920
REMARK INTER + INTRA:          -6.825
REMARK INTER:                  -6.559
REMARK INTRA:                  -0.266
REMARK UNBOUND:                -0.243
REMARK SMILES O=c1cc(-c2ccccc2)oc2ccccc12
REMARK SMILES IDX 4 1 3 2 2 3 1 4 17 5 16 6 15 7 14 8 13 9 12 10 11 11 5 12
REMARK SMILES IDX 8 13 7 14 9 15 6 16 10 17
REMARK H PARENT
REMARK Flexibility Score: inf
ROOT
ATOM      1  C   UNL     1       4.139   9.961   4.433  1.00  0.00     0.138 A 
ATOM      2  C   UNL     1       5.186  10.610   3.752  1.00  0.00     0.100 A 
ATOM      3  C   UNL     1       5.821   9.960   2.693  1.00  0.00     0.193 A 
ATOM      4  O   UNL     1       6.760  10.538   2.081  1.00  0.00    -0.289 OA
ATOM      5  C   UNL     1       5.407   8.670   2.328  1.00  0.00     0.065 A 
ATOM      6  C   UNL     1       6.004   7.958   1.271  1.00  0.00     0.016 A 
ATOM      7  C   UNL     1       5.556   6.672   0.953  1.00  0.00     0.001 A 
ATOM      8  C   UNL     1       4.516   6.088   1.682  1.00  0.00     0.004 A 
ATOM      9  C   UNL     1       3.918   6.787   2.734  1.00  0.00     0.048 A 
ATOM     10  C   UNL     1       4.356   8.075   3.062  1.00  0.00     0.138 A 
ATOM     11  O   UNL     1       3.780   8.732   4.064  1.00  0.00    -0.456 OA
ENDROOT
BRANCH   1  12
ATOM     12  C   UNL     1       3.427  10.602   5.567  1.00  0.00     0.017 A 
ATOM     13  C   UNL     1       2.134  11.827   7.745  1.00  0.00     0.000 A 
ATOM     14  C   UNL     1       1.454  10.886   6.969  1.00  0.00     0.001 A 
ATOM     15  C   UNL     1       3.458  12.152   7.446  1.00  0.00     0.001 A 
ATOM     16  C   UNL     1       2.094  10.272   5.887  1.00  0.00     0.012 A 
ATOM     17  C   UNL     1       4.104  11.541   6.367  1.00  0.00     0.012 A 
ENDBRANCH   1  12
TORSDOF 1
ENDMDL
MODEL 8
REMARK VINA RESULT:    -6.131      9.990     11.354
REMARK INTER + INTRA:          -6.733
REMARK INTER:                  -6.460
REMARK INTRA:                  -0.273
REMARK UNBOUND:                -0.243
REMARK SMILES O=c1cc(-c2ccccc2)oc2ccccc12
REMARK SMILES IDX 4 1 3 2 2 3 1 4 17 5 16 6 15 7 14 8 13 9 12 10 11 11 5 12
REMARK SMILES IDX 8 13 7 14 9 15 6 16 10 17
REMARK H PARENT
REMARK Flexibility Score: inf
ROOT
ATOM      1  C   UNL     1       1.298   6.691  12.604  1.00  0.00     0.138 A 
ATOM      2  C   UNL     1       2.656   6.480  12.302  1.00  0.00     0.100 A 
ATOM      3  C   UNL     1       3.556   7.539  12.426  1.00  0.00     0.193 A 
ATOM      4  O   UNL     1       4.775   7.355  12.155  1.00  0.00    -0.289 OA
ATOM      5  C   UNL     1       3.092   8.795  12.846  1.00  0.00     0.065 A 
ATOM      6  C   UNL     1       3.945   9.904  12.991  1.00  0.00     0.016 A 
ATOM      7  C   UNL     1       3.428  11.134  13.408  1.00  0.00     0.001 A 
ATOM      8  C   UNL     1       2.064  11.269  13.681  1.00  0.00     0.004 A 
ATOM      9  C   UNL     1       1.208  10.173  13.538  1.00  0.00     0.048 A 
ATOM     10  C   UNL     1       1.714   8.936  13.123  1.00  0.00     0.138 A 
ATOM     11  O   UNL     1       0.892   7.899  12.991  1.00  0.00    -0.456 OA
ENDROOT
BRANCH   1  12
ATOM     12  C   UNL     1       0.293   5.603  12.491  1.00  0.00     0.017 A 
ATOM     13  C   UNL     1      -1.652   3.580  12.304  1.00  0.00     0.000 A 
ATOM     14  C   UNL     1      -0.297   3.246  12.302  1.00  0.00     0.001 A 
ATOM     15  C   UNL     1      -2.043   4.916  12.409  1.00  0.00     0.001 A 
ATOM     16  C   UNL     1       0.674   4.249  12.398  1.00  0.00     0.012 A 
ATOM     17  C   UNL     1      -1.077   5.922  12.506  1.00  0.00     0.012 A 
ENDBRANCH   1  12
TORSDOF 1
ENDMDL
MODEL 9
REMARK VINA RESULT:    -6.020      3.782      5.430
REMARK INTER + INTRA:          -6.615
REMARK INTER:                  -6.339
REMARK INTRA:                  -0.276
REMARK UNBOUND:                -0.243
REMARK SMILES O=c1cc(-c2ccccc2)oc2ccccc12
REMARK SMILES IDX 4 1 3 2 2 3 1 4 17 5 16 6 15 7 14 8 13 9 12 10 11 11 5 12
REMARK SMILES IDX 8 13 7 14 9 15 6 16 10 17
REMARK H PARENT
REMARK Flexibility Score: inf
ROOT
ATOM      1  C   UNL     1       5.147   5.972   1.221  1.00  0.00     0.138 A 
ATOM      2  C   UNL     1       4.766   7.321   1.349  1.00  0.00     0.100 A 
ATOM      3  C   UNL     1       5.484   8.156   2.205  1.00  0.00     0.193 A 
ATOM      4  O   UNL     1       5.145   9.366   2.323  1.00  0.00    -0.289 OA
ATOM      5  C   UNL     1       6.570   7.637   2.926  1.00  0.00     0.065 A 
ATOM      6  C   UNL     1       7.336   8.424   3.806  1.00  0.00     0.016 A 
ATOM      7  C   UNL     1       8.405   7.854   4.503  1.00  0.00     0.001 A 
ATOM      8  C   UNL     1       8.718   6.503   4.331  1.00  0.00     0.004 A 
ATOM      9  C   UNL     1       7.962   5.713   3.460  1.00  0.00     0.048 A 
ATOM     10  C   UNL     1       6.890   6.272   2.755  1.00  0.00     0.138 A 
ATOM     11  O   UNL     1       6.178   5.512   1.928  1.00  0.00    -0.456 OA
ENDROOT
BRANCH   1  12
ATOM     12  C   UNL     1       4.421   5.035   0.327  1.00  0.00     0.017 A 
ATOM     13  C   UNL     1       2.993   3.295  -1.361  1.00  0.00     0.000 A 
ATOM     14  C   UNL     1       4.094   2.823  -0.644  1.00  0.00     0.001 A 
ATOM     15  C   UNL     1       2.594   4.626  -1.233  1.00  0.00     0.001 A 
ATOM     16  C   UNL     1       4.805   3.684   0.200  1.00  0.00     0.012 A 
ATOM     17  C   UNL     1       3.301   5.492  -0.391  1.00  0.00     0.012 A 
ENDBRANCH   1  12
TORSDOF 1
ENDMDL
