MODEL 1
REMARK VINA RESULT:    -3.391      0.000      0.000
REMARK INTER + INTRA:          -7.780
REMARK INTER:                  -5.968
REMARK INTRA:                  -1.811
REMARK UNBOUND:                -1.811
REMARK SMILES CCCCCCCCCCCCCCC(=O)[O-]
REMARK SMILES IDX 9 1 10 2 11 3 12 4 13 5 14 6 15 7 16 8 17 9 8 10 7 11 6 12
REMARK SMILES IDX 5 13 4 14 3 15 2 16 1 17
REMARK H PARENT
REMARK Flexibility Score: inf
ROOT
ATOM      1  C   UNL     1      56.701  25.942  52.392  1.00  0.00     0.000 C 
ENDROOT
BRANCH   1   2
ATOM      2  C   UNL     1      55.451  25.612  51.558  1.00  0.00     0.000 C 
BRANCH   2   3
ATOM      3  C   UNL     1      55.279  26.553  50.356  1.00  0.00     0.000 C 
BRANCH   3   4
ATOM      4  C   UNL     1      53.804  26.849  50.045  1.00  0.00     0.000 C 
BRANCH   4   5
ATOM      5  C   UNL     1      53.469  28.319  50.322  1.00  0.00     0.006 C 
BRANCH   5   6
ATOM      6  C   UNL     1      54.729  29.111  50.685  1.00  0.00     0.053 C 
BRANCH   6   7
ATOM      7  C   UNL     1      54.368  30.482  51.160  1.00  0.00     0.041 C 
ATOM      8  O   UNL     1      53.201  30.727  51.563  1.00  0.00    -0.550 OA
ATOM      9  O   UNL     1      55.308  31.505  51.111  1.00  0.00    -0.550 OA
ENDBRANCH   6   7
ENDBRANCH   5   6
ENDBRANCH   4   5
ENDBRANCH   3   4
ENDBRANCH   2   3
ENDBRANCH   1   2
BRANCH   1  10
ATOM     10  C   UNL     1      57.792  24.867  52.268  1.00  0.00     0.000 C 
BRANCH  10  11
ATOM     11  C   UNL     1      59.098  25.420  51.671  1.00  0.00    -0.000 C 
BRANCH  11  12
ATOM     12  C   UNL     1      58.891  26.042  50.280  1.00  0.00    -0.000 C 
BRANCH  12  13
ATOM     13  C   UNL     1      59.961  27.095  49.943  1.00  0.00    -0.000 C 
BRANCH  13  14
ATOM     14  C   UNL     1      59.353  28.447  49.533  1.00  0.00    -0.000 C 
BRANCH  14  15
ATOM     15  C   UNL     1      58.245  28.968  50.468  1.00  0.00    -0.000 C 
BRANCH  15  16
ATOM     16  C   UNL     1      58.760  29.415  51.853  1.00  0.00    -0.003 C 
ATOM     17  C   UNL     1      57.662  29.408  52.917  1.00  0.00     0.004 C 
ENDBRANCH  15  16
ENDBRANCH  14  15
ENDBRANCH  13  14
ENDBRANCH  12  13
ENDBRANCH  11  12
ENDBRANCH  10  11
ENDBRANCH   1  10
TORSDOF 13
ENDMDL
MODEL 2
REMARK VINA RESULT:    -3.298      3.272      5.567
REMARK INTER + INTRA:          -7.617
REMARK INTER:                  -5.866
REMARK INTRA:                  -1.751
REMARK UNBOUND:                -1.811
REMARK SMILES CCCCCCCCCCCCCCC(=O)[O-]
REMARK SMILES IDX 9 1 10 2 11 3 12 4 13 5 14 6 15 7 16 8 17 9 8 10 7 11 6 12
REMARK SMILES IDX 5 13 4 14 3 15 2 16 1 17
REMARK H PARENT
REMARK Flexibility Score: inf
ROOT
ATOM      1  C   UNL     1      56.611  26.777  50.611  1.00  0.00     0.000 C 
ENDROOT
BRANCH   1   2
ATOM      2  C   UNL     1      57.852  25.867  50.595  1.00  0.00     0.000 C 
BRANCH   2   3
ATOM      3  C   UNL     1      59.153  26.649  50.360  1.00  0.00     0.000 C 
BRANCH   3   4
ATOM      4  C   UNL     1      58.900  28.102  49.931  1.00  0.00     0.000 C 
BRANCH   4   5
ATOM      5  C   UNL     1      59.951  29.043  50.533  1.00  0.00     0.006 C 
BRANCH   5   6
ATOM      6  C   UNL     1      61.122  28.252  51.124  1.00  0.00     0.053 C 
BRANCH   6   7
ATOM      7  C   UNL     1      62.369  28.494  50.334  1.00  0.00     0.041 C 
ATOM      8  O   UNL     1      62.925  27.546  49.720  1.00  0.00    -0.550 OA
ATOM      9  O   UNL     1      62.946  29.758  50.317  1.00  0.00    -0.550 OA
ENDBRANCH   6   7
ENDBRANCH   5   6
ENDBRANCH   4   5
ENDBRANCH   3   4
ENDBRANCH   2   3
ENDBRANCH   1   2
BRANCH   1  10
ATOM     10  C   UNL     1      55.347  26.055  50.119  1.00  0.00     0.000 C 
BRANCH  10  11
ATOM     11  C   UNL     1      54.105  26.965  50.135  1.00  0.00    -0.000 C 
BRANCH  11  12
ATOM     12  C   UNL     1      54.232  28.114  51.149  1.00  0.00    -0.000 C 
BRANCH  12  13
ATOM     13  C   UNL     1      53.892  29.482  50.532  1.00  0.00    -0.000 C 
BRANCH  13  14
ATOM     14  C   UNL     1      54.762  30.619  51.092  1.00  0.00    -0.000 C 
BRANCH  14  15
ATOM     15  C   UNL     1      56.281  30.371  51.007  1.00  0.00    -0.000 C 
BRANCH  15  16
ATOM     16  C   UNL     1      57.037  30.686  52.315  1.00  0.00    -0.003 C 
ATOM     17  C   UNL     1      57.350  29.430  53.129  1.00  0.00     0.004 C 
ENDBRANCH  15  16
ENDBRANCH  14  15
ENDBRANCH  13  14
ENDBRANCH  12  13
ENDBRANCH  11  12
ENDBRANCH  10  11
ENDBRANCH   1  10
TORSDOF 13
ENDMDL
MODEL 3
REMARK VINA RESULT:    -3.296      1.113      2.570
REMARK INTER + INTRA:          -7.612
REMARK INTER:                  -5.483
REMARK INTRA:                  -2.130
REMARK UNBOUND:                -1.811
REMARK SMILES CCCCCCCCCCCCCCC(=O)[O-]
REMARK SMILES IDX 9 1 10 2 11 3 12 4 13 5 14 6 15 7 16 8 17 9 8 10 7 11 6 12
REMARK SMILES IDX 5 13 4 14 3 15 2 16 1 17
REMARK H PARENT
REMARK Flexibility Score: inf
ROOT
ATOM      1  C   UNL     1      57.187  26.692  52.961  1.00  0.00     0.000 C 
ENDROOT
BRANCH   1   2
ATOM      2  C   UNL     1      56.360  25.683  52.146  1.00  0.00     0.000 C 
BRANCH   2   3
ATOM      3  C   UNL     1      56.363  25.996  50.642  1.00  0.00     0.000 C 
BRANCH   3   4
ATOM      4  C   UNL     1      54.966  25.882  50.013  1.00  0.00     0.000 C 
BRANCH   4   5
ATOM      5  C   UNL     1      53.953  26.753  50.765  1.00  0.00     0.006 C 
BRANCH   5   6
ATOM      6  C   UNL     1      53.833  28.137  50.121  1.00  0.00     0.053 C 
BRANCH   6   7
ATOM      7  C   UNL     1      53.766  29.200  51.172  1.00  0.00     0.041 C 
ATOM      8  O   UNL     1      53.156  28.987  52.252  1.00  0.00    -0.550 OA
ATOM      9  O   UNL     1      54.336  30.446  50.937  1.00  0.00    -0.550 OA
ENDBRANCH   6   7
ENDBRANCH   5   6
ENDBRANCH   4   5
ENDBRANCH   3   4
ENDBRANCH   2   3
ENDBRANCH   1   2
BRANCH   1  10
ATOM     10  C   UNL     1      56.739  28.144  52.727  1.00  0.00     0.000 C 
BRANCH  10  11
ATOM     11  C   UNL     1      57.882  29.037  52.212  1.00  0.00    -0.000 C 
BRANCH  11  12
ATOM     12  C   UNL     1      57.756  29.346  50.712  1.00  0.00    -0.000 C 
BRANCH  12  13
ATOM     13  C   UNL     1      59.101  29.237  49.974  1.00  0.00    -0.000 C 
BRANCH  13  14
ATOM     14  C   UNL     1      59.450  27.791  49.585  1.00  0.00    -0.000 C 
BRANCH  14  15
ATOM     15  C   UNL     1      60.779  27.269  50.166  1.00  0.00    -0.000 C 
BRANCH  15  16
ATOM     16  C   UNL     1      60.624  26.547  51.522  1.00  0.00    -0.003 C 
ATOM     17  C   UNL     1      60.172  25.095  51.364  1.00  0.00     0.004 C 
ENDBRANCH  15  16
ENDBRANCH  14  15
ENDBRANCH  13  14
ENDBRANCH  12  13
ENDBRANCH  11  12
ENDBRANCH  10  11
ENDBRANCH   1  10
TORSDOF 13
ENDMDL
MODEL 4
REMARK VINA RESULT:    -3.281      3.151      5.189
REMARK INTER + INTRA:          -7.587
REMARK INTER:                  -5.880
REMARK INTRA:                  -1.707
REMARK UNBOUND:                -1.811
REMARK SMILES CCCCCCCCCCCCCCC(=O)[O-]
REMARK SMILES IDX 9 1 10 2 11 3 12 4 13 5 14 6 15 7 16 8 17 9 8 10 7 11 6 12
REMARK SMILES IDX 5 13 4 14 3 15 2 16 1 17
REMARK H PARENT
REMARK Flexibility Score: inf
ROOT
ATOM      1  C   UNL     1      53.994  27.990  51.137  1.00  0.00     0.000 C 
ENDROOT
BRANCH   1   2
ATOM      2  C   UNL     1      53.772  26.967  50.010  1.00  0.00     0.000 C 
BRANCH   2   3
ATOM      3  C   UNL     1      54.850  25.872  49.986  1.00  0.00     0.000 C 
BRANCH   3   4
ATOM      4  C   UNL     1      56.229  26.393  50.418  1.00  0.00     0.000 C 
BRANCH   4   5
ATOM      5  C   UNL     1      56.887  25.438  51.421  1.00  0.00     0.006 C 
BRANCH   5   6
ATOM      6  C   UNL     1      58.347  25.168  51.048  1.00  0.00     0.053 C 
BRANCH   6   7
ATOM      7  C   UNL     1      59.007  24.322  52.090  1.00  0.00     0.041 C 
ATOM      8  O   UNL     1      58.978  24.668  53.300  1.00  0.00    -0.550 OA
ATOM      9  O   UNL     1      59.698  23.175  51.718  1.00  0.00    -0.550 OA
ENDBRANCH   6   7
ENDBRANCH   5   6
ENDBRANCH   4   5
ENDBRANCH   3   4
ENDBRANCH   2   3
ENDBRANCH   1   2
BRANCH   1  10
ATOM     10  C   UNL     1      53.717  29.432  50.685  1.00  0.00     0.000 C 
BRANCH  10  11
ATOM     11  C   UNL     1      54.753  30.430  51.233  1.00  0.00    -0.000 C 
BRANCH  11  12
ATOM     12  C   UNL     1      56.182  30.108  50.768  1.00  0.00    -0.000 C 
BRANCH  12  13
ATOM     13  C   UNL     1      57.111  29.736  51.937  1.00  0.00    -0.000 C 
BRANCH  13  14
ATOM     14  C   UNL     1      58.484  29.229  51.467  1.00  0.00    -0.000 C 
BRANCH  14  15
ATOM     15  C   UNL     1      58.651  29.143  49.937  1.00  0.00    -0.000 C 
BRANCH  15  16
ATOM     16  C   UNL     1      59.784  28.196  49.488  1.00  0.00    -0.003 C 
ATOM     17  C   UNL     1      60.716  27.810  50.636  1.00  0.00     0.004 C 
ENDBRANCH  15  16
ENDBRANCH  14  15
ENDBRANCH  13  14
ENDBRANCH  12  13
ENDBRANCH  11  12
ENDBRANCH  10  11
ENDBRANCH   1  10
TORSDOF 13
ENDMDL
MODEL 5
REMARK VINA RESULT:    -3.229      1.630      3.281
REMARK INTER + INTRA:          -7.494
REMARK INTER:                  -5.469
REMARK INTRA:                  -2.025
REMARK UNBOUND:                -1.811
REMARK SMILES CCCCCCCCCCCCCCC(=O)[O-]
REMARK SMILES IDX 9 1 10 2 11 3 12 4 13 5 14 6 15 7 16 8 17 9 8 10 7 11 6 12
REMARK SMILES IDX 5 13 4 14 3 15 2 16 1 17
REMARK H PARENT
REMARK Flexibility Score: inf
ROOT
ATOM      1  C   UNL     1      55.771  27.508  50.682  1.00  0.00     0.000 C 
ENDROOT
BRANCH   1   2
ATOM      2  C   UNL     1      54.275  27.829  50.519  1.00  0.00     0.000 C 
BRANCH   2   3
ATOM      3  C   UNL     1      53.983  29.335  50.597  1.00  0.00     0.000 C 
BRANCH   3   4
ATOM      4  C   UNL     1      53.259  29.730  51.893  1.00  0.00     0.000 C 
BRANCH   4   5
ATOM      5  C   UNL     1      53.553  31.189  52.263  1.00  0.00     0.006 C 
BRANCH   5   6
ATOM      6  C   UNL     1      54.996  31.564  51.912  1.00  0.00     0.053 C 
BRANCH   6   7
ATOM      7  C   UNL     1      55.778  31.856  53.153  1.00  0.00     0.041 C 
ATOM      8  O   UNL     1      57.004  32.130  53.080  1.00  0.00    -0.550 OA
ATOM      9  O   UNL     1      55.162  31.779  54.397  1.00  0.00    -0.550 OA
ENDBRANCH   6   7
ENDBRANCH   5   6
ENDBRANCH   4   5
ENDBRANCH   3   4
ENDBRANCH   2   3
ENDBRANCH   1   2
BRANCH   1  10
ATOM     10  C   UNL     1      56.314  27.919  52.060  1.00  0.00     0.000 C 
BRANCH  10  11
ATOM     11  C   UNL     1      57.574  28.797  51.958  1.00  0.00    -0.000 C 
BRANCH  11  12
ATOM     12  C   UNL     1      57.688  29.506  50.598  1.00  0.00    -0.000 C 
BRANCH  12  13
ATOM     13  C   UNL     1      58.994  29.156  49.862  1.00  0.00    -0.000 C 
BRANCH  13  14
ATOM     14  C   UNL     1      60.008  28.433  50.763  1.00  0.00    -0.000 C 
BRANCH  14  15
ATOM     15  C   UNL     1      60.383  27.011  50.301  1.00  0.00    -0.000 C 
BRANCH  15  16
ATOM     16  C   UNL     1      59.165  26.116  49.991  1.00  0.00    -0.003 C 
ATOM     17  C   UNL     1      58.776  25.226  51.172  1.00  0.00     0.004 C 
ENDBRANCH  15  16
ENDBRANCH  14  15
ENDBRANCH  13  14
ENDBRANCH  12  13
ENDBRANCH  11  12
ENDBRANCH  10  11
ENDBRANCH   1  10
TORSDOF 13
ENDMDL
MODEL 6
REMARK VINA RESULT:    -3.217      3.160      5.855
REMARK INTER + INTRA:          -7.472
REMARK INTER:                  -5.481
REMARK INTRA:                  -1.992
REMARK UNBOUND:                -1.811
REMARK SMILES CCCCCCCCCCCCCCC(=O)[O-]
REMARK SMILES IDX 9 1 10 2 11 3 12 4 13 5 14 6 15 7 16 8 17 9 8 10 7 11 6 12
REMARK SMILES IDX 5 13 4 14 3 15 2 16 1 17
REMARK H PARENT
REMARK Flexibility Score: inf
ROOT
ATOM      1  C   UNL     1      55.739  29.445  52.254  1.00  0.00     0.000 C 
ENDROOT
BRANCH   1   2
ATOM      2  C   UNL     1      56.467  30.140  51.091  1.00  0.00     0.000 C 
BRANCH   2   3
ATOM      3  C   UNL     1      57.727  29.380  50.645  1.00  0.00     0.000 C 
BRANCH   3   4
ATOM      4  C   UNL     1      57.920  28.060  51.407  1.00  0.00     0.000 C 
BRANCH   4   5
ATOM      5  C   UNL     1      58.617  27.017  50.527  1.00  0.00     0.006 C 
BRANCH   5   6
ATOM      6  C   UNL     1      59.717  27.660  49.678  1.00  0.00     0.053 C 
BRANCH   6   7
ATOM      7  C   UNL     1      61.068  27.290  50.202  1.00  0.00     0.041 C 
ATOM      8  O   UNL     1      62.106  27.771  49.677  1.00  0.00    -0.550 OA
ATOM      9  O   UNL     1      61.183  26.373  51.241  1.00  0.00    -0.550 OA
ENDBRANCH   6   7
ENDBRANCH   5   6
ENDBRANCH   4   5
ENDBRANCH   3   4
ENDBRANCH   2   3
ENDBRANCH   1   2
BRANCH   1  10
ATOM     10  C   UNL     1      54.240  29.252  51.977  1.00  0.00     0.000 C 
BRANCH  10  11
ATOM     11  C   UNL     1      53.935  29.076  50.479  1.00  0.00    -0.000 C 
BRANCH  11  12
ATOM     12  C   UNL     1      53.496  27.644  50.133  1.00  0.00    -0.000 C 
BRANCH  12  13
ATOM     13  C   UNL     1      54.675  26.656  50.117  1.00  0.00    -0.000 C 
BRANCH  13  14
ATOM     14  C   UNL     1      54.249  25.218  50.459  1.00  0.00    -0.000 C 
BRANCH  14  15
ATOM     15  C   UNL     1      54.335  24.858  51.954  1.00  0.00    -0.000 C 
BRANCH  15  16
ATOM     16  C   UNL     1      55.610  25.383  52.648  1.00  0.00    -0.003 C 
ATOM     17  C   UNL     1      55.301  26.190  53.910  1.00  0.00     0.004 C 
ENDBRANCH  15  16
ENDBRANCH  14  15
ENDBRANCH  13  14
ENDBRANCH  12  13
ENDBRANCH  11  12
ENDBRANCH  10  11
ENDBRANCH   1  10
TORSDOF 13
ENDMDL
MODEL 7
REMARK VINA RESULT:    -3.203      3.117      6.256
REMARK INTER + INTRA:          -7.448
REMARK INTER:                  -5.486
REMARK INTRA:                  -1.962
REMARK UNBOUND:                -1.811
REMARK SMILES CCCCCCCCCCCCCCC(=O)[O-]
REMARK SMILES IDX 9 1 10 2 11 3 12 4 13 5 14 6 15 7 16 8 17 9 8 10 7 11 6 12
REMARK SMILES IDX 5 13 4 14 3 15 2 16 1 17
REMARK H PARENT
REMARK Flexibility Score: inf
ROOT
ATOM      1  C   UNL     1      58.792  29.453  51.403  1.00  0.00     0.000 C 
ENDROOT
BRANCH   1   2
ATOM      2  C   UNL     1      58.665  28.995  49.940  1.00  0.00     0.000 C 
BRANCH   2   3
ATOM      3  C   UNL     1      59.708  27.931  49.562  1.00  0.00     0.000 C 
BRANCH   3   4
ATOM      4  C   UNL     1      60.462  27.385  50.783  1.00  0.00     0.000 C 
BRANCH   4   5
ATOM      5  C   UNL     1      61.977  27.408  50.547  1.00  0.00     0.006 C 
BRANCH   5   6
ATOM      6  C   UNL     1      62.637  28.547  51.328  1.00  0.00     0.053 C 
BRANCH   6   7
ATOM      7  C   UNL     1      62.814  29.749  50.455  1.00  0.00     0.041 C 
ATOM      8  O   UNL     1      62.061  30.748  50.591  1.00  0.00    -0.550 OA
ATOM      9  O   UNL     1      63.780  29.746  49.456  1.00  0.00    -0.550 OA
ENDBRANCH   6   7
ENDBRANCH   5   6
ENDBRANCH   4   5
ENDBRANCH   3   4
ENDBRANCH   2   3
ENDBRANCH   1   2
BRANCH   1  10
ATOM     10  C   UNL     1      57.473  30.009  51.962  1.00  0.00     0.000 C 
BRANCH  10  11
ATOM     11  C   UNL     1      56.378  30.119  50.886  1.00  0.00    -0.000 C 
BRANCH  11  12
ATOM     12  C   UNL     1      55.019  29.594  51.376  1.00  0.00    -0.000 C 
BRANCH  12  13
ATOM     13  C   UNL     1      54.394  28.582  50.400  1.00  0.00    -0.000 C 
BRANCH  13  14
ATOM     14  C   UNL     1      54.566  27.126  50.863  1.00  0.00    -0.000 C 
BRANCH  14  15
ATOM     15  C   UNL     1      55.951  26.516  50.574  1.00  0.00    -0.000 C 
BRANCH  15  16
ATOM     16  C   UNL     1      56.804  26.282  51.839  1.00  0.00    -0.003 C 
ATOM     17  C   UNL     1      57.817  25.151  51.663  1.00  0.00     0.004 C 
ENDBRANCH  15  16
ENDBRANCH  14  15
ENDBRANCH  13  14
ENDBRANCH  12  13
ENDBRANCH  11  12
ENDBRANCH  10  11
ENDBRANCH   1  10
TORSDOF 13
ENDMDL
MODEL 8
REMARK VINA RESULT:    -3.177      2.275      5.017
REMARK INTER + INTRA:          -7.403
REMARK INTER:                  -5.846
REMARK INTRA:                  -1.557
REMARK UNBOUND:                -1.811
REMARK SMILES CCCCCCCCCCCCCCC(=O)[O-]
REMARK SMILES IDX 9 1 10 2 11 3 12 4 13 5 14 6 15 7 16 8 17 9 8 10 7 11 6 12
REMARK SMILES IDX 5 13 4 14 3 15 2 16 1 17
REMARK H PARENT
REMARK Flexibility Score: inf
ROOT
ATOM      1  C   UNL     1      56.238  25.620  51.638  1.00  0.00     0.000 C 
ENDROOT
BRANCH   1   2
ATOM      2  C   UNL     1      57.115  26.067  50.455  1.00  0.00     0.000 C 
BRANCH   2   3
ATOM      3  C   UNL     1      58.585  25.650  50.620  1.00  0.00     0.000 C 
BRANCH   3   4
ATOM      4  C   UNL     1      59.560  26.678  50.027  1.00  0.00     0.000 C 
BRANCH   4   5
ATOM      5  C   UNL     1      58.976  28.093  50.099  1.00  0.00     0.006 C 
BRANCH   5   6
ATOM      6  C   UNL     1      60.060  29.119  50.442  1.00  0.00     0.053 C 
BRANCH   6   7
ATOM      7  C   UNL     1      60.246  29.210  51.924  1.00  0.00     0.041 C 
ATOM      8  O   UNL     1      59.722  30.154  52.571  1.00  0.00    -0.550 OA
ATOM      9  O   UNL     1      61.040  28.279  52.583  1.00  0.00    -0.550 OA
ENDBRANCH   6   7
ENDBRANCH   5   6
ENDBRANCH   4   5
ENDBRANCH   3   4
ENDBRANCH   2   3
ENDBRANCH   1   2
BRANCH   1  10
ATOM     10  C   UNL     1      54.817  25.232  51.202  1.00  0.00     0.000 C 
BRANCH  10  11
ATOM     11  C   UNL     1      54.525  25.613  49.740  1.00  0.00    -0.000 C 
BRANCH  11  12
ATOM     12  C   UNL     1      53.254  26.467  49.598  1.00  0.00    -0.000 C 
BRANCH  12  13
ATOM     13  C   UNL     1      53.084  27.463  50.757  1.00  0.00    -0.000 C 
BRANCH  13  14
ATOM     14  C   UNL     1      52.875  28.908  50.273  1.00  0.00    -0.000 C 
BRANCH  14  15
ATOM     15  C   UNL     1      54.037  29.869  50.592  1.00  0.00    -0.000 C 
BRANCH  15  16
ATOM     16  C   UNL     1      55.342  29.154  51.002  1.00  0.00    -0.003 C 
ATOM     17  C   UNL     1      56.343  30.097  51.668  1.00  0.00     0.004 C 
ENDBRANCH  15  16
ENDBRANCH  14  15
ENDBRANCH  13  14
ENDBRANCH  12  13
ENDBRANCH  11  12
ENDBRANCH  10  11
ENDBRANCH   1  10
TORSDOF 13
ENDMDL
MODEL 9
REMARK VINA RESULT:    -3.152      3.528      6.214
REMARK INTER + INTRA:          -7.359
REMARK INTER:                  -5.167
REMARK INTRA:                  -2.192
REMARK UNBOUND:                -1.811
REMARK SMILES CCCCCCCCCCCCCCC(=O)[O-]
REMARK SMILES IDX 9 1 10 2 11 3 12 4 13 5 14 6 15 7 16 8 17 9 8 10 7 11 6 12
REMARK SMILES IDX 5 13 4 14 3 15 2 16 1 17
REMARK H PARENT
REMARK Flexibility Score: inf
ROOT
ATOM      1  C   UNL     1      57.452  29.771  52.053  1.00  0.00     0.000 C 
ENDROOT
BRANCH   1   2
ATOM      2  C   UNL     1      58.829  29.352  51.509  1.00  0.00     0.000 C 
BRANCH   2   3
ATOM      3  C   UNL     1      58.808  29.079  49.997  1.00  0.00     0.000 C 
BRANCH   3   4
ATOM      4  C   UNL     1      59.565  27.797  49.619  1.00  0.00     0.000 C 
BRANCH   4   5
ATOM      5  C   UNL     1      60.967  27.784  50.240  1.00  0.00     0.006 C 
BRANCH   5   6
ATOM      6  C   UNL     1      61.180  26.527  51.089  1.00  0.00     0.053 C 
BRANCH   6   7
ATOM      7  C   UNL     1      62.607  26.425  51.526  1.00  0.00     0.041 C 
ATOM      8  O   UNL     1      63.287  25.406  51.237  1.00  0.00    -0.550 OA
ATOM      9  O   UNL     1      63.172  27.436  52.295  1.00  0.00    -0.550 OA
ENDBRANCH   6   7
ENDBRANCH   5   6
ENDBRANCH   4   5
ENDBRANCH   3   4
ENDBRANCH   2   3
ENDBRANCH   1   2
BRANCH   1  10
ATOM     10  C   UNL     1      56.431  30.026  50.934  1.00  0.00     0.000 C 
BRANCH  10  11
ATOM     11  C   UNL     1      55.049  29.428  51.250  1.00  0.00    -0.000 C 
BRANCH  11  12
ATOM     12  C   UNL     1      54.773  28.136  50.464  1.00  0.00    -0.000 C 
BRANCH  12  13
ATOM     13  C   UNL     1      55.221  26.877  51.225  1.00  0.00    -0.000 C 
BRANCH  13  14
ATOM     14  C   UNL     1      56.411  26.170  50.555  1.00  0.00    -0.000 C 
BRANCH  14  15
ATOM     15  C   UNL     1      57.407  25.516  51.532  1.00  0.00    -0.000 C 
BRANCH  15  16
ATOM     16  C   UNL     1      57.216  25.954  53.001  1.00  0.00    -0.003 C 
ATOM     17  C   UNL     1      58.522  26.413  53.650  1.00  0.00     0.004 C 
ENDBRANCH  15  16
ENDBRANCH  14  15
ENDBRANCH  13  14
ENDBRANCH  12  13
ENDBRANCH  11  12
ENDBRANCH  10  11
ENDBRANCH   1  10
TORSDOF 13
ENDMDL
