MODEL 1
REMARK VINA RESULT:    -4.141      0.000      0.000
REMARK INTER + INTRA:          -6.857
REMARK INTER:                  -6.077
REMARK INTRA:                  -0.780
REMARK UNBOUND:                -0.780
REMARK SMILES O=C([O-])CCCCCCCC(=O)[O-]
REMARK SMILES IDX 7 1 6 2 5 3 4 4 2 5 1 6 3 7 8 8 9 9 10 10 11 11 12 12 13 13
REMARK H PARENT
REMARK Flexibility Score: inf
ROOT
ATOM      1  C   UNL     1       5.966  -7.161  29.103  1.00  0.00     0.000 C 
ENDROOT
BRANCH   1   2
ATOM      2  C   UNL     1       7.339  -7.363  28.452  1.00  0.00     0.000 C 
BRANCH   2   3
ATOM      3  C   UNL     1       8.074  -6.027  28.290  1.00  0.00     0.006 C 
BRANCH   3   4
ATOM      4  C   UNL     1       7.114  -4.846  28.462  1.00  0.00     0.053 C 
BRANCH   4   5
ATOM      5  C   UNL     1       6.949  -4.114  27.168  1.00  0.00     0.041 C 
ATOM      6  O   UNL     1       7.232  -2.889  27.094  1.00  0.00    -0.550 OA
ATOM      7  O   UNL     1       6.436  -4.771  26.058  1.00  0.00    -0.550 OA
ENDBRANCH   4   5
ENDBRANCH   3   4
ENDBRANCH   2   3
ENDBRANCH   1   2
BRANCH   1   8
ATOM      8  C   UNL     1       5.710  -8.221  30.185  1.00  0.00     0.000 C 
BRANCH   8   9
ATOM      9  C   UNL     1       5.852  -7.660  31.609  1.00  0.00     0.006 C 
BRANCH   9  10
ATOM     10  C   UNL     1       5.926  -6.127  31.636  1.00  0.00     0.053 C 
BRANCH  10  11
ATOM     11  C   UNL     1       7.256  -5.678  32.153  1.00  0.00     0.041 C 
ATOM     12  O   UNL     1       7.331  -4.701  32.943  1.00  0.00    -0.550 OA
ATOM     13  O   UNL     1       8.407  -6.370  31.801  1.00  0.00    -0.550 OA
ENDBRANCH  10  11
ENDBRANCH   9  10
ENDBRANCH   8   9
ENDBRANCH   1   8
TORSDOF 8
ENDMDL
MODEL 2
REMARK VINA RESULT:    -4.123      0.149      4.669
REMARK INTER + INTRA:          -6.831
REMARK INTER:                  -6.082
REMARK INTRA:                  -0.749
REMARK UNBOUND:                -0.780
REMARK SMILES O=C([O-])CCCCCCCC(=O)[O-]
REMARK SMILES IDX 7 1 6 2 5 3 4 4 2 5 1 6 3 7 8 8 9 9 10 10 11 11 12 12 13 13
REMARK H PARENT
REMARK Flexibility Score: inf
ROOT
ATOM      1  C   UNL     1       6.057  -7.190  29.158  1.00  0.00     0.000 C 
ENDROOT
BRANCH   1   2
ATOM      2  C   UNL     1       5.722  -8.303  30.158  1.00  0.00     0.000 C 
BRANCH   2   3
ATOM      3  C   UNL     1       5.963  -7.840  31.600  1.00  0.00     0.006 C 
BRANCH   3   4
ATOM      4  C   UNL     1       5.929  -6.313  31.700  1.00  0.00     0.053 C 
BRANCH   4   5
ATOM      5  C   UNL     1       7.238  -5.792  32.203  1.00  0.00     0.041 C 
ATOM      6  O   UNL     1       7.277  -4.742  32.897  1.00  0.00    -0.550 OA
ATOM      7  O   UNL     1       8.419  -6.440  31.867  1.00  0.00    -0.550 OA
ENDBRANCH   4   5
ENDBRANCH   3   4
ENDBRANCH   2   3
ENDBRANCH   1   2
BRANCH   1   8
ATOM      8  C   UNL     1       7.441  -7.413  28.530  1.00  0.00     0.000 C 
BRANCH   8   9
ATOM      9  C   UNL     1       8.182  -6.097  28.244  1.00  0.00     0.006 C 
BRANCH   9  10
ATOM     10  C   UNL     1       7.329  -4.859  28.556  1.00  0.00     0.053 C 
BRANCH  10  11
ATOM     11  C   UNL     1       6.977  -4.137  27.294  1.00  0.00     0.041 C 
ATOM     12  O   UNL     1       7.177  -2.899  27.196  1.00  0.00    -0.550 OA
ATOM     13  O   UNL     1       6.475  -4.843  26.207  1.00  0.00    -0.550 OA
ENDBRANCH  10  11
ENDBRANCH   9  10
ENDBRANCH   8   9
ENDBRANCH   1   8
TORSDOF 8
ENDMDL
MODEL 3
REMARK VINA RESULT:    -4.104      1.025      1.457
REMARK INTER + INTRA:          -6.803
REMARK INTER:                  -6.178
REMARK INTRA:                  -0.625
REMARK UNBOUND:                -0.780
REMARK SMILES O=C([O-])CCCCCCCC(=O)[O-]
REMARK SMILES IDX 7 1 6 2 5 3 4 4 2 5 1 6 3 7 8 8 9 9 10 10 11 11 12 12 13 13
REMARK H PARENT
REMARK Flexibility Score: inf
ROOT
ATOM      1  C   UNL     1       6.431  -7.757  28.863  1.00  0.00     0.000 C 
ENDROOT
BRANCH   1   2
ATOM      2  C   UNL     1       5.213  -7.077  28.226  1.00  0.00     0.000 C 
BRANCH   2   3
ATOM      3  C   UNL     1       5.339  -5.550  28.287  1.00  0.00     0.006 C 
BRANCH   3   4
ATOM      4  C   UNL     1       6.801  -5.113  28.160  1.00  0.00     0.053 C 
BRANCH   4   5
ATOM      5  C   UNL     1       6.955  -4.114  27.058  1.00  0.00     0.041 C 
ATOM      6  O   UNL     1       7.256  -2.920  27.322  1.00  0.00    -0.550 OA
ATOM      7  O   UNL     1       6.720  -4.490  25.742  1.00  0.00    -0.550 OA
ENDBRANCH   4   5
ENDBRANCH   3   4
ENDBRANCH   2   3
ENDBRANCH   1   2
BRANCH   1   8
ATOM      8  C   UNL     1       6.015  -8.612  30.069  1.00  0.00     0.000 C 
BRANCH   8   9
ATOM      9  C   UNL     1       5.898  -7.793  31.365  1.00  0.00     0.006 C 
BRANCH   9  10
ATOM     10  C   UNL     1       7.034  -6.773  31.523  1.00  0.00     0.053 C 
BRANCH  10  11
ATOM     11  C   UNL     1       6.611  -5.657  32.425  1.00  0.00     0.041 C 
ATOM     12  O   UNL     1       7.452  -4.809  32.821  1.00  0.00    -0.550 OA
ATOM     13  O   UNL     1       5.276  -5.526  32.788  1.00  0.00    -0.550 OA
ENDBRANCH  10  11
ENDBRANCH   9  10
ENDBRANCH   8   9
ENDBRANCH   1   8
TORSDOF 8
ENDMDL
MODEL 4
REMARK VINA RESULT:    -4.071      2.171      3.804
REMARK INTER + INTRA:          -6.754
REMARK INTER:                  -6.096
REMARK INTRA:                  -0.659
REMARK UNBOUND:                -0.780
REMARK SMILES O=C([O-])CCCCCCCC(=O)[O-]
REMARK SMILES IDX 7 1 6 2 5 3 4 4 2 5 1 6 3 7 8 8 9 9 10 10 11 11 12 12 13 13
REMARK H PARENT
REMARK Flexibility Score: inf
ROOT
ATOM      1  C   UNL     1       5.413  -6.998  32.052  1.00  0.00     0.000 C 
ENDROOT
BRANCH   1   2
ATOM      2  C   UNL     1       6.139  -5.686  31.735  1.00  0.00     0.000 C 
BRANCH   2   3
ATOM      3  C   UNL     1       7.360  -5.934  30.841  1.00  0.00     0.006 C 
BRANCH   3   4
ATOM      4  C   UNL     1       7.160  -5.317  29.454  1.00  0.00     0.053 C 
BRANCH   4   5
ATOM      5  C   UNL     1       8.382  -5.510  28.614  1.00  0.00     0.041 C 
ATOM      6  O   UNL     1       8.522  -4.864  27.541  1.00  0.00    -0.550 OA
ATOM      7  O   UNL     1       9.345  -6.438  28.989  1.00  0.00    -0.550 OA
ENDBRANCH   4   5
ENDBRANCH   3   4
ENDBRANCH   2   3
ENDBRANCH   1   2
BRANCH   1   8
ATOM      8  C   UNL     1       5.962  -8.151  31.198  1.00  0.00     0.000 C 
BRANCH   8   9
ATOM      9  C   UNL     1       4.974  -8.607  30.112  1.00  0.00     0.006 C 
BRANCH   9  10
ATOM     10  C   UNL     1       5.616  -9.554  29.089  1.00  0.00     0.053 C 
BRANCH  10  11
ATOM     11  C   UNL     1       6.390  -8.777  28.073  1.00  0.00     0.041 C 
ATOM     12  O   UNL     1       7.605  -9.035  27.869  1.00  0.00    -0.550 OA
ATOM     13  O   UNL     1       5.756  -7.801  27.314  1.00  0.00    -0.550 OA
ENDBRANCH  10  11
ENDBRANCH   9  10
ENDBRANCH   8   9
ENDBRANCH   1   8
TORSDOF 8
ENDMDL
MODEL 5
REMARK VINA RESULT:    -4.067      1.629      2.379
REMARK INTER + INTRA:          -6.749
REMARK INTER:                  -6.120
REMARK INTRA:                  -0.629
REMARK UNBOUND:                -0.780
REMARK SMILES O=C([O-])CCCCCCCC(=O)[O-]
REMARK SMILES IDX 7 1 6 2 5 3 4 4 2 5 1 6 3 7 8 8 9 9 10 10 11 11 12 12 13 13
REMARK H PARENT
REMARK Flexibility Score: inf
ROOT
ATOM      1  C   UNL     1       5.468  -9.518  29.432  1.00  0.00     0.000 C 
ENDROOT
BRANCH   1   2
ATOM      2  C   UNL     1       6.574  -9.627  28.377  1.00  0.00     0.000 C 
BRANCH   2   3
ATOM      3  C   UNL     1       6.813  -8.279  27.686  1.00  0.00     0.006 C 
BRANCH   3   4
ATOM      4  C   UNL     1       8.297  -7.904  27.711  1.00  0.00     0.053 C 
BRANCH   4   5
ATOM      5  C   UNL     1       8.463  -6.439  27.967  1.00  0.00     0.041 C 
ATOM      6  O   UNL     1       9.359  -6.031  28.752  1.00  0.00    -0.550 OA
ATOM      7  O   UNL     1       7.597  -5.528  27.377  1.00  0.00    -0.550 OA
ENDBRANCH   4   5
ENDBRANCH   3   4
ENDBRANCH   2   3
ENDBRANCH   1   2
BRANCH   1   8
ATOM      8  C   UNL     1       5.343  -8.077  29.951  1.00  0.00     0.000 C 
BRANCH   8   9
ATOM      9  C   UNL     1       5.968  -7.892  31.343  1.00  0.00     0.006 C 
BRANCH   9  10
ATOM     10  C   UNL     1       6.958  -6.720  31.395  1.00  0.00     0.053 C 
BRANCH  10  11
ATOM     11  C   UNL     1       6.501  -5.695  32.383  1.00  0.00     0.041 C 
ATOM     12  O   UNL     1       7.317  -4.858  32.851  1.00  0.00    -0.550 OA
ATOM     13  O   UNL     1       5.163  -5.632  32.750  1.00  0.00    -0.550 OA
ENDBRANCH  10  11
ENDBRANCH   9  10
ENDBRANCH   8   9
ENDBRANCH   1   8
TORSDOF 8
ENDMDL
MODEL 6
REMARK VINA RESULT:    -4.066      2.776      3.729
REMARK INTER + INTRA:          -6.747
REMARK INTER:                  -5.997
REMARK INTRA:                  -0.750
REMARK UNBOUND:                -0.780
REMARK SMILES O=C([O-])CCCCCCCC(=O)[O-]
REMARK SMILES IDX 7 1 6 2 5 3 4 4 2 5 1 6 3 7 8 8 9 9 10 10 11 11 12 12 13 13
REMARK H PARENT
REMARK Flexibility Score: inf
ROOT
ATOM      1  C   UNL     1       7.514  -5.870  30.903  1.00  0.00     0.000 C 
ENDROOT
BRANCH   1   2
ATOM      2  C   UNL     1       7.150  -5.107  29.624  1.00  0.00     0.000 C 
BRANCH   2   3
ATOM      3  C   UNL     1       8.179  -5.366  28.517  1.00  0.00     0.006 C 
BRANCH   3   4
ATOM      4  C   UNL     1       8.851  -6.729  28.698  1.00  0.00     0.053 C 
BRANCH   4   5
ATOM      5  C   UNL     1       8.361  -7.696  27.668  1.00  0.00     0.041 C 
ATOM      6  O   UNL     1       8.996  -8.760  27.445  1.00  0.00    -0.550 OA
ATOM      7  O   UNL     1       7.228  -7.401  26.921  1.00  0.00    -0.550 OA
ENDBRANCH   4   5
ENDBRANCH   3   4
ENDBRANCH   2   3
ENDBRANCH   1   2
BRANCH   1   8
ATOM      8  C   UNL     1       6.343  -5.867  31.897  1.00  0.00     0.000 C 
BRANCH   8   9
ATOM      9  C   UNL     1       5.405  -7.071  31.713  1.00  0.00     0.006 C 
BRANCH   9  10
ATOM     10  C   UNL     1       6.129  -8.304  31.154  1.00  0.00     0.053 C 
BRANCH  10  11
ATOM     11  C   UNL     1       5.471  -8.769  29.894  1.00  0.00     0.041 C 
ATOM     12  O   UNL     1       5.940  -9.749  29.260  1.00  0.00    -0.550 OA
ATOM     13  O   UNL     1       4.310  -8.150  29.448  1.00  0.00    -0.550 OA
ENDBRANCH  10  11
ENDBRANCH   9  10
ENDBRANCH   8   9
ENDBRANCH   1   8
TORSDOF 8
ENDMDL
MODEL 7
REMARK VINA RESULT:    -4.058      2.325      5.065
REMARK INTER + INTRA:          -6.735
REMARK INTER:                  -6.064
REMARK INTRA:                  -0.671
REMARK UNBOUND:                -0.780
REMARK SMILES O=C([O-])CCCCCCCC(=O)[O-]
REMARK SMILES IDX 7 1 6 2 5 3 4 4 2 5 1 6 3 7 8 8 9 9 10 10 11 11 12 12 13 13
REMARK H PARENT
REMARK Flexibility Score: inf
ROOT
ATOM      1  C   UNL     1       7.527  -5.947  31.239  1.00  0.00     0.000 C 
ENDROOT
BRANCH   1   2
ATOM      2  C   UNL     1       6.027  -5.750  31.486  1.00  0.00     0.000 C 
BRANCH   2   3
ATOM      3  C   UNL     1       5.378  -7.043  31.994  1.00  0.00     0.006 C 
BRANCH   3   4
ATOM      4  C   UNL     1       5.938  -8.265  31.260  1.00  0.00     0.053 C 
BRANCH   4   5
ATOM      5  C   UNL     1       5.162  -8.526  30.009  1.00  0.00     0.041 C 
ATOM      6  O   UNL     1       5.760  -8.854  28.950  1.00  0.00    -0.550 OA
ATOM      7  O   UNL     1       3.784  -8.361  29.999  1.00  0.00    -0.550 OA
ENDBRANCH   4   5
ENDBRANCH   3   4
ENDBRANCH   2   3
ENDBRANCH   1   2
BRANCH   1   8
ATOM      8  C   UNL     1       7.890  -5.631  29.780  1.00  0.00     0.000 C 
BRANCH   8   9
ATOM      9  C   UNL     1       6.671  -5.212  28.943  1.00  0.00     0.006 C 
BRANCH   9  10
ATOM     10  C   UNL     1       6.840  -5.532  27.451  1.00  0.00     0.053 C 
BRANCH  10  11
ATOM     11  C   UNL     1       6.909  -4.270  26.652  1.00  0.00     0.041 C 
ATOM     12  O   UNL     1       7.170  -3.175  27.217  1.00  0.00    -0.550 OA
ATOM     13  O   UNL     1       6.736  -4.310  25.274  1.00  0.00    -0.550 OA
ENDBRANCH  10  11
ENDBRANCH   9  10
ENDBRANCH   8   9
ENDBRANCH   1   8
TORSDOF 8
ENDMDL
MODEL 8
REMARK VINA RESULT:    -4.047      2.681      4.904
REMARK INTER + INTRA:          -6.719
REMARK INTER:                  -6.047
REMARK INTRA:                  -0.672
REMARK UNBOUND:                -0.780
REMARK SMILES O=C([O-])CCCCCCCC(=O)[O-]
REMARK SMILES IDX 7 1 6 2 5 3 4 4 2 5 1 6 3 7 8 8 9 9 10 10 11 11 12 12 13 13
REMARK H PARENT
REMARK Flexibility Score: inf
ROOT
ATOM      1  C   UNL     1       7.640  -6.158  31.034  1.00  0.00     0.000 C 
ENDROOT
BRANCH   1   2
ATOM      2  C   UNL     1       6.556  -6.172  32.118  1.00  0.00     0.000 C 
BRANCH   2   3
ATOM      3  C   UNL     1       5.442  -7.167  31.771  1.00  0.00     0.006 C 
BRANCH   3   4
ATOM      4  C   UNL     1       5.974  -8.307  30.900  1.00  0.00     0.053 C 
BRANCH   4   5
ATOM      5  C   UNL     1       5.100  -8.504  29.702  1.00  0.00     0.041 C 
ATOM      6  O   UNL     1       4.806  -7.527  28.965  1.00  0.00    -0.550 OA
ATOM      7  O   UNL     1       4.571  -9.758  29.427  1.00  0.00    -0.550 OA
ENDBRANCH   4   5
ENDBRANCH   3   4
ENDBRANCH   2   3
ENDBRANCH   1   2
BRANCH   1   8
ATOM      8  C   UNL     1       7.257  -5.212  29.886  1.00  0.00     0.000 C 
BRANCH   8   9
ATOM      9  C   UNL     1       8.163  -5.376  28.654  1.00  0.00     0.006 C 
BRANCH   9  10
ATOM     10  C   UNL     1       8.923  -6.710  28.654  1.00  0.00     0.053 C 
BRANCH  10  11
ATOM     11  C   UNL     1       8.368  -7.626  27.611  1.00  0.00     0.041 C 
ATOM     12  O   UNL     1       8.883  -8.759  27.424  1.00  0.00    -0.550 OA
ATOM     13  O   UNL     1       7.249  -7.248  26.879  1.00  0.00    -0.550 OA
ENDBRANCH  10  11
ENDBRANCH   9  10
ENDBRANCH   8   9
ENDBRANCH   1   8
TORSDOF 8
ENDMDL
MODEL 9
REMARK VINA RESULT:    -4.012     13.451     15.906
REMARK INTER + INTRA:          -6.668
REMARK INTER:                  -5.978
REMARK INTRA:                  -0.690
REMARK UNBOUND:                -0.780
REMARK SMILES O=C([O-])CCCCCCCC(=O)[O-]
REMARK SMILES IDX 7 1 6 2 5 3 4 4 2 5 1 6 3 7 8 8 9 9 10 10 11 11 12 12 13 13
REMARK H PARENT
REMARK Flexibility Score: inf
ROOT
ATOM      1  C   UNL     1      12.813  -7.276  16.697  1.00  0.00     0.000 C 
ENDROOT
BRANCH   1   2
ATOM      2  C   UNL     1      13.822  -8.032  17.569  1.00  0.00     0.000 C 
BRANCH   2   3
ATOM      3  C   UNL     1      15.048  -7.162  17.873  1.00  0.00     0.006 C 
BRANCH   3   4
ATOM      4  C   UNL     1      15.009  -6.639  19.311  1.00  0.00     0.053 C 
BRANCH   4   5
ATOM      5  C   UNL     1      14.438  -5.257  19.351  1.00  0.00     0.041 C 
ATOM      6  O   UNL     1      14.643  -4.460  18.398  1.00  0.00    -0.550 OA
ATOM      7  O   UNL     1      13.722  -4.833  20.462  1.00  0.00    -0.550 OA
ENDBRANCH   4   5
ENDBRANCH   3   4
ENDBRANCH   2   3
ENDBRANCH   1   2
BRANCH   1   8
ATOM      8  C   UNL     1      13.527  -6.472  15.600  1.00  0.00     0.000 C 
BRANCH   8   9
ATOM      9  C   UNL     1      13.531  -7.194  14.243  1.00  0.00     0.006 C 
BRANCH   9  10
ATOM     10  C   UNL     1      14.949  -7.466  13.722  1.00  0.00     0.053 C 
BRANCH  10  11
ATOM     11  C   UNL     1      15.282  -8.919  13.849  1.00  0.00     0.041 C 
ATOM     12  O   UNL     1      16.353  -9.368  13.365  1.00  0.00    -0.550 OA
ATOM     13  O   UNL     1      14.431  -9.768  14.547  1.00  0.00    -0.550 OA
ENDBRANCH  10  11
ENDBRANCH   9  10
ENDBRANCH   8   9
ENDBRANCH   1   8
TORSDOF 8
ENDMDL
