MODEL 1
REMARK VINA RESULT:    -5.162      0.000      0.000
REMARK INTER + INTRA:         -10.763
REMARK INTER:                  -9.085
REMARK INTRA:                  -1.678
REMARK UNBOUND:                -1.678
REMARK SMILES CCCCCCCCCCCCCCC(=O)[O-]
REMARK SMILES IDX 9 1 10 2 11 3 12 4 13 5 14 6 15 7 16 8 17 9 8 10 7 11 6 12
REMARK SMILES IDX 5 13 4 14 3 15 2 16 1 17
REMARK H PARENT
REMARK Flexibility Score: inf
ROOT
ATOM      1  C   UNL     1     -18.139  55.835  -4.025  1.00  0.00     0.000 C 
ENDROOT
BRANCH   1   2
ATOM      2  C   UNL     1     -19.310  56.564  -3.350  1.00  0.00     0.000 C 
BRANCH   2   3
ATOM      3  C   UNL     1     -20.463  55.621  -2.962  1.00  0.00     0.000 C 
BRANCH   3   4
ATOM      4  C   UNL     1     -21.283  56.064  -1.736  1.00  0.00     0.000 C 
BRANCH   4   5
ATOM      5  C   UNL     1     -21.457  54.947  -0.697  1.00  0.00     0.006 C 
BRANCH   5   6
ATOM      6  C   UNL     1     -21.688  53.596  -1.379  1.00  0.00     0.053 C 
BRANCH   6   7
ATOM      7  C   UNL     1     -20.577  52.647  -1.053  1.00  0.00     0.041 C 
ATOM      8  O   UNL     1     -19.823  52.217  -1.965  1.00  0.00    -0.550 OA
ATOM      9  O   UNL     1     -20.343  52.277   0.266  1.00  0.00    -0.550 OA
ENDBRANCH   6   7
ENDBRANCH   5   6
ENDBRANCH   4   5
ENDBRANCH   3   4
ENDBRANCH   2   3
ENDBRANCH   1   2
BRANCH   1  10
ATOM     10  C   UNL     1     -16.952  55.696  -3.060  1.00  0.00     0.000 C 
BRANCH  10  11
ATOM     11  C   UNL     1     -17.064  54.459  -2.154  1.00  0.00    -0.000 C 
BRANCH  11  12
ATOM     12  C   UNL     1     -16.729  54.771  -0.686  1.00  0.00    -0.000 C 
BRANCH  12  13
ATOM     13  C   UNL     1     -17.927  55.342   0.096  1.00  0.00    -0.000 C 
BRANCH  13  14
ATOM     14  C   UNL     1     -17.882  56.861   0.351  1.00  0.00    -0.000 C 
BRANCH  14  15
ATOM     15  C   UNL     1     -16.497  57.474   0.081  1.00  0.00    -0.000 C 
BRANCH  15  16
ATOM     16  C   UNL     1     -15.995  58.332   1.253  1.00  0.00    -0.003 C 
ATOM     17  C   UNL     1     -14.680  59.047   0.944  1.00  0.00     0.004 C 
ENDBRANCH  15  16
ENDBRANCH  14  15
ENDBRANCH  13  14
ENDBRANCH  12  13
ENDBRANCH  11  12
ENDBRANCH  10  11
ENDBRANCH   1  10
TORSDOF 13
ENDMDL
MODEL 2
REMARK VINA RESULT:    -5.157      1.572      2.286
REMARK INTER + INTRA:         -10.753
REMARK INTER:                  -8.802
REMARK INTRA:                  -1.952
REMARK UNBOUND:                -1.678
REMARK SMILES CCCCCCCCCCCCCCC(=O)[O-]
REMARK SMILES IDX 9 1 10 2 11 3 12 4 13 5 14 6 15 7 16 8 17 9 8 10 7 11 6 12
REMARK SMILES IDX 5 13 4 14 3 15 2 16 1 17
REMARK H PARENT
REMARK Flexibility Score: inf
ROOT
ATOM      1  C   UNL     1     -19.623  55.807  -3.051  1.00  0.00     0.000 C 
ENDROOT
BRANCH   1   2
ATOM      2  C   UNL     1     -20.954  56.544  -3.271  1.00  0.00     0.000 C 
BRANCH   2   3
ATOM      3  C   UNL     1     -22.183  55.658  -3.002  1.00  0.00     0.000 C 
BRANCH   3   4
ATOM      4  C   UNL     1     -22.356  55.211  -1.538  1.00  0.00     0.000 C 
BRANCH   4   5
ATOM      5  C   UNL     1     -22.222  53.692  -1.355  1.00  0.00     0.006 C 
BRANCH   5   6
ATOM      6  C   UNL     1     -20.984  53.348  -0.523  1.00  0.00     0.053 C 
BRANCH   6   7
ATOM      7  C   UNL     1     -20.155  52.314  -1.218  1.00  0.00     0.041 C 
ATOM      8  O   UNL     1     -19.756  52.509  -2.396  1.00  0.00    -0.550 OA
ATOM      9  O   UNL     1     -19.782  51.156  -0.547  1.00  0.00    -0.550 OA
ENDBRANCH   6   7
ENDBRANCH   5   6
ENDBRANCH   4   5
ENDBRANCH   3   4
ENDBRANCH   2   3
ENDBRANCH   1   2
BRANCH   1  10
ATOM     10  C   UNL     1     -18.442  56.650  -3.555  1.00  0.00     0.000 C 
BRANCH  10  11
ATOM     11  C   UNL     1     -17.091  56.175  -2.993  1.00  0.00    -0.000 C 
BRANCH  11  12
ATOM     12  C   UNL     1     -17.123  54.706  -2.540  1.00  0.00    -0.000 C 
BRANCH  12  13
ATOM     13  C   UNL     1     -16.500  54.493  -1.148  1.00  0.00    -0.000 C 
BRANCH  13  14
ATOM     14  C   UNL     1     -16.779  55.610  -0.125  1.00  0.00    -0.000 C 
BRANCH  14  15
ATOM     15  C   UNL     1     -18.222  55.590   0.408  1.00  0.00    -0.000 C 
BRANCH  15  16
ATOM     16  C   UNL     1     -18.851  56.992   0.456  1.00  0.00    -0.003 C 
ATOM     17  C   UNL     1     -20.331  56.965   0.837  1.00  0.00     0.004 C 
ENDBRANCH  15  16
ENDBRANCH  14  15
ENDBRANCH  13  14
ENDBRANCH  12  13
ENDBRANCH  11  12
ENDBRANCH  10  11
ENDBRANCH   1  10
TORSDOF 13
ENDMDL
MODEL 3
REMARK VINA RESULT:    -5.090      1.866      3.434
REMARK INTER + INTRA:         -10.637
REMARK INTER:                  -8.938
REMARK INTRA:                  -1.699
REMARK UNBOUND:                -1.678
REMARK SMILES CCCCCCCCCCCCCCC(=O)[O-]
REMARK SMILES IDX 9 1 10 2 11 3 12 4 13 5 14 6 15 7 16 8 17 9 8 10 7 11 6 12
REMARK SMILES IDX 5 13 4 14 3 15 2 16 1 17
REMARK H PARENT
REMARK Flexibility Score: inf
ROOT
ATOM      1  C   UNL     1     -21.742  53.483  -0.877  1.00  0.00     0.000 C 
ENDROOT
BRANCH   1   2
ATOM      2  C   UNL     1     -22.255  54.603  -1.795  1.00  0.00     0.000 C 
BRANCH   2   3
ATOM      3  C   UNL     1     -21.330  54.867  -2.997  1.00  0.00     0.000 C 
BRANCH   3   4
ATOM      4  C   UNL     1     -21.018  56.350  -3.264  1.00  0.00     0.000 C 
BRANCH   4   5
ATOM      5  C   UNL     1     -19.512  56.652  -3.288  1.00  0.00     0.006 C 
BRANCH   5   6
ATOM      6  C   UNL     1     -18.701  55.372  -3.510  1.00  0.00     0.053 C 
BRANCH   6   7
ATOM      7  C   UNL     1     -17.262  55.596  -3.164  1.00  0.00     0.041 C 
ATOM      8  O   UNL     1     -16.732  56.721  -3.359  1.00  0.00    -0.550 OA
ATOM      9  O   UNL     1     -16.521  54.577  -2.580  1.00  0.00    -0.550 OA
ENDBRANCH   6   7
ENDBRANCH   5   6
ENDBRANCH   4   5
ENDBRANCH   3   4
ENDBRANCH   2   3
ENDBRANCH   1   2
BRANCH   1  10
ATOM     10  C   UNL     1     -20.460  52.854  -1.445  1.00  0.00     0.000 C 
BRANCH  10  11
ATOM     11  C   UNL     1     -19.209  53.210  -0.625  1.00  0.00    -0.000 C 
BRANCH  11  12
ATOM     12  C   UNL     1     -19.338  54.566   0.090  1.00  0.00    -0.000 C 
BRANCH  12  13
ATOM     13  C   UNL     1     -17.978  55.162   0.497  1.00  0.00    -0.000 C 
BRANCH  13  14
ATOM     14  C   UNL     1     -17.867  56.693   0.370  1.00  0.00    -0.000 C 
BRANCH  14  15
ATOM     15  C   UNL     1     -16.422  57.175   0.156  1.00  0.00    -0.000 C 
BRANCH  15  16
ATOM     16  C   UNL     1     -15.968  58.172   1.234  1.00  0.00    -0.003 C 
ATOM     17  C   UNL     1     -14.785  59.031   0.789  1.00  0.00     0.004 C 
ENDBRANCH  15  16
ENDBRANCH  14  15
ENDBRANCH  13  14
ENDBRANCH  12  13
ENDBRANCH  11  12
ENDBRANCH  10  11
ENDBRANCH   1  10
TORSDOF 13
ENDMDL
MODEL 4
REMARK VINA RESULT:    -5.087      2.386      5.485
REMARK INTER + INTRA:         -10.631
REMARK INTER:                  -8.910
REMARK INTRA:                  -1.720
REMARK UNBOUND:                -1.678
REMARK SMILES CCCCCCCCCCCCCCC(=O)[O-]
REMARK SMILES IDX 9 1 10 2 11 3 12 4 13 5 14 6 15 7 16 8 17 9 8 10 7 11 6 12
REMARK SMILES IDX 5 13 4 14 3 15 2 16 1 17
REMARK H PARENT
REMARK Flexibility Score: inf
ROOT
ATOM      1  C   UNL     1     -19.608  56.286  -2.695  1.00  0.00     0.000 C 
ENDROOT
BRANCH   1   2
ATOM      2  C   UNL     1     -18.416  56.581  -3.618  1.00  0.00     0.000 C 
BRANCH   2   3
ATOM      3  C   UNL     1     -17.156  55.777  -3.249  1.00  0.00     0.000 C 
BRANCH   3   4
ATOM      4  C   UNL     1     -17.416  54.496  -2.435  1.00  0.00     0.000 C 
BRANCH   4   5
ATOM      5  C   UNL     1     -16.708  54.498  -1.073  1.00  0.00     0.006 C 
BRANCH   5   6
ATOM      6  C   UNL     1     -17.617  55.075   0.016  1.00  0.00     0.053 C 
BRANCH   6   7
ATOM      7  C   UNL     1     -17.188  56.464   0.374  1.00  0.00     0.041 C 
ATOM      8  O   UNL     1     -15.973  56.788   0.312  1.00  0.00    -0.550 OA
ATOM      9  O   UNL     1     -18.137  57.414   0.730  1.00  0.00    -0.550 OA
ENDBRANCH   6   7
ENDBRANCH   5   6
ENDBRANCH   4   5
ENDBRANCH   3   4
ENDBRANCH   2   3
ENDBRANCH   1   2
BRANCH   1  10
ATOM     10  C   UNL     1     -20.938  56.567  -3.411  1.00  0.00     0.000 C 
BRANCH  10  11
ATOM     11  C   UNL     1     -22.138  56.591  -2.449  1.00  0.00    -0.000 C 
BRANCH  11  12
ATOM     12  C   UNL     1     -23.108  55.422  -2.687  1.00  0.00    -0.000 C 
BRANCH  12  13
ATOM     13  C   UNL     1     -23.204  54.466  -1.483  1.00  0.00    -0.000 C 
BRANCH  13  14
ATOM     14  C   UNL     1     -21.857  53.938  -0.955  1.00  0.00    -0.000 C 
BRANCH  14  15
ATOM     15  C   UNL     1     -21.117  53.055  -1.974  1.00  0.00    -0.000 C 
BRANCH  15  16
ATOM     16  C   UNL     1     -20.064  52.151  -1.315  1.00  0.00    -0.003 C 
ATOM     17  C   UNL     1     -20.139  52.168   0.211  1.00  0.00     0.004 C 
ENDBRANCH  15  16
ENDBRANCH  14  15
ENDBRANCH  13  14
ENDBRANCH  12  13
ENDBRANCH  11  12
ENDBRANCH  10  11
ENDBRANCH   1  10
TORSDOF 13
ENDMDL
MODEL 5
REMARK VINA RESULT:    -5.050      2.959      5.436
REMARK INTER + INTRA:         -10.566
REMARK INTER:                  -8.614
REMARK INTRA:                  -1.952
REMARK UNBOUND:                -1.678
REMARK SMILES CCCCCCCCCCCCCCC(=O)[O-]
REMARK SMILES IDX 9 1 10 2 11 3 12 4 13 5 14 6 15 7 16 8 17 9 8 10 7 11 6 12
REMARK SMILES IDX 5 13 4 14 3 15 2 16 1 17
REMARK H PARENT
REMARK Flexibility Score: inf
ROOT
ATOM      1  C   UNL     1     -22.278  55.085  -0.244  1.00  0.00     0.000 C 
ENDROOT
BRANCH   1   2
ATOM      2  C   UNL     1     -21.274  56.196  -0.589  1.00  0.00     0.000 C 
BRANCH   2   3
ATOM      3  C   UNL     1     -20.303  56.509   0.564  1.00  0.00     0.000 C 
BRANCH   3   4
ATOM      4  C   UNL     1     -18.872  55.974   0.372  1.00  0.00     0.000 C 
BRANCH   4   5
ATOM      5  C   UNL     1     -17.869  57.071  -0.011  1.00  0.00     0.006 C 
BRANCH   5   6
ATOM      6  C   UNL     1     -16.432  56.623   0.272  1.00  0.00     0.053 C 
BRANCH   6   7
ATOM      7  C   UNL     1     -15.518  57.806   0.343  1.00  0.00     0.041 C 
ATOM      8  O   UNL     1     -14.913  58.077   1.414  1.00  0.00    -0.550 OA
ATOM      9  O   UNL     1     -15.295  58.581  -0.789  1.00  0.00    -0.550 OA
ENDBRANCH   6   7
ENDBRANCH   5   6
ENDBRANCH   4   5
ENDBRANCH   3   4
ENDBRANCH   2   3
ENDBRANCH   1   2
BRANCH   1  10
ATOM     10  C   UNL     1     -21.943  53.791  -0.999  1.00  0.00     0.000 C 
BRANCH  10  11
ATOM     11  C   UNL     1     -20.809  52.992  -0.336  1.00  0.00    -0.000 C 
BRANCH  11  12
ATOM     12  C   UNL     1     -19.626  52.745  -1.287  1.00  0.00    -0.000 C 
BRANCH  12  13
ATOM     13  C   UNL     1     -19.870  53.294  -2.705  1.00  0.00    -0.000 C 
BRANCH  13  14
ATOM     14  C   UNL     1     -18.789  54.256  -3.233  1.00  0.00    -0.000 C 
BRANCH  14  15
ATOM     15  C   UNL     1     -19.262  55.719  -3.287  1.00  0.00    -0.000 C 
BRANCH  15  16
ATOM     16  C   UNL     1     -18.147  56.682  -3.723  1.00  0.00    -0.003 C 
ATOM     17  C   UNL     1     -16.748  56.136  -3.441  1.00  0.00     0.004 C 
ENDBRANCH  15  16
ENDBRANCH  14  15
ENDBRANCH  13  14
ENDBRANCH  12  13
ENDBRANCH  11  12
ENDBRANCH  10  11
ENDBRANCH   1  10
TORSDOF 13
ENDMDL
MODEL 6
REMARK VINA RESULT:    -4.995      2.255      4.086
REMARK INTER + INTRA:         -10.469
REMARK INTER:                  -8.336
REMARK INTRA:                  -2.133
REMARK UNBOUND:                -1.678
REMARK SMILES CCCCCCCCCCCCCCC(=O)[O-]
REMARK SMILES IDX 9 1 10 2 11 3 12 4 13 5 14 6 15 7 16 8 17 9 8 10 7 11 6 12
REMARK SMILES IDX 5 13 4 14 3 15 2 16 1 17
REMARK H PARENT
REMARK Flexibility Score: inf
ROOT
ATOM      1  C   UNL     1     -17.988  55.112   0.524  1.00  0.00     0.000 C 
ENDROOT
BRANCH   1   2
ATOM      2  C   UNL     1     -18.581  56.440   0.028  1.00  0.00     0.000 C 
BRANCH   2   3
ATOM      3  C   UNL     1     -19.786  56.910   0.863  1.00  0.00     0.000 C 
BRANCH   3   4
ATOM      4  C   UNL     1     -21.164  56.593   0.254  1.00  0.00     0.000 C 
BRANCH   4   5
ATOM      5  C   UNL     1     -22.299  56.630   1.287  1.00  0.00     0.006 C 
BRANCH   5   6
ATOM      6  C   UNL     1     -23.578  56.010   0.718  1.00  0.00     0.053 C 
BRANCH   6   7
ATOM      7  C   UNL     1     -23.283  54.684   0.089  1.00  0.00     0.041 C 
ATOM      8  O   UNL     1     -22.972  53.697   0.807  1.00  0.00    -0.550 OA
ATOM      9  O   UNL     1     -23.399  54.525  -1.287  1.00  0.00    -0.550 OA
ENDBRANCH   6   7
ENDBRANCH   5   6
ENDBRANCH   4   5
ENDBRANCH   3   4
ENDBRANCH   2   3
ENDBRANCH   1   2
BRANCH   1  10
ATOM     10  C   UNL     1     -18.171  54.005  -0.526  1.00  0.00     0.000 C 
BRANCH  10  11
ATOM     11  C   UNL     1     -19.500  53.248  -0.367  1.00  0.00    -0.000 C 
BRANCH  11  12
ATOM     12  C   UNL     1     -20.258  53.100  -1.696  1.00  0.00    -0.000 C 
BRANCH  12  13
ATOM     13  C   UNL     1     -19.692  53.995  -2.814  1.00  0.00    -0.000 C 
BRANCH  13  14
ATOM     14  C   UNL     1     -20.429  55.331  -3.023  1.00  0.00    -0.000 C 
BRANCH  14  15
ATOM     15  C   UNL     1     -19.492  56.475  -3.448  1.00  0.00    -0.000 C 
BRANCH  15  16
ATOM     16  C   UNL     1     -18.124  55.966  -3.930  1.00  0.00    -0.003 C 
ATOM     17  C   UNL     1     -16.954  56.648  -3.220  1.00  0.00     0.004 C 
ENDBRANCH  15  16
ENDBRANCH  14  15
ENDBRANCH  13  14
ENDBRANCH  12  13
ENDBRANCH  11  12
ENDBRANCH  10  11
ENDBRANCH   1  10
TORSDOF 13
ENDMDL
MODEL 7
REMARK VINA RESULT:    -4.989      1.916      2.416
REMARK INTER + INTRA:         -10.459
REMARK INTER:                  -9.183
REMARK INTRA:                  -1.276
REMARK UNBOUND:                -1.678
REMARK SMILES CCCCCCCCCCCCCCC(=O)[O-]
REMARK SMILES IDX 9 1 10 2 11 3 12 4 13 5 14 6 15 7 16 8 17 9 8 10 7 11 6 12
REMARK SMILES IDX 5 13 4 14 3 15 2 16 1 17
REMARK H PARENT
REMARK Flexibility Score: inf
ROOT
ATOM      1  C   UNL     1     -18.848  55.471  -3.480  1.00  0.00     0.000 C 
ENDROOT
BRANCH   1   2
ATOM      2  C   UNL     1     -20.252  56.026  -3.191  1.00  0.00     0.000 C 
BRANCH   2   3
ATOM      3  C   UNL     1     -20.809  55.573  -1.829  1.00  0.00     0.000 C 
BRANCH   3   4
ATOM      4  C   UNL     1     -20.812  54.050  -1.601  1.00  0.00     0.000 C 
BRANCH   4   5
ATOM      5  C   UNL     1     -21.929  53.588  -0.655  1.00  0.00     0.006 C 
BRANCH   5   6
ATOM      6  C   UNL     1     -23.030  54.647  -0.548  1.00  0.00     0.053 C 
BRANCH   6   7
ATOM      7  C   UNL     1     -23.426  54.850   0.881  1.00  0.00     0.041 C 
ATOM      8  O   UNL     1     -23.723  53.862   1.602  1.00  0.00    -0.550 OA
ATOM      9  O   UNL     1     -23.420  56.127   1.429  1.00  0.00    -0.550 OA
ENDBRANCH   6   7
ENDBRANCH   5   6
ENDBRANCH   4   5
ENDBRANCH   3   4
ENDBRANCH   2   3
ENDBRANCH   1   2
BRANCH   1  10
ATOM     10  C   UNL     1     -17.823  56.610  -3.591  1.00  0.00     0.000 C 
BRANCH  10  11
ATOM     11  C   UNL     1     -17.029  56.823  -2.291  1.00  0.00    -0.000 C 
BRANCH  11  12
ATOM     12  C   UNL     1     -17.129  55.624  -1.334  1.00  0.00    -0.000 C 
BRANCH  12  13
ATOM     13  C   UNL     1     -17.744  55.993   0.029  1.00  0.00    -0.000 C 
BRANCH  13  14
ATOM     14  C   UNL     1     -17.543  57.456   0.467  1.00  0.00    -0.000 C 
BRANCH  14  15
ATOM     15  C   UNL     1     -16.183  57.698   1.144  1.00  0.00    -0.000 C 
BRANCH  15  16
ATOM     16  C   UNL     1     -15.369  58.802   0.451  1.00  0.00    -0.003 C 
ATOM     17  C   UNL     1     -14.087  59.155   1.204  1.00  0.00     0.004 C 
ENDBRANCH  15  16
ENDBRANCH  14  15
ENDBRANCH  13  14
ENDBRANCH  12  13
ENDBRANCH  11  12
ENDBRANCH  10  11
ENDBRANCH   1  10
TORSDOF 13
ENDMDL
MODEL 8
REMARK VINA RESULT:    -4.973      2.603      3.593
REMARK INTER + INTRA:         -10.430
REMARK INTER:                  -8.483
REMARK INTRA:                  -1.947
REMARK UNBOUND:                -1.678
REMARK SMILES CCCCCCCCCCCCCCC(=O)[O-]
REMARK SMILES IDX 9 1 10 2 11 3 12 4 13 5 14 6 15 7 16 8 17 9 8 10 7 11 6 12
REMARK SMILES IDX 5 13 4 14 3 15 2 16 1 17
REMARK H PARENT
REMARK Flexibility Score: inf
ROOT
ATOM      1  C   UNL     1     -20.698  56.629  -3.460  1.00  0.00     0.000 C 
ENDROOT
BRANCH   1   2
ATOM      2  C   UNL     1     -21.823  55.990  -2.631  1.00  0.00     0.000 C 
BRANCH   2   3
ATOM      3  C   UNL     1     -21.486  54.564  -2.157  1.00  0.00     0.000 C 
BRANCH   3   4
ATOM      4  C   UNL     1     -22.597  53.868  -1.349  1.00  0.00     0.000 C 
BRANCH   4   5
ATOM      5  C   UNL     1     -22.235  53.686   0.132  1.00  0.00     0.006 C 
BRANCH   5   6
ATOM      6  C   UNL     1     -23.389  54.129   1.036  1.00  0.00     0.053 C 
BRANCH   6   7
ATOM      7  C   UNL     1     -23.590  55.609   0.941  1.00  0.00     0.041 C 
ATOM      8  O   UNL     1     -22.645  56.396   1.213  1.00  0.00    -0.550 OA
ATOM      9  O   UNL     1     -24.807  56.119   0.504  1.00  0.00    -0.550 OA
ENDBRANCH   6   7
ENDBRANCH   5   6
ENDBRANCH   4   5
ENDBRANCH   3   4
ENDBRANCH   2   3
ENDBRANCH   1   2
BRANCH   1  10
ATOM     10  C   UNL     1     -19.411  55.795  -3.369  1.00  0.00     0.000 C 
BRANCH  10  11
ATOM     11  C   UNL     1     -18.144  56.627  -3.625  1.00  0.00    -0.000 C 
BRANCH  11  12
ATOM     12  C   UNL     1     -16.900  56.035  -2.942  1.00  0.00    -0.000 C 
BRANCH  12  13
ATOM     13  C   UNL     1     -17.158  54.650  -2.320  1.00  0.00    -0.000 C 
BRANCH  13  14
ATOM     14  C   UNL     1     -16.427  54.380  -0.991  1.00  0.00    -0.000 C 
BRANCH  14  15
ATOM     15  C   UNL     1     -17.087  55.076   0.211  1.00  0.00    -0.000 C 
BRANCH  15  16
ATOM     16  C   UNL     1     -18.622  55.038   0.142  1.00  0.00    -0.003 C 
ATOM     17  C   UNL     1     -19.257  56.419   0.299  1.00  0.00     0.004 C 
ENDBRANCH  15  16
ENDBRANCH  14  15
ENDBRANCH  13  14
ENDBRANCH  12  13
ENDBRANCH  11  12
ENDBRANCH  10  11
ENDBRANCH   1  10
TORSDOF 13
ENDMDL
MODEL 9
REMARK VINA RESULT:    -4.949      2.577      3.977
REMARK INTER + INTRA:         -10.388
REMARK INTER:                  -8.355
REMARK INTRA:                  -2.033
REMARK UNBOUND:                -1.678
REMARK SMILES CCCCCCCCCCCCCCC(=O)[O-]
REMARK SMILES IDX 9 1 10 2 11 3 12 4 13 5 14 6 15 7 16 8 17 9 8 10 7 11 6 12
REMARK SMILES IDX 5 13 4 14 3 15 2 16 1 17
REMARK H PARENT
REMARK Flexibility Score: inf
ROOT
ATOM      1  C   UNL     1     -19.634  52.421  -1.243  1.00  0.00     0.000 C 
ENDROOT
BRANCH   1   2
ATOM      2  C   UNL     1     -20.712  52.757  -0.201  1.00  0.00     0.000 C 
BRANCH   2   3
ATOM      3  C   UNL     1     -21.991  53.343  -0.827  1.00  0.00     0.000 C 
BRANCH   3   4
ATOM      4  C   UNL     1     -22.751  54.343   0.063  1.00  0.00     0.000 C 
BRANCH   4   5
ATOM      5  C   UNL     1     -23.709  55.244  -0.731  1.00  0.00     0.006 C 
BRANCH   5   6
ATOM      6  C   UNL     1     -23.243  55.395  -2.182  1.00  0.00     0.053 C 
BRANCH   6   7
ATOM      7  C   UNL     1     -22.516  56.690  -2.367  1.00  0.00     0.041 C 
ATOM      8  O   UNL     1     -22.837  57.699  -1.684  1.00  0.00    -0.550 OA
ATOM      9  O   UNL     1     -21.453  56.770  -3.257  1.00  0.00    -0.550 OA
ENDBRANCH   6   7
ENDBRANCH   5   6
ENDBRANCH   4   5
ENDBRANCH   3   4
ENDBRANCH   2   3
ENDBRANCH   1   2
BRANCH   1  10
ATOM     10  C   UNL     1     -19.800  53.285  -2.501  1.00  0.00     0.000 C 
BRANCH  10  11
ATOM     11  C   UNL     1     -18.455  53.683  -3.132  1.00  0.00    -0.000 C 
BRANCH  11  12
ATOM     12  C   UNL     1     -18.419  55.159  -3.563  1.00  0.00    -0.000 C 
BRANCH  12  13
ATOM     13  C   UNL     1     -17.172  55.904  -3.050  1.00  0.00    -0.000 C 
BRANCH  13  14
ATOM     14  C   UNL     1     -17.342  56.617  -1.696  1.00  0.00    -0.000 C 
BRANCH  14  15
ATOM     15  C   UNL     1     -17.013  55.713  -0.496  1.00  0.00    -0.000 C 
BRANCH  15  16
ATOM     16  C   UNL     1     -18.227  55.483   0.418  1.00  0.00    -0.003 C 
ATOM     17  C   UNL     1     -19.485  56.198  -0.075  1.00  0.00     0.004 C 
ENDBRANCH  15  16
ENDBRANCH  14  15
ENDBRANCH  13  14
ENDBRANCH  12  13
ENDBRANCH  11  12
ENDBRANCH  10  11
ENDBRANCH   1  10
TORSDOF 13
ENDMDL
