MODEL 1
REMARK VINA RESULT:    -3.560      0.000      0.000
REMARK INTER + INTRA:          -5.565
REMARK INTER:                  -5.225
REMARK INTRA:                  -0.340
REMARK UNBOUND:                -0.340
REMARK SMILES O=C([O-])CCCCCCCC(=O)[O-]
REMARK SMILES IDX 7 1 6 2 5 3 4 4 2 5 1 6 3 7 8 8 9 9 10 10 11 11 12 12 13 13
REMARK H PARENT
REMARK Flexibility Score: inf
ROOT
ATOM      1  C   UNL     1      -1.628   7.215  -4.722  1.00  0.00     0.000 C 
ENDROOT
BRANCH   1   2
ATOM      2  C   UNL     1      -2.304   8.551  -5.085  1.00  0.00     0.000 C 
BRANCH   2   3
ATOM      3  C   UNL     1      -3.023   9.203  -3.892  1.00  0.00     0.006 C 
BRANCH   3   4
ATOM      4  C   UNL     1      -4.185   8.344  -3.377  1.00  0.00     0.053 C 
BRANCH   4   5
ATOM      5  C   UNL     1      -4.088   8.104  -1.901  1.00  0.00     0.041 C 
ATOM      6  O   UNL     1      -5.127   7.901  -1.220  1.00  0.00    -0.550 OA
ATOM      7  O   UNL     1      -2.844   8.076  -1.282  1.00  0.00    -0.550 OA
ENDBRANCH   4   5
ENDBRANCH   3   4
ENDBRANCH   2   3
ENDBRANCH   1   2
BRANCH   1   8
ATOM      8  C   UNL     1      -2.130   5.996  -5.515  1.00  0.00     0.000 C 
BRANCH   8   9
ATOM      9  C   UNL     1      -1.043   4.926  -5.723  1.00  0.00     0.006 C 
BRANCH   9  10
ATOM     10  C   UNL     1      -1.599   3.659  -6.385  1.00  0.00     0.053 C 
BRANCH  10  11
ATOM     11  C   UNL     1      -1.128   2.418  -5.690  1.00  0.00     0.041 C 
ATOM     12  O   UNL     1      -0.875   2.439  -4.456  1.00  0.00    -0.550 OA
ATOM     13  O   UNL     1      -0.933   1.247  -6.412  1.00  0.00    -0.550 OA
ENDBRANCH  10  11
ENDBRANCH   9  10
ENDBRANCH   8   9
ENDBRANCH   1   8
TORSDOF 8
ENDMDL
MODEL 2
REMARK VINA RESULT:    -3.555      1.554      2.669
REMARK INTER + INTRA:          -5.557
REMARK INTER:                  -5.196
REMARK INTRA:                  -0.361
REMARK UNBOUND:                -0.340
REMARK SMILES O=C([O-])CCCCCCCC(=O)[O-]
REMARK SMILES IDX 7 1 6 2 5 3 4 4 2 5 1 6 3 7 8 8 9 9 10 10 11 11 12 12 13 13
REMARK H PARENT
REMARK Flexibility Score: inf
ROOT
ATOM      1  C   UNL     1      -4.268   7.372  -4.121  1.00  0.00     0.000 C 
ENDROOT
BRANCH   1   2
ATOM      2  C   UNL     1      -4.762   8.380  -3.067  1.00  0.00     0.000 C 
BRANCH   2   3
ATOM      3  C   UNL     1      -4.634   7.854  -1.627  1.00  0.00     0.006 C 
BRANCH   3   4
ATOM      4  C   UNL     1      -4.008   8.890  -0.685  1.00  0.00     0.053 C 
BRANCH   4   5
ATOM      5  C   UNL     1      -2.629   8.491  -0.255  1.00  0.00     0.041 C 
ATOM      6  O   UNL     1      -1.899   7.806  -1.019  1.00  0.00    -0.550 OA
ATOM      7  O   UNL     1      -2.141   8.899   0.980  1.00  0.00    -0.550 OA
ENDBRANCH   4   5
ENDBRANCH   3   4
ENDBRANCH   2   3
ENDBRANCH   1   2
BRANCH   1   8
ATOM      8  C   UNL     1      -2.965   7.766  -4.837  1.00  0.00     0.000 C 
BRANCH   8   9
ATOM      9  C   UNL     1      -1.886   6.670  -4.768  1.00  0.00     0.006 C 
BRANCH   9  10
ATOM     10  C   UNL     1      -1.793   5.867  -6.071  1.00  0.00     0.053 C 
BRANCH  10  11
ATOM     11  C   UNL     1      -1.431   4.436  -5.815  1.00  0.00     0.041 C 
ATOM     12  O   UNL     1      -1.659   3.558  -6.689  1.00  0.00    -0.550 OA
ATOM     13  O   UNL     1      -0.875   4.066  -4.597  1.00  0.00    -0.550 OA
ENDBRANCH  10  11
ENDBRANCH   9  10
ENDBRANCH   8   9
ENDBRANCH   1   8
TORSDOF 8
ENDMDL
MODEL 3
REMARK VINA RESULT:    -3.533      3.129      4.836
REMARK INTER + INTRA:          -5.526
REMARK INTER:                  -5.109
REMARK INTRA:                  -0.416
REMARK UNBOUND:                -0.340
REMARK SMILES O=C([O-])CCCCCCCC(=O)[O-]
REMARK SMILES IDX 7 1 6 2 5 3 4 4 2 5 1 6 3 7 8 8 9 9 10 10 11 11 12 12 13 13
REMARK H PARENT
REMARK Flexibility Score: inf
ROOT
ATOM      1  C   UNL     1      -4.789   8.486  -1.241  1.00  0.00     0.000 C 
ENDROOT
BRANCH   1   2
ATOM      2  C   UNL     1      -3.358   8.175  -0.762  1.00  0.00     0.000 C 
BRANCH   2   3
ATOM      3  C   UNL     1      -2.802   9.240   0.199  1.00  0.00     0.006 C 
BRANCH   3   4
ATOM      4  C   UNL     1      -3.916  10.047   0.877  1.00  0.00     0.053 C 
BRANCH   4   5
ATOM      5  C   UNL     1      -3.523  10.493   2.252  1.00  0.00     0.041 C 
ATOM      6  O   UNL     1      -4.393  10.919   3.055  1.00  0.00    -0.550 OA
ATOM      7  O   UNL     1      -2.196  10.411   2.655  1.00  0.00    -0.550 OA
ENDBRANCH   4   5
ENDBRANCH   3   4
ENDBRANCH   2   3
ENDBRANCH   1   2
BRANCH   1   8
ATOM      8  C   UNL     1      -4.910   8.858  -2.729  1.00  0.00     0.000 C 
BRANCH   8   9
ATOM      9  C   UNL     1      -4.580   7.687  -3.670  1.00  0.00     0.006 C 
BRANCH   9  10
ATOM     10  C   UNL     1      -3.485   8.049  -4.682  1.00  0.00     0.053 C 
BRANCH  10  11
ATOM     11  C   UNL     1      -2.292   7.152  -4.551  1.00  0.00     0.041 C 
ATOM     12  O   UNL     1      -1.492   7.296  -3.590  1.00  0.00    -0.550 OA
ATOM     13  O   UNL     1      -2.045   6.180  -5.513  1.00  0.00    -0.550 OA
ENDBRANCH  10  11
ENDBRANCH   9  10
ENDBRANCH   8   9
ENDBRANCH   1   8
TORSDOF 8
ENDMDL
MODEL 4
REMARK VINA RESULT:    -3.392      0.999      6.349
REMARK INTER + INTRA:          -5.318
REMARK INTER:                  -5.033
REMARK INTRA:                  -0.285
REMARK UNBOUND:                -0.340
REMARK SMILES O=C([O-])CCCCCCCC(=O)[O-]
REMARK SMILES IDX 7 1 6 2 5 3 4 4 2 5 1 6 3 7 8 8 9 9 10 10 11 11 12 12 13 13
REMARK H PARENT
REMARK Flexibility Score: inf
ROOT
ATOM      1  C   UNL     1      -1.099   7.418  -5.571  1.00  0.00     0.000 C 
ENDROOT
BRANCH   1   2
ATOM      2  C   UNL     1      -1.221   6.134  -6.412  1.00  0.00     0.000 C 
BRANCH   2   3
ATOM      3  C   UNL     1      -1.308   4.860  -5.553  1.00  0.00     0.006 C 
BRANCH   3   4
ATOM      4  C   UNL     1      -1.658   3.622  -6.387  1.00  0.00     0.053 C 
BRANCH   4   5
ATOM      5  C   UNL     1      -1.180   2.359  -5.737  1.00  0.00     0.041 C 
ATOM      6  O   UNL     1      -0.982   1.325  -6.425  1.00  0.00    -0.550 OA
ATOM      7  O   UNL     1      -0.927   2.335  -4.370  1.00  0.00    -0.550 OA
ENDBRANCH   4   5
ENDBRANCH   3   4
ENDBRANCH   2   3
ENDBRANCH   1   2
BRANCH   1   8
ATOM      8  C   UNL     1      -1.485   7.265  -4.090  1.00  0.00     0.000 C 
BRANCH   8   9
ATOM      9  C   UNL     1      -2.502   8.320  -3.621  1.00  0.00     0.006 C 
BRANCH   9  10
ATOM     10  C   UNL     1      -3.047   8.016  -2.221  1.00  0.00     0.053 C 
BRANCH  10  11
ATOM     11  C   UNL     1      -4.531   8.213  -2.149  1.00  0.00     0.041 C 
ATOM     12  O   UNL     1      -5.169   7.861  -1.122  1.00  0.00    -0.550 OA
ATOM     13  O   UNL     1      -5.214   8.752  -3.232  1.00  0.00    -0.550 OA
ENDBRANCH  10  11
ENDBRANCH   9  10
ENDBRANCH   8   9
ENDBRANCH   1   8
TORSDOF 8
ENDMDL
MODEL 5
REMARK VINA RESULT:    -3.388      4.242      6.050
REMARK INTER + INTRA:          -5.312
REMARK INTER:                  -4.849
REMARK INTRA:                  -0.463
REMARK UNBOUND:                -0.340
REMARK SMILES O=C([O-])CCCCCCCC(=O)[O-]
REMARK SMILES IDX 7 1 6 2 5 3 4 4 2 5 1 6 3 7 8 8 9 9 10 10 11 11 12 12 13 13
REMARK H PARENT
REMARK Flexibility Score: inf
ROOT
ATOM      1  C   UNL     1      -1.898   8.132   0.040  1.00  0.00     0.000 C 
ENDROOT
BRANCH   1   2
ATOM      2  C   UNL     1      -0.909   8.831   0.992  1.00  0.00     0.000 C 
BRANCH   2   3
ATOM      3  C   UNL     1      -1.305  10.283   1.308  1.00  0.00     0.006 C 
BRANCH   3   4
ATOM      4  C   UNL     1      -2.203  10.383   2.547  1.00  0.00     0.053 C 
BRANCH   4   5
ATOM      5  C   UNL     1      -3.629  10.664   2.180  1.00  0.00     0.041 C 
ATOM      6  O   UNL     1      -4.512  10.738   3.073  1.00  0.00    -0.550 OA
ATOM      7  O   UNL     1      -3.975  10.873   0.851  1.00  0.00    -0.550 OA
ENDBRANCH   4   5
ENDBRANCH   3   4
ENDBRANCH   2   3
ENDBRANCH   1   2
BRANCH   1   8
ATOM      8  C   UNL     1      -1.252   7.421  -1.162  1.00  0.00     0.000 C 
BRANCH   8   9
ATOM      9  C   UNL     1      -1.940   7.754  -2.497  1.00  0.00     0.006 C 
BRANCH   9  10
ATOM     10  C   UNL     1      -3.058   8.789  -2.330  1.00  0.00     0.053 C 
BRANCH  10  11
ATOM     11  C   UNL     1      -4.414   8.175  -2.504  1.00  0.00     0.041 C 
ATOM     12  O   UNL     1      -4.767   7.727  -3.626  1.00  0.00    -0.550 OA
ATOM     13  O   UNL     1      -5.300   8.130  -1.435  1.00  0.00    -0.550 OA
ENDBRANCH  10  11
ENDBRANCH   9  10
ENDBRANCH   8   9
ENDBRANCH   1   8
TORSDOF 8
ENDMDL
MODEL 6
REMARK VINA RESULT:    -3.386      4.253      6.140
REMARK INTER + INTRA:          -5.309
REMARK INTER:                  -4.458
REMARK INTRA:                  -0.850
REMARK UNBOUND:                -0.340
REMARK SMILES O=C([O-])CCCCCCCC(=O)[O-]
REMARK SMILES IDX 7 1 6 2 5 3 4 4 2 5 1 6 3 7 8 8 9 9 10 10 11 11 12 12 13 13
REMARK H PARENT
REMARK Flexibility Score: inf
ROOT
ATOM      1  C   UNL     1      -1.428   7.426  -2.874  1.00  0.00     0.000 C 
ENDROOT
BRANCH   1   2
ATOM      2  C   UNL     1      -1.809   8.823  -3.400  1.00  0.00     0.000 C 
BRANCH   2   3
ATOM      3  C   UNL     1      -3.075   8.811  -4.273  1.00  0.00     0.006 C 
BRANCH   3   4
ATOM      4  C   UNL     1      -4.152   7.871  -3.718  1.00  0.00     0.053 C 
BRANCH   4   5
ATOM      5  C   UNL     1      -4.883   8.482  -2.562  1.00  0.00     0.041 C 
ATOM      6  O   UNL     1      -5.396   9.627  -2.668  1.00  0.00    -0.550 OA
ATOM      7  O   UNL     1      -5.021   7.774  -1.374  1.00  0.00    -0.550 OA
ENDBRANCH   4   5
ENDBRANCH   3   4
ENDBRANCH   2   3
ENDBRANCH   1   2
BRANCH   1   8
ATOM      8  C   UNL     1      -1.281   7.325  -1.345  1.00  0.00     0.000 C 
BRANCH   8   9
ATOM      9  C   UNL     1      -1.194   8.699  -0.658  1.00  0.00     0.006 C 
BRANCH   9  10
ATOM     10  C   UNL     1      -2.073   8.776   0.596  1.00  0.00     0.053 C 
BRANCH  10  11
ATOM     11  C   UNL     1      -3.072   9.889   0.505  1.00  0.00     0.041 C 
ATOM     12  O   UNL     1      -3.044  10.688  -0.467  1.00  0.00    -0.550 OA
ATOM     13  O   UNL     1      -4.011  10.065   1.514  1.00  0.00    -0.550 OA
ENDBRANCH  10  11
ENDBRANCH   9  10
ENDBRANCH   8   9
ENDBRANCH   1   8
TORSDOF 8
ENDMDL
MODEL 7
REMARK VINA RESULT:    -3.371      4.356      5.658
REMARK INTER + INTRA:          -5.287
REMARK INTER:                  -4.684
REMARK INTRA:                  -0.604
REMARK UNBOUND:                -0.340
REMARK SMILES O=C([O-])CCCCCCCC(=O)[O-]
REMARK SMILES IDX 7 1 6 2 5 3 4 4 2 5 1 6 3 7 8 8 9 9 10 10 11 11 12 12 13 13
REMARK H PARENT
REMARK Flexibility Score: inf
ROOT
ATOM      1  C   UNL     1      -1.404   7.498  -2.582  1.00  0.00     0.000 C 
ENDROOT
BRANCH   1   2
ATOM      2  C   UNL     1      -1.285   7.483  -1.046  1.00  0.00     0.000 C 
BRANCH   2   3
ATOM      3  C   UNL     1      -1.475   8.873  -0.416  1.00  0.00     0.006 C 
BRANCH   3   4
ATOM      4  C   UNL     1      -1.494   8.818   1.116  1.00  0.00     0.053 C 
BRANCH   4   5
ATOM      5  C   UNL     1      -2.460   9.805   1.697  1.00  0.00     0.041 C 
ATOM      6  O   UNL     1      -2.078  10.632   2.566  1.00  0.00    -0.550 OA
ATOM      7  O   UNL     1      -3.778   9.828   1.258  1.00  0.00    -0.550 OA
ENDBRANCH   4   5
ENDBRANCH   3   4
ENDBRANCH   2   3
ENDBRANCH   1   2
BRANCH   1   8
ATOM      8  C   UNL     1      -2.064   8.757  -3.171  1.00  0.00     0.000 C 
BRANCH   8   9
ATOM      9  C   UNL     1      -3.139   8.435  -4.224  1.00  0.00     0.006 C 
BRANCH   9  10
ATOM     10  C   UNL     1      -4.368   7.756  -3.608  1.00  0.00     0.053 C 
BRANCH  10  11
ATOM     11  C   UNL     1      -4.883   8.514  -2.422  1.00  0.00     0.041 C 
ATOM     12  O   UNL     1      -4.952   7.957  -1.295  1.00  0.00    -0.550 OA
ATOM     13  O   UNL     1      -5.320   9.824  -2.571  1.00  0.00    -0.550 OA
ENDBRANCH  10  11
ENDBRANCH   9  10
ENDBRANCH   8   9
ENDBRANCH   1   8
TORSDOF 8
ENDMDL
MODEL 8
REMARK VINA RESULT:    -3.359      3.031      4.305
REMARK INTER + INTRA:          -5.270
REMARK INTER:                  -4.548
REMARK INTRA:                  -0.722
REMARK UNBOUND:                -0.340
REMARK SMILES O=C([O-])CCCCCCCC(=O)[O-]
REMARK SMILES IDX 7 1 6 2 5 3 4 4 2 5 1 6 3 7 8 8 9 9 10 10 11 11 12 12 13 13
REMARK H PARENT
REMARK Flexibility Score: inf
ROOT
ATOM      1  C   UNL     1      -1.919   8.252  -0.686  1.00  0.00     0.000 C 
ENDROOT
BRANCH   1   2
ATOM      2  C   UNL     1      -2.787   9.032   0.319  1.00  0.00     0.000 C 
BRANCH   2   3
ATOM      3  C   UNL     1      -4.230   9.243  -0.172  1.00  0.00     0.006 C 
BRANCH   3   4
ATOM      4  C   UNL     1      -4.645   8.200  -1.217  1.00  0.00     0.053 C 
BRANCH   4   5
ATOM      5  C   UNL     1      -4.977   8.833  -2.534  1.00  0.00     0.041 C 
ATOM      6  O   UNL     1      -5.206  10.069  -2.606  1.00  0.00    -0.550 OA
ATOM      7  O   UNL     1      -5.007   8.060  -3.689  1.00  0.00    -0.550 OA
ENDBRANCH   4   5
ENDBRANCH   3   4
ENDBRANCH   2   3
ENDBRANCH   1   2
BRANCH   1   8
ATOM      8  C   UNL     1      -1.048   9.123  -1.607  1.00  0.00     0.000 C 
BRANCH   8   9
ATOM      9  C   UNL     1      -1.312   8.868  -3.102  1.00  0.00     0.006 C 
BRANCH   9  10
ATOM     10  C   UNL     1      -1.490   7.376  -3.411  1.00  0.00     0.053 C 
BRANCH  10  11
ATOM     11  C   UNL     1      -1.774   7.142  -4.863  1.00  0.00     0.041 C 
ATOM     12  O   UNL     1      -1.135   7.774  -5.745  1.00  0.00    -0.550 OA
ATOM     13  O   UNL     1      -2.770   6.250  -5.242  1.00  0.00    -0.550 OA
ENDBRANCH  10  11
ENDBRANCH   9  10
ENDBRANCH   8   9
ENDBRANCH   1   8
TORSDOF 8
ENDMDL
MODEL 9
REMARK VINA RESULT:    -3.313     15.153     17.094
REMARK INTER + INTRA:          -5.203
REMARK INTER:                  -4.920
REMARK INTRA:                  -0.283
REMARK UNBOUND:                -0.340
REMARK SMILES O=C([O-])CCCCCCCC(=O)[O-]
REMARK SMILES IDX 7 1 6 2 5 3 4 4 2 5 1 6 3 7 8 8 9 9 10 10 11 11 12 12 13 13
REMARK H PARENT
REMARK Flexibility Score: inf
ROOT
ATOM      1  C   UNL     1     -19.723   8.800  -5.296  1.00  0.00     0.000 C 
ENDROOT
BRANCH   1   2
ATOM      2  C   UNL     1     -19.650  10.281  -4.880  1.00  0.00     0.000 C 
BRANCH   2   3
ATOM      3  C   UNL     1     -18.223  10.853  -4.945  1.00  0.00     0.006 C 
BRANCH   3   4
ATOM      4  C   UNL     1     -17.358  10.135  -5.988  1.00  0.00     0.053 C 
BRANCH   4   5
ATOM      5  C   UNL     1     -15.895  10.344  -5.737  1.00  0.00     0.041 C 
ATOM      6  O   UNL     1     -15.335   9.799  -4.750  1.00  0.00    -0.550 OA
ATOM      7  O   UNL     1     -15.145  11.122  -6.611  1.00  0.00    -0.550 OA
ENDBRANCH   4   5
ENDBRANCH   3   4
ENDBRANCH   2   3
ENDBRANCH   1   2
BRANCH   1   8
ATOM      8  C   UNL     1     -21.125   8.304  -5.692  1.00  0.00     0.000 C 
BRANCH   8   9
ATOM      9  C   UNL     1     -21.099   6.948  -6.420  1.00  0.00     0.006 C 
BRANCH   9  10
ATOM     10  C   UNL     1     -20.687   5.801  -5.489  1.00  0.00     0.053 C 
BRANCH  10  11
ATOM     11  C   UNL     1     -20.333   4.564  -6.258  1.00  0.00     0.041 C 
ATOM     12  O   UNL     1     -20.745   4.411  -7.438  1.00  0.00    -0.550 OA
ATOM     13  O   UNL     1     -19.578   3.565  -5.657  1.00  0.00    -0.550 OA
ENDBRANCH  10  11
ENDBRANCH   9  10
ENDBRANCH   8   9
ENDBRANCH   1   8
TORSDOF 8
ENDMDL
