MODEL 1
REMARK VINA RESULT:    -4.704      0.000      0.000
REMARK INTER + INTRA:          -7.792
REMARK INTER:                  -7.178
REMARK INTRA:                  -0.614
REMARK UNBOUND:                -0.614
REMARK SMILES CCCCCCCCCCC(=O)[O-]
REMARK SMILES IDX 7 1 8 2 9 3 10 4 11 5 12 6 13 7 6 8 5 9 4 10 3 11 2 12 1 13
REMARK H PARENT
REMARK Flexibility Score: inf
ROOT
ATOM      1  C   UNL     1      14.541  23.840  29.364  1.00  0.00     0.000 C 
ENDROOT
BRANCH   1   2
ATOM      2  C   UNL     1      13.545  24.347  30.418  1.00  0.00     0.000 C 
BRANCH   2   3
ATOM      3  C   UNL     1      12.541  23.251  30.795  1.00  0.00     0.006 C 
BRANCH   3   4
ATOM      4  C   UNL     1      11.192  23.479  30.106  1.00  0.00     0.053 C 
BRANCH   4   5
ATOM      5  C   UNL     1      10.110  23.662  31.121  1.00  0.00     0.041 C 
ATOM      6  O   UNL     1      10.235  24.520  32.034  1.00  0.00    -0.550 OA
ATOM      7  O   UNL     1       8.940  22.917  31.032  1.00  0.00    -0.550 OA
ENDBRANCH   4   5
ENDBRANCH   3   4
ENDBRANCH   2   3
ENDBRANCH   1   2
BRANCH   1   8
ATOM      8  C   UNL     1      15.603  22.899  29.955  1.00  0.00     0.000 C 
BRANCH   8   9
ATOM      9  C   UNL     1      16.801  22.694  29.015  1.00  0.00    -0.000 C 
BRANCH   9  10
ATOM     10  C   UNL     1      16.588  21.471  28.114  1.00  0.00    -0.000 C 
BRANCH  10  11
ATOM     11  C   UNL     1      16.902  21.805  26.649  1.00  0.00    -0.000 C 
BRANCH  11  12
ATOM     12  C   UNL     1      15.635  22.032  25.810  1.00  0.00    -0.003 C 
ATOM     13  C   UNL     1      14.369  21.526  26.501  1.00  0.00     0.004 C 
ENDBRANCH  11  12
ENDBRANCH  10  11
ENDBRANCH   9  10
ENDBRANCH   8   9
ENDBRANCH   1   8
TORSDOF 9
ENDMDL
MODEL 2
REMARK VINA RESULT:    -4.689      1.457      2.403
REMARK INTER + INTRA:          -7.770
REMARK INTER:                  -6.631
REMARK INTRA:                  -1.139
REMARK UNBOUND:                -0.614
REMARK SMILES CCCCCCCCCCC(=O)[O-]
REMARK SMILES IDX 7 1 8 2 9 3 10 4 11 5 12 6 13 7 6 8 5 9 4 10 3 11 2 12 1 13
REMARK H PARENT
REMARK Flexibility Score: inf
ROOT
ATOM      1  C   UNL     1      14.689  21.598  29.522  1.00  0.00     0.000 C 
ENDROOT
BRANCH   1   2
ATOM      2  C   UNL     1      14.744  22.917  30.308  1.00  0.00     0.000 C 
BRANCH   2   3
ATOM      3  C   UNL     1      13.712  23.918  29.773  1.00  0.00     0.006 C 
BRANCH   3   4
ATOM      4  C   UNL     1      12.858  24.488  30.909  1.00  0.00     0.053 C 
BRANCH   4   5
ATOM      5  C   UNL     1      11.477  23.915  30.864  1.00  0.00     0.041 C 
ATOM      6  O   UNL     1      11.310  22.676  30.718  1.00  0.00    -0.550 OA
ATOM      7  O   UNL     1      10.375  24.743  31.032  1.00  0.00    -0.550 OA
ENDBRANCH   4   5
ENDBRANCH   3   4
ENDBRANCH   2   3
ENDBRANCH   1   2
BRANCH   1   8
ATOM      8  C   UNL     1      13.680  21.639  28.363  1.00  0.00     0.000 C 
BRANCH   8   9
ATOM      9  C   UNL     1      14.295  21.192  27.028  1.00  0.00    -0.000 C 
BRANCH   9  10
ATOM     10  C   UNL     1      15.750  21.664  26.909  1.00  0.00    -0.000 C 
BRANCH  10  11
ATOM     11  C   UNL     1      15.882  22.782  25.865  1.00  0.00    -0.000 C 
BRANCH  11  12
ATOM     12  C   UNL     1      16.281  24.128  26.487  1.00  0.00    -0.003 C 
ATOM     13  C   UNL     1      17.135  23.969  27.745  1.00  0.00     0.004 C 
ENDBRANCH  11  12
ENDBRANCH  10  11
ENDBRANCH   9  10
ENDBRANCH   8   9
ENDBRANCH   1   8
TORSDOF 9
ENDMDL
MODEL 3
REMARK VINA RESULT:    -4.663      2.332      3.014
REMARK INTER + INTRA:          -7.730
REMARK INTER:                  -6.695
REMARK INTRA:                  -1.034
REMARK UNBOUND:                -0.614
REMARK SMILES CCCCCCCCCCC(=O)[O-]
REMARK SMILES IDX 7 1 8 2 9 3 10 4 11 5 12 6 13 7 6 8 5 9 4 10 3 11 2 12 1 13
REMARK H PARENT
REMARK Flexibility Score: inf
ROOT
ATOM      1  C   UNL     1      15.188  21.784  29.876  1.00  0.00     0.000 C 
ENDROOT
BRANCH   1   2
ATOM      2  C   UNL     1      15.023  20.410  29.210  1.00  0.00     0.000 C 
BRANCH   2   3
ATOM      3  C   UNL     1      13.734  20.354  28.380  1.00  0.00     0.006 C 
BRANCH   3   4
ATOM      4  C   UNL     1      12.864  21.589  28.631  1.00  0.00     0.053 C 
BRANCH   4   5
ATOM      5  C   UNL     1      11.431  21.195  28.795  1.00  0.00     0.041 C 
ATOM      6  O   UNL     1      11.121  19.986  28.959  1.00  0.00    -0.550 OA
ATOM      7  O   UNL     1      10.440  22.168  28.817  1.00  0.00    -0.550 OA
ENDBRANCH   4   5
ENDBRANCH   3   4
ENDBRANCH   2   3
ENDBRANCH   1   2
BRANCH   1   8
ATOM      8  C   UNL     1      16.398  22.564  29.335  1.00  0.00     0.000 C 
BRANCH   8   9
ATOM      9  C   UNL     1      15.987  23.787  28.500  1.00  0.00    -0.000 C 
BRANCH   9  10
ATOM     10  C   UNL     1      16.668  23.766  27.126  1.00  0.00    -0.000 C 
BRANCH  10  11
ATOM     11  C   UNL     1      16.717  22.341  26.558  1.00  0.00    -0.000 C 
BRANCH  11  12
ATOM     12  C   UNL     1      15.534  22.035  25.626  1.00  0.00    -0.003 C 
ATOM     13  C   UNL     1      15.920  22.081  24.147  1.00  0.00     0.004 C 
ENDBRANCH  11  12
ENDBRANCH  10  11
ENDBRANCH   9  10
ENDBRANCH   8   9
ENDBRANCH   1   8
TORSDOF 9
ENDMDL
MODEL 4
REMARK VINA RESULT:    -4.583      1.508      1.892
REMARK INTER + INTRA:          -7.608
REMARK INTER:                  -7.138
REMARK INTRA:                  -0.470
REMARK UNBOUND:                -0.614
REMARK SMILES CCCCCCCCCCC(=O)[O-]
REMARK SMILES IDX 7 1 8 2 9 3 10 4 11 5 12 6 13 7 6 8 5 9 4 10 3 11 2 12 1 13
REMARK H PARENT
REMARK Flexibility Score: inf
ROOT
ATOM      1  C   UNL     1      13.990  23.722  30.253  1.00  0.00     0.000 C 
ENDROOT
BRANCH   1   2
ATOM      2  C   UNL     1      12.695  24.544  30.184  1.00  0.00     0.000 C 
BRANCH   2   3
ATOM      3  C   UNL     1      11.649  24.004  31.168  1.00  0.00     0.006 C 
BRANCH   3   4
ATOM      4  C   UNL     1      11.368  22.520  30.913  1.00  0.00     0.053 C 
BRANCH   4   5
ATOM      5  C   UNL     1      10.332  22.359  29.846  1.00  0.00     0.041 C 
ATOM      6  O   UNL     1      10.673  22.076  28.669  1.00  0.00    -0.550 OA
ATOM      7  O   UNL     1       8.984  22.476  30.163  1.00  0.00    -0.550 OA
ENDBRANCH   4   5
ENDBRANCH   3   4
ENDBRANCH   2   3
ENDBRANCH   1   2
BRANCH   1   8
ATOM      8  C   UNL     1      14.710  23.633  28.897  1.00  0.00     0.000 C 
BRANCH   8   9
ATOM      9  C   UNL     1      16.178  23.201  29.034  1.00  0.00    -0.000 C 
BRANCH   9  10
ATOM     10  C   UNL     1      17.010  23.705  27.848  1.00  0.00    -0.000 C 
BRANCH  10  11
ATOM     11  C   UNL     1      16.233  23.564  26.531  1.00  0.00    -0.000 C 
BRANCH  11  12
ATOM     12  C   UNL     1      16.459  22.204  25.853  1.00  0.00    -0.003 C 
ATOM     13  C   UNL     1      15.916  22.157  24.426  1.00  0.00     0.004 C 
ENDBRANCH  11  12
ENDBRANCH  10  11
ENDBRANCH   9  10
ENDBRANCH   8   9
ENDBRANCH   1   8
TORSDOF 9
ENDMDL
MODEL 5
REMARK VINA RESULT:    -4.489      1.656      3.252
REMARK INTER + INTRA:          -7.464
REMARK INTER:                  -6.156
REMARK INTRA:                  -1.308
REMARK UNBOUND:                -0.614
REMARK SMILES CCCCCCCCCCC(=O)[O-]
REMARK SMILES IDX 7 1 8 2 9 3 10 4 11 5 12 6 13 7 6 8 5 9 4 10 3 11 2 12 1 13
REMARK H PARENT
REMARK Flexibility Score: inf
ROOT
ATOM      1  C   UNL     1      14.033  21.498  27.039  1.00  0.00     0.000 C 
ENDROOT
BRANCH   1   2
ATOM      2  C   UNL     1      14.450  20.719  28.295  1.00  0.00     0.000 C 
BRANCH   2   3
ATOM      3  C   UNL     1      13.528  21.047  29.475  1.00  0.00     0.006 C 
BRANCH   3   4
ATOM      4  C   UNL     1      13.256  22.552  29.560  1.00  0.00     0.053 C 
BRANCH   4   5
ATOM      5  C   UNL     1      11.797  22.810  29.766  1.00  0.00     0.041 C 
ATOM      6  O   UNL     1      11.395  23.958  30.090  1.00  0.00    -0.550 OA
ATOM      7  O   UNL     1      10.875  21.792  29.554  1.00  0.00    -0.550 OA
ENDBRANCH   4   5
ENDBRANCH   3   4
ENDBRANCH   2   3
ENDBRANCH   1   2
BRANCH   1   8
ATOM      8  C   UNL     1      15.226  21.842  26.131  1.00  0.00     0.000 C 
BRANCH   8   9
ATOM      9  C   UNL     1      16.547  21.953  26.908  1.00  0.00    -0.000 C 
BRANCH   9  10
ATOM     10  C   UNL     1      16.857  23.415  27.255  1.00  0.00    -0.000 C 
BRANCH  10  11
ATOM     11  C   UNL     1      16.739  23.659  28.766  1.00  0.00    -0.000 C 
BRANCH  11  12
ATOM     12  C   UNL     1      17.412  22.556  29.597  1.00  0.00    -0.003 C 
ATOM     13  C   UNL     1      16.696  22.294  30.922  1.00  0.00     0.004 C 
ENDBRANCH  11  12
ENDBRANCH  10  11
ENDBRANCH   9  10
ENDBRANCH   8   9
ENDBRANCH   1   8
TORSDOF 9
ENDMDL
MODEL 6
REMARK VINA RESULT:    -4.475     22.050     23.271
REMARK INTER + INTRA:          -7.443
REMARK INTER:                  -6.351
REMARK INTRA:                  -1.091
REMARK UNBOUND:                -0.614
REMARK SMILES CCCCCCCCCCC(=O)[O-]
REMARK SMILES IDX 7 1 8 2 9 3 10 4 11 5 12 6 13 7 6 8 5 9 4 10 3 11 2 12 1 13
REMARK H PARENT
REMARK Flexibility Score: inf
ROOT
ATOM      1  C   UNL     1       1.851  37.950  13.416  1.00  0.00     0.000 C 
ENDROOT
BRANCH   1   2
ATOM      2  C   UNL     1       3.109  37.991  14.297  1.00  0.00     0.000 C 
BRANCH   2   3
ATOM      3  C   UNL     1       2.982  37.025  15.480  1.00  0.00     0.006 C 
BRANCH   3   4
ATOM      4  C   UNL     1       3.806  35.755  15.245  1.00  0.00     0.053 C 
BRANCH   4   5
ATOM      5  C   UNL     1       5.113  35.838  15.969  1.00  0.00     0.041 C 
ATOM      6  O   UNL     1       5.990  36.663  15.602  1.00  0.00    -0.550 OA
ATOM      7  O   UNL     1       5.344  35.036  17.080  1.00  0.00    -0.550 OA
ENDBRANCH   4   5
ENDBRANCH   3   4
ENDBRANCH   2   3
ENDBRANCH   1   2
BRANCH   1   8
ATOM      8  C   UNL     1       1.912  36.849  12.344  1.00  0.00     0.000 C 
BRANCH   8   9
ATOM      9  C   UNL     1       0.606  36.047  12.244  1.00  0.00    -0.000 C 
BRANCH   9  10
ATOM     10  C   UNL     1       0.488  35.044  13.399  1.00  0.00    -0.000 C 
BRANCH  10  11
ATOM     11  C   UNL     1      -0.735  35.353  14.273  1.00  0.00    -0.000 C 
BRANCH  11  12
ATOM     12  C   UNL     1      -0.354  35.728  15.713  1.00  0.00    -0.003 C 
ATOM     13  C   UNL     1       0.279  34.566  16.479  1.00  0.00     0.004 C 
ENDBRANCH  11  12
ENDBRANCH  10  11
ENDBRANCH   9  10
ENDBRANCH   8   9
ENDBRANCH   1   8
TORSDOF 9
ENDMDL
MODEL 7
REMARK VINA RESULT:    -4.447     22.563     23.806
REMARK INTER + INTRA:          -7.401
REMARK INTER:                  -6.084
REMARK INTRA:                  -1.317
REMARK UNBOUND:                -0.614
REMARK SMILES CCCCCCCCCCC(=O)[O-]
REMARK SMILES IDX 7 1 8 2 9 3 10 4 11 5 12 6 13 7 6 8 5 9 4 10 3 11 2 12 1 13
REMARK H PARENT
REMARK Flexibility Score: inf
ROOT
ATOM      1  C   UNL     1       2.150  37.263  12.662  1.00  0.00     0.000 C 
ENDROOT
BRANCH   1   2
ATOM      2  C   UNL     1       2.068  38.213  13.866  1.00  0.00     0.000 C 
BRANCH   2   3
ATOM      3  C   UNL     1       2.336  37.464  15.176  1.00  0.00     0.006 C 
BRANCH   3   4
ATOM      4  C   UNL     1       3.214  36.232  14.936  1.00  0.00     0.053 C 
BRANCH   4   5
ATOM      5  C   UNL     1       4.547  36.403  15.593  1.00  0.00     0.041 C 
ATOM      6  O   UNL     1       5.125  35.417  16.120  1.00  0.00    -0.550 OA
ATOM      7  O   UNL     1       5.174  37.643  15.580  1.00  0.00    -0.550 OA
ENDBRANCH   4   5
ENDBRANCH   3   4
ENDBRANCH   2   3
ENDBRANCH   1   2
BRANCH   1   8
ATOM      8  C   UNL     1       0.772  36.958  12.051  1.00  0.00     0.000 C 
BRANCH   8   9
ATOM      9  C   UNL     1       0.462  35.454  12.013  1.00  0.00    -0.000 C 
BRANCH   9  10
ATOM     10  C   UNL     1       0.134  34.925  13.415  1.00  0.00    -0.000 C 
BRANCH  10  11
ATOM     11  C   UNL     1      -0.971  35.763  14.074  1.00  0.00    -0.000 C 
BRANCH  11  12
ATOM     12  C   UNL     1      -0.903  35.729  15.609  1.00  0.00    -0.003 C 
ATOM     13  C   UNL     1      -0.031  34.590  16.137  1.00  0.00     0.004 C 
ENDBRANCH  11  12
ENDBRANCH  10  11
ENDBRANCH   9  10
ENDBRANCH   8   9
ENDBRANCH   1   8
TORSDOF 9
ENDMDL
MODEL 8
REMARK VINA RESULT:    -4.439     22.301     23.416
REMARK INTER + INTRA:          -7.389
REMARK INTER:                  -6.226
REMARK INTRA:                  -1.163
REMARK UNBOUND:                -0.614
REMARK SMILES CCCCCCCCCCC(=O)[O-]
REMARK SMILES IDX 7 1 8 2 9 3 10 4 11 5 12 6 13 7 6 8 5 9 4 10 3 11 2 12 1 13
REMARK H PARENT
REMARK Flexibility Score: inf
ROOT
ATOM      1  C   UNL     1       0.539  35.977  12.276  1.00  0.00     0.000 C 
ENDROOT
BRANCH   1   2
ATOM      2  C   UNL     1       0.515  34.965  13.432  1.00  0.00     0.000 C 
BRANCH   2   3
ATOM      3  C   UNL     1      -0.533  35.354  14.481  1.00  0.00     0.006 C 
BRANCH   3   4
ATOM      4  C   UNL     1       0.130  35.711  15.815  1.00  0.00     0.053 C 
BRANCH   4   5
ATOM      5  C   UNL     1      -0.016  34.586  16.789  1.00  0.00     0.041 C 
ATOM      6  O   UNL     1       1.002  33.980  17.215  1.00  0.00    -0.550 OA
ATOM      7  O   UNL     1      -1.274  34.236  17.265  1.00  0.00    -0.550 OA
ENDBRANCH   4   5
ENDBRANCH   3   4
ENDBRANCH   2   3
ENDBRANCH   1   2
BRANCH   1   8
ATOM      8  C   UNL     1       1.756  36.915  12.333  1.00  0.00     0.000 C 
BRANCH   8   9
ATOM      9  C   UNL     1       1.462  38.219  13.090  1.00  0.00    -0.000 C 
BRANCH   9  10
ATOM     10  C   UNL     1       2.693  38.685  13.878  1.00  0.00    -0.000 C 
BRANCH  10  11
ATOM     11  C   UNL     1       2.782  37.969  15.233  1.00  0.00    -0.000 C 
BRANCH  11  12
ATOM     12  C   UNL     1       4.038  37.093  15.358  1.00  0.00    -0.003 C 
ATOM     13  C   UNL     1       3.720  35.598  15.338  1.00  0.00     0.004 C 
ENDBRANCH  11  12
ENDBRANCH  10  11
ENDBRANCH   9  10
ENDBRANCH   8   9
ENDBRANCH   1   8
TORSDOF 9
ENDMDL
MODEL 9
REMARK VINA RESULT:    -4.436      3.971      6.317
REMARK INTER + INTRA:          -7.384
REMARK INTER:                  -6.479
REMARK INTRA:                  -0.904
REMARK UNBOUND:                -0.614
REMARK SMILES CCCCCCCCCCC(=O)[O-]
REMARK SMILES IDX 7 1 8 2 9 3 10 4 11 5 12 6 13 7 6 8 5 9 4 10 3 11 2 12 1 13
REMARK H PARENT
REMARK Flexibility Score: inf
ROOT
ATOM      1  C   UNL     1      14.000  20.243  28.713  1.00  0.00     0.000 C 
ENDROOT
BRANCH   1   2
ATOM      2  C   UNL     1      14.137  21.140  27.474  1.00  0.00     0.000 C 
BRANCH   2   3
ATOM      3  C   UNL     1      15.317  22.108  27.625  1.00  0.00     0.006 C 
BRANCH   3   4
ATOM      4  C   UNL     1      16.365  21.873  26.532  1.00  0.00     0.053 C 
BRANCH   4   5
ATOM      5  C   UNL     1      16.115  22.775  25.366  1.00  0.00     0.041 C 
ATOM      6  O   UNL     1      16.156  24.024  25.510  1.00  0.00    -0.550 OA
ATOM      7  O   UNL     1      15.885  22.235  24.106  1.00  0.00    -0.550 OA
ENDBRANCH   4   5
ENDBRANCH   3   4
ENDBRANCH   2   3
ENDBRANCH   1   2
BRANCH   1   8
ATOM      8  C   UNL     1      12.821  20.651  29.612  1.00  0.00     0.000 C 
BRANCH   8   9
ATOM      9  C   UNL     1      11.616  21.167  28.810  1.00  0.00    -0.000 C 
BRANCH   9  10
ATOM     10  C   UNL     1      11.022  22.423  29.461  1.00  0.00    -0.000 C 
BRANCH  10  11
ATOM     11  C   UNL     1      11.783  22.792  30.742  1.00  0.00    -0.000 C 
BRANCH  11  12
ATOM     12  C   UNL     1      12.316  24.232  30.719  1.00  0.00    -0.003 C 
ATOM     13  C   UNL     1      13.617  24.369  29.927  1.00  0.00     0.004 C 
ENDBRANCH  11  12
ENDBRANCH  10  11
ENDBRANCH   9  10
ENDBRANCH   8   9
ENDBRANCH   1   8
TORSDOF 9
ENDMDL
