MODEL 1
REMARK VINA RESULT:    -4.440      0.000      0.000
REMARK INTER + INTRA:          -4.569
REMARK INTER:                  -4.569
REMARK INTRA:                   0.000
REMARK UNBOUND:                 0.000
REMARK SMILES C[C@H]1CC[C@H]2C(C)(C)[C@H]3C[C@@]12CC[C@@]3(C)O
REMARK SMILES IDX 1 1 2 2 3 3 4 4 5 5 11 6 12 7 13 8 14 9 9 10 10 11 6 12 7 13
REMARK SMILES IDX 8 14 15 15 16 16
REMARK H PARENT 16 17
REMARK Flexibility Score: inf
ROOT
ATOM      1  C   UNL     1       2.702   4.064  -4.720  1.00  0.00     0.008 C 
ATOM      2  C   UNL     1       1.961   2.835  -5.273  1.00  0.00    -0.008 C 
ATOM      3  C   UNL     1       1.493   1.911  -4.140  1.00  0.00     0.004 C 
ATOM      4  C   UNL     1       0.004   2.162  -3.989  1.00  0.00     0.005 C 
ATOM      5  C   UNL     1      -0.491   2.440  -5.415  1.00  0.00     0.001 C 
ATOM      6  C   UNL     1       0.686   3.142  -6.124  1.00  0.00    -0.023 C 
ATOM      7  C   UNL     1       0.858   2.640  -7.587  1.00  0.00     0.010 C 
ATOM      8  C   UNL     1      -0.432   2.760  -8.432  1.00  0.00     0.036 C 
ATOM      9  C   UNL     1      -1.273   4.052  -8.152  1.00  0.00     0.065 C 
ATOM     10  C   UNL     1      -1.229   4.451  -6.624  1.00  0.00     0.027 C 
ATOM     11  C   UNL     1       0.234   4.603  -6.195  1.00  0.00     0.014 C 
ATOM     12  C   UNL     1      -1.745   3.369  -5.604  1.00  0.00    -0.026 C 
ATOM     13  C   UNL     1      -2.206   4.089  -4.304  1.00  0.00     0.012 C 
ATOM     14  C   UNL     1      -2.972   2.546  -6.073  1.00  0.00     0.012 C 
ATOM     15  C   UNL     1      -0.741   5.212  -9.033  1.00  0.00     0.042 C 
ENDROOT
BRANCH   9  16
ATOM     16  O   UNL     1      -2.616   3.843  -8.522  1.00  0.00    -0.390 OA
ATOM     17  H   UNL     1      -2.954   3.044  -8.036  1.00  0.00     0.211 HD
ENDBRANCH   9  16
TORSDOF 1
ENDMDL
MODEL 2
REMARK VINA RESULT:    -4.292      1.688      4.140
REMARK INTER + INTRA:          -4.418
REMARK INTER:                  -4.418
REMARK INTRA:                   0.000
REMARK UNBOUND:                 0.000
REMARK SMILES C[C@H]1CC[C@H]2C(C)(C)[C@H]3C[C@@]12CC[C@@]3(C)O
REMARK SMILES IDX 1 1 2 2 3 3 4 4 5 5 11 6 12 7 13 8 14 9 9 10 10 11 6 12 7 13
REMARK SMILES IDX 8 14 15 15 16 16
REMARK H PARENT 16 17
REMARK Flexibility Score: inf
ROOT
ATOM      1  C   UNL     1      -1.376   4.807  -9.818  1.00  0.00     0.008 C 
ATOM      2  C   UNL     1      -1.341   3.415  -9.164  1.00  0.00    -0.008 C 
ATOM      3  C   UNL     1      -0.147   2.593  -9.668  1.00  0.00     0.004 C 
ATOM      4  C   UNL     1       0.882   2.631  -8.554  1.00  0.00     0.005 C 
ATOM      5  C   UNL     1       0.056   2.633  -7.260  1.00  0.00     0.001 C 
ATOM      6  C   UNL     1      -1.235   3.404  -7.605  1.00  0.00    -0.023 C 
ATOM      7  C   UNL     1      -2.489   2.740  -6.964  1.00  0.00     0.010 C 
ATOM      8  C   UNL     1      -2.366   2.545  -5.435  1.00  0.00     0.036 C 
ATOM      9  C   UNL     1      -1.647   3.719  -4.687  1.00  0.00     0.065 C 
ATOM     10  C   UNL     1      -0.473   4.324  -5.553  1.00  0.00     0.027 C 
ATOM     11  C   UNL     1      -1.034   4.755  -6.913  1.00  0.00     0.014 C 
ATOM     12  C   UNL     1       0.663   3.324  -5.986  1.00  0.00    -0.026 C 
ATOM     13  C   UNL     1       1.963   4.135  -6.260  1.00  0.00     0.012 C 
ATOM     14  C   UNL     1       1.058   2.267  -4.923  1.00  0.00     0.012 C 
ATOM     15  C   UNL     1      -2.684   4.816  -4.334  1.00  0.00     0.042 C 
ENDROOT
BRANCH   9  16
ATOM     16  O   UNL     1      -1.112   3.258  -3.468  1.00  0.00    -0.390 OA
ATOM     17  H   UNL     1      -1.188   2.267  -3.447  1.00  0.00     0.211 HD
ENDBRANCH   9  16
TORSDOF 1
ENDMDL
MODEL 3
REMARK VINA RESULT:    -4.240      1.764      3.461
REMARK INTER + INTRA:          -4.363
REMARK INTER:                  -4.363
REMARK INTRA:                   0.000
REMARK UNBOUND:                 0.000
REMARK SMILES C[C@H]1CC[C@H]2C(C)(C)[C@H]3C[C@@]12CC[C@@]3(C)O
REMARK SMILES IDX 1 1 2 2 3 3 4 4 5 5 11 6 12 7 13 8 14 9 9 10 10 11 6 12 7 13
REMARK SMILES IDX 8 14 15 15 16 16
REMARK H PARENT 16 17
REMARK Flexibility Score: inf
ROOT
ATOM      1  C   UNL     1       0.195   1.851  -4.026  1.00  0.00     0.008 C 
ATOM      2  C   UNL     1       0.423   3.081  -4.921  1.00  0.00    -0.008 C 
ATOM      3  C   UNL     1       1.034   2.681  -6.271  1.00  0.00     0.004 C 
ATOM      4  C   UNL     1      -0.104   2.741  -7.274  1.00  0.00     0.005 C 
ATOM      5  C   UNL     1      -0.979   3.910  -6.801  1.00  0.00     0.001 C 
ATOM      6  C   UNL     1      -0.855   3.914  -5.264  1.00  0.00    -0.023 C 
ATOM      7  C   UNL     1      -0.746   5.361  -4.700  1.00  0.00     0.010 C 
ATOM      8  C   UNL     1      -1.902   6.283  -5.152  1.00  0.00     0.036 C 
ATOM      9  C   UNL     1      -3.302   5.584  -5.220  1.00  0.00     0.065 C 
ATOM     10  C   UNL     1      -3.179   4.088  -5.714  1.00  0.00     0.027 C 
ATOM     11  C   UNL     1      -2.199   3.345  -4.800  1.00  0.00     0.014 C 
ATOM     12  C   UNL     1      -2.517   3.871  -7.126  1.00  0.00    -0.026 C 
ATOM     13  C   UNL     1      -3.012   2.515  -7.706  1.00  0.00     0.012 C 
ATOM     14  C   UNL     1      -2.878   4.930  -8.199  1.00  0.00     0.012 C 
ATOM     15  C   UNL     1      -3.974   5.641  -3.823  1.00  0.00     0.042 C 
ENDROOT
BRANCH   9  16
ATOM     16  O   UNL     1      -4.147   6.280  -6.107  1.00  0.00    -0.390 OA
ATOM     17  H   UNL     1      -3.996   5.928  -7.024  1.00  0.00     0.211 HD
ENDBRANCH   9  16
TORSDOF 1
ENDMDL
MODEL 4
REMARK VINA RESULT:    -4.178      1.750      3.903
REMARK INTER + INTRA:          -4.300
REMARK INTER:                  -4.300
REMARK INTRA:                   0.000
REMARK UNBOUND:                 0.000
REMARK SMILES C[C@H]1CC[C@H]2C(C)(C)[C@H]3C[C@@]12CC[C@@]3(C)O
REMARK SMILES IDX 1 1 2 2 3 3 4 4 5 5 11 6 12 7 13 8 14 9 9 10 10 11 6 12 7 13
REMARK SMILES IDX 8 14 15 15 16 16
REMARK H PARENT 16 17
REMARK Flexibility Score: inf
ROOT
ATOM      1  C   UNL     1       2.783   5.877  -6.671  1.00  0.00     0.008 C 
ATOM      2  C   UNL     1       1.302   6.109  -6.327  1.00  0.00    -0.008 C 
ATOM      3  C   UNL     1       0.552   6.753  -7.501  1.00  0.00     0.004 C 
ATOM      4  C   UNL     1      -0.251   5.637  -8.141  1.00  0.00     0.005 C 
ATOM      5  C   UNL     1      -0.670   4.736  -6.971  1.00  0.00     0.001 C 
ATOM      6  C   UNL     1       0.487   4.828  -5.955  1.00  0.00    -0.023 C 
ATOM      7  C   UNL     1      -0.038   4.905  -4.492  1.00  0.00     0.010 C 
ATOM      8  C   UNL     1      -0.994   3.747  -4.122  1.00  0.00     0.036 C 
ATOM      9  C   UNL     1      -0.596   2.358  -4.726  1.00  0.00     0.065 C 
ATOM     10  C   UNL     1       0.015   2.512  -6.175  1.00  0.00     0.027 C 
ATOM     11  C   UNL     1       1.200   3.481  -6.111  1.00  0.00     0.014 C 
ATOM     12  C   UNL     1      -0.901   3.206  -7.250  1.00  0.00    -0.026 C 
ATOM     13  C   UNL     1      -0.450   2.741  -8.665  1.00  0.00     0.012 C 
ATOM     14  C   UNL     1      -2.408   2.854  -7.166  1.00  0.00     0.012 C 
ATOM     15  C   UNL     1       0.414   1.656  -3.782  1.00  0.00     0.042 C 
ENDROOT
BRANCH   9  16
ATOM     16  O   UNL     1      -1.728   1.523  -4.805  1.00  0.00    -0.390 OA
ATOM     17  H   UNL     1      -2.209   1.726  -5.651  1.00  0.00     0.211 HD
ENDBRANCH   9  16
TORSDOF 1
ENDMDL
MODEL 5
REMARK VINA RESULT:    -4.163      1.769      3.989
REMARK INTER + INTRA:          -4.285
REMARK INTER:                  -4.285
REMARK INTRA:                   0.000
REMARK UNBOUND:                 0.000
REMARK SMILES C[C@H]1CC[C@H]2C(C)(C)[C@H]3C[C@@]12CC[C@@]3(C)O
REMARK SMILES IDX 1 1 2 2 3 3 4 4 5 5 11 6 12 7 13 8 14 9 9 10 10 11 6 12 7 13
REMARK SMILES IDX 8 14 15 15 16 16
REMARK H PARENT 16 17
REMARK Flexibility Score: inf
ROOT
ATOM      1  C   UNL     1       1.406   3.475  -9.461  1.00  0.00     0.008 C 
ATOM      2  C   UNL     1       0.962   4.588  -8.497  1.00  0.00    -0.008 C 
ATOM      3  C   UNL     1      -0.175   5.425  -9.098  1.00  0.00     0.004 C 
ATOM      4  C   UNL     1      -1.443   4.959  -8.406  1.00  0.00     0.005 C 
ATOM      5  C   UNL     1      -1.005   4.623  -6.974  1.00  0.00     0.001 C 
ATOM      6  C   UNL     1       0.442   4.106  -7.103  1.00  0.00    -0.023 C 
ATOM      7  C   UNL     1       1.348   4.639  -5.955  1.00  0.00     0.010 C 
ATOM      8  C   UNL     1       0.789   4.339  -4.544  1.00  0.00     0.036 C 
ATOM      9  C   UNL     1       0.106   2.936  -4.401  1.00  0.00     0.065 C 
ATOM     10  C   UNL     1      -0.673   2.536  -5.716  1.00  0.00     0.027 C 
ATOM     11  C   UNL     1       0.295   2.595  -6.902  1.00  0.00     0.014 C 
ATOM     12  C   UNL     1      -1.805   3.523  -6.186  1.00  0.00    -0.026 C 
ATOM     13  C   UNL     1      -2.827   2.734  -7.054  1.00  0.00     0.012 C 
ATOM     14  C   UNL     1      -2.643   4.163  -5.049  1.00  0.00     0.012 C 
ATOM     15  C   UNL     1       1.182   1.872  -4.061  1.00  0.00     0.042 C 
ENDROOT
BRANCH   9  16
ATOM     16  O   UNL     1      -0.805   2.951  -3.327  1.00  0.00    -0.390 OA
ATOM     17  H   UNL     1      -1.185   3.866  -3.251  1.00  0.00     0.211 HD
ENDBRANCH   9  16
TORSDOF 1
ENDMDL
MODEL 6
REMARK VINA RESULT:    -4.095      2.083      4.390
REMARK INTER + INTRA:          -4.215
REMARK INTER:                  -4.215
REMARK INTRA:                   0.000
REMARK UNBOUND:                 0.000
REMARK SMILES C[C@H]1CC[C@H]2C(C)(C)[C@H]3C[C@@]12CC[C@@]3(C)O
REMARK SMILES IDX 1 1 2 2 3 3 4 4 5 5 11 6 12 7 13 8 14 9 9 10 10 11 6 12 7 13
REMARK SMILES IDX 8 14 15 15 16 16
REMARK H PARENT 16 17
REMARK Flexibility Score: inf
ROOT
ATOM      1  C   UNL     1      -3.354   2.414  -6.941  1.00  0.00     0.008 C 
ATOM      2  C   UNL     1      -2.124   3.122  -7.533  1.00  0.00    -0.008 C 
ATOM      3  C   UNL     1      -2.489   4.509  -8.078  1.00  0.00     0.004 C 
ATOM      4  C   UNL     1      -1.988   5.504  -7.048  1.00  0.00     0.005 C 
ATOM      5  C   UNL     1      -0.700   4.878  -6.495  1.00  0.00     0.001 C 
ATOM      6  C   UNL     1      -0.937   3.355  -6.542  1.00  0.00    -0.023 C 
ATOM      7  C   UNL     1       0.336   2.589  -7.005  1.00  0.00     0.010 C 
ATOM      8  C   UNL     1       1.589   2.917  -6.161  1.00  0.00     0.036 C 
ATOM      9  C   UNL     1       1.312   3.097  -4.630  1.00  0.00     0.065 C 
ATOM     10  C   UNL     1      -0.080   3.799  -4.373  1.00  0.00     0.027 C 
ATOM     11  C   UNL     1      -1.177   2.991  -5.074  1.00  0.00     0.014 C 
ATOM     12  C   UNL     1      -0.276   5.220  -5.020  1.00  0.00    -0.026 C 
ATOM     13  C   UNL     1      -1.357   5.993  -4.209  1.00  0.00     0.012 C 
ATOM     14  C   UNL     1       0.975   6.135  -5.007  1.00  0.00     0.012 C 
ATOM     15  C   UNL     1       1.360   1.714  -3.931  1.00  0.00     0.042 C 
ENDROOT
BRANCH   9  16
ATOM     16  O   UNL     1       2.324   3.884  -4.045  1.00  0.00    -0.390 OA
ATOM     17  H   UNL     1       3.118   3.308  -3.888  1.00  0.00     0.211 HD
ENDBRANCH   9  16
TORSDOF 1
ENDMDL
MODEL 7
REMARK VINA RESULT:    -3.954     10.623     12.395
REMARK INTER + INTRA:          -4.069
REMARK INTER:                  -4.069
REMARK INTRA:                   0.000
REMARK UNBOUND:                 0.000
REMARK SMILES C[C@H]1CC[C@H]2C(C)(C)[C@H]3C[C@@]12CC[C@@]3(C)O
REMARK SMILES IDX 1 1 2 2 3 3 4 4 5 5 11 6 12 7 13 8 14 9 9 10 10 11 6 12 7 13
REMARK SMILES IDX 8 14 15 15 16 16
REMARK H PARENT 16 17
REMARK Flexibility Score: inf
ROOT
ATOM      1  C   UNL     1       3.916  -8.948   0.363  1.00  0.00     0.008 C 
ATOM      2  C   UNL     1       3.606  -7.697  -0.477  1.00  0.00    -0.008 C 
ATOM      3  C   UNL     1       2.666  -8.030  -1.644  1.00  0.00     0.004 C 
ATOM      4  C   UNL     1       1.297  -7.523  -1.231  1.00  0.00     0.005 C 
ATOM      5  C   UNL     1       1.580  -6.254  -0.415  1.00  0.00     0.001 C 
ATOM      6  C   UNL     1       2.925  -6.519   0.293  1.00  0.00    -0.023 C 
ATOM      7  C   UNL     1       3.833  -5.254   0.294  1.00  0.00     0.010 C 
ATOM      8  C   UNL     1       3.143  -4.006   0.891  1.00  0.00     0.036 C 
ATOM      9  C   UNL     1       2.226  -4.298   2.127  1.00  0.00     0.065 C 
ATOM     10  C   UNL     1       1.475  -5.680   1.975  1.00  0.00     0.027 C 
ATOM     11  C   UNL     1       2.513  -6.784   1.744  1.00  0.00     0.014 C 
ATOM     12  C   UNL     1       0.558  -5.842   0.706  1.00  0.00    -0.026 C 
ATOM     13  C   UNL     1      -0.525  -6.918   1.008  1.00  0.00     0.012 C 
ATOM     14  C   UNL     1      -0.230  -4.573   0.291  1.00  0.00     0.012 C 
ATOM     15  C   UNL     1       3.083  -4.284   3.419  1.00  0.00     0.042 C 
ENDROOT
BRANCH   9  16
ATOM     16  O   UNL     1       1.264  -3.279   2.266  1.00  0.00    -0.390 OA
ATOM     17  H   UNL     1       0.725  -3.465   3.080  1.00  0.00     0.211 HD
ENDBRANCH   9  16
TORSDOF 1
ENDMDL
MODEL 8
REMARK VINA RESULT:    -3.919      1.704      3.594
REMARK INTER + INTRA:          -4.034
REMARK INTER:                  -4.034
REMARK INTRA:                   0.000
REMARK UNBOUND:                 0.000
REMARK SMILES C[C@H]1CC[C@H]2C(C)(C)[C@H]3C[C@@]12CC[C@@]3(C)O
REMARK SMILES IDX 1 1 2 2 3 3 4 4 5 5 11 6 12 7 13 8 14 9 9 10 10 11 6 12 7 13
REMARK SMILES IDX 8 14 15 15 16 16
REMARK H PARENT 16 17
REMARK Flexibility Score: inf
ROOT
ATOM      1  C   UNL     1      -3.371   6.309  -4.000  1.00  0.00     0.008 C 
ATOM      2  C   UNL     1      -2.171   6.426  -4.954  1.00  0.00    -0.008 C 
ATOM      3  C   UNL     1      -0.877   6.731  -4.187  1.00  0.00     0.004 C 
ATOM      4  C   UNL     1      -0.111   5.423  -4.130  1.00  0.00     0.005 C 
ATOM      5  C   UNL     1      -0.424   4.729  -5.463  1.00  0.00     0.001 C 
ATOM      6  C   UNL     1      -1.864   5.157  -5.814  1.00  0.00    -0.023 C 
ATOM      7  C   UNL     1      -2.020   5.460  -7.333  1.00  0.00     0.010 C 
ATOM      8  C   UNL     1      -1.565   4.294  -8.240  1.00  0.00     0.036 C 
ATOM      9  C   UNL     1      -1.925   2.869  -7.697  1.00  0.00     0.065 C 
ATOM     10  C   UNL     1      -1.806   2.804  -6.123  1.00  0.00     0.027 C 
ATOM     11  C   UNL     1      -2.687   3.901  -5.515  1.00  0.00     0.014 C 
ATOM     12  C   UNL     1      -0.399   3.158  -5.512  1.00  0.00    -0.026 C 
ATOM     13  C   UNL     1      -0.276   2.479  -4.118  1.00  0.00     0.012 C 
ATOM     14  C   UNL     1       0.822   2.653  -6.322  1.00  0.00     0.012 C 
ATOM     15  C   UNL     1      -3.359   2.493  -8.150  1.00  0.00     0.042 C 
ENDROOT
BRANCH   9  16
ATOM     16  O   UNL     1      -1.058   1.907  -8.251  1.00  0.00    -0.390 OA
ATOM     17  H   UNL     1      -0.140   2.288  -8.273  1.00  0.00     0.211 HD
ENDBRANCH   9  16
TORSDOF 1
ENDMDL
MODEL 9
REMARK VINA RESULT:    -3.802      1.764      2.506
REMARK INTER + INTRA:          -3.913
REMARK INTER:                  -3.913
REMARK INTRA:                   0.000
REMARK UNBOUND:                 0.000
REMARK SMILES C[C@H]1CC[C@H]2C(C)(C)[C@H]3C[C@@]12CC[C@@]3(C)O
REMARK SMILES IDX 1 1 2 2 3 3 4 4 5 5 11 6 12 7 13 8 14 9 9 10 10 11 6 12 7 13
REMARK SMILES IDX 8 14 15 15 16 16
REMARK H PARENT 16 17
REMARK Flexibility Score: inf
ROOT
ATOM      1  C   UNL     1       1.258   3.189  -6.993  1.00  0.00     0.008 C 
ATOM      2  C   UNL     1      -0.020   2.593  -6.379  1.00  0.00    -0.008 C 
ATOM      3  C   UNL     1       0.167   2.290  -4.887  1.00  0.00     0.004 C 
ATOM      4  C   UNL     1      -0.551   3.402  -4.145  1.00  0.00     0.005 C 
ATOM      5  C   UNL     1      -1.765   3.735  -5.023  1.00  0.00     0.001 C 
ATOM      6  C   UNL     1      -1.296   3.491  -6.473  1.00  0.00    -0.023 C 
ATOM      7  C   UNL     1      -2.402   2.805  -7.326  1.00  0.00     0.010 C 
ATOM      8  C   UNL     1      -3.748   3.566  -7.313  1.00  0.00     0.036 C 
ATOM      9  C   UNL     1      -3.612   5.127  -7.338  1.00  0.00     0.065 C 
ATOM     10  C   UNL     1      -2.365   5.611  -6.498  1.00  0.00     0.027 C 
ATOM     11  C   UNL     1      -1.110   4.908  -7.025  1.00  0.00     0.014 C 
ATOM     12  C   UNL     1      -2.341   5.198  -4.979  1.00  0.00    -0.026 C 
ATOM     13  C   UNL     1      -1.451   6.210  -4.200  1.00  0.00     0.012 C 
ATOM     14  C   UNL     1      -3.715   5.225  -4.262  1.00  0.00     0.012 C 
ATOM     15  C   UNL     1      -3.499   5.610  -8.807  1.00  0.00     0.042 C 
ENDROOT
BRANCH   9  16
ATOM     16  O   UNL     1      -4.771   5.721  -6.801  1.00  0.00    -0.390 OA
ATOM     17  H   UNL     1      -5.105   6.397  -7.448  1.00  0.00     0.211 HD
ENDBRANCH   9  16
TORSDOF 1
ENDMDL
