MODEL 1
REMARK VINA RESULT:    -4.726      0.000      0.000
REMARK INTER + INTRA:          -7.536
REMARK INTER:                  -7.213
REMARK INTRA:                  -0.323
REMARK UNBOUND:                -0.323
REMARK SMILES CC1=CCC[C@H](C)C(=O)C[C@H](C(C)C)C(=O)C1
REMARK SMILES IDX 8 1 9 2 6 3 7 4 5 5 4 6 3 7 2 8 1 9 10 11 11 12 15 13 16 14
REMARK SMILES IDX 17 15 12 17 13 18 14 19
REMARK H PARENT
REMARK Flexibility Score: 70.00
ROOT
ATOM      1  C   UNL     1      34.215  20.608  23.889  1.00  0.00     0.136 C 
ATOM      2  O   UNL     1      33.831  21.411  24.729  1.00  0.00    -0.299 OA
ENDROOT
BRANCH   1   3
ATOM      3  C   UNL     1      35.050  19.430  24.343  1.00  0.00     0.053 C 
ATOM      4  C   UNL     1      36.394  19.937  24.885  1.00  0.00     0.016 C 
BRANCH   3   5
ATOM      5  C   UNL     1      34.291  18.618  25.425  1.00  0.00     0.015 C 
BRANCH   5   6
ATOM      6  C   UNL     1      33.049  17.885  24.876  1.00  0.00     0.028 C 
BRANCH   6   7
ATOM      7  C   UNL     1      31.742  18.461  25.371  1.00  0.00    -0.028 C 
ATOM      8  C   UNL     1      30.692  18.865  24.610  1.00  0.00    -0.070 CG0
ATOM      9  C   UNL     1      29.454  19.335  25.335  1.00  0.00     0.039 C 
ATOM     10  G   UNL     1      30.698  18.914  23.088  1.00  0.00     0.000 G0
ENDBRANCH   6   7
ENDBRANCH   5   6
ENDBRANCH   3   5
ENDBRANCH   1   3
BRANCH   1  11
ATOM     11  C   UNL     1      33.902  20.898  22.436  1.00  0.00     0.087 C 
BRANCH  11  12
ATOM     12  C   UNL     1      32.750  20.067  21.792  1.00  0.00     0.066 C 
BRANCH  12  13
ATOM     13  C   UNL     1      31.398  20.113  22.515  1.00  0.00     0.140 C 
ATOM     14  O   UNL     1      30.855  21.202  22.641  1.00  0.00    -0.299 OA
BRANCH  13  15
ATOM     15  C   UNL     1      30.685  18.912  23.094  1.00  0.00     0.106 CG0
ATOM     16  G   UNL     1      30.712  18.877  24.616  1.00  0.00     0.000 G0
ENDBRANCH  13  15
ENDBRANCH  12  13
BRANCH  12  17
ATOM     17  C   UNL     1      32.548  20.423  20.281  1.00  0.00    -0.006 C 
ATOM     18  C   UNL     1      31.919  19.273  19.478  1.00  0.00     0.008 C 
ATOM     19  C   UNL     1      33.835  20.913  19.595  1.00  0.00     0.008 C 
ENDBRANCH  12  17
ENDBRANCH  11  12
ENDBRANCH   1  11
TORSDOF 1
ENDMDL
MODEL 2
REMARK VINA RESULT:    -4.578      1.835      4.673
REMARK INTER + INTRA:          -7.310
REMARK INTER:                  -7.452
REMARK INTRA:                   0.142
REMARK UNBOUND:                -0.323
REMARK SMILES CC1=CCC[C@H](C)C(=O)C[C@H](C(C)C)C(=O)C1
REMARK SMILES IDX 8 1 9 2 6 3 7 4 5 5 4 6 3 7 2 8 1 9 10 11 11 12 15 13 16 14
REMARK SMILES IDX 17 15 12 17 13 18 14 19
REMARK H PARENT
REMARK Flexibility Score: 70.00
ROOT
ATOM      1  C   UNL     1      31.506  19.767  21.833  1.00  0.00     0.136 C 
ATOM      2  O   UNL     1      31.430  19.011  20.873  1.00  0.00    -0.299 OA
ENDROOT
BRANCH   1   3
ATOM      3  C   UNL     1      32.703  20.688  21.935  1.00  0.00     0.053 C 
ATOM      4  C   UNL     1      33.110  21.152  20.529  1.00  0.00     0.016 C 
BRANCH   3   5
ATOM      5  C   UNL     1      32.371  21.904  22.841  1.00  0.00     0.015 C 
BRANCH   5   6
ATOM      6  C   UNL     1      32.875  21.738  24.290  1.00  0.00     0.028 C 
BRANCH   6   7
ATOM      7  C   UNL     1      34.145  20.924  24.397  1.00  0.00    -0.028 C 
ATOM      8  C   UNL     1      34.250  19.633  24.806  1.00  0.00    -0.070 CG0
ATOM      9  C   UNL     1      35.621  19.002  24.754  1.00  0.00     0.039 C 
ATOM     10  G   UNL     1      33.094  18.803  25.348  1.00  0.00     0.000 G0
ENDBRANCH   6   7
ENDBRANCH   5   6
ENDBRANCH   3   5
ENDBRANCH   1   3
BRANCH   1  11
ATOM     11  C   UNL     1      30.439  19.665  22.902  1.00  0.00     0.087 C 
BRANCH  11  12
ATOM     12  C   UNL     1      30.718  18.676  24.075  1.00  0.00     0.066 C 
BRANCH  12  13
ATOM     13  C   UNL     1      32.180  18.255  24.270  1.00  0.00     0.140 C 
ATOM     14  O   UNL     1      32.642  17.425  23.498  1.00  0.00    -0.299 OA
BRANCH  13  15
ATOM     15  C   UNL     1      33.096  18.783  25.350  1.00  0.00     0.106 CG0
ATOM     16  G   UNL     1      34.237  19.632  24.803  1.00  0.00     0.000 G0
ENDBRANCH  13  15
ENDBRANCH  12  13
BRANCH  12  17
ATOM     17  C   UNL     1      30.137  19.198  25.430  1.00  0.00    -0.006 C 
ATOM     18  C   UNL     1      29.941  18.079  26.466  1.00  0.00     0.008 C 
ATOM     19  C   UNL     1      28.838  20.005  25.264  1.00  0.00     0.008 C 
ENDBRANCH  12  17
ENDBRANCH  11  12
ENDBRANCH   1  11
TORSDOF 1
ENDMDL
MODEL 3
REMARK VINA RESULT:    -4.160      1.653      3.484
REMARK INTER + INTRA:          -6.671
REMARK INTER:                  -6.679
REMARK INTRA:                   0.008
REMARK UNBOUND:                -0.323
REMARK SMILES CC1=CCC[C@H](C)C(=O)C[C@H](C(C)C)C(=O)C1
REMARK SMILES IDX 8 1 9 2 6 3 7 4 5 5 4 6 3 7 2 8 1 9 10 11 11 12 15 13 16 14
REMARK SMILES IDX 17 15 12 17 13 18 14 19
REMARK H PARENT
REMARK Flexibility Score: 70.00
ROOT
ATOM      1  C   UNL     1      30.534  19.360  23.898  1.00  0.00     0.136 C 
ATOM      2  O   UNL     1      29.676  20.210  24.106  1.00  0.00    -0.299 OA
ENDROOT
BRANCH   1   3
ATOM      3  C   UNL     1      31.168  18.668  25.085  1.00  0.00     0.053 C 
ATOM      4  C   UNL     1      30.072  18.241  26.072  1.00  0.00     0.016 C 
BRANCH   3   5
ATOM      5  C   UNL     1      31.992  17.440  24.616  1.00  0.00     0.015 C 
BRANCH   5   6
ATOM      6  C   UNL     1      33.436  17.798  24.204  1.00  0.00     0.028 C 
BRANCH   6   7
ATOM      7  C   UNL     1      34.010  18.967  24.973  1.00  0.00    -0.028 C 
ATOM      8  C   UNL     1      34.265  20.211  24.491  1.00  0.00    -0.070 CG0
ATOM      9  C   UNL     1      34.766  21.242  25.473  1.00  0.00     0.039 C 
ATOM     10  G   UNL     1      34.120  20.616  23.030  1.00  0.00     0.000 G0
ENDBRANCH   6   7
ENDBRANCH   5   6
ENDBRANCH   3   5
ENDBRANCH   1   3
BRANCH   1  11
ATOM     11  C   UNL     1      30.964  19.123  22.467  1.00  0.00     0.087 C 
BRANCH  11  12
ATOM     12  C   UNL     1      31.750  20.279  21.774  1.00  0.00     0.066 C 
BRANCH  12  13
ATOM     13  C   UNL     1      32.711  21.072  22.667  1.00  0.00     0.140 C 
ATOM     14  O   UNL     1      32.320  22.142  23.117  1.00  0.00    -0.299 OA
BRANCH  13  15
ATOM     15  C   UNL     1      34.112  20.638  23.031  1.00  0.00     0.106 CG0
ATOM     16  G   UNL     1      34.248  20.216  24.489  1.00  0.00     0.000 G0
ENDBRANCH  13  15
ENDBRANCH  12  13
BRANCH  12  17
ATOM     17  C   UNL     1      32.507  19.787  20.496  1.00  0.00    -0.006 C 
ATOM     18  C   UNL     1      33.218  20.926  19.749  1.00  0.00     0.008 C 
ATOM     19  C   UNL     1      31.613  18.990  19.530  1.00  0.00     0.008 C 
ENDBRANCH  12  17
ENDBRANCH  11  12
ENDBRANCH   1  11
TORSDOF 1
ENDMDL
MODEL 4
REMARK VINA RESULT:    -4.064      1.545      4.072
REMARK INTER + INTRA:          -6.526
REMARK INTER:                  -6.977
REMARK INTRA:                   0.451
REMARK UNBOUND:                -0.323
REMARK SMILES CC1=CCC[C@H](C)C(=O)C[C@H](C(C)C)C(=O)C1
REMARK SMILES IDX 8 1 9 2 6 3 7 4 5 5 4 6 3 7 2 8 1 9 10 11 11 12 15 13 16 14
REMARK SMILES IDX 17 15 12 17 13 18 14 19
REMARK H PARENT
REMARK Flexibility Score: 70.00
ROOT
ATOM      1  C   UNL     1      33.209  21.458  23.142  1.00  0.00     0.136 C 
ATOM      2  O   UNL     1      32.478  21.972  23.978  1.00  0.00    -0.299 OA
ENDROOT
BRANCH   1   3
ATOM      3  C   UNL     1      32.909  21.692  21.677  1.00  0.00     0.053 C 
ATOM      4  C   UNL     1      33.561  23.008  21.227  1.00  0.00     0.016 C 
BRANCH   3   5
ATOM      5  C   UNL     1      33.426  20.503  20.824  1.00  0.00     0.015 C 
BRANCH   5   6
ATOM      6  C   UNL     1      32.343  19.441  20.542  1.00  0.00     0.028 C 
BRANCH   6   7
ATOM      7  C   UNL     1      31.231  19.427  21.566  1.00  0.00    -0.028 C 
ATOM      8  C   UNL     1      31.276  18.877  22.808  1.00  0.00    -0.070 CG0
ATOM      9  C   UNL     1      30.063  19.059  23.688  1.00  0.00     0.039 C 
ATOM     10  G   UNL     1      32.444  18.063  23.349  1.00  0.00     0.000 G0
ENDBRANCH   6   7
ENDBRANCH   5   6
ENDBRANCH   3   5
ENDBRANCH   1   3
BRANCH   1  11
ATOM     11  C   UNL     1      34.315  20.548  23.631  1.00  0.00     0.087 C 
BRANCH  11  12
ATOM     12  C   UNL     1      33.999  19.678  24.886  1.00  0.00     0.066 C 
BRANCH  12  13
ATOM     13  C   UNL     1      32.963  18.564  24.692  1.00  0.00     0.140 C 
ATOM     14  O   UNL     1      32.506  18.030  25.694  1.00  0.00    -0.299 OA
BRANCH  13  15
ATOM     15  C   UNL     1      32.466  18.067  23.354  1.00  0.00     0.106 CG0
ATOM     16  G   UNL     1      31.293  18.876  22.815  1.00  0.00     0.000 G0
ENDBRANCH  13  15
ENDBRANCH  12  13
BRANCH  12  17
ATOM     17  C   UNL     1      35.297  19.082  25.526  1.00  0.00    -0.006 C 
ATOM     18  C   UNL     1      36.392  20.138  25.747  1.00  0.00     0.008 C 
ATOM     19  C   UNL     1      35.862  17.882  24.746  1.00  0.00     0.008 C 
ENDBRANCH  12  17
ENDBRANCH  11  12
ENDBRANCH   1  11
TORSDOF 1
ENDMDL
MODEL 5
REMARK VINA RESULT:    -3.999      4.953      8.060
REMARK INTER + INTRA:          -6.426
REMARK INTER:                  -6.198
REMARK INTRA:                  -0.228
REMARK UNBOUND:                -0.323
REMARK SMILES CC1=CCC[C@H](C)C(=O)C[C@H](C(C)C)C(=O)C1
REMARK SMILES IDX 8 1 9 2 6 3 7 4 5 5 4 6 3 7 2 8 1 9 10 11 11 12 15 13 16 14
REMARK SMILES IDX 17 15 12 17 13 18 14 19
REMARK H PARENT
REMARK Flexibility Score: 70.00
ROOT
ATOM      1  C   UNL     1      36.552  20.066  24.947  1.00  0.00     0.136 C 
ATOM      2  O   UNL     1      36.007  20.423  23.910  1.00  0.00    -0.299 OA
ENDROOT
BRANCH   1   3
ATOM      3  C   UNL     1      35.951  18.909  25.717  1.00  0.00     0.053 C 
ATOM      4  C   UNL     1      34.485  18.725  25.300  1.00  0.00     0.016 C 
BRANCH   3   5
ATOM      5  C   UNL     1      36.763  17.612  25.460  1.00  0.00     0.015 C 
BRANCH   5   6
ATOM      6  C   UNL     1      37.378  17.014  26.743  1.00  0.00     0.028 C 
BRANCH   6   7
ATOM      7  C   UNL     1      38.865  16.763  26.638  1.00  0.00    -0.028 C 
ATOM      8  C   UNL     1      39.854  17.479  27.233  1.00  0.00    -0.070 CG0
ATOM      9  C   UNL     1      41.270  16.988  27.047  1.00  0.00     0.039 C 
ATOM     10  G   UNL     1      39.633  18.756  28.034  1.00  0.00     0.000 G0
ENDBRANCH   6   7
ENDBRANCH   5   6
ENDBRANCH   3   5
ENDBRANCH   1   3
BRANCH   1  11
ATOM     11  C   UNL     1      37.741  20.865  25.434  1.00  0.00     0.087 C 
BRANCH  11  12
ATOM     12  C   UNL     1      38.130  20.692  26.935  1.00  0.00     0.066 C 
BRANCH  12  13
ATOM     13  C   UNL     1      39.464  19.990  27.210  1.00  0.00     0.140 C 
ATOM     14  O   UNL     1      40.474  20.468  26.711  1.00  0.00    -0.299 OA
BRANCH  13  15
ATOM     15  C   UNL     1      39.631  18.743  28.049  1.00  0.00     0.106 CG0
ATOM     16  G   UNL     1      39.854  17.488  27.215  1.00  0.00     0.000 G0
ENDBRANCH  13  15
ENDBRANCH  12  13
BRANCH  12  17
ATOM     17  C   UNL     1      38.082  22.051  27.710  1.00  0.00    -0.006 C 
ATOM     18  C   UNL     1      38.520  21.915  29.177  1.00  0.00     0.008 C 
ATOM     19  C   UNL     1      36.716  22.753  27.623  1.00  0.00     0.008 C 
ENDBRANCH  12  17
ENDBRANCH  11  12
ENDBRANCH   1  11
TORSDOF 1
ENDMDL
MODEL 6
REMARK VINA RESULT:    -3.941      3.987      6.310
REMARK INTER + INTRA:          -6.337
REMARK INTER:                  -6.689
REMARK INTRA:                   0.352
REMARK UNBOUND:                -0.323
REMARK SMILES CC1=CCC[C@H](C)C(=O)C[C@H](C(C)C)C(=O)C1
REMARK SMILES IDX 8 1 9 2 6 3 7 4 5 5 4 6 3 7 2 8 1 9 10 11 11 12 15 13 16 14
REMARK SMILES IDX 17 15 12 17 13 18 14 19
REMARK H PARENT
REMARK Flexibility Score: 70.00
ROOT
ATOM      1  C   UNL     1      37.984  20.958  25.335  1.00  0.00     0.136 C 
ATOM      2  O   UNL     1      38.631  20.761  24.314  1.00  0.00    -0.299 OA
ENDROOT
BRANCH   1   3
ATOM      3  C   UNL     1      38.716  21.430  26.574  1.00  0.00     0.053 C 
ATOM      4  C   UNL     1      39.353  22.799  26.299  1.00  0.00     0.016 C 
BRANCH   3   5
ATOM      5  C   UNL     1      37.740  21.509  27.778  1.00  0.00     0.015 C 
BRANCH   5   6
ATOM      6  C   UNL     1      37.748  20.238  28.653  1.00  0.00     0.028 C 
BRANCH   6   7
ATOM      7  C   UNL     1      38.608  19.127  28.093  1.00  0.00    -0.028 C 
ATOM      8  C   UNL     1      38.207  18.129  27.264  1.00  0.00    -0.070 CG0
ATOM      9  C   UNL     1      39.268  17.174  26.770  1.00  0.00     0.039 C 
ATOM     10  G   UNL     1      36.765  17.888  26.838  1.00  0.00     0.000 G0
ENDBRANCH   6   7
ENDBRANCH   5   6
ENDBRANCH   3   5
ENDBRANCH   1   3
BRANCH   1  11
ATOM     11  C   UNL     1      36.507  20.631  25.313  1.00  0.00     0.087 C 
BRANCH  11  12
ATOM     12  C   UNL     1      36.099  19.290  24.629  1.00  0.00     0.066 C 
BRANCH  12  13
ATOM     13  C   UNL     1      36.538  18.006  25.343  1.00  0.00     0.140 C 
ATOM     14  O   UNL     1      36.717  17.006  24.660  1.00  0.00    -0.299 OA
BRANCH  13  15
ATOM     15  C   UNL     1      36.763  17.877  26.832  1.00  0.00     0.106 CG0
ATOM     16  G   UNL     1      38.209  18.126  27.243  1.00  0.00     0.000 G0
ENDBRANCH  13  15
ENDBRANCH  12  13
BRANCH  12  17
ATOM     17  C   UNL     1      34.563  19.227  24.335  1.00  0.00    -0.006 C 
ATOM     18  C   UNL     1      33.979  20.590  23.928  1.00  0.00     0.008 C 
ATOM     19  C   UNL     1      33.748  18.619  25.490  1.00  0.00     0.008 C 
ENDBRANCH  12  17
ENDBRANCH  11  12
ENDBRANCH   1  11
TORSDOF 1
ENDMDL
MODEL 7
REMARK VINA RESULT:    -3.841      7.066      8.328
REMARK INTER + INTRA:          -6.185
REMARK INTER:                  -6.100
REMARK INTRA:                  -0.085
REMARK UNBOUND:                -0.323
REMARK SMILES CC1=CCC[C@H](C)C(=O)C[C@H](C(C)C)C(=O)C1
REMARK SMILES IDX 8 1 9 2 6 3 7 4 5 5 4 6 3 7 2 8 1 9 10 11 11 12 15 13 16 14
REMARK SMILES IDX 17 15 12 17 13 18 14 19
REMARK H PARENT
REMARK Flexibility Score: 70.00
ROOT
ATOM      1  C   UNL     1      38.652  21.069  25.251  1.00  0.00     0.136 C 
ATOM      2  O   UNL     1      37.524  21.230  24.801  1.00  0.00    -0.299 OA
ENDROOT
BRANCH   1   3
ATOM      3  C   UNL     1      39.110  21.956  26.389  1.00  0.00     0.053 C 
ATOM      4  C   UNL     1      39.511  23.331  25.835  1.00  0.00     0.016 C 
BRANCH   3   5
ATOM      5  C   UNL     1      37.985  22.097  27.448  1.00  0.00     0.015 C 
BRANCH   5   6
ATOM      6  C   UNL     1      37.883  20.881  28.393  1.00  0.00     0.028 C 
BRANCH   6   7
ATOM      7  C   UNL     1      39.226  20.298  28.772  1.00  0.00    -0.028 C 
ATOM      8  C   UNL     1      39.693  19.062  28.457  1.00  0.00    -0.070 CG0
ATOM      9  C   UNL     1      41.104  18.729  28.878  1.00  0.00     0.039 C 
ATOM     10  G   UNL     1      38.879  17.986  27.751  1.00  0.00     0.000 G0
ENDBRANCH   6   7
ENDBRANCH   5   6
ENDBRANCH   3   5
ENDBRANCH   1   3
BRANCH   1  11
ATOM     11  C   UNL     1      39.545  20.050  24.576  1.00  0.00     0.087 C 
BRANCH  11  12
ATOM     12  C   UNL     1      40.013  18.845  25.448  1.00  0.00     0.066 C 
BRANCH  12  13
ATOM     13  C   UNL     1      38.918  18.121  26.241  1.00  0.00     0.140 C 
ATOM     14  O   UNL     1      37.997  17.617  25.611  1.00  0.00    -0.299 OA
BRANCH  13  15
ATOM     15  C   UNL     1      38.885  17.984  27.746  1.00  0.00     0.106 CG0
ATOM     16  G   UNL     1      39.701  19.053  28.461  1.00  0.00     0.000 G0
ENDBRANCH  13  15
ENDBRANCH  12  13
BRANCH  12  17
ATOM     17  C   UNL     1      40.834  17.805  24.616  1.00  0.00    -0.006 C 
ATOM     18  C   UNL     1      41.445  16.695  25.485  1.00  0.00     0.008 C 
ATOM     19  C   UNL     1      41.917  18.451  23.735  1.00  0.00     0.008 C 
ENDBRANCH  12  17
ENDBRANCH  11  12
ENDBRANCH   1  11
TORSDOF 1
ENDMDL
MODEL 8
REMARK VINA RESULT:    -3.815      5.214      8.044
REMARK INTER + INTRA:          -6.146
REMARK INTER:                  -5.757
REMARK INTRA:                  -0.388
REMARK UNBOUND:                -0.323
REMARK SMILES CC1=CCC[C@H](C)C(=O)C[C@H](C(C)C)C(=O)C1
REMARK SMILES IDX 8 1 9 2 6 3 7 4 5 5 4 6 3 7 2 8 1 9 10 11 11 12 15 13 16 14
REMARK SMILES IDX 17 15 12 17 13 18 14 19
REMARK H PARENT
REMARK Flexibility Score: 70.00
ROOT
ATOM      1  C   UNL     1      37.747  21.499  27.560  1.00  0.00     0.136 C 
ATOM      2  O   UNL     1      36.933  22.320  27.963  1.00  0.00    -0.299 OA
ENDROOT
BRANCH   1   3
ATOM      3  C   UNL     1      39.163  21.960  27.286  1.00  0.00     0.053 C 
ATOM      4  C   UNL     1      39.143  23.427  26.834  1.00  0.00     0.016 C 
BRANCH   3   5
ATOM      5  C   UNL     1      40.041  21.786  28.553  1.00  0.00     0.015 C 
BRANCH   5   6
ATOM      6  C   UNL     1      40.580  20.351  28.729  1.00  0.00     0.028 C 
BRANCH   6   7
ATOM      7  C   UNL     1      41.288  19.819  27.503  1.00  0.00    -0.028 C 
ATOM      8  C   UNL     1      40.861  18.821  26.686  1.00  0.00    -0.070 CG0
ATOM      9  C   UNL     1      41.702  18.516  25.470  1.00  0.00     0.039 C 
ATOM     10  G   UNL     1      39.622  17.971  26.938  1.00  0.00     0.000 G0
ENDBRANCH   6   7
ENDBRANCH   5   6
ENDBRANCH   3   5
ENDBRANCH   1   3
BRANCH   1  11
ATOM     11  C   UNL     1      37.258  20.094  27.279  1.00  0.00     0.087 C 
BRANCH  11  12
ATOM     12  C   UNL     1      37.639  19.486  25.894  1.00  0.00     0.066 C 
BRANCH  12  13
ATOM     13  C   UNL     1      38.506  18.223  25.927  1.00  0.00     0.140 C 
ATOM     14  O   UNL     1      38.278  17.353  25.097  1.00  0.00    -0.299 OA
BRANCH  13  15
ATOM     15  C   UNL     1      39.623  17.964  26.913  1.00  0.00     0.106 CG0
ATOM     16  G   UNL     1      40.849  18.833  26.669  1.00  0.00     0.000 G0
ENDBRANCH  13  15
ENDBRANCH  12  13
BRANCH  12  17
ATOM     17  C   UNL     1      36.379  19.234  25.001  1.00  0.00    -0.006 C 
ATOM     18  C   UNL     1      35.934  20.488  24.231  1.00  0.00     0.008 C 
ATOM     19  C   UNL     1      35.193  18.636  25.778  1.00  0.00     0.008 C 
ENDBRANCH  12  17
ENDBRANCH  11  12
ENDBRANCH   1  11
TORSDOF 1
ENDMDL
MODEL 9
REMARK VINA RESULT:    -3.789      4.835      7.639
REMARK INTER + INTRA:          -6.105
REMARK INTER:                  -5.998
REMARK INTRA:                  -0.108
REMARK UNBOUND:                -0.323
REMARK SMILES CC1=CCC[C@H](C)C(=O)C[C@H](C(C)C)C(=O)C1
REMARK SMILES IDX 8 1 9 2 6 3 7 4 5 5 4 6 3 7 2 8 1 9 10 11 11 12 15 13 16 14
REMARK SMILES IDX 17 15 12 17 13 18 14 19
REMARK H PARENT
REMARK Flexibility Score: 70.00
ROOT
ATOM      1  C   UNL     1      38.206  17.433  26.304  1.00  0.00     0.136 C 
ATOM      2  O   UNL     1      37.347  16.754  26.854  1.00  0.00    -0.299 OA
ENDROOT
BRANCH   1   3
ATOM      3  C   UNL     1      39.659  17.053  26.495  1.00  0.00     0.053 C 
ATOM      4  C   UNL     1      40.379  17.093  25.140  1.00  0.00     0.016 C 
BRANCH   3   5
ATOM      5  C   UNL     1      40.338  18.015  27.506  1.00  0.00     0.015 C 
BRANCH   5   6
ATOM      6  C   UNL     1      41.006  19.232  26.834  1.00  0.00     0.028 C 
BRANCH   6   7
ATOM      7  C   UNL     1      40.845  20.516  27.616  1.00  0.00    -0.028 C 
ATOM      8  C   UNL     1      39.887  21.463  27.438  1.00  0.00    -0.070 CG0
ATOM      9  C   UNL     1      39.880  22.628  28.398  1.00  0.00     0.039 C 
ATOM     10  G   UNL     1      38.855  21.445  26.318  1.00  0.00     0.000 G0
ENDBRANCH   6   7
ENDBRANCH   5   6
ENDBRANCH   3   5
ENDBRANCH   1   3
BRANCH   1  11
ATOM     11  C   UNL     1      37.758  18.661  25.541  1.00  0.00     0.087 C 
BRANCH  11  12
ATOM     12  C   UNL     1      36.836  19.659  26.306  1.00  0.00     0.066 C 
BRANCH  12  13
ATOM     13  C   UNL     1      37.488  20.972  26.755  1.00  0.00     0.140 C 
ATOM     14  O   UNL     1      36.860  21.687  27.525  1.00  0.00    -0.299 OA
BRANCH  13  15
ATOM     15  C   UNL     1      38.850  21.458  26.314  1.00  0.00     0.106 CG0
ATOM     16  G   UNL     1      39.874  21.472  27.442  1.00  0.00     0.000 G0
ENDBRANCH  13  15
ENDBRANCH  12  13
BRANCH  12  17
ATOM     17  C   UNL     1      35.525  19.971  25.509  1.00  0.00    -0.006 C 
ATOM     18  C   UNL     1      34.544  18.788  25.490  1.00  0.00     0.008 C 
ATOM     19  C   UNL     1      35.788  20.470  24.078  1.00  0.00     0.008 C 
ENDBRANCH  12  17
ENDBRANCH  11  12
ENDBRANCH   1  11
TORSDOF 1
ENDMDL
