MODEL 1
REMARK VINA RESULT:    -7.768      0.000      0.000
REMARK INTER + INTRA:         -15.083
REMARK INTER:                 -12.764
REMARK INTRA:                  -2.320
REMARK UNBOUND:                -2.320
REMARK SMILES COc1ccc([C@H]2CC(=O)c3c(O)cc(O[C@@H]4O[C@H](CO[C@H]5O[C@H](C)[C@@H](O)[C@H](O)[C@@H]5O)[C@H](O)[C@H](O)[C@@H]4O)cc3O2)cc1O
REMARK SMILES IDX 19 1 32 2 34 3 36 4 17 5 18 6 20 7 21 8 22 9 25 10 24 11
REMARK SMILES IDX 26 12 23 13 28 14 30 15 27 16 29 18 31 20 33 22 35 24 16 26
REMARK SMILES IDX 15 27 14 28 38 29 12 30 39 31 11 32 40 33 9 34 7 35 10 36
REMARK SMILES IDX 8 37 13 38 6 40 41 41 5 42 42 43 4 44 3 45 43 46 2 48 1 49
REMARK SMILES IDX 37 50
REMARK H PARENT 27 17 29 19 31 21 33 23 35 25 13 39 43 47 37 51
REMARK Flexibility Score: inf
ROOT
ATOM      1  C   UNL     1     -59.976 -42.087 -32.088  1.00  0.00     0.180 C 
ATOM      2  C   UNL     1     -60.401 -41.146 -30.846  1.00  0.00     0.177 C 
ATOM      3  C   UNL     1     -61.955 -41.598 -30.693  1.00  0.00     0.180 C 
ATOM      4  C   UNL     1     -62.475 -40.484 -31.854  1.00  0.00     0.214 C 
ATOM      5  C   UNL     1     -61.463 -40.503 -33.203  1.00  0.00     0.339 C 
ATOM      6  O   UNL     1     -60.546 -41.609 -33.281  1.00  0.00    -0.332 OA
ENDROOT
BRANCH   1   7
ATOM      7  C   UNL     1     -59.978 -43.743 -32.083  1.00  0.00     0.198 C 
BRANCH   7   8
ATOM      8  O   UNL     1     -58.808 -44.519 -32.034  1.00  0.00    -0.347 OA
BRANCH   8   9
ATOM      9  C   UNL     1     -58.503 -45.453 -33.180  1.00  0.00     0.281 C 
ATOM     10  C   UNL     1     -56.593 -47.507 -34.419  1.00  0.00     0.041 C 
ATOM     11  C   UNL     1     -58.037 -47.699 -33.792  1.00  0.00     0.150 C 
ATOM     12  C   UNL     1     -59.145 -47.827 -34.976  1.00  0.00     0.174 C 
ATOM     13  O   UNL     1     -58.423 -46.780 -32.695  1.00  0.00    -0.344 OA
ATOM     14  C   UNL     1     -60.182 -46.689 -35.008  1.00  0.00     0.179 C 
ATOM     15  C   UNL     1     -59.457 -45.366 -34.427  1.00  0.00     0.202 C 
BRANCH  12  16
ATOM     16  O   UNL     1     -59.765 -49.125 -34.920  1.00  0.00    -0.388 OA
ATOM     17  H   UNL     1     -60.277 -49.241 -34.014  1.00  0.00     0.211 HD
ENDBRANCH  12  16
BRANCH  14  18
ATOM     18  O   UNL     1     -60.833 -46.646 -36.287  1.00  0.00    -0.387 OA
ATOM     19  H   UNL     1     -61.703 -47.230 -36.423  1.00  0.00     0.211 HD
ENDBRANCH  14  18
BRANCH  15  20
ATOM     20  O   UNL     1     -58.777 -44.721 -35.460  1.00  0.00    -0.385 OA
ATOM     21  H   UNL     1     -59.441 -44.030 -35.792  1.00  0.00     0.211 HD
ENDBRANCH  15  20
ENDBRANCH   8   9
ENDBRANCH   7   8
ENDBRANCH   1   7
BRANCH   2  22
ATOM     22  O   UNL     1     -59.552 -41.257 -29.729  1.00  0.00    -0.387 OA
ATOM     23  H   UNL     1     -58.614 -41.185 -30.067  1.00  0.00     0.211 HD
ENDBRANCH   2  22
BRANCH   3  24
ATOM     24  O   UNL     1     -62.500 -42.771 -31.172  1.00  0.00    -0.387 OA
ATOM     25  H   UNL     1     -61.841 -43.138 -31.779  1.00  0.00     0.211 HD
ENDBRANCH   3  24
BRANCH   5  26
ATOM     26  O   UNL     1     -62.138 -40.389 -34.522  1.00  0.00    -0.462 OA
BRANCH  26  27
ATOM     27  C   UNL     1     -62.423 -41.577 -35.185  1.00  0.00     0.130 A 
ATOM     28  C   UNL     1     -61.478 -42.366 -35.844  1.00  0.00     0.093 A 
ATOM     29  C   UNL     1     -63.806 -41.926 -35.448  1.00  0.00     0.094 A 
ATOM     30  C   UNL     1     -61.828 -43.389 -36.768  1.00  0.00     0.133 A 
ATOM     31  C   UNL     1     -64.170 -43.009 -36.339  1.00  0.00     0.138 A 
ATOM     32  C   UNL     1     -63.149 -43.731 -36.976  1.00  0.00     0.102 A 
ATOM     33  O   UNL     1     -65.482 -43.388 -36.534  1.00  0.00    -0.484 OA
ATOM     34  C   UNL     1     -63.498 -44.982 -37.563  1.00  0.00     0.174 C 
ATOM     35  C   UNL     1     -65.966 -44.616 -37.119  1.00  0.00     0.211 C 
ATOM     36  O   UNL     1     -62.816 -45.630 -38.436  1.00  0.00    -0.294 OA
ATOM     37  C   UNL     1     -64.834 -45.637 -37.082  1.00  0.00     0.131 C 
BRANCH  30  38
ATOM     38  O   UNL     1     -60.718 -43.869 -37.552  1.00  0.00    -0.507 OA
ATOM     39  H   UNL     1     -60.052 -44.580 -37.122  1.00  0.00     0.293 HD
ENDBRANCH  30  38
BRANCH  35  40
ATOM     40  C   UNL     1     -66.460 -44.365 -38.544  1.00  0.00    -0.003 A 
ATOM     41  C   UNL     1     -66.905 -45.250 -39.451  1.00  0.00     0.057 A 
ATOM     42  C   UNL     1     -66.462 -42.987 -38.993  1.00  0.00     0.011 A 
ATOM     43  C   UNL     1     -67.081 -44.999 -40.781  1.00  0.00     0.158 A 
ATOM     44  C   UNL     1     -66.597 -42.669 -40.381  1.00  0.00     0.051 A 
ATOM     45  C   UNL     1     -66.849 -43.735 -41.295  1.00  0.00     0.160 A 
BRANCH  43  46
ATOM     46  O   UNL     1     -67.282 -46.105 -41.675  1.00  0.00    -0.504 OA
ATOM     47  H   UNL     1     -67.218 -46.028 -42.694  1.00  0.00     0.293 HD
ENDBRANCH  43  46
BRANCH  45  48
ATOM     48  O   UNL     1     -66.691 -43.629 -42.710  1.00  0.00    -0.493 OA
ATOM     49  C   UNL     1     -67.149 -42.467 -43.462  1.00  0.00     0.278 C 
ENDBRANCH  45  48
ENDBRANCH  35  40
ENDBRANCH  26  27
ENDBRANCH   5  26
BRANCH   4  50
ATOM     50  O   UNL     1     -63.784 -40.793 -32.249  1.00  0.00    -0.384 OA
ATOM     51  H   UNL     1     -63.824 -41.801 -32.229  1.00  0.00     0.211 HD
ENDBRANCH   4  50
TORSDOF 15
ENDMDL
MODEL 2
REMARK VINA RESULT:    -7.713      1.095      2.079
REMARK INTER + INTRA:         -14.992
REMARK INTER:                 -13.816
REMARK INTRA:                  -1.176
REMARK UNBOUND:                -2.320
REMARK SMILES COc1ccc([C@H]2CC(=O)c3c(O)cc(O[C@@H]4O[C@H](CO[C@H]5O[C@H](C)[C@@H](O)[C@H](O)[C@@H]5O)[C@H](O)[C@H](O)[C@@H]4O)cc3O2)cc1O
REMARK SMILES IDX 19 1 32 2 34 3 36 4 17 5 18 6 20 7 21 8 22 9 25 10 24 11
REMARK SMILES IDX 26 12 23 13 28 14 30 15 27 16 29 18 31 20 33 22 35 24 16 26
REMARK SMILES IDX 15 27 14 28 38 29 12 30 39 31 11 32 40 33 9 34 7 35 10 36
REMARK SMILES IDX 8 37 13 38 6 40 41 41 5 42 42 43 4 44 3 45 43 46 2 48 1 49
REMARK SMILES IDX 37 50
REMARK H PARENT 27 17 29 19 31 21 33 23 35 25 13 39 43 47 37 51
REMARK Flexibility Score: inf
ROOT
ATOM      1  C   UNL     1     -59.818 -41.917 -31.940  1.00  0.00     0.180 C 
ATOM      2  C   UNL     1     -60.351 -41.073 -30.670  1.00  0.00     0.177 C 
ATOM      3  C   UNL     1     -61.880 -41.622 -30.611  1.00  0.00     0.180 C 
ATOM      4  C   UNL     1     -62.416 -40.477 -31.733  1.00  0.00     0.214 C 
ATOM      5  C   UNL     1     -61.350 -40.362 -33.035  1.00  0.00     0.339 C 
ATOM      6  O   UNL     1     -60.365 -41.407 -33.129  1.00  0.00    -0.332 OA
ENDROOT
BRANCH   1   7
ATOM      7  C   UNL     1     -59.721 -43.568 -32.023  1.00  0.00     0.198 C 
BRANCH   7   8
ATOM      8  O   UNL     1     -59.631 -44.279 -33.231  1.00  0.00    -0.347 OA
BRANCH   8   9
ATOM      9  C   UNL     1     -59.116 -45.698 -33.207  1.00  0.00     0.281 C 
ATOM     10  C   UNL     1     -59.535 -48.627 -34.009  1.00  0.00     0.041 C 
ATOM     11  C   UNL     1     -58.482 -47.564 -34.531  1.00  0.00     0.150 C 
ATOM     12  C   UNL     1     -57.034 -47.829 -33.840  1.00  0.00     0.174 C 
ATOM     13  O   UNL     1     -58.904 -46.142 -34.534  1.00  0.00    -0.344 OA
ATOM     14  C   UNL     1     -56.541 -46.687 -32.930  1.00  0.00     0.179 C 
ATOM     15  C   UNL     1     -57.850 -45.968 -32.314  1.00  0.00     0.202 C 
BRANCH  12  16
ATOM     16  O   UNL     1     -56.070 -48.171 -34.852  1.00  0.00    -0.388 OA
ATOM     17  H   UNL     1     -55.120 -47.829 -34.576  1.00  0.00     0.211 HD
ENDBRANCH  12  16
BRANCH  14  18
ATOM     18  O   UNL     1     -55.504 -47.161 -32.056  1.00  0.00    -0.387 OA
ATOM     19  H   UNL     1     -55.091 -48.114 -32.244  1.00  0.00     0.211 HD
ENDBRANCH  14  18
BRANCH  15  20
ATOM     20  O   UNL     1     -58.256 -46.652 -31.167  1.00  0.00    -0.385 OA
ATOM     21  H   UNL     1     -58.255 -47.624 -31.453  1.00  0.00     0.211 HD
ENDBRANCH  15  20
ENDBRANCH   8   9
ENDBRANCH   7   8
ENDBRANCH   1   7
BRANCH   2  22
ATOM     22  O   UNL     1     -59.544 -41.196 -29.523  1.00  0.00    -0.387 OA
ATOM     23  H   UNL     1     -58.657 -40.793 -29.745  1.00  0.00     0.211 HD
ENDBRANCH   2  22
BRANCH   3  24
ATOM     24  O   UNL     1     -62.333 -42.795 -31.176  1.00  0.00    -0.387 OA
ATOM     25  H   UNL     1     -62.059 -42.763 -32.104  1.00  0.00     0.211 HD
ENDBRANCH   3  24
BRANCH   5  26
ATOM     26  O   UNL     1     -61.975 -40.213 -34.375  1.00  0.00    -0.462 OA
BRANCH  26  27
ATOM     27  C   UNL     1     -62.288 -41.386 -35.053  1.00  0.00     0.130 A 
ATOM     28  C   UNL     1     -61.347 -42.273 -35.582  1.00  0.00     0.093 A 
ATOM     29  C   UNL     1     -63.654 -41.613 -35.481  1.00  0.00     0.094 A 
ATOM     30  C   UNL     1     -61.677 -43.280 -36.530  1.00  0.00     0.133 A 
ATOM     31  C   UNL     1     -64.008 -42.678 -36.397  1.00  0.00     0.138 A 
ATOM     32  C   UNL     1     -62.989 -43.505 -36.895  1.00  0.00     0.102 A 
ATOM     33  O   UNL     1     -65.316 -42.940 -36.747  1.00  0.00    -0.484 OA
ATOM     34  C   UNL     1     -63.380 -44.732 -37.505  1.00  0.00     0.174 C 
ATOM     35  C   UNL     1     -65.838 -44.131 -37.374  1.00  0.00     0.211 C 
ATOM     36  O   UNL     1     -62.660 -45.460 -38.280  1.00  0.00    -0.294 OA
ATOM     37  C   UNL     1     -64.821 -45.250 -37.185  1.00  0.00     0.131 C 
BRANCH  30  38
ATOM     38  O   UNL     1     -60.530 -43.878 -37.165  1.00  0.00    -0.507 OA
ATOM     39  H   UNL     1     -60.307 -43.623 -38.174  1.00  0.00     0.293 HD
ENDBRANCH  30  38
BRANCH  35  40
ATOM     40  C   UNL     1     -66.130 -43.869 -38.851  1.00  0.00    -0.003 A 
ATOM     41  C   UNL     1     -66.110 -42.706 -39.523  1.00  0.00     0.057 A 
ATOM     42  C   UNL     1     -66.469 -45.026 -39.657  1.00  0.00     0.011 A 
ATOM     43  C   UNL     1     -66.632 -42.502 -40.767  1.00  0.00     0.158 A 
ATOM     44  C   UNL     1     -67.060 -44.870 -40.949  1.00  0.00     0.051 A 
ATOM     45  C   UNL     1     -67.196 -43.551 -41.473  1.00  0.00     0.160 A 
BRANCH  43  46
ATOM     46  O   UNL     1     -66.798 -41.156 -41.238  1.00  0.00    -0.504 OA
ATOM     47  H   UNL     1     -66.035 -40.590 -41.618  1.00  0.00     0.293 HD
ENDBRANCH  43  46
BRANCH  45  48
ATOM     48  O   UNL     1     -68.036 -43.211 -42.578  1.00  0.00    -0.493 OA
ATOM     49  C   UNL     1     -67.538 -43.151 -43.947  1.00  0.00     0.278 C 
ENDBRANCH  45  48
ENDBRANCH  35  40
ENDBRANCH  26  27
ENDBRANCH   5  26
BRANCH   4  50
ATOM     50  O   UNL     1     -63.687 -40.838 -32.203  1.00  0.00    -0.384 OA
ATOM     51  H   UNL     1     -63.570 -40.937 -33.200  1.00  0.00     0.211 HD
ENDBRANCH   4  50
TORSDOF 15
ENDMDL
MODEL 3
REMARK VINA RESULT:    -7.699      1.873      2.592
REMARK INTER + INTRA:         -14.969
REMARK INTER:                 -13.330
REMARK INTRA:                  -1.639
REMARK UNBOUND:                -2.320
REMARK SMILES COc1ccc([C@H]2CC(=O)c3c(O)cc(O[C@@H]4O[C@H](CO[C@H]5O[C@H](C)[C@@H](O)[C@H](O)[C@@H]5O)[C@H](O)[C@H](O)[C@@H]4O)cc3O2)cc1O
REMARK SMILES IDX 19 1 32 2 34 3 36 4 17 5 18 6 20 7 21 8 22 9 25 10 24 11
REMARK SMILES IDX 26 12 23 13 28 14 30 15 27 16 29 18 31 20 33 22 35 24 16 26
REMARK SMILES IDX 15 27 14 28 38 29 12 30 39 31 11 32 40 33 9 34 7 35 10 36
REMARK SMILES IDX 8 37 13 38 6 40 41 41 5 42 42 43 4 44 3 45 43 46 2 48 1 49
REMARK SMILES IDX 37 50
REMARK H PARENT 27 17 29 19 31 21 33 23 35 25 13 39 43 47 37 51
REMARK Flexibility Score: inf
ROOT
ATOM      1  C   UNL     1     -60.379 -42.015 -33.053  1.00  0.00     0.180 C 
ATOM      2  C   UNL     1     -60.707 -40.707 -32.163  1.00  0.00     0.177 C 
ATOM      3  C   UNL     1     -61.884 -41.316 -31.222  1.00  0.00     0.180 C 
ATOM      4  C   UNL     1     -63.082 -40.971 -32.364  1.00  0.00     0.214 C 
ATOM      5  C   UNL     1     -62.585 -41.417 -33.913  1.00  0.00     0.339 C 
ATOM      6  O   UNL     1     -61.411 -42.247 -33.978  1.00  0.00    -0.332 OA
ENDROOT
BRANCH   1   7
ATOM      7  C   UNL     1     -59.807 -43.456 -32.469  1.00  0.00     0.198 C 
BRANCH   7   8
ATOM      8  O   UNL     1     -60.488 -44.675 -32.615  1.00  0.00    -0.347 OA
BRANCH   8   9
ATOM      9  C   UNL     1     -59.700 -45.962 -32.560  1.00  0.00     0.281 C 
ATOM     10  C   UNL     1     -59.717 -49.025 -32.692  1.00  0.00     0.041 C 
ATOM     11  C   UNL     1     -59.149 -47.960 -33.719  1.00  0.00     0.150 C 
ATOM     12  C   UNL     1     -57.533 -47.849 -33.570  1.00  0.00     0.174 C 
ATOM     13  O   UNL     1     -59.844 -46.652 -33.788  1.00  0.00    -0.344 OA
ATOM     14  C   UNL     1     -57.028 -46.476 -33.090  1.00  0.00     0.179 C 
ATOM     15  C   UNL     1     -58.185 -45.839 -32.159  1.00  0.00     0.202 C 
BRANCH  12  16
ATOM     16  O   UNL     1     -56.905 -48.260 -34.797  1.00  0.00    -0.388 OA
ATOM     17  H   UNL     1     -56.272 -47.504 -35.149  1.00  0.00     0.211 HD
ENDBRANCH  12  16
BRANCH  14  18
ATOM     18  O   UNL     1     -55.686 -46.587 -32.591  1.00  0.00    -0.387 OA
ATOM     19  H   UNL     1     -54.999 -47.178 -33.133  1.00  0.00     0.211 HD
ENDBRANCH  14  18
BRANCH  15  20
ATOM     20  O   UNL     1     -58.035 -46.305 -30.852  1.00  0.00    -0.385 OA
ATOM     21  H   UNL     1     -58.929 -46.101 -30.419  1.00  0.00     0.211 HD
ENDBRANCH  15  20
ENDBRANCH   8   9
ENDBRANCH   7   8
ENDBRANCH   1   7
BRANCH   2  22
ATOM     22  O   UNL     1     -59.576 -40.138 -31.547  1.00  0.00    -0.387 OA
ATOM     23  H   UNL     1     -59.274 -39.384 -32.129  1.00  0.00     0.211 HD
ENDBRANCH   2  22
BRANCH   3  24
ATOM     24  O   UNL     1     -62.108 -42.656 -30.984  1.00  0.00    -0.387 OA
ATOM     25  H   UNL     1     -63.054 -42.796 -31.135  1.00  0.00     0.211 HD
ENDBRANCH   3  24
BRANCH   5  26
ATOM     26  O   UNL     1     -63.624 -42.043 -34.773  1.00  0.00    -0.462 OA
BRANCH  26  27
ATOM     27  C   UNL     1     -63.183 -42.658 -35.939  1.00  0.00     0.130 A 
ATOM     28  C   UNL     1     -62.376 -42.049 -36.904  1.00  0.00     0.093 A 
ATOM     29  C   UNL     1     -63.777 -43.918 -36.342  1.00  0.00     0.094 A 
ATOM     30  C   UNL     1     -62.203 -42.573 -38.214  1.00  0.00     0.133 A 
ATOM     31  C   UNL     1     -63.552 -44.491 -37.654  1.00  0.00     0.138 A 
ATOM     32  C   UNL     1     -62.745 -43.793 -38.565  1.00  0.00     0.102 A 
ATOM     33  O   UNL     1     -64.058 -45.724 -38.012  1.00  0.00    -0.484 OA
ATOM     34  C   UNL     1     -62.261 -44.512 -39.697  1.00  0.00     0.174 C 
ATOM     35  C   UNL     1     -63.663 -46.545 -39.131  1.00  0.00     0.211 C 
ATOM     36  O   UNL     1     -61.789 -44.002 -40.777  1.00  0.00    -0.294 OA
ATOM     37  C   UNL     1     -62.293 -46.073 -39.606  1.00  0.00     0.131 C 
BRANCH  30  38
ATOM     38  O   UNL     1     -61.587 -41.649 -39.132  1.00  0.00    -0.507 OA
ATOM     39  H   UNL     1     -61.981 -41.560 -40.118  1.00  0.00     0.293 HD
ENDBRANCH  30  38
BRANCH  35  40
ATOM     40  C   UNL     1     -64.710 -46.467 -40.242  1.00  0.00    -0.003 A 
ATOM     41  C   UNL     1     -64.650 -46.950 -41.494  1.00  0.00     0.057 A 
ATOM     42  C   UNL     1     -65.948 -45.788 -39.916  1.00  0.00     0.011 A 
ATOM     43  C   UNL     1     -65.499 -46.622 -42.510  1.00  0.00     0.158 A 
ATOM     44  C   UNL     1     -66.853 -45.381 -40.945  1.00  0.00     0.051 A 
ATOM     45  C   UNL     1     -66.564 -45.766 -42.287  1.00  0.00     0.160 A 
BRANCH  43  46
ATOM     46  O   UNL     1     -65.147 -46.984 -43.854  1.00  0.00    -0.504 OA
ATOM     47  H   UNL     1     -65.203 -46.340 -44.648  1.00  0.00     0.293 HD
ENDBRANCH  43  46
BRANCH  45  48
ATOM     48  O   UNL     1     -67.178 -45.182 -43.437  1.00  0.00    -0.493 OA
ATOM     49  C   UNL     1     -67.258 -43.739 -43.631  1.00  0.00     0.278 C 
ENDBRANCH  45  48
ENDBRANCH  35  40
ENDBRANCH  26  27
ENDBRANCH   5  26
BRANCH   4  50
ATOM     50  O   UNL     1     -64.258 -41.660 -32.036  1.00  0.00    -0.384 OA
ATOM     51  H   UNL     1     -64.351 -41.541 -31.038  1.00  0.00     0.211 HD
ENDBRANCH   4  50
TORSDOF 15
ENDMDL
MODEL 4
REMARK VINA RESULT:    -7.594      2.729      5.454
REMARK INTER + INTRA:         -14.796
REMARK INTER:                 -13.365
REMARK INTRA:                  -1.431
REMARK UNBOUND:                -2.320
REMARK SMILES COc1ccc([C@H]2CC(=O)c3c(O)cc(O[C@@H]4O[C@H](CO[C@H]5O[C@H](C)[C@@H](O)[C@H](O)[C@@H]5O)[C@H](O)[C@H](O)[C@@H]4O)cc3O2)cc1O
REMARK SMILES IDX 19 1 32 2 34 3 36 4 17 5 18 6 20 7 21 8 22 9 25 10 24 11
REMARK SMILES IDX 26 12 23 13 28 14 30 15 27 16 29 18 31 20 33 22 35 24 16 26
REMARK SMILES IDX 15 27 14 28 38 29 12 30 39 31 11 32 40 33 9 34 7 35 10 36
REMARK SMILES IDX 8 37 13 38 6 40 41 41 5 42 42 43 4 44 3 45 43 46 2 48 1 49
REMARK SMILES IDX 37 50
REMARK H PARENT 27 17 29 19 31 21 33 23 35 25 13 39 43 47 37 51
REMARK Flexibility Score: inf
ROOT
ATOM      1  C   UNL     1     -64.817 -44.200 -33.602  1.00  0.00     0.180 C 
ATOM      2  C   UNL     1     -64.876 -45.813 -33.553  1.00  0.00     0.177 C 
ATOM      3  C   UNL     1     -63.402 -46.113 -32.936  1.00  0.00     0.180 C 
ATOM      4  C   UNL     1     -62.671 -46.078 -34.460  1.00  0.00     0.214 C 
ATOM      5  C   UNL     1     -63.227 -44.768 -35.366  1.00  0.00     0.339 C 
ATOM      6  O   UNL     1     -63.967 -43.773 -34.636  1.00  0.00    -0.332 OA
ENDROOT
BRANCH   1   7
ATOM      7  C   UNL     1     -64.655 -43.205 -32.287  1.00  0.00     0.198 C 
BRANCH   7   8
ATOM      8  O   UNL     1     -64.133 -41.903 -32.361  1.00  0.00    -0.347 OA
BRANCH   8   9
ATOM      9  C   UNL     1     -62.651 -41.724 -32.590  1.00  0.00     0.281 C 
ATOM     10  C   UNL     1     -60.362 -41.319 -34.590  1.00  0.00     0.041 C 
ATOM     11  C   UNL     1     -60.979 -40.321 -33.524  1.00  0.00     0.150 C 
ATOM     12  C   UNL     1     -60.018 -40.240 -32.215  1.00  0.00     0.174 C 
ATOM     13  O   UNL     1     -62.421 -40.473 -33.212  1.00  0.00    -0.344 OA
ATOM     14  C   UNL     1     -60.661 -40.763 -30.916  1.00  0.00     0.179 C 
ATOM     15  C   UNL     1     -61.722 -41.908 -31.336  1.00  0.00     0.202 C 
BRANCH  12  16
ATOM     16  O   UNL     1     -59.511 -38.901 -32.069  1.00  0.00    -0.388 OA
ATOM     17  H   UNL     1     -59.113 -38.565 -32.977  1.00  0.00     0.211 HD
ENDBRANCH  12  16
BRANCH  14  18
ATOM     18  O   UNL     1     -59.647 -41.047 -29.940  1.00  0.00    -0.387 OA
ATOM     19  H   UNL     1     -59.881 -40.898 -28.921  1.00  0.00     0.211 HD
ENDBRANCH  14  18
BRANCH  15  20
ATOM     20  O   UNL     1     -61.059 -43.131 -31.452  1.00  0.00    -0.385 OA
ATOM     21  H   UNL     1     -61.365 -43.487 -32.350  1.00  0.00     0.211 HD
ENDBRANCH  15  20
ENDBRANCH   8   9
ENDBRANCH   7   8
ENDBRANCH   1   7
BRANCH   2  22
ATOM     22  O   UNL     1     -66.005 -46.324 -32.885  1.00  0.00    -0.387 OA
ATOM     23  H   UNL     1     -66.455 -45.551 -32.438  1.00  0.00     0.211 HD
ENDBRANCH   2  22
BRANCH   3  24
ATOM     24  O   UNL     1     -62.627 -45.210 -32.237  1.00  0.00    -0.387 OA
ATOM     25  H   UNL     1     -62.508 -44.453 -32.828  1.00  0.00     0.211 HD
ENDBRANCH   3  24
BRANCH   5  26
ATOM     26  O   UNL     1     -62.203 -44.059 -36.177  1.00  0.00    -0.462 OA
BRANCH  26  27
ATOM     27  C   UNL     1     -62.122 -44.402 -37.522  1.00  0.00     0.130 A 
ATOM     28  C   UNL     1     -61.338 -43.734 -38.467  1.00  0.00     0.093 A 
ATOM     29  C   UNL     1     -63.080 -45.340 -38.072  1.00  0.00     0.094 A 
ATOM     30  C   UNL     1     -61.509 -43.894 -39.869  1.00  0.00     0.133 A 
ATOM     31  C   UNL     1     -63.216 -45.556 -39.498  1.00  0.00     0.138 A 
ATOM     32  C   UNL     1     -62.400 -44.820 -40.371  1.00  0.00     0.102 A 
ATOM     33  O   UNL     1     -64.076 -46.500 -40.018  1.00  0.00    -0.484 OA
ATOM     34  C   UNL     1     -62.299 -45.279 -41.718  1.00  0.00     0.174 C 
ATOM     35  C   UNL     1     -64.086 -47.040 -41.357  1.00  0.00     0.211 C 
ATOM     36  O   UNL     1     -61.878 -44.601 -42.723  1.00  0.00    -0.294 OA
ATOM     37  C   UNL     1     -62.728 -46.758 -41.991  1.00  0.00     0.131 C 
BRANCH  30  38
ATOM     38  O   UNL     1     -60.816 -42.904 -40.655  1.00  0.00    -0.507 OA
ATOM     39  H   UNL     1     -59.975 -43.202 -41.235  1.00  0.00     0.293 HD
ENDBRANCH  30  38
BRANCH  35  40
ATOM     40  C   UNL     1     -65.230 -46.430 -42.167  1.00  0.00    -0.003 A 
ATOM     41  C   UNL     1     -65.269 -45.261 -42.827  1.00  0.00     0.057 A 
ATOM     42  C   UNL     1     -66.448 -47.212 -42.251  1.00  0.00     0.011 A 
ATOM     43  C   UNL     1     -66.396 -44.659 -43.305  1.00  0.00     0.158 A 
ATOM     44  C   UNL     1     -67.669 -46.619 -42.702  1.00  0.00     0.051 A 
ATOM     45  C   UNL     1     -67.629 -45.275 -43.178  1.00  0.00     0.160 A 
BRANCH  43  46
ATOM     46  O   UNL     1     -66.325 -43.289 -43.728  1.00  0.00    -0.504 OA
ATOM     47  H   UNL     1     -65.617 -42.931 -44.374  1.00  0.00     0.293 HD
ENDBRANCH  43  46
BRANCH  45  48
ATOM     48  O   UNL     1     -68.785 -44.454 -43.355  1.00  0.00    -0.493 OA
ATOM     49  C   UNL     1     -69.484 -43.838 -42.234  1.00  0.00     0.278 C 
ENDBRANCH  45  48
ENDBRANCH  35  40
ENDBRANCH  26  27
ENDBRANCH   5  26
BRANCH   4  50
ATOM     50  O   UNL     1     -61.280 -45.985 -34.312  1.00  0.00    -0.384 OA
ATOM     51  H   UNL     1     -60.986 -45.374 -35.061  1.00  0.00     0.211 HD
ENDBRANCH   4  50
TORSDOF 15
ENDMDL
MODEL 5
REMARK VINA RESULT:    -7.492      2.700      9.028
REMARK INTER + INTRA:         -14.630
REMARK INTER:                 -11.481
REMARK INTRA:                  -3.148
REMARK UNBOUND:                -2.320
REMARK SMILES COc1ccc([C@H]2CC(=O)c3c(O)cc(O[C@@H]4O[C@H](CO[C@H]5O[C@H](C)[C@@H](O)[C@H](O)[C@@H]5O)[C@H](O)[C@H](O)[C@@H]4O)cc3O2)cc1O
REMARK SMILES IDX 19 1 32 2 34 3 36 4 17 5 18 6 20 7 21 8 22 9 25 10 24 11
REMARK SMILES IDX 26 12 23 13 28 14 30 15 27 16 29 18 31 20 33 22 35 24 16 26
REMARK SMILES IDX 15 27 14 28 38 29 12 30 39 31 11 32 40 33 9 34 7 35 10 36
REMARK SMILES IDX 8 37 13 38 6 40 41 41 5 42 42 43 4 44 3 45 43 46 2 48 1 49
REMARK SMILES IDX 37 50
REMARK H PARENT 27 17 29 19 31 21 33 23 35 25 13 39 43 47 37 51
REMARK Flexibility Score: inf
ROOT
ATOM      1  C   UNL     1     -67.117 -44.526 -40.959  1.00  0.00     0.180 C 
ATOM      2  C   UNL     1     -68.246 -44.949 -42.034  1.00  0.00     0.177 C 
ATOM      3  C   UNL     1     -68.188 -46.563 -41.857  1.00  0.00     0.180 C 
ATOM      4  C   UNL     1     -66.921 -46.717 -42.965  1.00  0.00     0.214 C 
ATOM      5  C   UNL     1     -65.736 -45.548 -42.693  1.00  0.00     0.339 C 
ATOM      6  O   UNL     1     -65.837 -44.835 -41.448  1.00  0.00    -0.332 OA
ENDROOT
BRANCH   1   7
ATOM      7  C   UNL     1     -67.187 -44.815 -39.329  1.00  0.00     0.198 C 
BRANCH   7   8
ATOM      8  O   UNL     1     -66.356 -45.735 -38.670  1.00  0.00    -0.347 OA
BRANCH   8   9
ATOM      9  C   UNL     1     -66.118 -45.572 -37.188  1.00  0.00     0.281 C 
ATOM     10  C   UNL     1     -65.284 -43.736 -34.878  1.00  0.00     0.041 C 
ATOM     11  C   UNL     1     -66.703 -44.340 -35.245  1.00  0.00     0.150 C 
ATOM     12  C   UNL     1     -67.033 -45.609 -34.284  1.00  0.00     0.174 C 
ATOM     13  O   UNL     1     -66.985 -44.575 -36.681  1.00  0.00    -0.344 OA
ATOM     14  C   UNL     1     -67.157 -46.955 -35.022  1.00  0.00     0.179 C 
ATOM     15  C   UNL     1     -66.195 -46.879 -36.318  1.00  0.00     0.202 C 
BRANCH  12  16
ATOM     16  O   UNL     1     -68.193 -45.320 -33.483  1.00  0.00    -0.388 OA
ATOM     17  H   UNL     1     -68.104 -44.372 -33.046  1.00  0.00     0.211 HD
ENDBRANCH  12  16
BRANCH  14  18
ATOM     18  O   UNL     1     -67.026 -48.044 -34.094  1.00  0.00    -0.387 OA
ATOM     19  H   UNL     1     -67.333 -49.005 -34.407  1.00  0.00     0.211 HD
ENDBRANCH  14  18
BRANCH  15  20
ATOM     20  O   UNL     1     -64.899 -47.245 -35.953  1.00  0.00    -0.385 OA
ATOM     21  H   UNL     1     -64.521 -46.404 -35.532  1.00  0.00     0.211 HD
ENDBRANCH  15  20
ENDBRANCH   8   9
ENDBRANCH   7   8
ENDBRANCH   1   7
BRANCH   2  22
ATOM     22  O   UNL     1     -69.479 -44.293 -41.856  1.00  0.00    -0.387 OA
ATOM     23  H   UNL     1     -69.561 -43.619 -42.590  1.00  0.00     0.211 HD
ENDBRANCH   2  22
BRANCH   3  24
ATOM     24  O   UNL     1     -67.680 -47.232 -40.762  1.00  0.00    -0.387 OA
ATOM     25  H   UNL     1     -67.201 -47.994 -41.119  1.00  0.00     0.211 HD
ENDBRANCH   3  24
BRANCH   5  26
ATOM     26  O   UNL     1     -64.328 -46.006 -42.833  1.00  0.00    -0.462 OA
BRANCH  26  27
ATOM     27  C   UNL     1     -63.639 -46.279 -41.658  1.00  0.00     0.130 A 
ATOM     28  C   UNL     1     -63.923 -47.344 -40.798  1.00  0.00     0.093 A 
ATOM     29  C   UNL     1     -62.729 -45.284 -41.124  1.00  0.00     0.094 A 
ATOM     30  C   UNL     1     -63.427 -47.420 -39.468  1.00  0.00     0.133 A 
ATOM     31  C   UNL     1     -62.169 -45.389 -39.791  1.00  0.00     0.138 A 
ATOM     32  C   UNL     1     -62.533 -46.483 -38.992  1.00  0.00     0.102 A 
ATOM     33  O   UNL     1     -61.249 -44.482 -39.309  1.00  0.00    -0.484 OA
ATOM     34  C   UNL     1     -61.730 -46.754 -37.845  1.00  0.00     0.174 C 
ATOM     35  C   UNL     1     -60.385 -44.630 -38.162  1.00  0.00     0.211 C 
ATOM     36  O   UNL     1     -62.058 -47.483 -36.841  1.00  0.00    -0.294 OA
ATOM     37  C   UNL     1     -60.304 -46.112 -37.818  1.00  0.00     0.131 C 
BRANCH  30  38
ATOM     38  O   UNL     1     -64.074 -48.427 -38.665  1.00  0.00    -0.507 OA
ATOM     39  H   UNL     1     -64.644 -49.186 -39.148  1.00  0.00     0.293 HD
ENDBRANCH  30  38
BRANCH  35  40
ATOM     40  C   UNL     1     -60.913 -43.801 -36.991  1.00  0.00    -0.003 A 
ATOM     41  C   UNL     1     -62.017 -43.038 -36.925  1.00  0.00     0.057 A 
ATOM     42  C   UNL     1     -60.130 -43.836 -35.771  1.00  0.00     0.011 A 
ATOM     43  C   UNL     1     -62.289 -42.124 -35.950  1.00  0.00     0.158 A 
ATOM     44  C   UNL     1     -60.343 -42.874 -34.736  1.00  0.00     0.051 A 
ATOM     45  C   UNL     1     -61.424 -41.955 -34.883  1.00  0.00     0.160 A 
BRANCH  43  46
ATOM     46  O   UNL     1     -63.354 -41.183 -36.159  1.00  0.00    -0.504 OA
ATOM     47  H   UNL     1     -64.345 -41.415 -36.048  1.00  0.00     0.293 HD
ENDBRANCH  43  46
BRANCH  45  48
ATOM     48  O   UNL     1     -61.567 -40.758 -34.115  1.00  0.00    -0.493 OA
ATOM     49  C   UNL     1     -62.211 -40.743 -32.808  1.00  0.00     0.278 C 
ENDBRANCH  45  48
ENDBRANCH  35  40
ENDBRANCH  26  27
ENDBRANCH   5  26
BRANCH   4  50
ATOM     50  O   UNL     1     -66.351 -47.994 -42.853  1.00  0.00    -0.384 OA
ATOM     51  H   UNL     1     -65.983 -48.025 -41.913  1.00  0.00     0.211 HD
ENDBRANCH   4  50
TORSDOF 15
ENDMDL
MODEL 6
REMARK VINA RESULT:    -7.490      2.491      8.807
REMARK INTER + INTRA:         -14.627
REMARK INTER:                 -11.664
REMARK INTRA:                  -2.962
REMARK UNBOUND:                -2.320
REMARK SMILES COc1ccc([C@H]2CC(=O)c3c(O)cc(O[C@@H]4O[C@H](CO[C@H]5O[C@H](C)[C@@H](O)[C@H](O)[C@@H]5O)[C@H](O)[C@H](O)[C@@H]4O)cc3O2)cc1O
REMARK SMILES IDX 19 1 32 2 34 3 36 4 17 5 18 6 20 7 21 8 22 9 25 10 24 11
REMARK SMILES IDX 26 12 23 13 28 14 30 15 27 16 29 18 31 20 33 22 35 24 16 26
REMARK SMILES IDX 15 27 14 28 38 29 12 30 39 31 11 32 40 33 9 34 7 35 10 36
REMARK SMILES IDX 8 37 13 38 6 40 41 41 5 42 42 43 4 44 3 45 43 46 2 48 1 49
REMARK SMILES IDX 37 50
REMARK H PARENT 27 17 29 19 31 21 33 23 35 25 13 39 43 47 37 51
REMARK Flexibility Score: inf
ROOT
ATOM      1  C   UNL     1     -66.259 -45.803 -39.871  1.00  0.00     0.180 C 
ATOM      2  C   UNL     1     -66.984 -45.532 -41.290  1.00  0.00     0.177 C 
ATOM      3  C   UNL     1     -66.522 -46.873 -42.083  1.00  0.00     0.180 C 
ATOM      4  C   UNL     1     -65.062 -46.174 -42.573  1.00  0.00     0.214 C 
ATOM      5  C   UNL     1     -64.326 -45.357 -41.294  1.00  0.00     0.339 C 
ATOM      6  O   UNL     1     -64.871 -45.618 -39.989  1.00  0.00    -0.332 OA
ENDROOT
BRANCH   1   7
ATOM      7  C   UNL     1     -66.578 -47.074 -38.858  1.00  0.00     0.198 C 
BRANCH   7   8
ATOM      8  O   UNL     1     -65.828 -47.352 -37.704  1.00  0.00    -0.347 OA
BRANCH   8   9
ATOM      9  C   UNL     1     -65.892 -46.388 -36.543  1.00  0.00     0.281 C 
ATOM     10  C   UNL     1     -66.249 -43.498 -35.583  1.00  0.00     0.041 C 
ATOM     11  C   UNL     1     -67.211 -44.750 -35.442  1.00  0.00     0.150 C 
ATOM     12  C   UNL     1     -67.104 -45.368 -33.942  1.00  0.00     0.174 C 
ATOM     13  O   UNL     1     -67.163 -45.764 -36.523  1.00  0.00    -0.344 OA
ATOM     14  C   UNL     1     -66.540 -46.800 -33.879  1.00  0.00     0.179 C 
ATOM     15  C   UNL     1     -65.530 -46.971 -35.129  1.00  0.00     0.202 C 
BRANCH  12  16
ATOM     16  O   UNL     1     -68.377 -45.257 -33.280  1.00  0.00    -0.388 OA
ATOM     17  H   UNL     1     -68.988 -44.573 -33.786  1.00  0.00     0.211 HD
ENDBRANCH  12  16
BRANCH  14  18
ATOM     18  O   UNL     1     -66.092 -47.100 -32.548  1.00  0.00    -0.387 OA
ATOM     19  H   UNL     1     -66.346 -48.038 -32.135  1.00  0.00     0.211 HD
ENDBRANCH  14  18
BRANCH  15  20
ATOM     20  O   UNL     1     -64.266 -46.501 -34.768  1.00  0.00    -0.385 OA
ATOM     21  H   UNL     1     -64.238 -46.631 -33.763  1.00  0.00     0.211 HD
ENDBRANCH  15  20
ENDBRANCH   8   9
ENDBRANCH   7   8
ENDBRANCH   1   7
BRANCH   2  22
ATOM     22  O   UNL     1     -68.359 -45.249 -41.183  1.00  0.00    -0.387 OA
ATOM     23  H   UNL     1     -68.783 -46.029 -40.724  1.00  0.00     0.211 HD
ENDBRANCH   2  22
BRANCH   3  24
ATOM     24  O   UNL     1     -66.085 -48.042 -41.496  1.00  0.00    -0.387 OA
ATOM     25  H   UNL     1     -66.628 -48.156 -40.703  1.00  0.00     0.211 HD
ENDBRANCH   3  24
BRANCH   5  26
ATOM     26  O   UNL     1     -62.849 -45.498 -41.198  1.00  0.00    -0.462 OA
BRANCH  26  27
ATOM     27  C   UNL     1     -62.316 -45.653 -39.924  1.00  0.00     0.130 A 
ATOM     28  C   UNL     1     -62.510 -46.774 -39.112  1.00  0.00     0.093 A 
ATOM     29  C   UNL     1     -61.730 -44.507 -39.258  1.00  0.00     0.094 A 
ATOM     30  C   UNL     1     -62.230 -46.780 -37.718  1.00  0.00     0.133 A 
ATOM     31  C   UNL     1     -61.382 -44.527 -37.851  1.00  0.00     0.138 A 
ATOM     32  C   UNL     1     -61.637 -45.692 -37.111  1.00  0.00     0.102 A 
ATOM     33  O   UNL     1     -60.758 -43.463 -37.235  1.00  0.00    -0.484 OA
ATOM     34  C   UNL     1     -60.990 -45.820 -35.847  1.00  0.00     0.174 C 
ATOM     35  C   UNL     1     -60.079 -43.459 -35.961  1.00  0.00     0.211 C 
ATOM     36  O   UNL     1     -61.319 -46.626 -34.903  1.00  0.00    -0.294 OA
ATOM     37  C   UNL     1     -59.750 -44.901 -35.594  1.00  0.00     0.131 C 
BRANCH  30  38
ATOM     38  O   UNL     1     -62.776 -47.918 -37.022  1.00  0.00    -0.507 OA
ATOM     39  H   UNL     1     -62.325 -48.872 -37.158  1.00  0.00     0.293 HD
ENDBRANCH  30  38
BRANCH  35  40
ATOM     40  C   UNL     1     -60.948 -42.784 -34.899  1.00  0.00    -0.003 A 
ATOM     41  C   UNL     1     -60.793 -42.773 -33.564  1.00  0.00     0.057 A 
ATOM     42  C   UNL     1     -62.098 -42.045 -35.380  1.00  0.00     0.011 A 
ATOM     43  C   UNL     1     -61.738 -42.380 -32.662  1.00  0.00     0.158 A 
ATOM     44  C   UNL     1     -63.140 -41.648 -34.485  1.00  0.00     0.051 A 
ATOM     45  C   UNL     1     -62.961 -41.894 -33.092  1.00  0.00     0.160 A 
BRANCH  43  46
ATOM     46  O   UNL     1     -61.544 -42.691 -31.274  1.00  0.00    -0.504 OA
ATOM     47  H   UNL     1     -60.942 -43.449 -30.942  1.00  0.00     0.293 HD
ENDBRANCH  43  46
BRANCH  45  48
ATOM     48  O   UNL     1     -64.016 -41.852 -32.130  1.00  0.00    -0.493 OA
ATOM     49  C   UNL     1     -65.021 -42.903 -32.028  1.00  0.00     0.278 C 
ENDBRANCH  45  48
ENDBRANCH  35  40
ENDBRANCH  26  27
ENDBRANCH   5  26
BRANCH   4  50
ATOM     50  O   UNL     1     -64.199 -47.172 -43.047  1.00  0.00    -0.384 OA
ATOM     51  H   UNL     1     -64.768 -48.005 -43.078  1.00  0.00     0.211 HD
ENDBRANCH   4  50
TORSDOF 15
ENDMDL
MODEL 7
REMARK VINA RESULT:    -7.375      2.387      3.884
REMARK INTER + INTRA:         -14.437
REMARK INTER:                 -11.446
REMARK INTRA:                  -2.991
REMARK UNBOUND:                -2.320
REMARK SMILES COc1ccc([C@H]2CC(=O)c3c(O)cc(O[C@@H]4O[C@H](CO[C@H]5O[C@H](C)[C@@H](O)[C@H](O)[C@@H]5O)[C@H](O)[C@H](O)[C@@H]4O)cc3O2)cc1O
REMARK SMILES IDX 19 1 32 2 34 3 36 4 17 5 18 6 20 7 21 8 22 9 25 10 24 11
REMARK SMILES IDX 26 12 23 13 28 14 30 15 27 16 29 18 31 20 33 22 35 24 16 26
REMARK SMILES IDX 15 27 14 28 38 29 12 30 39 31 11 32 40 33 9 34 7 35 10 36
REMARK SMILES IDX 8 37 13 38 6 40 41 41 5 42 42 43 4 44 3 45 43 46 2 48 1 49
REMARK SMILES IDX 37 50
REMARK H PARENT 27 17 29 19 31 21 33 23 35 25 13 39 43 47 37 51
REMARK Flexibility Score: inf
ROOT
ATOM      1  C   UNL     1     -62.220 -40.826 -34.586  1.00  0.00     0.180 C 
ATOM      2  C   UNL     1     -61.470 -39.846 -33.543  1.00  0.00     0.177 C 
ATOM      3  C   UNL     1     -60.630 -40.952 -32.698  1.00  0.00     0.180 C 
ATOM      4  C   UNL     1     -61.925 -41.251 -31.653  1.00  0.00     0.214 C 
ATOM      5  C   UNL     1     -63.370 -41.402 -32.511  1.00  0.00     0.339 C 
ATOM      6  O   UNL     1     -63.239 -41.543 -33.936  1.00  0.00    -0.332 OA
ENDROOT
BRANCH   1   7
ATOM      7  C   UNL     1     -61.470 -41.791 -35.704  1.00  0.00     0.198 C 
BRANCH   7   8
ATOM      8  O   UNL     1     -61.976 -42.017 -36.995  1.00  0.00    -0.347 OA
BRANCH   8   9
ATOM      9  C   UNL     1     -61.582 -43.280 -37.722  1.00  0.00     0.281 C 
ATOM     10  C   UNL     1     -59.963 -45.884 -37.715  1.00  0.00     0.041 C 
ATOM     11  C   UNL     1     -61.528 -45.651 -37.619  1.00  0.00     0.150 C 
ATOM     12  C   UNL     1     -62.223 -45.940 -39.060  1.00  0.00     0.174 C 
ATOM     13  O   UNL     1     -61.986 -44.404 -36.961  1.00  0.00    -0.344 OA
ATOM     14  C   UNL     1     -62.884 -44.710 -39.709  1.00  0.00     0.179 C 
ATOM     15  C   UNL     1     -62.063 -43.409 -39.213  1.00  0.00     0.202 C 
BRANCH  12  16
ATOM     16  O   UNL     1     -63.133 -47.048 -38.945  1.00  0.00    -0.388 OA
ATOM     17  H   UNL     1     -62.612 -47.953 -39.022  1.00  0.00     0.211 HD
ENDBRANCH  12  16
BRANCH  14  18
ATOM     18  O   UNL     1     -63.088 -44.937 -41.113  1.00  0.00    -0.387 OA
ATOM     19  H   UNL     1     -63.959 -45.454 -41.412  1.00  0.00     0.211 HD
ENDBRANCH  14  18
BRANCH  15  20
ATOM     20  O   UNL     1     -60.965 -43.209 -40.051  1.00  0.00    -0.385 OA
ATOM     21  H   UNL     1     -61.353 -42.709 -40.843  1.00  0.00     0.211 HD
ENDBRANCH  15  20
ENDBRANCH   8   9
ENDBRANCH   7   8
ENDBRANCH   1   7
BRANCH   2  22
ATOM     22  O   UNL     1     -60.770 -38.789 -34.154  1.00  0.00    -0.387 OA
ATOM     23  H   UNL     1     -61.182 -37.938 -33.828  1.00  0.00     0.211 HD
ENDBRANCH   2  22
BRANCH   3  24
ATOM     24  O   UNL     1     -60.324 -42.226 -33.129  1.00  0.00    -0.387 OA
ATOM     25  H   UNL     1     -60.356 -42.192 -34.096  1.00  0.00     0.211 HD
ENDBRANCH   3  24
BRANCH   5  26
ATOM     26  O   UNL     1     -64.297 -42.465 -32.039  1.00  0.00    -0.462 OA
BRANCH  26  27
ATOM     27  C   UNL     1     -64.482 -43.554 -32.884  1.00  0.00     0.130 A 
ATOM     28  C   UNL     1     -63.553 -44.581 -33.071  1.00  0.00     0.093 A 
ATOM     29  C   UNL     1     -65.576 -43.534 -33.834  1.00  0.00     0.094 A 
ATOM     30  C   UNL     1     -63.619 -45.499 -34.155  1.00  0.00     0.133 A 
ATOM     31  C   UNL     1     -65.686 -44.507 -34.903  1.00  0.00     0.138 A 
ATOM     32  C   UNL     1     -64.690 -45.487 -35.026  1.00  0.00     0.102 A 
ATOM     33  O   UNL     1     -66.764 -44.533 -35.762  1.00  0.00    -0.484 OA
ATOM     34  C   UNL     1     -64.981 -46.619 -35.844  1.00  0.00     0.174 C 
ATOM     35  C   UNL     1     -67.161 -45.605 -36.643  1.00  0.00     0.211 C 
ATOM     36  O   UNL     1     -64.128 -47.445 -36.330  1.00  0.00    -0.294 OA
ATOM     37  C   UNL     1     -66.488 -46.886 -36.164  1.00  0.00     0.131 C 
BRANCH  30  38
ATOM     38  O   UNL     1     -62.418 -46.274 -34.334  1.00  0.00    -0.507 OA
ATOM     39  H   UNL     1     -62.456 -47.328 -34.187  1.00  0.00     0.293 HD
ENDBRANCH  30  38
BRANCH  35  40
ATOM     40  C   UNL     1     -66.789 -45.271 -38.087  1.00  0.00    -0.003 A 
ATOM     41  C   UNL     1     -66.524 -44.074 -38.636  1.00  0.00     0.057 A 
ATOM     42  C   UNL     1     -66.696 -46.390 -39.005  1.00  0.00     0.011 A 
ATOM     43  C   UNL     1     -66.457 -43.814 -39.974  1.00  0.00     0.158 A 
ATOM     44  C   UNL     1     -66.669 -46.177 -40.419  1.00  0.00     0.051 A 
ATOM     45  C   UNL     1     -66.615 -44.834 -40.897  1.00  0.00     0.160 A 
BRANCH  43  46
ATOM     46  O   UNL     1     -66.455 -42.448 -40.417  1.00  0.00    -0.504 OA
ATOM     47  H   UNL     1     -65.660 -41.815 -40.297  1.00  0.00     0.293 HD
ENDBRANCH  43  46
BRANCH  45  48
ATOM     48  O   UNL     1     -66.900 -44.452 -42.243  1.00  0.00    -0.493 OA
ATOM     49  C   UNL     1     -65.992 -44.741 -43.346  1.00  0.00     0.278 C 
ENDBRANCH  45  48
ENDBRANCH  35  40
ENDBRANCH  26  27
ENDBRANCH   5  26
BRANCH   4  50
ATOM     50  O   UNL     1     -61.686 -42.430 -30.933  1.00  0.00    -0.384 OA
ATOM     51  H   UNL     1     -61.489 -43.123 -31.640  1.00  0.00     0.211 HD
ENDBRANCH   4  50
TORSDOF 15
ENDMDL
MODEL 8
REMARK VINA RESULT:    -7.356      2.667      4.913
REMARK INTER + INTRA:         -14.406
REMARK INTER:                 -11.451
REMARK INTRA:                  -2.955
REMARK UNBOUND:                -2.320
REMARK SMILES COc1ccc([C@H]2CC(=O)c3c(O)cc(O[C@@H]4O[C@H](CO[C@H]5O[C@H](C)[C@@H](O)[C@H](O)[C@@H]5O)[C@H](O)[C@H](O)[C@@H]4O)cc3O2)cc1O
REMARK SMILES IDX 19 1 32 2 34 3 36 4 17 5 18 6 20 7 21 8 22 9 25 10 24 11
REMARK SMILES IDX 26 12 23 13 28 14 30 15 27 16 29 18 31 20 33 22 35 24 16 26
REMARK SMILES IDX 15 27 14 28 38 29 12 30 39 31 11 32 40 33 9 34 7 35 10 36
REMARK SMILES IDX 8 37 13 38 6 40 41 41 5 42 42 43 4 44 3 45 43 46 2 48 1 49
REMARK SMILES IDX 37 50
REMARK H PARENT 27 17 29 19 31 21 33 23 35 25 13 39 43 47 37 51
REMARK Flexibility Score: inf
ROOT
ATOM      1  C   UNL     1     -62.116 -40.845 -34.650  1.00  0.00     0.180 C 
ATOM      2  C   UNL     1     -61.526 -39.788 -33.579  1.00  0.00     0.177 C 
ATOM      3  C   UNL     1     -60.667 -40.806 -32.648  1.00  0.00     0.180 C 
ATOM      4  C   UNL     1     -62.009 -41.188 -31.693  1.00  0.00     0.214 C 
ATOM      5  C   UNL     1     -63.369 -41.471 -32.650  1.00  0.00     0.339 C 
ATOM      6  O   UNL     1     -63.121 -41.629 -34.058  1.00  0.00    -0.332 OA
ENDROOT
BRANCH   1   7
ATOM      7  C   UNL     1     -61.211 -41.769 -35.685  1.00  0.00     0.198 C 
BRANCH   7   8
ATOM      8  O   UNL     1     -61.625 -43.021 -36.167  1.00  0.00    -0.347 OA
BRANCH   8   9
ATOM      9  C   UNL     1     -62.371 -43.089 -37.478  1.00  0.00     0.281 C 
ATOM     10  C   UNL     1     -63.625 -44.833 -39.665  1.00  0.00     0.041 C 
ATOM     11  C   UNL     1     -64.310 -43.907 -38.576  1.00  0.00     0.150 C 
ATOM     12  C   UNL     1     -64.777 -42.504 -39.252  1.00  0.00     0.174 C 
ATOM     13  O   UNL     1     -63.605 -43.754 -37.281  1.00  0.00    -0.344 OA
ATOM     14  C   UNL     1     -64.056 -41.258 -38.702  1.00  0.00     0.179 C 
ATOM     15  C   UNL     1     -62.581 -41.727 -38.235  1.00  0.00     0.202 C 
BRANCH  12  16
ATOM     16  O   UNL     1     -66.208 -42.381 -39.174  1.00  0.00    -0.388 OA
ATOM     17  H   UNL     1     -66.498 -41.399 -39.393  1.00  0.00     0.211 HD
ENDBRANCH  12  16
BRANCH  14  18
ATOM     18  O   UNL     1     -64.205 -40.156 -39.610  1.00  0.00    -0.387 OA
ATOM     19  H   UNL     1     -63.973 -39.187 -39.261  1.00  0.00     0.211 HD
ENDBRANCH  14  18
BRANCH  15  20
ATOM     20  O   UNL     1     -61.718 -41.692 -39.330  1.00  0.00    -0.385 OA
ATOM     21  H   UNL     1     -60.953 -41.105 -39.016  1.00  0.00     0.211 HD
ENDBRANCH  15  20
ENDBRANCH   8   9
ENDBRANCH   7   8
ENDBRANCH   1   7
BRANCH   2  22
ATOM     22  O   UNL     1     -60.867 -38.690 -34.165  1.00  0.00    -0.387 OA
ATOM     23  H   UNL     1     -61.120 -37.881 -33.634  1.00  0.00     0.211 HD
ENDBRANCH   2  22
BRANCH   3  24
ATOM     24  O   UNL     1     -60.230 -42.060 -33.023  1.00  0.00    -0.387 OA
ATOM     25  H   UNL     1     -59.485 -41.910 -33.623  1.00  0.00     0.211 HD
ENDBRANCH   3  24
BRANCH   5  26
ATOM     26  O   UNL     1     -64.242 -42.595 -32.221  1.00  0.00    -0.462 OA
BRANCH  26  27
ATOM     27  C   UNL     1     -64.132 -43.782 -32.937  1.00  0.00     0.130 A 
ATOM     28  C   UNL     1     -62.924 -44.406 -33.259  1.00  0.00     0.093 A 
ATOM     29  C   UNL     1     -65.296 -44.304 -33.625  1.00  0.00     0.094 A 
ATOM     30  C   UNL     1     -62.816 -45.426 -34.244  1.00  0.00     0.133 A 
ATOM     31  C   UNL     1     -65.203 -45.387 -34.583  1.00  0.00     0.138 A 
ATOM     32  C   UNL     1     -63.941 -45.935 -34.861  1.00  0.00     0.102 A 
ATOM     33  O   UNL     1     -66.319 -45.932 -35.184  1.00  0.00    -0.484 OA
ATOM     34  C   UNL     1     -63.906 -47.196 -35.525  1.00  0.00     0.174 C 
ATOM     35  C   UNL     1     -66.413 -47.187 -35.891  1.00  0.00     0.211 C 
ATOM     36  O   UNL     1     -62.898 -47.706 -36.135  1.00  0.00    -0.294 OA
ATOM     37  C   UNL     1     -65.218 -48.046 -35.493  1.00  0.00     0.131 C 
BRANCH  30  38
ATOM     38  O   UNL     1     -61.459 -45.717 -34.633  1.00  0.00    -0.507 OA
ATOM     39  H   UNL     1     -60.694 -45.013 -34.402  1.00  0.00     0.293 HD
ENDBRANCH  30  38
BRANCH  35  40
ATOM     40  C   UNL     1     -66.463 -46.944 -37.399  1.00  0.00    -0.003 A 
ATOM     41  C   UNL     1     -66.931 -45.877 -38.068  1.00  0.00     0.057 A 
ATOM     42  C   UNL     1     -65.931 -47.998 -38.240  1.00  0.00     0.011 A 
ATOM     43  C   UNL     1     -67.187 -45.833 -39.407  1.00  0.00     0.158 A 
ATOM     44  C   UNL     1     -66.207 -48.026 -39.643  1.00  0.00     0.051 A 
ATOM     45  C   UNL     1     -66.918 -46.928 -40.211  1.00  0.00     0.160 A 
BRANCH  43  46
ATOM     46  O   UNL     1     -67.950 -44.735 -39.933  1.00  0.00    -0.504 OA
ATOM     47  H   UNL     1     -68.105 -44.581 -40.932  1.00  0.00     0.293 HD
ENDBRANCH  43  46
BRANCH  45  48
ATOM     48  O   UNL     1     -67.537 -46.955 -41.498  1.00  0.00    -0.493 OA
ATOM     49  C   UNL     1     -68.712 -47.770 -41.782  1.00  0.00     0.278 C 
ENDBRANCH  45  48
ENDBRANCH  35  40
ENDBRANCH  26  27
ENDBRANCH   5  26
BRANCH   4  50
ATOM     50  O   UNL     1     -61.732 -42.330 -30.928  1.00  0.00    -0.384 OA
ATOM     51  H   UNL     1     -60.895 -42.094 -30.416  1.00  0.00     0.211 HD
ENDBRANCH   4  50
TORSDOF 15
ENDMDL
MODEL 9
REMARK VINA RESULT:    -7.288      2.214      8.388
REMARK INTER + INTRA:         -14.293
REMARK INTER:                 -11.604
REMARK INTRA:                  -2.690
REMARK UNBOUND:                -2.320
REMARK SMILES COc1ccc([C@H]2CC(=O)c3c(O)cc(O[C@@H]4O[C@H](CO[C@H]5O[C@H](C)[C@@H](O)[C@H](O)[C@@H]5O)[C@H](O)[C@H](O)[C@@H]4O)cc3O2)cc1O
REMARK SMILES IDX 19 1 32 2 34 3 36 4 17 5 18 6 20 7 21 8 22 9 25 10 24 11
REMARK SMILES IDX 26 12 23 13 28 14 30 15 27 16 29 18 31 20 33 22 35 24 16 26
REMARK SMILES IDX 15 27 14 28 38 29 12 30 39 31 11 32 40 33 9 34 7 35 10 36
REMARK SMILES IDX 8 37 13 38 6 40 41 41 5 42 42 43 4 44 3 45 43 46 2 48 1 49
REMARK SMILES IDX 37 50
REMARK H PARENT 27 17 29 19 31 21 33 23 35 25 13 39 43 47 37 51
REMARK Flexibility Score: inf
ROOT
ATOM      1  C   UNL     1     -65.502 -43.460 -38.470  1.00  0.00     0.180 C 
ATOM      2  C   UNL     1     -66.143 -42.986 -39.874  1.00  0.00     0.177 C 
ATOM      3  C   UNL     1     -67.081 -44.277 -40.186  1.00  0.00     0.180 C 
ATOM      4  C   UNL     1     -65.813 -45.116 -40.925  1.00  0.00     0.214 C 
ATOM      5  C   UNL     1     -64.397 -44.992 -40.018  1.00  0.00     0.339 C 
ATOM      6  O   UNL     1     -64.553 -44.474 -38.684  1.00  0.00    -0.332 OA
ENDROOT
BRANCH   1   7
ATOM      7  C   UNL     1     -66.351 -43.763 -37.080  1.00  0.00     0.198 C 
BRANCH   7   8
ATOM      8  O   UNL     1     -66.114 -43.094 -35.867  1.00  0.00    -0.347 OA
BRANCH   8   9
ATOM      9  C   UNL     1     -65.824 -43.909 -34.630  1.00  0.00     0.281 C 
ATOM     10  C   UNL     1     -65.617 -46.681 -33.335  1.00  0.00     0.041 C 
ATOM     11  C   UNL     1     -64.483 -45.636 -33.704  1.00  0.00     0.150 C 
ATOM     12  C   UNL     1     -64.007 -44.839 -32.369  1.00  0.00     0.174 C 
ATOM     13  O   UNL     1     -64.725 -44.766 -34.879  1.00  0.00    -0.344 OA
ATOM     14  C   UNL     1     -64.298 -43.326 -32.390  1.00  0.00     0.179 C 
ATOM     15  C   UNL     1     -65.619 -43.106 -33.294  1.00  0.00     0.202 C 
BRANCH  12  16
ATOM     16  O   UNL     1     -62.621 -45.121 -32.106  1.00  0.00    -0.388 OA
ATOM     17  H   UNL     1     -62.130 -45.381 -32.994  1.00  0.00     0.211 HD
ENDBRANCH  12  16
BRANCH  14  18
ATOM     18  O   UNL     1     -64.242 -42.791 -31.058  1.00  0.00    -0.387 OA
ATOM     19  H   UNL     1     -64.421 -43.447 -30.250  1.00  0.00     0.211 HD
ENDBRANCH  14  18
BRANCH  15  20
ATOM     20  O   UNL     1     -66.755 -43.272 -32.500  1.00  0.00    -0.385 OA
ATOM     21  H   UNL     1     -67.039 -42.323 -32.284  1.00  0.00     0.211 HD
ENDBRANCH  15  20
ENDBRANCH   8   9
ENDBRANCH   7   8
ENDBRANCH   1   7
BRANCH   2  22
ATOM     22  O   UNL     1     -66.741 -41.712 -39.828  1.00  0.00    -0.387 OA
ATOM     23  H   UNL     1     -67.712 -41.837 -40.029  1.00  0.00     0.211 HD
ENDBRANCH   2  22
BRANCH   3  24
ATOM     24  O   UNL     1     -67.514 -45.196 -39.254  1.00  0.00    -0.387 OA
ATOM     25  H   UNL     1     -68.165 -44.731 -38.708  1.00  0.00     0.211 HD
ENDBRANCH   3  24
BRANCH   5  26
ATOM     26  O   UNL     1     -63.575 -46.227 -39.925  1.00  0.00    -0.462 OA
BRANCH  26  27
ATOM     27  C   UNL     1     -62.889 -46.435 -38.733  1.00  0.00     0.130 A 
ATOM     28  C   UNL     1     -63.205 -47.421 -37.795  1.00  0.00     0.093 A 
ATOM     29  C   UNL     1     -61.944 -45.434 -38.278  1.00  0.00     0.094 A 
ATOM     30  C   UNL     1     -62.705 -47.414 -36.464  1.00  0.00     0.133 A 
ATOM     31  C   UNL     1     -61.381 -45.458 -36.943  1.00  0.00     0.138 A 
ATOM     32  C   UNL     1     -61.777 -46.475 -36.062  1.00  0.00     0.102 A 
ATOM     33  O   UNL     1     -60.427 -44.549 -36.534  1.00  0.00    -0.484 OA
ATOM     34  C   UNL     1     -60.978 -46.686 -34.901  1.00  0.00     0.174 C 
ATOM     35  C   UNL     1     -59.563 -44.639 -35.381  1.00  0.00     0.211 C 
ATOM     36  O   UNL     1     -61.325 -47.326 -33.844  1.00  0.00    -0.294 OA
ATOM     37  C   UNL     1     -59.530 -46.094 -34.926  1.00  0.00     0.131 C 
BRANCH  30  38
ATOM     38  O   UNL     1     -63.382 -48.335 -35.586  1.00  0.00    -0.507 OA
ATOM     39  H   UNL     1     -64.436 -48.251 -35.462  1.00  0.00     0.293 HD
ENDBRANCH  30  38
BRANCH  35  40
ATOM     40  C   UNL     1     -60.056 -43.707 -34.274  1.00  0.00    -0.003 A 
ATOM     41  C   UNL     1     -60.929 -42.688 -34.354  1.00  0.00     0.057 A 
ATOM     42  C   UNL     1     -59.525 -43.944 -32.947  1.00  0.00     0.011 A 
ATOM     43  C   UNL     1     -61.124 -41.738 -33.395  1.00  0.00     0.158 A 
ATOM     44  C   UNL     1     -59.662 -42.962 -31.917  1.00  0.00     0.051 A 
ATOM     45  C   UNL     1     -60.437 -41.797 -32.195  1.00  0.00     0.160 A 
BRANCH  43  46
ATOM     46  O   UNL     1     -61.868 -40.556 -33.731  1.00  0.00    -0.504 OA
ATOM     47  H   UNL     1     -62.670 -40.553 -34.367  1.00  0.00     0.293 HD
ENDBRANCH  43  46
BRANCH  45  48
ATOM     48  O   UNL     1     -60.403 -40.606 -31.407  1.00  0.00    -0.493 OA
ATOM     49  C   UNL     1     -59.304 -39.651 -31.482  1.00  0.00     0.278 C 
ENDBRANCH  45  48
ENDBRANCH  35  40
ENDBRANCH  26  27
ENDBRANCH   5  26
BRANCH   4  50
ATOM     50  O   UNL     1     -66.161 -46.467 -41.063  1.00  0.00    -0.384 OA
ATOM     51  H   UNL     1     -66.634 -46.517 -41.954  1.00  0.00     0.211 HD
ENDBRANCH   4  50
TORSDOF 15
ENDMDL
