MODEL 1
REMARK VINA RESULT:    -7.996      0.000      0.000
REMARK INTER + INTRA:         -14.817
REMARK INTER:                 -12.670
REMARK INTRA:                  -2.146
REMARK UNBOUND:                -2.146
REMARK SMILES C[C@@H]1O[C@@H](O[C@@H]2[C@@H](Oc3cc(O)c4c(c3)O[C@@H](c3ccc(O)cc3)CC4=O)O[C@@H](CO)[C@H](O)[C@H]2O)[C@H](O)[C@@H](O)[C@H]1O
REMARK SMILES IDX 6 1 34 2 32 3 29 4 28 5 7 6 5 7 4 8 1 9 2 10 40 11 3 12
REMARK SMILES IDX 38 13 36 14 41 15 39 17 37 19 35 21 8 23 9 24 10 25 15 26
REMARK SMILES IDX 11 27 14 28 13 29 16 30 26 31 17 32 27 33 25 34 12 35 18 37
REMARK SMILES IDX 19 38 24 39 20 40 23 41 21 42 22 43 33 45 30 47 31 48
REMARK H PARENT 41 16 39 18 37 20 35 22 12 36 22 44 33 46 31 49
REMARK Flexibility Score: inf
ROOT
ATOM      1  C   UNL     1     134.613 137.411 140.937  1.00  0.00     0.221 C 
ATOM      2  C   UNL     1     133.406 136.684 140.274  1.00  0.00     0.181 C 
ATOM      3  C   UNL     1     133.602 135.155 140.214  1.00  0.00     0.177 C 
ATOM      4  C   UNL     1     134.274 134.630 141.518  1.00  0.00     0.179 C 
ATOM      5  O   UNL     1     135.428 135.361 141.960  1.00  0.00    -0.332 OA
ATOM      6  C   UNL     1     135.797 136.449 141.124  1.00  0.00     0.339 C 
ENDROOT
BRANCH   1   7
ATOM      7  O   UNL     1     135.035 138.487 140.110  1.00  0.00    -0.337 OA
BRANCH   7   8
ATOM      8  C   UNL     1     134.616 139.776 140.560  1.00  0.00     0.282 C 
ATOM      9  C   UNL     1     131.866 141.319 140.699  1.00  0.00     0.041 C 
ATOM     10  C   UNL     1     133.255 141.660 140.140  1.00  0.00     0.150 C 
ATOM     11  C   UNL     1     134.132 142.412 141.183  1.00  0.00     0.174 C 
ATOM     12  O   UNL     1     133.869 140.496 139.590  1.00  0.00    -0.344 OA
ATOM     13  C   UNL     1     135.618 142.103 140.952  1.00  0.00     0.179 C 
ATOM     14  C   UNL     1     135.882 140.580 140.923  1.00  0.00     0.202 C 
BRANCH  11  15
ATOM     15  O   UNL     1     133.919 143.799 141.090  1.00  0.00    -0.388 OA
ATOM     16  H   UNL     1     134.815 144.228 141.063  1.00  0.00     0.211 HD
ENDBRANCH  11  15
BRANCH  13  17
ATOM     17  O   UNL     1     136.014 142.668 139.721  1.00  0.00    -0.387 OA
ATOM     18  H   UNL     1     136.951 142.380 139.558  1.00  0.00     0.211 HD
ENDBRANCH  13  17
BRANCH  14  19
ATOM     19  O   UNL     1     136.423 140.117 142.125  1.00  0.00    -0.385 OA
ATOM     20  H   UNL     1     135.833 139.418 142.494  1.00  0.00     0.211 HD
ENDBRANCH  14  19
ENDBRANCH   7   8
ENDBRANCH   1   7
BRANCH   2  21
ATOM     21  O   UNL     1     132.231 136.987 140.985  1.00  0.00    -0.387 OA
ATOM     22  H   UNL     1     132.495 137.217 141.913  1.00  0.00     0.211 HD
ENDBRANCH   2  21
BRANCH   6  23
ATOM     23  O   UNL     1     136.886 137.172 141.714  1.00  0.00    -0.462 OA
BRANCH  23  24
ATOM     24  C   UNL     1     138.188 137.205 141.184  1.00  0.00     0.130 A 
ATOM     25  C   UNL     1     138.437 137.997 140.056  1.00  0.00     0.093 A 
ATOM     26  C   UNL     1     139.240 136.461 141.745  1.00  0.00     0.094 A 
ATOM     27  C   UNL     1     139.700 138.010 139.452  1.00  0.00     0.133 A 
ATOM     28  C   UNL     1     140.522 136.528 141.204  1.00  0.00     0.138 A 
ATOM     29  C   UNL     1     140.770 137.297 140.051  1.00  0.00     0.102 A 
ATOM     30  O   UNL     1     141.549 135.797 141.811  1.00  0.00    -0.484 OA
ATOM     31  C   UNL     1     142.158 137.280 139.528  1.00  0.00     0.174 C 
ATOM     32  C   UNL     1     142.927 135.941 141.456  1.00  0.00     0.211 C 
ATOM     33  O   UNL     1     142.588 138.194 138.774  1.00  0.00    -0.294 OA
ATOM     34  C   UNL     1     143.080 136.177 139.951  1.00  0.00     0.131 C 
BRANCH  27  35
ATOM     35  O   UNL     1     139.823 138.712 138.254  1.00  0.00    -0.507 OA
ATOM     36  H   UNL     1     140.055 138.278 137.370  1.00  0.00     0.293 HD
ENDBRANCH  27  35
BRANCH  32  37
ATOM     37  C   UNL     1     143.694 134.712 141.885  1.00  0.00    -0.007 A 
ATOM     38  C   UNL     1     145.073 134.798 142.171  1.00  0.00     0.011 A 
ATOM     39  C   UNL     1     143.038 133.472 142.020  1.00  0.00     0.011 A 
ATOM     40  C   UNL     1     145.788 133.655 142.547  1.00  0.00     0.046 A 
ATOM     41  C   UNL     1     143.764 132.331 142.394  1.00  0.00     0.046 A 
ATOM     42  C   UNL     1     145.138 132.416 142.643  1.00  0.00     0.115 A 
BRANCH  42  43
ATOM     43  O   UNL     1     145.850 131.263 142.970  1.00  0.00    -0.508 OA
ATOM     44  H   UNL     1     146.837 131.165 142.749  1.00  0.00     0.293 HD
ENDBRANCH  42  43
ENDBRANCH  32  37
ENDBRANCH  23  24
ENDBRANCH   6  23
BRANCH   3  45
ATOM     45  O   UNL     1     134.385 134.826 139.096  1.00  0.00    -0.387 OA
ATOM     46  H   UNL     1     135.297 135.169 139.282  1.00  0.00     0.211 HD
ENDBRANCH   3  45
BRANCH   4  47
ATOM     47  C   UNL     1     133.285 134.579 142.701  1.00  0.00     0.191 C 
BRANCH  47  48
ATOM     48  O   UNL     1     131.990 134.218 142.306  1.00  0.00    -0.394 OA
ATOM     49  H   UNL     1     131.451 135.053 142.273  1.00  0.00     0.210 HD
ENDBRANCH  47  48
ENDBRANCH   4  47
TORSDOF 14
ENDMDL
MODEL 2
REMARK VINA RESULT:    -7.996      1.909      4.500
REMARK INTER + INTRA:         -14.816
REMARK INTER:                 -13.267
REMARK INTRA:                  -1.549
REMARK UNBOUND:                -2.146
REMARK SMILES C[C@@H]1O[C@@H](O[C@@H]2[C@@H](Oc3cc(O)c4c(c3)O[C@@H](c3ccc(O)cc3)CC4=O)O[C@@H](CO)[C@H](O)[C@H]2O)[C@H](O)[C@@H](O)[C@H]1O
REMARK SMILES IDX 6 1 34 2 32 3 29 4 28 5 7 6 5 7 4 8 1 9 2 10 40 11 3 12
REMARK SMILES IDX 38 13 36 14 41 15 39 17 37 19 35 21 8 23 9 24 10 25 15 26
REMARK SMILES IDX 11 27 14 28 13 29 16 30 26 31 17 32 27 33 25 34 12 35 18 37
REMARK SMILES IDX 19 38 24 39 20 40 23 41 21 42 22 43 33 45 30 47 31 48
REMARK H PARENT 41 16 39 18 37 20 35 22 12 36 22 44 33 46 31 49
REMARK Flexibility Score: inf
ROOT
ATOM      1  C   UNL     1     135.273 138.106 140.860  1.00  0.00     0.221 C 
ATOM      2  C   UNL     1     134.414 138.346 142.136  1.00  0.00     0.181 C 
ATOM      3  C   UNL     1     135.275 138.451 143.412  1.00  0.00     0.177 C 
ATOM      4  C   UNL     1     136.586 139.244 143.133  1.00  0.00     0.179 C 
ATOM      5  O   UNL     1     137.311 138.852 141.958  1.00  0.00    -0.332 OA
ATOM      6  C   UNL     1     136.729 137.778 141.232  1.00  0.00     0.339 C 
ENDROOT
BRANCH   1   7
ATOM      7  O   UNL     1     134.741 137.014 140.123  1.00  0.00    -0.337 OA
BRANCH   7   8
ATOM      8  C   UNL     1     133.577 136.422 140.702  1.00  0.00     0.282 C 
ATOM      9  C   UNL     1     132.922 134.944 143.412  1.00  0.00     0.041 C 
ATOM     10  C   UNL     1     132.694 134.609 141.929  1.00  0.00     0.150 C 
ATOM     11  C   UNL     1     131.293 135.077 141.439  1.00  0.00     0.174 C 
ATOM     12  O   UNL     1     133.781 135.088 141.140  1.00  0.00    -0.344 OA
ATOM     13  C   UNL     1     131.341 135.424 139.944  1.00  0.00     0.179 C 
ATOM     14  C   UNL     1     132.463 136.441 139.634  1.00  0.00     0.202 C 
BRANCH  11  15
ATOM     15  O   UNL     1     130.337 134.070 141.658  1.00  0.00    -0.388 OA
ATOM     16  H   UNL     1     130.796 133.337 142.149  1.00  0.00     0.211 HD
ENDBRANCH  11  15
BRANCH  13  17
ATOM     17  O   UNL     1     131.569 134.241 139.210  1.00  0.00    -0.387 OA
ATOM     18  H   UNL     1     131.629 133.499 139.867  1.00  0.00     0.211 HD
ENDBRANCH  13  17
BRANCH  14  19
ATOM     19  O   UNL     1     131.968 137.738 139.471  1.00  0.00    -0.385 OA
ATOM     20  H   UNL     1     131.598 138.050 140.331  1.00  0.00     0.211 HD
ENDBRANCH  14  19
ENDBRANCH   7   8
ENDBRANCH   1   7
BRANCH   2  21
ATOM     21  O   UNL     1     133.654 139.518 141.974  1.00  0.00    -0.387 OA
ATOM     22  H   UNL     1     132.947 139.514 142.670  1.00  0.00     0.211 HD
ENDBRANCH   2  21
BRANCH   6  23
ATOM     23  O   UNL     1     137.468 137.545 140.026  1.00  0.00    -0.462 OA
BRANCH  23  24
ATOM     24  C   UNL     1     138.870 137.619 139.936  1.00  0.00     0.130 A 
ATOM     25  C   UNL     1     139.441 138.574 139.086  1.00  0.00     0.093 A 
ATOM     26  C   UNL     1     139.710 136.757 140.662  1.00  0.00     0.094 A 
ATOM     27  C   UNL     1     140.829 138.641 138.909  1.00  0.00     0.133 A 
ATOM     28  C   UNL     1     141.095 136.867 140.560  1.00  0.00     0.138 A 
ATOM     29  C   UNL     1     141.673 137.804 139.683  1.00  0.00     0.102 A 
ATOM     30  O   UNL     1     141.897 136.013 141.324  1.00  0.00    -0.484 OA
ATOM     31  C   UNL     1     143.155 137.825 139.616  1.00  0.00     0.174 C 
ATOM     32  C   UNL     1     143.314 136.165 141.439  1.00  0.00     0.211 C 
ATOM     33  O   UNL     1     143.781 138.833 139.192  1.00  0.00    -0.294 OA
ATOM     34  C   UNL     1     143.921 136.636 140.115  1.00  0.00     0.131 C 
BRANCH  27  35
ATOM     35  O   UNL     1     141.303 139.523 137.941  1.00  0.00    -0.507 OA
ATOM     36  H   UNL     1     140.850 140.398 137.708  1.00  0.00     0.293 HD
ENDBRANCH  27  35
BRANCH  32  37
ATOM     37  C   UNL     1     143.933 134.857 141.874  1.00  0.00    -0.007 A 
ATOM     38  C   UNL     1     143.126 133.712 142.052  1.00  0.00     0.011 A 
ATOM     39  C   UNL     1     145.322 134.761 142.088  1.00  0.00     0.011 A 
ATOM     40  C   UNL     1     143.697 132.507 142.476  1.00  0.00     0.046 A 
ATOM     41  C   UNL     1     145.884 133.548 142.516  1.00  0.00     0.046 A 
ATOM     42  C   UNL     1     145.074 132.427 142.725  1.00  0.00     0.115 A 
BRANCH  42  43
ATOM     43  O   UNL     1     145.644 131.244 143.193  1.00  0.00    -0.508 OA
ATOM     44  H   UNL     1     145.355 130.336 142.841  1.00  0.00     0.293 HD
ENDBRANCH  42  43
ENDBRANCH  32  37
ENDBRANCH  23  24
ENDBRANCH   6  23
BRANCH   3  45
ATOM     45  O   UNL     1     135.574 137.164 143.883  1.00  0.00    -0.387 OA
ATOM     46  H   UNL     1     136.493 136.958 143.572  1.00  0.00     0.211 HD
ENDBRANCH   3  45
BRANCH   4  47
ATOM     47  C   UNL     1     136.336 140.763 143.030  1.00  0.00     0.191 C 
BRANCH  47  48
ATOM     48  O   UNL     1     137.176 141.507 143.869  1.00  0.00    -0.394 OA
ATOM     49  H   UNL     1     136.710 141.595 144.743  1.00  0.00     0.210 HD
ENDBRANCH  47  48
ENDBRANCH   4  47
TORSDOF 14
ENDMDL
MODEL 3
REMARK VINA RESULT:    -7.991      2.199      5.237
REMARK INTER + INTRA:         -14.808
REMARK INTER:                 -13.099
REMARK INTRA:                  -1.709
REMARK UNBOUND:                -2.146
REMARK SMILES C[C@@H]1O[C@@H](O[C@@H]2[C@@H](Oc3cc(O)c4c(c3)O[C@@H](c3ccc(O)cc3)CC4=O)O[C@@H](CO)[C@H](O)[C@H]2O)[C@H](O)[C@@H](O)[C@H]1O
REMARK SMILES IDX 6 1 34 2 32 3 29 4 28 5 7 6 5 7 4 8 1 9 2 10 40 11 3 12
REMARK SMILES IDX 38 13 36 14 41 15 39 17 37 19 35 21 8 23 9 24 10 25 15 26
REMARK SMILES IDX 11 27 14 28 13 29 16 30 26 31 17 32 27 33 25 34 12 35 18 37
REMARK SMILES IDX 19 38 24 39 20 40 23 41 21 42 22 43 33 45 30 47 31 48
REMARK H PARENT 41 16 39 18 37 20 35 22 12 36 22 44 33 46 31 49
REMARK Flexibility Score: inf
ROOT
ATOM      1  C   UNL     1     137.329 140.696 140.880  1.00  0.00     0.221 C 
ATOM      2  C   UNL     1     136.407 140.586 142.130  1.00  0.00     0.181 C 
ATOM      3  C   UNL     1     137.171 140.837 143.447  1.00  0.00     0.177 C 
ATOM      4  C   UNL     1     138.206 141.988 143.277  1.00  0.00     0.179 C 
ATOM      5  O   UNL     1     139.041 141.907 142.112  1.00  0.00    -0.332 OA
ATOM      6  C   UNL     1     138.808 140.768 141.293  1.00  0.00     0.339 C 
ENDROOT
BRANCH   1   7
ATOM      7  O   UNL     1     137.150 139.555 140.052  1.00  0.00    -0.337 OA
BRANCH   7   8
ATOM      8  C   UNL     1     136.605 138.418 140.723  1.00  0.00     0.282 C 
ATOM      9  C   UNL     1     137.580 136.489 143.023  1.00  0.00     0.041 C 
ATOM     10  C   UNL     1     137.021 136.270 141.608  1.00  0.00     0.150 C 
ATOM     11  C   UNL     1     135.476 136.074 141.619  1.00  0.00     0.174 C 
ATOM     12  O   UNL     1     137.475 137.297 140.730  1.00  0.00    -0.344 OA
ATOM     13  C   UNL     1     134.867 136.581 140.304  1.00  0.00     0.179 C 
ATOM     14  C   UNL     1     135.292 138.037 140.006  1.00  0.00     0.202 C 
BRANCH  11  15
ATOM     15  O   UNL     1     135.157 134.716 141.794  1.00  0.00    -0.388 OA
ATOM     16  H   UNL     1     135.376 134.255 140.941  1.00  0.00     0.211 HD
ENDBRANCH  11  15
BRANCH  13  17
ATOM     17  O   UNL     1     135.297 135.745 139.252  1.00  0.00    -0.387 OA
ATOM     18  H   UNL     1     134.687 134.962 139.236  1.00  0.00     0.211 HD
ENDBRANCH  13  17
BRANCH  14  19
ATOM     19  O   UNL     1     134.285 138.953 140.317  1.00  0.00    -0.385 OA
ATOM     20  H   UNL     1     134.392 139.753 139.751  1.00  0.00     0.211 HD
ENDBRANCH  14  19
ENDBRANCH   7   8
ENDBRANCH   1   7
BRANCH   2  21
ATOM     21  O   UNL     1     135.347 141.503 142.010  1.00  0.00    -0.387 OA
ATOM     22  H   UNL     1     135.051 141.494 141.063  1.00  0.00     0.211 HD
ENDBRANCH   2  21
BRANCH   6  23
ATOM     23  O   UNL     1     139.612 140.845 140.109  1.00  0.00    -0.462 OA
BRANCH  23  24
ATOM     24  C   UNL     1     140.895 140.281 139.991  1.00  0.00     0.130 A 
ATOM     25  C   UNL     1     141.812 140.870 139.111  1.00  0.00     0.093 A 
ATOM     26  C   UNL     1     141.278 139.141 140.718  1.00  0.00     0.094 A 
ATOM     27  C   UNL     1     143.077 140.306 138.907  1.00  0.00     0.133 A 
ATOM     28  C   UNL     1     142.562 138.617 140.588  1.00  0.00     0.138 A 
ATOM     29  C   UNL     1     143.476 139.186 139.681  1.00  0.00     0.102 A 
ATOM     30  O   UNL     1     142.915 137.501 141.353  1.00  0.00    -0.484 OA
ATOM     31  C   UNL     1     144.808 138.539 139.586  1.00  0.00     0.174 C 
ATOM     32  C   UNL     1     144.252 137.002 141.439  1.00  0.00     0.211 C 
ATOM     33  O   UNL     1     145.808 139.155 139.131  1.00  0.00    -0.294 OA
ATOM     34  C   UNL     1     144.972 137.138 140.094  1.00  0.00     0.131 C 
BRANCH  27  35
ATOM     35  O   UNL     1     143.871 140.872 137.913  1.00  0.00    -0.507 OA
ATOM     36  H   UNL     1     144.534 141.619 138.080  1.00  0.00     0.293 HD
ENDBRANCH  27  35
BRANCH  32  37
ATOM     37  C   UNL     1     144.230 135.559 141.888  1.00  0.00    -0.007 A 
ATOM     38  C   UNL     1     145.360 134.991 142.516  1.00  0.00     0.011 A 
ATOM     39  C   UNL     1     143.077 134.771 141.701  1.00  0.00     0.011 A 
ATOM     40  C   UNL     1     145.346 133.649 142.912  1.00  0.00     0.046 A 
ATOM     41  C   UNL     1     143.075 133.426 142.099  1.00  0.00     0.046 A 
ATOM     42  C   UNL     1     144.209 132.859 142.689  1.00  0.00     0.115 A 
BRANCH  42  43
ATOM     43  O   UNL     1     144.203 131.509 143.037  1.00  0.00    -0.508 OA
ATOM     44  H   UNL     1     143.737 131.176 143.875  1.00  0.00     0.293 HD
ENDBRANCH  42  43
ENDBRANCH  32  37
ENDBRANCH  23  24
ENDBRANCH   6  23
BRANCH   3  45
ATOM     45  O   UNL     1     137.815 139.656 143.846  1.00  0.00    -0.387 OA
ATOM     46  H   UNL     1     137.209 139.212 144.494  1.00  0.00     0.211 HD
ENDBRANCH   3  45
BRANCH   4  47
ATOM     47  C   UNL     1     137.533 143.376 143.261  1.00  0.00     0.191 C 
BRANCH  47  48
ATOM     48  O   UNL     1     138.267 144.323 142.533  1.00  0.00    -0.394 OA
ATOM     49  H   UNL     1     137.609 144.924 142.091  1.00  0.00     0.210 HD
ENDBRANCH  47  48
ENDBRANCH   4  47
TORSDOF 14
ENDMDL
MODEL 4
REMARK VINA RESULT:    -7.934      2.624      6.415
REMARK INTER + INTRA:         -14.718
REMARK INTER:                 -13.099
REMARK INTRA:                  -1.619
REMARK UNBOUND:                -2.146
REMARK SMILES C[C@@H]1O[C@@H](O[C@@H]2[C@@H](Oc3cc(O)c4c(c3)O[C@@H](c3ccc(O)cc3)CC4=O)O[C@@H](CO)[C@H](O)[C@H]2O)[C@H](O)[C@@H](O)[C@H]1O
REMARK SMILES IDX 6 1 34 2 32 3 29 4 28 5 7 6 5 7 4 8 1 9 2 10 40 11 3 12
REMARK SMILES IDX 38 13 36 14 41 15 39 17 37 19 35 21 8 23 9 24 10 25 15 26
REMARK SMILES IDX 11 27 14 28 13 29 16 30 26 31 17 32 27 33 25 34 12 35 18 37
REMARK SMILES IDX 19 38 24 39 20 40 23 41 21 42 22 43 33 45 30 47 31 48
REMARK H PARENT 41 16 39 18 37 20 35 22 12 36 22 44 33 46 31 49
REMARK Flexibility Score: inf
ROOT
ATOM      1  C   UNL     1     130.962 137.112 140.427  1.00  0.00     0.221 C 
ATOM      2  C   UNL     1     129.553 137.009 141.083  1.00  0.00     0.181 C 
ATOM      3  C   UNL     1     129.032 138.376 141.572  1.00  0.00     0.177 C 
ATOM      4  C   UNL     1     129.396 139.503 140.560  1.00  0.00     0.179 C 
ATOM      5  O   UNL     1     130.757 139.514 140.106  1.00  0.00    -0.332 OA
ATOM      6  C   UNL     1     131.579 138.500 140.667  1.00  0.00     0.339 C 
ENDROOT
BRANCH   1   7
ATOM      7  O   UNL     1     131.825 136.134 140.990  1.00  0.00    -0.337 OA
BRANCH   7   8
ATOM      8  C   UNL     1     131.508 135.771 142.334  1.00  0.00     0.282 C 
ATOM      9  C   UNL     1     131.505 137.258 145.118  1.00  0.00     0.041 C 
ATOM     10  C   UNL     1     132.110 135.940 144.611  1.00  0.00     0.150 C 
ATOM     11  C   UNL     1     131.158 134.732 144.858  1.00  0.00     0.174 C 
ATOM     12  O   UNL     1     132.541 136.078 143.259  1.00  0.00    -0.344 OA
ATOM     13  C   UNL     1     131.370 133.659 143.781  1.00  0.00     0.179 C 
ATOM     14  C   UNL     1     131.243 134.251 142.358  1.00  0.00     0.202 C 
BRANCH  11  15
ATOM     15  O   UNL     1     131.393 134.178 146.128  1.00  0.00    -0.388 OA
ATOM     16  H   UNL     1     131.429 133.191 146.012  1.00  0.00     0.211 HD
ENDBRANCH  11  15
BRANCH  13  17
ATOM     17  O   UNL     1     132.656 133.102 143.940  1.00  0.00    -0.387 OA
ATOM     18  H   UNL     1     132.772 132.429 143.219  1.00  0.00     0.211 HD
ENDBRANCH  13  17
BRANCH  14  19
ATOM     19  O   UNL     1     130.004 133.965 141.779  1.00  0.00    -0.385 OA
ATOM     20  H   UNL     1     129.452 133.470 142.429  1.00  0.00     0.211 HD
ENDBRANCH  14  19
ENDBRANCH   7   8
ENDBRANCH   1   7
BRANCH   2  21
ATOM     21  O   UNL     1     128.648 136.453 140.160  1.00  0.00    -0.387 OA
ATOM     22  H   UNL     1     128.119 135.766 140.640  1.00  0.00     0.211 HD
ENDBRANCH   2  21
BRANCH   6  23
ATOM     23  O   UNL     1     132.879 138.534 140.065  1.00  0.00    -0.462 OA
BRANCH  23  24
ATOM     24  C   UNL     1     134.033 139.016 140.709  1.00  0.00     0.130 A 
ATOM     25  C   UNL     1     134.055 140.346 141.145  1.00  0.00     0.093 A 
ATOM     26  C   UNL     1     135.164 138.208 140.915  1.00  0.00     0.094 A 
ATOM     27  C   UNL     1     135.205 140.892 141.730  1.00  0.00     0.133 A 
ATOM     28  C   UNL     1     136.285 138.713 141.570  1.00  0.00     0.138 A 
ATOM     29  C   UNL     1     136.324 140.058 141.982  1.00  0.00     0.102 A 
ATOM     30  O   UNL     1     137.378 137.867 141.785  1.00  0.00    -0.484 OA
ATOM     31  C   UNL     1     137.573 140.516 142.640  1.00  0.00     0.174 C 
ATOM     32  C   UNL     1     138.494 138.224 142.606  1.00  0.00     0.211 C 
ATOM     33  O   UNL     1     137.592 141.536 143.379  1.00  0.00    -0.294 OA
ATOM     34  C   UNL     1     138.825 139.711 142.460  1.00  0.00     0.131 C 
BRANCH  27  35
ATOM     35  O   UNL     1     135.189 142.258 142.005  1.00  0.00    -0.507 OA
ATOM     36  H   UNL     1     135.261 142.975 141.295  1.00  0.00     0.293 HD
ENDBRANCH  27  35
BRANCH  32  37
ATOM     37  C   UNL     1     139.687 137.373 142.240  1.00  0.00    -0.007 A 
ATOM     38  C   UNL     1     139.602 135.965 142.296  1.00  0.00     0.011 A 
ATOM     39  C   UNL     1     140.891 137.974 141.823  1.00  0.00     0.011 A 
ATOM     40  C   UNL     1     140.714 135.178 141.978  1.00  0.00     0.046 A 
ATOM     41  C   UNL     1     142.002 137.175 141.509  1.00  0.00     0.046 A 
ATOM     42  C   UNL     1     141.922 135.782 141.600  1.00  0.00     0.115 A 
BRANCH  42  43
ATOM     43  O   UNL     1     143.049 135.008 141.327  1.00  0.00    -0.508 OA
ATOM     44  H   UNL     1     143.135 134.054 141.665  1.00  0.00     0.293 HD
ENDBRANCH  42  43
ENDBRANCH  32  37
ENDBRANCH  23  24
ENDBRANCH   6  23
BRANCH   3  45
ATOM     45  O   UNL     1     129.574 138.660 142.834  1.00  0.00    -0.387 OA
ATOM     46  H   UNL     1     129.355 139.609 143.026  1.00  0.00     0.211 HD
ENDBRANCH   3  45
BRANCH   4  47
ATOM     47  C   UNL     1     128.496 139.471 139.307  1.00  0.00     0.191 C 
BRANCH  47  48
ATOM     48  O   UNL     1     129.007 140.245 138.257  1.00  0.00    -0.394 OA
ATOM     49  H   UNL     1     129.748 139.726 137.845  1.00  0.00     0.210 HD
ENDBRANCH  47  48
ENDBRANCH   4  47
TORSDOF 14
ENDMDL
MODEL 5
REMARK VINA RESULT:    -7.789      1.533      2.276
REMARK INTER + INTRA:         -14.489
REMARK INTER:                 -13.006
REMARK INTRA:                  -1.483
REMARK UNBOUND:                -2.146
REMARK SMILES C[C@@H]1O[C@@H](O[C@@H]2[C@@H](Oc3cc(O)c4c(c3)O[C@@H](c3ccc(O)cc3)CC4=O)O[C@@H](CO)[C@H](O)[C@H]2O)[C@H](O)[C@@H](O)[C@H]1O
REMARK SMILES IDX 6 1 34 2 32 3 29 4 28 5 7 6 5 7 4 8 1 9 2 10 40 11 3 12
REMARK SMILES IDX 38 13 36 14 41 15 39 17 37 19 35 21 8 23 9 24 10 25 15 26
REMARK SMILES IDX 11 27 14 28 13 29 16 30 26 31 17 32 27 33 25 34 12 35 18 37
REMARK SMILES IDX 19 38 24 39 20 40 23 41 21 42 22 43 33 45 30 47 31 48
REMARK H PARENT 41 16 39 18 37 20 35 22 12 36 22 44 33 46 31 49
REMARK Flexibility Score: inf
ROOT
ATOM      1  C   UNL     1     135.431 138.803 141.530  1.00  0.00     0.221 C 
ATOM      2  C   UNL     1     134.328 139.775 141.018  1.00  0.00     0.181 C 
ATOM      3  C   UNL     1     133.762 139.351 139.646  1.00  0.00     0.177 C 
ATOM      4  C   UNL     1     133.608 137.804 139.564  1.00  0.00     0.179 C 
ATOM      5  O   UNL     1     134.744 137.042 140.000  1.00  0.00    -0.332 OA
ATOM      6  C   UNL     1     135.854 137.821 140.425  1.00  0.00     0.339 C 
ENDROOT
BRANCH   1   7
ATOM      7  O   UNL     1     136.574 139.545 141.932  1.00  0.00    -0.337 OA
BRANCH   7   8
ATOM      8  C   UNL     1     136.451 140.958 141.760  1.00  0.00     0.282 C 
ATOM      9  C   UNL     1     134.902 142.849 139.765  1.00  0.00     0.041 C 
ATOM     10  C   UNL     1     136.363 142.753 140.230  1.00  0.00     0.150 C 
ATOM     11  C   UNL     1     136.647 143.684 141.446  1.00  0.00     0.174 C 
ATOM     12  O   UNL     1     136.730 141.391 140.438  1.00  0.00    -0.344 OA
ATOM     13  C   UNL     1     137.758 143.090 142.323  1.00  0.00     0.179 C 
ATOM     14  C   UNL     1     137.439 141.635 142.735  1.00  0.00     0.202 C 
BRANCH  11  15
ATOM     15  O   UNL     1     137.029 144.963 141.003  1.00  0.00    -0.388 OA
ATOM     16  H   UNL     1     137.638 144.831 140.229  1.00  0.00     0.211 HD
ENDBRANCH  11  15
BRANCH  13  17
ATOM     17  O   UNL     1     138.969 143.114 141.601  1.00  0.00    -0.387 OA
ATOM     18  H   UNL     1     139.683 142.806 142.220  1.00  0.00     0.211 HD
ENDBRANCH  13  17
BRANCH  14  19
ATOM     19  O   UNL     1     136.961 141.552 144.045  1.00  0.00    -0.385 OA
ATOM     20  H   UNL     1     136.383 142.330 144.226  1.00  0.00     0.211 HD
ENDBRANCH  14  19
ENDBRANCH   7   8
ENDBRANCH   1   7
BRANCH   2  21
ATOM     21  O   UNL     1     133.289 139.843 141.963  1.00  0.00    -0.387 OA
ATOM     22  H   UNL     1     133.509 140.577 142.594  1.00  0.00     0.211 HD
ENDBRANCH   2  21
BRANCH   6  23
ATOM     23  O   UNL     1     136.883 136.967 140.940  1.00  0.00    -0.462 OA
BRANCH  23  24
ATOM     24  C   UNL     1     138.244 137.085 140.606  1.00  0.00     0.130 A 
ATOM     25  C   UNL     1     138.616 137.978 139.594  1.00  0.00     0.093 A 
ATOM     26  C   UNL     1     139.237 136.326 141.250  1.00  0.00     0.094 A 
ATOM     27  C   UNL     1     139.949 138.081 139.180  1.00  0.00     0.133 A 
ATOM     28  C   UNL     1     140.578 136.478 140.905  1.00  0.00     0.138 A 
ATOM     29  C   UNL     1     140.953 137.351 139.866  1.00  0.00     0.102 A 
ATOM     30  O   UNL     1     141.540 135.729 141.591  1.00  0.00    -0.484 OA
ATOM     31  C   UNL     1     142.400 137.422 139.547  1.00  0.00     0.174 C 
ATOM     32  C   UNL     1     142.947 135.944 141.450  1.00  0.00     0.211 C 
ATOM     33  O   UNL     1     142.893 138.410 138.940  1.00  0.00    -0.294 OA
ATOM     34  C   UNL     1     143.299 136.314 140.007  1.00  0.00     0.131 C 
BRANCH  27  35
ATOM     35  O   UNL     1     140.209 138.888 138.073  1.00  0.00    -0.507 OA
ATOM     36  H   UNL     1     140.460 139.866 138.138  1.00  0.00     0.293 HD
ENDBRANCH  27  35
BRANCH  32  37
ATOM     37  C   UNL     1     143.697 134.706 141.883  1.00  0.00    -0.007 A 
ATOM     38  C   UNL     1     145.081 134.770 142.154  1.00  0.00     0.011 A 
ATOM     39  C   UNL     1     143.021 133.479 142.037  1.00  0.00     0.011 A 
ATOM     40  C   UNL     1     145.779 133.619 142.533  1.00  0.00     0.046 A 
ATOM     41  C   UNL     1     143.732 132.329 142.415  1.00  0.00     0.046 A 
ATOM     42  C   UNL     1     145.109 132.392 142.648  1.00  0.00     0.115 A 
BRANCH  42  43
ATOM     43  O   UNL     1     145.805 131.231 142.979  1.00  0.00    -0.508 OA
ATOM     44  H   UNL     1     146.799 131.245 143.186  1.00  0.00     0.293 HD
ENDBRANCH  42  43
ENDBRANCH  32  37
ENDBRANCH  23  24
ENDBRANCH   6  23
BRANCH   3  45
ATOM     45  O   UNL     1     134.610 139.811 138.627  1.00  0.00    -0.387 OA
ATOM     46  H   UNL     1     134.163 139.588 137.770  1.00  0.00     0.211 HD
ENDBRANCH   3  45
BRANCH   4  47
ATOM     47  C   UNL     1     132.387 137.299 140.361  1.00  0.00     0.191 C 
BRANCH  47  48
ATOM     48  O   UNL     1     132.744 136.718 141.585  1.00  0.00    -0.394 OA
ATOM     49  H   UNL     1     132.082 137.029 142.259  1.00  0.00     0.210 HD
ENDBRANCH  47  48
ENDBRANCH   4  47
TORSDOF 14
ENDMDL
MODEL 6
REMARK VINA RESULT:    -7.759      1.973      5.168
REMARK INTER + INTRA:         -14.441
REMARK INTER:                 -12.466
REMARK INTRA:                  -1.976
REMARK UNBOUND:                -2.146
REMARK SMILES C[C@@H]1O[C@@H](O[C@@H]2[C@@H](Oc3cc(O)c4c(c3)O[C@@H](c3ccc(O)cc3)CC4=O)O[C@@H](CO)[C@H](O)[C@H]2O)[C@H](O)[C@@H](O)[C@H]1O
REMARK SMILES IDX 6 1 34 2 32 3 29 4 28 5 7 6 5 7 4 8 1 9 2 10 40 11 3 12
REMARK SMILES IDX 38 13 36 14 41 15 39 17 37 19 35 21 8 23 9 24 10 25 15 26
REMARK SMILES IDX 11 27 14 28 13 29 16 30 26 31 17 32 27 33 25 34 12 35 18 37
REMARK SMILES IDX 19 38 24 39 20 40 23 41 21 42 22 43 33 45 30 47 31 48
REMARK H PARENT 41 16 39 18 37 20 35 22 12 36 22 44 33 46 31 49
REMARK Flexibility Score: inf
ROOT
ATOM      1  C   UNL     1     137.222 140.107 141.105  1.00  0.00     0.221 C 
ATOM      2  C   UNL     1     136.496 140.823 142.281  1.00  0.00     0.181 C 
ATOM      3  C   UNL     1     137.043 142.245 142.530  1.00  0.00     0.177 C 
ATOM      4  C   UNL     1     137.352 142.964 141.183  1.00  0.00     0.179 C 
ATOM      5  O   UNL     1     138.100 142.198 140.227  1.00  0.00    -0.332 OA
ATOM      6  C   UNL     1     138.466 140.896 140.664  1.00  0.00     0.339 C 
ENDROOT
BRANCH   1   7
ATOM      7  O   UNL     1     137.636 138.811 141.516  1.00  0.00    -0.337 OA
BRANCH   7   8
ATOM      8  C   UNL     1     136.895 137.740 140.929  1.00  0.00     0.282 C 
ATOM      9  C   UNL     1     135.033 137.421 138.401  1.00  0.00     0.041 C 
ATOM     10  C   UNL     1     134.880 137.079 139.891  1.00  0.00     0.150 C 
ATOM     11  C   UNL     1     135.309 135.614 140.196  1.00  0.00     0.174 C 
ATOM     12  O   UNL     1     135.532 138.060 140.695  1.00  0.00    -0.344 OA
ATOM     13  C   UNL     1     135.850 135.506 141.629  1.00  0.00     0.179 C 
ATOM     14  C   UNL     1     136.975 136.535 141.890  1.00  0.00     0.202 C 
BRANCH  11  15
ATOM     15  O   UNL     1     134.217 134.743 140.038  1.00  0.00    -0.388 OA
ATOM     16  H   UNL     1     134.416 133.929 140.573  1.00  0.00     0.211 HD
ENDBRANCH  11  15
BRANCH  13  17
ATOM     17  O   UNL     1     134.792 135.735 142.533  1.00  0.00    -0.387 OA
ATOM     18  H   UNL     1     134.434 134.845 142.793  1.00  0.00     0.211 HD
ENDBRANCH  13  17
BRANCH  14  19
ATOM     19  O   UNL     1     138.243 135.952 141.833  1.00  0.00    -0.385 OA
ATOM     20  H   UNL     1     138.326 135.444 140.992  1.00  0.00     0.211 HD
ENDBRANCH  14  19
ENDBRANCH   7   8
ENDBRANCH   1   7
BRANCH   2  21
ATOM     21  O   UNL     1     135.117 140.882 142.012  1.00  0.00    -0.387 OA
ATOM     22  H   UNL     1     134.960 140.404 141.157  1.00  0.00     0.211 HD
ENDBRANCH   2  21
BRANCH   6  23
ATOM     23  O   UNL     1     139.107 140.184 139.599  1.00  0.00    -0.462 OA
BRANCH  23  24
ATOM     24  C   UNL     1     140.456 139.783 139.619  1.00  0.00     0.130 A 
ATOM     25  C   UNL     1     141.382 140.492 138.844  1.00  0.00     0.093 A 
ATOM     26  C   UNL     1     140.895 138.688 140.383  1.00  0.00     0.094 A 
ATOM     27  C   UNL     1     142.721 140.089 138.778  1.00  0.00     0.133 A 
ATOM     28  C   UNL     1     142.241 138.326 140.392  1.00  0.00     0.138 A 
ATOM     29  C   UNL     1     143.170 139.016 139.590  1.00  0.00     0.102 A 
ATOM     30  O   UNL     1     142.645 137.251 141.190  1.00  0.00    -0.484 OA
ATOM     31  C   UNL     1     144.574 138.538 139.639  1.00  0.00     0.174 C 
ATOM     32  C   UNL     1     144.016 136.918 141.419  1.00  0.00     0.211 C 
ATOM     33  O   UNL     1     145.534 139.278 139.295  1.00  0.00    -0.294 OA
ATOM     34  C   UNL     1     144.853 137.160 140.160  1.00  0.00     0.131 C 
BRANCH  27  35
ATOM     35  O   UNL     1     143.542 140.762 137.876  1.00  0.00    -0.507 OA
ATOM     36  H   UNL     1     143.461 140.677 136.870  1.00  0.00     0.293 HD
ENDBRANCH  27  35
BRANCH  32  37
ATOM     37  C   UNL     1     144.123 135.477 141.862  1.00  0.00    -0.007 A 
ATOM     38  C   UNL     1     143.012 134.614 141.751  1.00  0.00     0.011 A 
ATOM     39  C   UNL     1     145.336 134.976 142.374  1.00  0.00     0.011 A 
ATOM     40  C   UNL     1     143.105 133.286 142.182  1.00  0.00     0.046 A 
ATOM     41  C   UNL     1     145.419 133.643 142.805  1.00  0.00     0.046 A 
ATOM     42  C   UNL     1     144.304 132.803 142.725  1.00  0.00     0.115 A 
BRANCH  42  43
ATOM     43  O   UNL     1     144.392 131.495 143.201  1.00  0.00    -0.508 OA
ATOM     44  H   UNL     1     144.350 131.284 144.193  1.00  0.00     0.293 HD
ENDBRANCH  42  43
ENDBRANCH  32  37
ENDBRANCH  23  24
ENDBRANCH   6  23
BRANCH   3  45
ATOM     45  O   UNL     1     138.201 142.170 143.319  1.00  0.00    -0.387 OA
ATOM     46  H   UNL     1     138.204 142.982 143.888  1.00  0.00     0.211 HD
ENDBRANCH   3  45
BRANCH   4  47
ATOM     47  C   UNL     1     136.070 143.449 140.476  1.00  0.00     0.191 C 
BRANCH  47  48
ATOM     48  O   UNL     1     135.029 143.723 141.374  1.00  0.00    -0.394 OA
ATOM     49  H   UNL     1     134.538 142.871 141.520  1.00  0.00     0.210 HD
ENDBRANCH  47  48
ENDBRANCH   4  47
TORSDOF 14
ENDMDL
MODEL 7
REMARK VINA RESULT:    -7.681      1.869      3.092
REMARK INTER + INTRA:         -14.318
REMARK INTER:                 -12.245
REMARK INTRA:                  -2.074
REMARK UNBOUND:                -2.146
REMARK SMILES C[C@@H]1O[C@@H](O[C@@H]2[C@@H](Oc3cc(O)c4c(c3)O[C@@H](c3ccc(O)cc3)CC4=O)O[C@@H](CO)[C@H](O)[C@H]2O)[C@H](O)[C@@H](O)[C@H]1O
REMARK SMILES IDX 6 1 34 2 32 3 29 4 28 5 7 6 5 7 4 8 1 9 2 10 40 11 3 12
REMARK SMILES IDX 38 13 36 14 41 15 39 17 37 19 35 21 8 23 9 24 10 25 15 26
REMARK SMILES IDX 11 27 14 28 13 29 16 30 26 31 17 32 27 33 25 34 12 35 18 37
REMARK SMILES IDX 19 38 24 39 20 40 23 41 21 42 22 43 33 45 30 47 31 48
REMARK H PARENT 41 16 39 18 37 20 35 22 12 36 22 44 33 46 31 49
REMARK Flexibility Score: inf
ROOT
ATOM      1  C   UNL     1     136.447 138.796 140.469  1.00  0.00     0.221 C 
ATOM      2  C   UNL     1     135.327 138.457 141.497  1.00  0.00     0.181 C 
ATOM      3  C   UNL     1     134.835 137.000 141.369  1.00  0.00     0.177 C 
ATOM      4  C   UNL     1     136.025 136.035 141.088  1.00  0.00     0.179 C 
ATOM      5  O   UNL     1     136.931 136.449 140.055  1.00  0.00    -0.332 OA
ATOM      6  C   UNL     1     136.591 137.677 139.425  1.00  0.00     0.339 C 
ENDROOT
BRANCH   1   7
ATOM      7  O   UNL     1     136.125 140.003 139.792  1.00  0.00    -0.337 OA
BRANCH   7   8
ATOM      8  C   UNL     1     136.828 141.152 140.266  1.00  0.00     0.282 C 
ATOM      9  C   UNL     1     139.782 141.745 141.206  1.00  0.00     0.041 C 
ATOM     10  C   UNL     1     138.394 141.999 141.816  1.00  0.00     0.150 C 
ATOM     11  C   UNL     1     137.853 143.413 141.453  1.00  0.00     0.174 C 
ATOM     12  O   UNL     1     137.507 140.931 141.493  1.00  0.00    -0.344 OA
ATOM     13  C   UNL     1     136.318 143.396 141.395  1.00  0.00     0.179 C 
ATOM     14  C   UNL     1     135.799 142.286 140.453  1.00  0.00     0.202 C 
BRANCH  11  15
ATOM     15  O   UNL     1     138.278 144.358 142.403  1.00  0.00    -0.388 OA
ATOM     16  H   UNL     1     139.266 144.428 142.320  1.00  0.00     0.211 HD
ENDBRANCH  11  15
BRANCH  13  17
ATOM     17  O   UNL     1     135.817 143.175 142.695  1.00  0.00    -0.387 OA
ATOM     18  H   UNL     1     136.551 143.389 143.330  1.00  0.00     0.211 HD
ENDBRANCH  13  17
BRANCH  14  19
ATOM     19  O   UNL     1     135.404 142.793 139.212  1.00  0.00    -0.385 OA
ATOM     20  H   UNL     1     134.904 143.631 139.352  1.00  0.00     0.211 HD
ENDBRANCH  14  19
ENDBRANCH   7   8
ENDBRANCH   1   7
BRANCH   2  21
ATOM     21  O   UNL     1     135.804 138.688 142.800  1.00  0.00    -0.387 OA
ATOM     22  H   UNL     1     135.941 139.665 142.897  1.00  0.00     0.211 HD
ENDBRANCH   2  21
BRANCH   6  23
ATOM     23  O   UNL     1     137.615 138.049 138.493  1.00  0.00    -0.462 OA
BRANCH  23  24
ATOM     24  C   UNL     1     138.973 138.195 138.832  1.00  0.00     0.130 A 
ATOM     25  C   UNL     1     139.676 139.300 138.337  1.00  0.00     0.093 A 
ATOM     26  C   UNL     1     139.643 137.261 139.640  1.00  0.00     0.094 A 
ATOM     27  C   UNL     1     141.044 139.453 138.589  1.00  0.00     0.133 A 
ATOM     28  C   UNL     1     140.985 137.443 139.968  1.00  0.00     0.138 A 
ATOM     29  C   UNL     1     141.704 138.535 139.447  1.00  0.00     0.102 A 
ATOM     30  O   UNL     1     141.609 136.509 140.801  1.00  0.00    -0.484 OA
ATOM     31  C   UNL     1     143.136 138.629 139.824  1.00  0.00     0.174 C 
ATOM     32  C   UNL     1     142.915 136.699 141.350  1.00  0.00     0.211 C 
ATOM     33  O   UNL     1     143.766 139.718 139.755  1.00  0.00    -0.294 OA
ATOM     34  C   UNL     1     143.830 137.407 140.347  1.00  0.00     0.131 C 
BRANCH  27  35
ATOM     35  O   UNL     1     141.695 140.502 137.943  1.00  0.00    -0.507 OA
ATOM     36  H   UNL     1     142.610 140.419 137.518  1.00  0.00     0.293 HD
ENDBRANCH  27  35
BRANCH  32  37
ATOM     37  C   UNL     1     143.497 135.363 141.752  1.00  0.00    -0.007 A 
ATOM     38  C   UNL     1     142.656 134.242 141.923  1.00  0.00     0.011 A 
ATOM     39  C   UNL     1     144.885 135.219 141.944  1.00  0.00     0.011 A 
ATOM     40  C   UNL     1     143.193 133.012 142.317  1.00  0.00     0.046 A 
ATOM     41  C   UNL     1     145.413 133.980 142.342  1.00  0.00     0.046 A 
ATOM     42  C   UNL     1     144.571 132.883 142.543  1.00  0.00     0.115 A 
BRANCH  42  43
ATOM     43  O   UNL     1     145.109 131.673 142.982  1.00  0.00    -0.508 OA
ATOM     44  H   UNL     1     146.034 131.620 143.397  1.00  0.00     0.293 HD
ENDBRANCH  42  43
ENDBRANCH  32  37
ENDBRANCH  23  24
ENDBRANCH   6  23
BRANCH   3  45
ATOM     45  O   UNL     1     133.885 136.915 140.340  1.00  0.00    -0.387 OA
ATOM     46  H   UNL     1     134.103 137.638 139.698  1.00  0.00     0.211 HD
ENDBRANCH   3  45
BRANCH   4  47
ATOM     47  C   UNL     1     136.867 135.768 142.353  1.00  0.00     0.191 C 
BRANCH  47  48
ATOM     48  O   UNL     1     138.023 136.559 142.409  1.00  0.00    -0.394 OA
ATOM     49  H   UNL     1     138.566 136.228 143.174  1.00  0.00     0.210 HD
ENDBRANCH  47  48
ENDBRANCH   4  47
TORSDOF 14
ENDMDL
MODEL 8
REMARK VINA RESULT:    -7.525      2.283      3.008
REMARK INTER + INTRA:         -14.070
REMARK INTER:                 -12.249
REMARK INTRA:                  -1.822
REMARK UNBOUND:                -2.146
REMARK SMILES C[C@@H]1O[C@@H](O[C@@H]2[C@@H](Oc3cc(O)c4c(c3)O[C@@H](c3ccc(O)cc3)CC4=O)O[C@@H](CO)[C@H](O)[C@H]2O)[C@H](O)[C@@H](O)[C@H]1O
REMARK SMILES IDX 6 1 34 2 32 3 29 4 28 5 7 6 5 7 4 8 1 9 2 10 40 11 3 12
REMARK SMILES IDX 38 13 36 14 41 15 39 17 37 19 35 21 8 23 9 24 10 25 15 26
REMARK SMILES IDX 11 27 14 28 13 29 16 30 26 31 17 32 27 33 25 34 12 35 18 37
REMARK SMILES IDX 19 38 24 39 20 40 23 41 21 42 22 43 33 45 30 47 31 48
REMARK H PARENT 41 16 39 18 37 20 35 22 12 36 22 44 33 46 31 49
REMARK Flexibility Score: inf
ROOT
ATOM      1  C   UNL     1     137.333 139.897 141.506  1.00  0.00     0.221 C 
ATOM      2  C   UNL     1     136.502 140.237 142.778  1.00  0.00     0.181 C 
ATOM      3  C   UNL     1     135.738 139.013 143.325  1.00  0.00     0.177 C 
ATOM      4  C   UNL     1     136.606 137.724 143.219  1.00  0.00     0.179 C 
ATOM      5  O   UNL     1     137.247 137.509 141.953  1.00  0.00    -0.332 OA
ATOM      6  C   UNL     1     136.974 138.501 140.973  1.00  0.00     0.339 C 
ENDROOT
BRANCH   1   7
ATOM      7  O   UNL     1     137.059 140.850 140.488  1.00  0.00    -0.337 OA
BRANCH   7   8
ATOM      8  C   UNL     1     136.019 141.775 140.809  1.00  0.00     0.282 C 
ATOM      9  C   UNL     1     132.884 141.605 141.128  1.00  0.00     0.041 C 
ATOM     10  C   UNL     1     133.830 142.518 140.331  1.00  0.00     0.150 C 
ATOM     11  C   UNL     1     134.192 143.809 141.123  1.00  0.00     0.174 C 
ATOM     12  O   UNL     1     134.958 141.780 139.867  1.00  0.00    -0.344 OA
ATOM     13  C   UNL     1     135.591 144.302 140.725  1.00  0.00     0.179 C 
ATOM     14  C   UNL     1     136.649 143.184 140.870  1.00  0.00     0.202 C 
BRANCH  11  15
ATOM     15  O   UNL     1     133.247 144.818 140.869  1.00  0.00    -0.388 OA
ATOM     16  H   UNL     1     133.665 145.680 141.135  1.00  0.00     0.211 HD
ENDBRANCH  11  15
BRANCH  13  17
ATOM     17  O   UNL     1     135.555 144.737 139.383  1.00  0.00    -0.387 OA
ATOM     18  H   UNL     1     136.233 145.458 139.294  1.00  0.00     0.211 HD
ENDBRANCH  13  17
BRANCH  14  19
ATOM     19  O   UNL     1     137.408 143.326 142.034  1.00  0.00    -0.385 OA
ATOM     20  H   UNL     1     138.362 143.373 141.791  1.00  0.00     0.211 HD
ENDBRANCH  14  19
ENDBRANCH   7   8
ENDBRANCH   1   7
BRANCH   2  21
ATOM     21  O   UNL     1     137.357 140.749 143.771  1.00  0.00    -0.387 OA
ATOM     22  H   UNL     1     138.044 140.058 143.958  1.00  0.00     0.211 HD
ENDBRANCH   2  21
BRANCH   6  23
ATOM     23  O   UNL     1     137.747 138.248 139.793  1.00  0.00    -0.462 OA
BRANCH  23  24
ATOM     24  C   UNL     1     139.153 138.237 139.759  1.00  0.00     0.130 A 
ATOM     25  C   UNL     1     139.816 139.172 138.955  1.00  0.00     0.093 A 
ATOM     26  C   UNL     1     139.908 137.310 140.498  1.00  0.00     0.094 A 
ATOM     27  C   UNL     1     141.212 139.156 138.836  1.00  0.00     0.133 A 
ATOM     28  C   UNL     1     141.300 137.336 140.454  1.00  0.00     0.138 A 
ATOM     29  C   UNL     1     141.971 138.253 139.623  1.00  0.00     0.102 A 
ATOM     30  O   UNL     1     142.017 136.418 141.230  1.00  0.00    -0.484 OA
ATOM     31  C   UNL     1     143.453 138.183 139.616  1.00  0.00     0.174 C 
ATOM     32  C   UNL     1     143.434 136.479 141.405  1.00  0.00     0.211 C 
ATOM     33  O   UNL     1     144.156 139.159 139.241  1.00  0.00    -0.294 OA
ATOM     34  C   UNL     1     144.123 136.939 140.117  1.00  0.00     0.131 C 
BRANCH  27  35
ATOM     35  O   UNL     1     141.779 140.028 137.908  1.00  0.00    -0.507 OA
ATOM     36  H   UNL     1     142.721 139.932 137.551  1.00  0.00     0.293 HD
ENDBRANCH  27  35
BRANCH  32  37
ATOM     37  C   UNL     1     143.954 135.126 141.833  1.00  0.00    -0.007 A 
ATOM     38  C   UNL     1     145.333 134.934 142.067  1.00  0.00     0.011 A 
ATOM     39  C   UNL     1     143.066 134.049 142.022  1.00  0.00     0.011 A 
ATOM     40  C   UNL     1     145.815 133.676 142.443  1.00  0.00     0.046 A 
ATOM     41  C   UNL     1     143.561 132.790 142.396  1.00  0.00     0.046 A 
ATOM     42  C   UNL     1     144.932 132.597 142.592  1.00  0.00     0.115 A 
BRANCH  42  43
ATOM     43  O   UNL     1     145.409 131.328 142.920  1.00  0.00    -0.508 OA
ATOM     44  H   UNL     1     145.421 130.572 142.243  1.00  0.00     0.293 HD
ENDBRANCH  42  43
ENDBRANCH  32  37
ENDBRANCH  23  24
ENDBRANCH   6  23
BRANCH   3  45
ATOM     45  O   UNL     1     134.539 138.853 142.613  1.00  0.00    -0.387 OA
ATOM     46  H   UNL     1     134.659 138.052 142.040  1.00  0.00     0.211 HD
ENDBRANCH   3  45
BRANCH   4  47
ATOM     47  C   UNL     1     137.705 137.674 144.301  1.00  0.00     0.191 C 
BRANCH  47  48
ATOM     48  O   UNL     1     138.966 138.031 143.806  1.00  0.00    -0.394 OA
ATOM     49  H   UNL     1     138.954 139.015 143.660  1.00  0.00     0.210 HD
ENDBRANCH  47  48
ENDBRANCH   4  47
TORSDOF 14
ENDMDL
