MODEL 1
REMARK VINA RESULT:    -4.785      0.000      0.000
REMARK INTER + INTRA:          -5.415
REMARK INTER:                  -5.204
REMARK INTRA:                  -0.210
REMARK UNBOUND:                -0.210
REMARK SMILES C=C(C)[C@@H]1CC=C(C)[C@H](O)C1
REMARK SMILES IDX 8 1 7 2 6 3 5 4 4 5 11 6 9 7 10 8 2 10 1 11 3 12
REMARK H PARENT 10 9
REMARK Flexibility Score: inf
ROOT
ATOM      1  C   UNL     1     137.016 138.158 145.495  1.00  0.00     0.042 C 
ATOM      2  C   UNL     1     135.722 138.389 144.757  1.00  0.00    -0.049 C 
ATOM      3  C   UNL     1     135.688 139.293 143.761  1.00  0.00    -0.025 C 
ATOM      4  C   UNL     1     134.395 139.587 143.047  1.00  0.00     0.035 C 
ATOM      5  C   UNL     1     133.573 138.304 142.736  1.00  0.00     0.021 C 
ATOM      6  C   UNL     1     133.812 137.137 143.742  1.00  0.00     0.044 C 
ATOM      7  C   UNL     1     134.450 137.614 145.063  1.00  0.00     0.140 C 
ENDROOT
BRANCH   7   8
ATOM      8  O   UNL     1     134.675 136.527 145.925  1.00  0.00    -0.389 OA
ATOM      9  H   UNL     1     134.013 135.821 145.701  1.00  0.00     0.211 HD
ENDBRANCH   7   8
BRANCH   5  10
ATOM     10  C   UNL     1     133.790 137.841 141.300  1.00  0.00    -0.077 C 
ATOM     11  C   UNL     1     133.230 138.499 140.270  1.00  0.00     0.008 C 
ATOM     12  C   UNL     1     134.634 136.626 141.010  1.00  0.00     0.039 C 
ENDBRANCH   5  10
TORSDOF 2
ENDMDL
MODEL 2
REMARK VINA RESULT:    -4.580     20.063     20.921
REMARK INTER + INTRA:          -5.192
REMARK INTER:                  -4.980
REMARK INTRA:                  -0.212
REMARK UNBOUND:                -0.210
REMARK SMILES C=C(C)[C@@H]1CC=C(C)[C@H](O)C1
REMARK SMILES IDX 8 1 7 2 6 3 5 4 4 5 11 6 9 7 10 8 2 10 1 11 3 12
REMARK H PARENT 10 9
REMARK Flexibility Score: inf
ROOT
ATOM      1  C   UNL     1     148.220 141.683 130.079  1.00  0.00     0.042 C 
ATOM      2  C   UNL     1     149.113 142.898 130.089  1.00  0.00    -0.049 C 
ATOM      3  C   UNL     1     149.094 143.734 129.035  1.00  0.00    -0.025 C 
ATOM      4  C   UNL     1     150.019 144.922 128.993  1.00  0.00     0.035 C 
ATOM      5  C   UNL     1     150.113 145.661 130.358  1.00  0.00     0.021 C 
ATOM      6  C   UNL     1     149.866 144.745 131.594  1.00  0.00     0.044 C 
ATOM      7  C   UNL     1     150.016 143.246 131.262  1.00  0.00     0.140 C 
ENDROOT
BRANCH   7   8
ATOM      8  O   UNL     1     149.754 142.459 132.397  1.00  0.00    -0.389 OA
ATOM      9  H   UNL     1     150.376 141.685 132.378  1.00  0.00     0.211 HD
ENDBRANCH   7   8
BRANCH   5  10
ATOM     10  C   UNL     1     149.202 146.883 130.390  1.00  0.00    -0.077 C 
ATOM     11  C   UNL     1     149.637 148.080 129.960  1.00  0.00     0.008 C 
ATOM     12  C   UNL     1     147.794 146.770 130.917  1.00  0.00     0.039 C 
ENDBRANCH   5  10
TORSDOF 2
ENDMDL
MODEL 3
REMARK VINA RESULT:    -4.425     13.728     15.011
REMARK INTER + INTRA:          -5.023
REMARK INTER:                  -4.818
REMARK INTRA:                  -0.205
REMARK UNBOUND:                -0.210
REMARK SMILES C=C(C)[C@@H]1CC=C(C)[C@H](O)C1
REMARK SMILES IDX 8 1 7 2 6 3 5 4 4 5 11 6 9 7 10 8 2 10 1 11 3 12
REMARK H PARENT 10 9
REMARK Flexibility Score: inf
ROOT
ATOM      1  C   UNL     1     150.078 143.865 140.933  1.00  0.00     0.042 C 
ATOM      2  C   UNL     1     149.346 142.653 140.414  1.00  0.00    -0.049 C 
ATOM      3  C   UNL     1     150.044 141.678 139.804  1.00  0.00    -0.025 C 
ATOM      4  C   UNL     1     149.331 140.485 139.223  1.00  0.00     0.035 C 
ATOM      5  C   UNL     1     148.207 139.943 140.151  1.00  0.00     0.021 C 
ATOM      6  C   UNL     1     147.566 141.027 141.070  1.00  0.00     0.044 C 
ATOM      7  C   UNL     1     147.847 142.462 140.581  1.00  0.00     0.140 C 
ENDROOT
BRANCH   7   8
ATOM      8  O   UNL     1     147.278 143.404 141.456  1.00  0.00    -0.389 OA
ATOM      9  H   UNL     1     147.896 144.179 141.509  1.00  0.00     0.211 HD
ENDBRANCH   7   8
BRANCH   5  10
ATOM     10  C   UNL     1     148.689 138.748 140.966  1.00  0.00    -0.077 C 
ATOM     11  C   UNL     1     148.467 137.492 140.545  1.00  0.00     0.008 C 
ATOM     12  C   UNL     1     149.418 138.959 142.268  1.00  0.00     0.039 C 
ENDBRANCH   5  10
TORSDOF 2
ENDMDL
MODEL 4
REMARK VINA RESULT:    -4.348     20.366     21.211
REMARK INTER + INTRA:          -4.940
REMARK INTER:                  -4.751
REMARK INTRA:                  -0.189
REMARK UNBOUND:                -0.210
REMARK SMILES C=C(C)[C@@H]1CC=C(C)[C@H](O)C1
REMARK SMILES IDX 8 1 7 2 6 3 5 4 4 5 11 6 9 7 10 8 2 10 1 11 3 12
REMARK H PARENT 10 9
REMARK Flexibility Score: inf
ROOT
ATOM      1  C   UNL     1     149.308 143.241 129.631  1.00  0.00     0.042 C 
ATOM      2  C   UNL     1     149.577 144.694 129.931  1.00  0.00    -0.049 C 
ATOM      3  C   UNL     1     149.296 145.620 128.996  1.00  0.00    -0.025 C 
ATOM      4  C   UNL     1     149.610 147.071 129.247  1.00  0.00     0.035 C 
ATOM      5  C   UNL     1     149.245 147.527 130.688  1.00  0.00     0.021 C 
ATOM      6  C   UNL     1     149.305 146.387 131.749  1.00  0.00     0.044 C 
ATOM      7  C   UNL     1     150.124 145.171 131.268  1.00  0.00     0.140 C 
ENDROOT
BRANCH   7   8
ATOM      8  O   UNL     1     150.125 144.158 132.242  1.00  0.00    -0.389 OA
ATOM      9  H   UNL     1     150.505 144.541 133.076  1.00  0.00     0.211 HD
ENDBRANCH   7   8
BRANCH   5  10
ATOM     10  C   UNL     1     147.894 148.233 130.720  1.00  0.00    -0.077 C 
ATOM     11  C   UNL     1     147.121 148.196 131.818  1.00  0.00     0.008 C 
ATOM     12  C   UNL     1     147.397 148.982 129.510  1.00  0.00     0.039 C 
ENDBRANCH   5  10
TORSDOF 2
ENDMDL
MODEL 5
REMARK VINA RESULT:    -4.312     12.390     14.135
REMARK INTER + INTRA:          -4.901
REMARK INTER:                  -4.696
REMARK INTRA:                  -0.205
REMARK UNBOUND:                -0.210
REMARK SMILES C=C(C)[C@@H]1CC=C(C)[C@H](O)C1
REMARK SMILES IDX 8 1 7 2 6 3 5 4 4 5 11 6 9 7 10 8 2 10 1 11 3 12
REMARK H PARENT 10 9
REMARK Flexibility Score: inf
ROOT
ATOM      1  C   UNL     1     146.124 138.395 139.952  1.00  0.00     0.042 C 
ATOM      2  C   UNL     1     147.235 139.163 140.621  1.00  0.00    -0.049 C 
ATOM      3  C   UNL     1     148.161 139.772 139.860  1.00  0.00    -0.025 C 
ATOM      4  C   UNL     1     149.315 140.497 140.502  1.00  0.00     0.035 C 
ATOM      5  C   UNL     1     148.885 141.342 141.735  1.00  0.00     0.021 C 
ATOM      6  C   UNL     1     147.630 140.789 142.477  1.00  0.00     0.044 C 
ATOM      7  C   UNL     1     147.338 139.315 142.131  1.00  0.00     0.140 C 
ENDROOT
BRANCH   7   8
ATOM      8  O   UNL     1     146.183 138.869 142.797  1.00  0.00    -0.389 OA
ATOM      9  H   UNL     1     146.464 138.499 143.675  1.00  0.00     0.211 HD
ENDBRANCH   7   8
BRANCH   5  10
ATOM     10  C   UNL     1     148.699 142.809 141.363  1.00  0.00    -0.077 C 
ATOM     11  C   UNL     1     147.496 143.280 140.994  1.00  0.00     0.008 C 
ATOM     12  C   UNL     1     149.870 143.757 141.395  1.00  0.00     0.039 C 
ENDBRANCH   5  10
TORSDOF 2
ENDMDL
MODEL 6
REMARK VINA RESULT:    -4.279     13.454     14.764
REMARK INTER + INTRA:          -4.864
REMARK INTER:                  -4.698
REMARK INTRA:                  -0.166
REMARK UNBOUND:                -0.210
REMARK SMILES C=C(C)[C@@H]1CC=C(C)[C@H](O)C1
REMARK SMILES IDX 8 1 7 2 6 3 5 4 4 5 11 6 9 7 10 8 2 10 1 11 3 12
REMARK H PARENT 10 9
REMARK Flexibility Score: inf
ROOT
ATOM      1  C   UNL     1     147.107 140.769 142.873  1.00  0.00     0.042 C 
ATOM      2  C   UNL     1     148.095 140.918 141.743  1.00  0.00    -0.049 C 
ATOM      3  C   UNL     1     148.756 139.832 141.304  1.00  0.00    -0.025 C 
ATOM      4  C   UNL     1     149.791 139.962 140.218  1.00  0.00     0.035 C 
ATOM      5  C   UNL     1     149.344 140.912 139.070  1.00  0.00     0.021 C 
ATOM      6  C   UNL     1     148.351 142.026 139.519  1.00  0.00     0.044 C 
ATOM      7  C   UNL     1     148.354 142.244 141.046  1.00  0.00     0.140 C 
ENDROOT
BRANCH   7   8
ATOM      8  O   UNL     1     147.423 143.234 141.406  1.00  0.00    -0.389 OA
ATOM      9  H   UNL     1     147.931 144.053 141.648  1.00  0.00     0.211 HD
ENDBRANCH   7   8
BRANCH   5  10
ATOM     10  C   UNL     1     148.789 140.127 137.887  1.00  0.00    -0.077 C 
ATOM     11  C   UNL     1     149.080 138.826 137.723  1.00  0.00     0.008 C 
ATOM     12  C   UNL     1     147.906 140.805 136.870  1.00  0.00     0.039 C 
ENDBRANCH   5  10
TORSDOF 2
ENDMDL
MODEL 7
REMARK VINA RESULT:    -4.224     14.207     15.355
REMARK INTER + INTRA:          -4.805
REMARK INTER:                  -4.612
REMARK INTRA:                  -0.192
REMARK UNBOUND:                -0.210
REMARK SMILES C=C(C)[C@@H]1CC=C(C)[C@H](O)C1
REMARK SMILES IDX 8 1 7 2 6 3 5 4 4 5 11 6 9 7 10 8 2 10 1 11 3 12
REMARK H PARENT 10 9
REMARK Flexibility Score: inf
ROOT
ATOM      1  C   UNL     1     146.969 139.293 137.053  1.00  0.00     0.042 C 
ATOM      2  C   UNL     1     147.925 140.030 137.956  1.00  0.00    -0.049 C 
ATOM      3  C   UNL     1     147.450 140.990 138.770  1.00  0.00    -0.025 C 
ATOM      4  C   UNL     1     148.391 141.783 139.639  1.00  0.00     0.035 C 
ATOM      5  C   UNL     1     149.483 140.899 140.307  1.00  0.00     0.021 C 
ATOM      6  C   UNL     1     149.854 139.623 139.492  1.00  0.00     0.044 C 
ATOM      7  C   UNL     1     149.411 139.712 138.017  1.00  0.00     0.140 C 
ENDROOT
BRANCH   7   8
ATOM      8  O   UNL     1     149.737 138.529 137.331  1.00  0.00    -0.389 OA
ATOM      9  H   UNL     1     149.914 137.825 138.009  1.00  0.00     0.211 HD
ENDBRANCH   7   8
BRANCH   5  10
ATOM     10  C   UNL     1     149.106 140.543 141.741  1.00  0.00    -0.077 C 
ATOM     11  C   UNL     1     148.647 141.480 142.587  1.00  0.00     0.008 C 
ATOM     12  C   UNL     1     149.252 139.127 142.238  1.00  0.00     0.039 C 
ENDBRANCH   5  10
TORSDOF 2
ENDMDL
MODEL 8
REMARK VINA RESULT:    -4.206     12.732     14.417
REMARK INTER + INTRA:          -4.785
REMARK INTER:                  -4.587
REMARK INTRA:                  -0.198
REMARK UNBOUND:                -0.210
REMARK SMILES C=C(C)[C@@H]1CC=C(C)[C@H](O)C1
REMARK SMILES IDX 8 1 7 2 6 3 5 4 4 5 11 6 9 7 10 8 2 10 1 11 3 12
REMARK H PARENT 10 9
REMARK Flexibility Score: inf
ROOT
ATOM      1  C   UNL     1     148.615 143.028 141.392  1.00  0.00     0.042 C 
ATOM      2  C   UNL     1     148.907 141.554 141.267  1.00  0.00    -0.049 C 
ATOM      3  C   UNL     1     148.979 140.803 142.380  1.00  0.00    -0.025 C 
ATOM      4  C   UNL     1     149.328 139.340 142.288  1.00  0.00     0.035 C 
ATOM      5  C   UNL     1     148.608 138.622 141.111  1.00  0.00     0.021 C 
ATOM      6  C   UNL     1     148.271 139.555 139.909  1.00  0.00     0.044 C 
ATOM      7  C   UNL     1     149.089 140.862 139.924  1.00  0.00     0.140 C 
ENDROOT
BRANCH   7   8
ATOM      8  O   UNL     1     148.730 141.684 138.842  1.00  0.00    -0.389 OA
ATOM      9  H   UNL     1     149.022 141.230 138.008  1.00  0.00     0.211 HD
ENDBRANCH   7   8
BRANCH   5  10
ATOM     10  C   UNL     1     147.367 137.879 141.593  1.00  0.00    -0.077 C 
ATOM     11  C   UNL     1     147.406 136.559 141.842  1.00  0.00     0.008 C 
ATOM     12  C   UNL     1     146.067 138.615 141.790  1.00  0.00     0.039 C 
ENDBRANCH   5  10
TORSDOF 2
ENDMDL
MODEL 9
REMARK VINA RESULT:    -4.146     14.212     15.426
REMARK INTER + INTRA:          -4.720
REMARK INTER:                  -4.520
REMARK INTRA:                  -0.200
REMARK UNBOUND:                -0.210
REMARK SMILES C=C(C)[C@@H]1CC=C(C)[C@H](O)C1
REMARK SMILES IDX 8 1 7 2 6 3 5 4 4 5 11 6 9 7 10 8 2 10 1 11 3 12
REMARK H PARENT 10 9
REMARK Flexibility Score: inf
ROOT
ATOM      1  C   UNL     1     148.062 141.500 142.127  1.00  0.00     0.042 C 
ATOM      2  C   UNL     1     148.995 140.711 141.242  1.00  0.00    -0.049 C 
ATOM      3  C   UNL     1     149.154 139.395 141.468  1.00  0.00    -0.025 C 
ATOM      4  C   UNL     1     150.124 138.595 140.638  1.00  0.00     0.035 C 
ATOM      5  C   UNL     1     150.063 138.954 139.126  1.00  0.00     0.021 C 
ATOM      6  C   UNL     1     149.611 140.418 138.839  1.00  0.00     0.044 C 
ATOM      7  C   UNL     1     149.743 141.333 140.074  1.00  0.00     0.140 C 
ENDROOT
BRANCH   7   8
ATOM      8  O   UNL     1     149.297 142.632 139.777  1.00  0.00    -0.389 OA
ATOM      9  H   UNL     1     149.641 143.239 140.485  1.00  0.00     0.211 HD
ENDBRANCH   7   8
BRANCH   5  10
ATOM     10  C   UNL     1     149.207 137.956 138.354  1.00  0.00    -0.077 C 
ATOM     11  C   UNL     1     147.886 138.150 138.205  1.00  0.00     0.008 C 
ATOM     12  C   UNL     1     149.831 136.724 137.750  1.00  0.00     0.039 C 
ENDBRANCH   5  10
TORSDOF 2
ENDMDL
