MODEL 1
REMARK VINA RESULT:    -5.494      0.000      0.000
REMARK INTER + INTRA:          -5.989
REMARK INTER:                  -5.815
REMARK INTRA:                  -0.174
REMARK UNBOUND:                -0.174
REMARK SMILES C=C(C)[C@@H]1CC[C@@]2(C)CCCC(=C)[C@H]2C1
REMARK SMILES IDX 4 1 5 2 6 3 7 4 9 5 10 6 11 7 12 8 13 9 14 10 15 11 8 12
REMARK SMILES IDX 2 13 3 14 1 15
REMARK H PARENT
REMARK Flexibility Score: inf
ROOT
ATOM      1  C   UNL     1       4.499   8.955  12.400  1.00  0.00     0.015 C 
ATOM      2  C   UNL     1       4.100   7.972  11.290  1.00  0.00     0.008 C 
ATOM      3  C   UNL     1       5.061   6.779  11.250  1.00  0.00     0.008 C 
ATOM      4  C   UNL     1       5.206   6.048  12.624  1.00  0.00    -0.026 C 
ATOM      5  C   UNL     1       6.407   5.064  12.569  1.00  0.00     0.008 C 
ATOM      6  C   UNL     1       7.778   5.744  12.367  1.00  0.00     0.005 C 
ATOM      7  C   UNL     1       7.889   7.177  12.924  1.00  0.00     0.031 C 
ATOM      8  C   UNL     1       6.872   7.466  14.002  1.00  0.00    -0.074 C 
ATOM      9  C   UNL     1       7.261   8.085  15.130  1.00  0.00     0.008 C 
ATOM     10  C   UNL     1       5.418   7.038  13.827  1.00  0.00     0.021 C 
ATOM     11  C   UNL     1       4.465   8.256  13.769  1.00  0.00     0.016 C 
ATOM     12  C   UNL     1       3.929   5.204  12.874  1.00  0.00     0.012 C 
ENDROOT
BRANCH   1  13
ATOM     13  C   UNL     1       3.605  10.187  12.390  1.00  0.00    -0.077 C 
ATOM     14  C   UNL     1       3.659  11.189  11.263  1.00  0.00     0.039 C 
ATOM     15  C   UNL     1       2.742  10.402  13.397  1.00  0.00     0.008 C 
ENDBRANCH   1  13
TORSDOF 1
ENDMDL
MODEL 2
REMARK VINA RESULT:    -5.128      0.136      0.892
REMARK INTER + INTRA:          -5.602
REMARK INTER:                  -5.433
REMARK INTRA:                  -0.169
REMARK UNBOUND:                -0.174
REMARK SMILES C=C(C)[C@@H]1CC[C@@]2(C)CCCC(=C)[C@H]2C1
REMARK SMILES IDX 4 1 5 2 6 3 7 4 9 5 10 6 11 7 12 8 13 9 14 10 15 11 8 12
REMARK SMILES IDX 2 13 3 14 1 15
REMARK H PARENT
REMARK Flexibility Score: inf
ROOT
ATOM      1  C   UNL     1       4.465   8.954  12.370  1.00  0.00     0.015 C 
ATOM      2  C   UNL     1       4.085   7.989  11.237  1.00  0.00     0.008 C 
ATOM      3  C   UNL     1       5.048   6.797  11.194  1.00  0.00     0.008 C 
ATOM      4  C   UNL     1       5.171   6.044  12.558  1.00  0.00    -0.026 C 
ATOM      5  C   UNL     1       6.373   5.062  12.507  1.00  0.00     0.008 C 
ATOM      6  C   UNL     1       7.748   5.746  12.339  1.00  0.00     0.005 C 
ATOM      7  C   UNL     1       7.848   7.169  12.921  1.00  0.00     0.031 C 
ATOM      8  C   UNL     1       6.812   7.441  13.986  1.00  0.00    -0.074 C 
ATOM      9  C   UNL     1       7.182   8.041  15.131  1.00  0.00     0.008 C 
ATOM     10  C   UNL     1       5.362   7.014  13.780  1.00  0.00     0.021 C 
ATOM     11  C   UNL     1       4.409   8.232  13.726  1.00  0.00     0.016 C 
ATOM     12  C   UNL     1       3.890   5.195  12.773  1.00  0.00     0.012 C 
ENDROOT
BRANCH   1  13
ATOM     13  C   UNL     1       3.570  10.185  12.365  1.00  0.00    -0.077 C 
ATOM     14  C   UNL     1       2.819  10.616  13.601  1.00  0.00     0.039 C 
ATOM     15  C   UNL     1       3.438  10.918  11.247  1.00  0.00     0.008 C 
ENDBRANCH   1  13
TORSDOF 1
ENDMDL
