MODEL 1
REMARK VINA RESULT:    -2.750      0.000      0.000
REMARK INTER + INTRA:          -4.476
REMARK INTER:                  -3.714
REMARK INTRA:                  -0.762
REMARK UNBOUND:                -0.762
REMARK SMILES CC(=O)CCC=C(C)CCC=C(C)C
REMARK SMILES IDX 7 1 6 2 8 3 9 4 10 5 11 6 13 7 12 8 14 9 5 10 4 11 2 12 3 13
REMARK SMILES IDX 1 14
REMARK H PARENT
REMARK Flexibility Score: inf
ROOT
ATOM      1  C   UNL     1     116.913  87.961  58.008  1.00  0.00    -0.077 C 
ATOM      2  C   UNL     1     116.067  88.085  59.057  1.00  0.00    -0.028 C 
ATOM      3  C   UNL     1     116.723  88.752  56.734  1.00  0.00     0.039 C 
ENDROOT
BRANCH   1   4
ATOM      4  C   UNL     1     118.085  87.012  58.119  1.00  0.00     0.034 C 
BRANCH   4   5
ATOM      5  C   UNL     1     119.264  87.682  58.835  1.00  0.00     0.032 C 
BRANCH   5   6
ATOM      6  C   UNL     1     120.275  88.192  57.839  1.00  0.00    -0.028 C 
ATOM      7  C   UNL     1     121.768  86.196  58.092  1.00  0.00     0.039 C 
ATOM      8  C   UNL     1     121.389  87.518  57.472  1.00  0.00    -0.080 C 
ATOM      9  C   UNL     1     122.320  88.112  56.447  1.00  0.00     0.039 C 
ENDBRANCH   5   6
ENDBRANCH   4   5
ENDBRANCH   1   4
BRANCH   2  10
ATOM     10  C   UNL     1     114.841  88.962  59.068  1.00  0.00     0.035 C 
BRANCH  10  11
ATOM     11  C   UNL     1     113.567  88.114  58.984  1.00  0.00     0.079 C 
BRANCH  11  12
ATOM     12  C   UNL     1     113.137  87.939  57.553  1.00  0.00     0.130 C 
ATOM     13  O   UNL     1     113.089  86.818  57.068  1.00  0.00    -0.300 OA
ATOM     14  C   UNL     1     112.743  89.125  56.727  1.00  0.00     0.087 C 
ENDBRANCH  11  12
ENDBRANCH  10  11
ENDBRANCH   2  10
TORSDOF 6
ENDMDL
MODEL 2
REMARK VINA RESULT:    -2.730      4.699      6.310
REMARK INTER + INTRA:          -4.449
REMARK INTER:                  -3.076
REMARK INTRA:                  -1.372
REMARK UNBOUND:                -0.762
REMARK SMILES CC(=O)CCC=C(C)CCC=C(C)C
REMARK SMILES IDX 7 1 6 2 8 3 9 4 10 5 11 6 13 7 12 8 14 9 5 10 4 11 2 12 3 13
REMARK SMILES IDX 1 14
REMARK H PARENT
REMARK Flexibility Score: inf
ROOT
ATOM      1  C   UNL     1     122.123  84.924  58.343  1.00  0.00    -0.077 C 
ATOM      2  C   UNL     1     121.783  86.168  58.750  1.00  0.00    -0.028 C 
ATOM      3  C   UNL     1     121.130  84.007  57.667  1.00  0.00     0.039 C 
ENDROOT
BRANCH   1   4
ATOM      4  C   UNL     1     123.540  84.443  58.563  1.00  0.00     0.034 C 
BRANCH   4   5
ATOM      5  C   UNL     1     124.140  83.895  57.262  1.00  0.00     0.032 C 
BRANCH   5   6
ATOM      6  C   UNL     1     124.839  84.988  56.493  1.00  0.00    -0.028 C 
ATOM      7  C   UNL     1     123.070  85.093  54.722  1.00  0.00     0.039 C 
ATOM      8  C   UNL     1     124.353  85.558  55.367  1.00  0.00    -0.080 C 
ATOM      9  C   UNL     1     125.125  86.662  54.692  1.00  0.00     0.039 C 
ENDBRANCH   5   6
ENDBRANCH   4   5
ENDBRANCH   1   4
BRANCH   2  10
ATOM     10  C   UNL     1     120.401  86.760  58.629  1.00  0.00     0.035 C 
BRANCH  10  11
ATOM     11  C   UNL     1     120.441  88.073  57.841  1.00  0.00     0.079 C 
BRANCH  11  12
ATOM     12  C   UNL     1     120.883  87.831  56.423  1.00  0.00     0.130 C 
ATOM     13  O   UNL     1     120.240  87.077  55.708  1.00  0.00    -0.300 OA
ATOM     14  C   UNL     1     122.092  88.527  55.875  1.00  0.00     0.087 C 
ENDBRANCH  11  12
ENDBRANCH  10  11
ENDBRANCH   2  10
TORSDOF 6
ENDMDL
MODEL 3
REMARK VINA RESULT:    -2.680      2.872      7.934
REMARK INTER + INTRA:          -4.382
REMARK INTER:                  -3.430
REMARK INTRA:                  -0.952
REMARK UNBOUND:                -0.762
REMARK SMILES CC(=O)CCC=C(C)CCC=C(C)C
REMARK SMILES IDX 7 1 6 2 8 3 9 4 10 5 11 6 13 7 12 8 14 9 5 10 4 11 2 12 3 13
REMARK SMILES IDX 1 14
REMARK H PARENT
REMARK Flexibility Score: inf
ROOT
ATOM      1  C   UNL     1     112.519  87.246  57.915  1.00  0.00    -0.077 C 
ATOM      2  C   UNL     1     113.096  88.060  58.829  1.00  0.00    -0.028 C 
ATOM      3  C   UNL     1     113.006  87.180  56.486  1.00  0.00     0.039 C 
ENDROOT
BRANCH   1   4
ATOM      4  C   UNL     1     111.359  86.373  58.340  1.00  0.00     0.034 C 
BRANCH   4   5
ATOM      5  C   UNL     1     110.207  87.223  58.889  1.00  0.00     0.032 C 
BRANCH   5   6
ATOM      6  C   UNL     1     109.000  87.134  57.990  1.00  0.00    -0.028 C 
ATOM      7  C   UNL     1     109.735  89.045  56.547  1.00  0.00     0.039 C 
ATOM      8  C   UNL     1     108.792  87.926  56.914  1.00  0.00    -0.080 C 
ATOM      9  C   UNL     1     107.560  87.733  56.068  1.00  0.00     0.039 C 
ENDBRANCH   5   6
ENDBRANCH   4   5
ENDBRANCH   1   4
BRANCH   2  10
ATOM     10  C   UNL     1     114.231  89.008  58.535  1.00  0.00     0.035 C 
BRANCH  10  11
ATOM     11  C   UNL     1     115.544  88.484  59.125  1.00  0.00     0.079 C 
BRANCH  11  12
ATOM     12  C   UNL     1     116.382  87.828  58.062  1.00  0.00     0.130 C 
ATOM     13  O   UNL     1     116.401  86.610  57.969  1.00  0.00    -0.300 OA
ATOM     14  C   UNL     1     117.176  88.659  57.100  1.00  0.00     0.087 C 
ENDBRANCH  11  12
ENDBRANCH  10  11
ENDBRANCH   2  10
TORSDOF 6
ENDMDL
MODEL 4
REMARK VINA RESULT:    -2.666      5.467      7.196
REMARK INTER + INTRA:          -4.363
REMARK INTER:                  -2.995
REMARK INTRA:                  -1.368
REMARK UNBOUND:                -0.762
REMARK SMILES CC(=O)CCC=C(C)CCC=C(C)C
REMARK SMILES IDX 7 1 6 2 8 3 9 4 10 5 11 6 13 7 12 8 14 9 5 10 4 11 2 12 3 13
REMARK SMILES IDX 1 14
REMARK H PARENT
REMARK Flexibility Score: inf
ROOT
ATOM      1  C   UNL     1     120.816  86.502  57.878  1.00  0.00    -0.077 C 
ATOM      2  C   UNL     1     121.646  85.977  58.809  1.00  0.00    -0.028 C 
ATOM      3  C   UNL     1     119.876  85.638  57.071  1.00  0.00     0.039 C 
ENDROOT
BRANCH   1   4
ATOM      4  C   UNL     1     120.825  87.997  57.649  1.00  0.00     0.034 C 
BRANCH   4   5
ATOM      5  C   UNL     1     121.291  88.329  56.226  1.00  0.00     0.032 C 
BRANCH   5   6
ATOM      6  C   UNL     1     122.727  87.915  56.023  1.00  0.00    -0.028 C 
ATOM      7  C   UNL     1     122.164  86.270  54.219  1.00  0.00     0.039 C 
ATOM      8  C   UNL     1     123.136  87.014  55.101  1.00  0.00    -0.080 C 
ATOM      9  C   UNL     1     124.602  86.693  54.966  1.00  0.00     0.039 C 
ENDBRANCH   5   6
ENDBRANCH   4   5
ENDBRANCH   1   4
BRANCH   2  10
ATOM     10  C   UNL     1     121.769  84.506  59.113  1.00  0.00     0.035 C 
BRANCH  10  11
ATOM     11  C   UNL     1     123.239  84.074  59.124  1.00  0.00     0.079 C 
BRANCH  11  12
ATOM     12  C   UNL     1     123.780  83.991  57.723  1.00  0.00     0.130 C 
ATOM     13  O   UNL     1     124.923  84.357  57.491  1.00  0.00    -0.300 OA
ATOM     14  C   UNL     1     122.937  83.439  56.614  1.00  0.00     0.087 C 
ENDBRANCH  11  12
ENDBRANCH  10  11
ENDBRANCH   2  10
TORSDOF 6
ENDMDL
MODEL 5
REMARK VINA RESULT:    -2.650      3.512      6.030
REMARK INTER + INTRA:          -4.341
REMARK INTER:                  -3.257
REMARK INTRA:                  -1.085
REMARK UNBOUND:                -0.762
REMARK SMILES CC(=O)CCC=C(C)CCC=C(C)C
REMARK SMILES IDX 7 1 6 2 8 3 9 4 10 5 11 6 13 7 12 8 14 9 5 10 4 11 2 12 3 13
REMARK SMILES IDX 1 14
REMARK H PARENT
REMARK Flexibility Score: inf
ROOT
ATOM      1  C   UNL     1     122.399  86.785  55.525  1.00  0.00    -0.077 C 
ATOM      2  C   UNL     1     122.233  87.629  56.569  1.00  0.00    -0.028 C 
ATOM      3  C   UNL     1     121.465  85.621  55.285  1.00  0.00     0.039 C 
ENDROOT
BRANCH   1   4
ATOM      4  C   UNL     1     123.545  87.020  54.568  1.00  0.00     0.034 C 
BRANCH   4   5
ATOM      5  C   UNL     1     124.866  86.516  55.163  1.00  0.00     0.032 C 
BRANCH   5   6
ATOM      6  C   UNL     1     125.061  85.050  54.869  1.00  0.00    -0.028 C 
ATOM      7  C   UNL     1     124.643  84.356  57.240  1.00  0.00     0.039 C 
ATOM      8  C   UNL     1     124.932  84.066  55.788  1.00  0.00    -0.080 C 
ATOM      9  C   UNL     1     125.125  82.629  55.378  1.00  0.00     0.039 C 
ENDBRANCH   5   6
ENDBRANCH   4   5
ENDBRANCH   1   4
BRANCH   2  10
ATOM     10  C   UNL     1     121.159  87.491  57.619  1.00  0.00     0.035 C 
BRANCH  10  11
ATOM     11  C   UNL     1     120.151  88.640  57.517  1.00  0.00     0.079 C 
BRANCH  11  12
ATOM     12  C   UNL     1     118.786  88.122  57.156  1.00  0.00     0.130 C 
ATOM     13  O   UNL     1     117.920  88.042  58.014  1.00  0.00    -0.300 OA
ATOM     14  C   UNL     1     118.473  87.724  55.745  1.00  0.00     0.087 C 
ENDBRANCH  11  12
ENDBRANCH  10  11
ENDBRANCH   2  10
TORSDOF 6
ENDMDL
MODEL 6
REMARK VINA RESULT:    -2.635      9.237     11.740
REMARK INTER + INTRA:          -4.321
REMARK INTER:                  -2.893
REMARK INTRA:                  -1.428
REMARK UNBOUND:                -0.762
REMARK SMILES CC(=O)CCC=C(C)CCC=C(C)C
REMARK SMILES IDX 7 1 6 2 8 3 9 4 10 5 11 6 13 7 12 8 14 9 5 10 4 11 2 12 3 13
REMARK SMILES IDX 1 14
REMARK H PARENT
REMARK Flexibility Score: inf
ROOT
ATOM      1  C   UNL     1     107.060  84.481  57.962  1.00  0.00    -0.077 C 
ATOM      2  C   UNL     1     107.372  85.737  58.357  1.00  0.00    -0.028 C 
ATOM      3  C   UNL     1     108.100  83.544  57.391  1.00  0.00     0.039 C 
ENDROOT
BRANCH   1   4
ATOM      4  C   UNL     1     105.634  84.000  58.106  1.00  0.00     0.034 C 
BRANCH   4   5
ATOM      5  C   UNL     1     105.067  83.555  56.753  1.00  0.00     0.032 C 
BRANCH   5   6
ATOM      6  C   UNL     1     104.875  84.739  55.837  1.00  0.00    -0.028 C 
ATOM      7  C   UNL     1     106.389  83.817  54.067  1.00  0.00     0.039 C 
ATOM      8  C   UNL     1     105.438  84.853  54.613  1.00  0.00    -0.080 C 
ATOM      9  C   UNL     1     105.158  86.070  53.770  1.00  0.00     0.039 C 
ENDBRANCH   5   6
ENDBRANCH   4   5
ENDBRANCH   1   4
BRANCH   2  10
ATOM     10  C   UNL     1     108.741  86.357  58.235  1.00  0.00     0.035 C 
BRANCH  10  11
ATOM     11  C   UNL     1     108.666  87.698  57.498  1.00  0.00     0.079 C 
BRANCH  11  12
ATOM     12  C   UNL     1     108.100  87.516  56.116  1.00  0.00     0.130 C 
ATOM     13  O   UNL     1     107.109  88.146  55.778  1.00  0.00    -0.300 OA
ATOM     14  C   UNL     1     108.757  86.586  55.142  1.00  0.00     0.087 C 
ENDBRANCH  11  12
ENDBRANCH  10  11
ENDBRANCH   2  10
TORSDOF 6
ENDMDL
MODEL 7
REMARK VINA RESULT:    -2.633      5.122      8.293
REMARK INTER + INTRA:          -4.318
REMARK INTER:                  -3.166
REMARK INTRA:                  -1.152
REMARK UNBOUND:                -0.762
REMARK SMILES CC(=O)CCC=C(C)CCC=C(C)C
REMARK SMILES IDX 7 1 6 2 8 3 9 4 10 5 11 6 13 7 12 8 14 9 5 10 4 11 2 12 3 13
REMARK SMILES IDX 1 14
REMARK H PARENT
REMARK Flexibility Score: inf
ROOT
ATOM      1  C   UNL     1     122.211  84.355  57.186  1.00  0.00    -0.077 C 
ATOM      2  C   UNL     1     123.528  84.433  57.487  1.00  0.00    -0.028 C 
ATOM      3  C   UNL     1     121.730  83.982  55.803  1.00  0.00     0.039 C 
ENDROOT
BRANCH   1   4
ATOM      4  C   UNL     1     121.194  84.642  58.268  1.00  0.00     0.034 C 
BRANCH   4   5
ATOM      5  C   UNL     1     121.517  85.956  58.988  1.00  0.00     0.032 C 
BRANCH   5   6
ATOM      6  C   UNL     1     120.568  87.048  58.562  1.00  0.00    -0.028 C 
ATOM      7  C   UNL     1     122.143  87.961  56.840  1.00  0.00     0.039 C 
ATOM      8  C   UNL     1     120.825  87.936  57.574  1.00  0.00    -0.080 C 
ATOM      9  C   UNL     1     119.793  88.973  57.212  1.00  0.00     0.039 C 
ENDBRANCH   5   6
ENDBRANCH   4   5
ENDBRANCH   1   4
BRANCH   2  10
ATOM     10  C   UNL     1     124.646  84.211  56.500  1.00  0.00     0.035 C 
BRANCH  10  11
ATOM     11  C   UNL     1     125.100  85.540  55.888  1.00  0.00     0.079 C 
BRANCH  11  12
ATOM     12  C   UNL     1     124.966  85.511  54.390  1.00  0.00     0.130 C 
ATOM     13  O   UNL     1     125.002  86.556  53.758  1.00  0.00    -0.300 OA
ATOM     14  C   UNL     1     124.812  84.209  53.666  1.00  0.00     0.087 C 
ENDBRANCH  11  12
ENDBRANCH  10  11
ENDBRANCH   2  10
TORSDOF 6
ENDMDL
MODEL 8
REMARK VINA RESULT:    -2.584      8.666     11.571
REMARK INTER + INTRA:          -4.251
REMARK INTER:                  -2.965
REMARK INTRA:                  -1.286
REMARK UNBOUND:                -0.762
REMARK SMILES CC(=O)CCC=C(C)CCC=C(C)C
REMARK SMILES IDX 7 1 6 2 8 3 9 4 10 5 11 6 13 7 12 8 14 9 5 10 4 11 2 12 3 13
REMARK SMILES IDX 1 14
REMARK H PARENT
REMARK Flexibility Score: inf
ROOT
ATOM      1  C   UNL     1     107.046  86.331  55.114  1.00  0.00    -0.077 C 
ATOM      2  C   UNL     1     107.325  87.496  55.745  1.00  0.00    -0.028 C 
ATOM      3  C   UNL     1     108.137  85.384  54.672  1.00  0.00     0.039 C 
ENDROOT
BRANCH   1   4
ATOM      4  C   UNL     1     105.602  85.966  54.855  1.00  0.00     0.034 C 
BRANCH   4   5
ATOM      5  C   UNL     1     105.344  84.491  55.185  1.00  0.00     0.032 C 
BRANCH   5   6
ATOM      6  C   UNL     1     104.886  84.334  56.614  1.00  0.00    -0.028 C 
ATOM      7  C   UNL     1     106.908  83.016  57.284  1.00  0.00     0.039 C 
ATOM      8  C   UNL     1     105.596  83.701  57.575  1.00  0.00    -0.080 C 
ATOM      9  C   UNL     1     105.054  83.625  58.979  1.00  0.00     0.039 C 
ENDBRANCH   5   6
ENDBRANCH   4   5
ENDBRANCH   1   4
BRANCH   2  10
ATOM     10  C   UNL     1     108.715  88.001  56.032  1.00  0.00     0.035 C 
BRANCH  10  11
ATOM     11  C   UNL     1     108.988  88.014  57.540  1.00  0.00     0.079 C 
BRANCH  11  12
ATOM     12  C   UNL     1     109.283  86.626  58.040  1.00  0.00     0.130 C 
ATOM     13  O   UNL     1     110.287  86.044  57.657  1.00  0.00    -0.300 OA
ATOM     14  C   UNL     1     108.367  85.962  59.022  1.00  0.00     0.087 C 
ENDBRANCH  11  12
ENDBRANCH  10  11
ENDBRANCH   2  10
TORSDOF 6
ENDMDL
MODEL 9
REMARK VINA RESULT:    -1.889      5.192      8.693
REMARK INTER + INTRA:          -3.313
REMARK INTER:                  -2.239
REMARK INTRA:                  -1.074
REMARK UNBOUND:                -0.762
REMARK SMILES CC(=O)CCC=C(C)CCC=C(C)C
REMARK SMILES IDX 7 1 6 2 8 3 9 4 10 5 11 6 13 7 12 8 14 9 5 10 4 11 2 12 3 13
REMARK SMILES IDX 1 14
REMARK H PARENT
REMARK Flexibility Score: inf
ROOT
ATOM      1  C   UNL     1     122.864  86.159  54.804  1.00  0.00    -0.077 C 
ATOM      2  C   UNL     1     124.051  86.235  55.450  1.00  0.00    -0.028 C 
ATOM      3  C   UNL     1     122.476  84.946  53.990  1.00  0.00     0.039 C 
ENDROOT
BRANCH   1   4
ATOM      4  C   UNL     1     121.897  87.317  54.910  1.00  0.00     0.034 C 
BRANCH   4   5
ATOM      5  C   UNL     1     122.115  88.094  56.213  1.00  0.00     0.032 C 
BRANCH   5   6
ATOM      6  C   UNL     1     120.936  87.928  57.140  1.00  0.00    -0.028 C 
ATOM      7  C   UNL     1     122.022  86.086  58.446  1.00  0.00     0.039 C 
ATOM      8  C   UNL     1     120.895  87.051  58.168  1.00  0.00    -0.080 C 
ATOM      9  C   UNL     1     119.674  86.985  59.049  1.00  0.00     0.039 C 
ENDBRANCH   5   6
ENDBRANCH   4   5
ENDBRANCH   1   4
BRANCH   2  10
ATOM     10  C   UNL     1     125.121  85.175  55.400  1.00  0.00     0.035 C 
BRANCH  10  11
ATOM     11  C   UNL     1     125.125  84.346  56.688  1.00  0.00     0.079 C 
BRANCH  11  12
ATOM     12  C   UNL     1     125.018  82.878  56.379  1.00  0.00     0.130 C 
ATOM     13  O   UNL     1     124.845  82.078  57.286  1.00  0.00    -0.300 OA
ATOM     14  C   UNL     1     125.097  82.392  54.964  1.00  0.00     0.087 C 
ENDBRANCH  11  12
ENDBRANCH  10  11
ENDBRANCH   2  10
TORSDOF 6
ENDMDL
