MODEL 1
REMARK VINA RESULT:    -5.484      0.000      0.000
REMARK INTER + INTRA:          -6.021
REMARK INTER:                  -5.804
REMARK INTRA:                  -0.216
REMARK UNBOUND:                -0.216
REMARK SMILES C=C(C)[C@H]1CC[C@]2(C)CCCC(=C)[C@@H]2C1
REMARK SMILES IDX 4 1 5 2 6 3 7 4 9 5 10 6 11 7 12 8 13 9 14 10 15 11 8 12
REMARK SMILES IDX 2 13 3 14 1 15
REMARK H PARENT
REMARK Flexibility Score: inf
ROOT
ATOM      1  C   UNL     1       1.588  -1.020  14.915  1.00  0.00     0.015 C 
ATOM      2  C   UNL     1       0.959  -1.136  16.314  1.00  0.00     0.008 C 
ATOM      3  C   UNL     1       1.448  -2.342  17.103  1.00  0.00     0.008 C 
ATOM      4  C   UNL     1       2.972  -2.618  17.219  1.00  0.00    -0.026 C 
ATOM      5  C   UNL     1       3.564  -1.770  18.343  1.00  0.00     0.008 C 
ATOM      6  C   UNL     1       5.111  -2.005  18.458  1.00  0.00     0.005 C 
ATOM      7  C   UNL     1       5.869  -2.660  17.272  1.00  0.00     0.031 C 
ATOM      8  C   UNL     1       5.265  -2.309  15.951  1.00  0.00    -0.074 C 
ATOM      9  C   UNL     1       6.119  -1.974  14.942  1.00  0.00     0.008 C 
ATOM     10  C   UNL     1       3.705  -2.276  15.816  1.00  0.00     0.021 C 
ATOM     11  C   UNL     1       3.125  -0.985  15.085  1.00  0.00     0.016 C 
ATOM     12  C   UNL     1       3.030  -4.139  17.756  1.00  0.00     0.012 C 
ENDROOT
BRANCH   1  13
ATOM     13  C   UNL     1       1.189  -2.088  13.845  1.00  0.00    -0.077 C 
ATOM     14  C   UNL     1       2.174  -2.782  12.902  1.00  0.00     0.039 C 
ATOM     15  C   UNL     1      -0.114  -2.406  13.720  1.00  0.00     0.008 C 
ENDBRANCH   1  13
TORSDOF 1
ENDMDL
MODEL 2
REMARK VINA RESULT:    -5.408      1.837      3.318
REMARK INTER + INTRA:          -5.941
REMARK INTER:                  -5.820
REMARK INTRA:                  -0.121
REMARK UNBOUND:                -0.216
REMARK SMILES C=C(C)[C@H]1CC[C@]2(C)CCCC(=C)[C@@H]2C1
REMARK SMILES IDX 4 1 5 2 6 3 7 4 9 5 10 6 11 7 12 8 13 9 14 10 15 11 8 12
REMARK SMILES IDX 2 13 3 14 1 15
REMARK H PARENT
REMARK Flexibility Score: inf
ROOT
ATOM      1  C   UNL     1       2.949  -1.932  17.030  1.00  0.00     0.015 C 
ATOM      2  C   UNL     1       2.040  -3.019  17.629  1.00  0.00     0.008 C 
ATOM      3  C   UNL     1       2.806  -4.198  18.210  1.00  0.00     0.008 C 
ATOM      4  C   UNL     1       3.985  -3.943  19.188  1.00  0.00    -0.026 C 
ATOM      5  C   UNL     1       3.446  -3.728  20.600  1.00  0.00     0.008 C 
ATOM      6  C   UNL     1       4.617  -3.432  21.601  1.00  0.00     0.005 C 
ATOM      7  C   UNL     1       6.000  -3.001  21.044  1.00  0.00     0.031 C 
ATOM      8  C   UNL     1       5.881  -2.207  19.783  1.00  0.00    -0.074 C 
ATOM      9  C   UNL     1       6.662  -1.095  19.667  1.00  0.00     0.008 C 
ATOM     10  C   UNL     1       4.830  -2.648  18.708  1.00  0.00     0.021 C 
ATOM     11  C   UNL     1       3.928  -1.468  18.133  1.00  0.00     0.016 C 
ATOM     12  C   UNL     1       4.740  -5.370  19.232  1.00  0.00     0.012 C 
ENDROOT
BRANCH   1  13
ATOM     13  C   UNL     1       3.735  -2.277  15.723  1.00  0.00    -0.077 C 
ATOM     14  C   UNL     1       5.256  -2.193  15.577  1.00  0.00     0.039 C 
ATOM     15  C   UNL     1       3.030  -2.649  14.637  1.00  0.00     0.008 C 
ENDBRANCH   1  13
TORSDOF 1
ENDMDL
MODEL 3
REMARK VINA RESULT:    -5.405      2.836      6.015
REMARK INTER + INTRA:          -5.937
REMARK INTER:                  -5.771
REMARK INTRA:                  -0.166
REMARK UNBOUND:                -0.216
REMARK SMILES C=C(C)[C@H]1CC[C@]2(C)CCCC(=C)[C@@H]2C1
REMARK SMILES IDX 4 1 5 2 6 3 7 4 9 5 10 6 11 7 12 8 13 9 14 10 15 11 8 12
REMARK SMILES IDX 2 13 3 14 1 15
REMARK H PARENT
REMARK Flexibility Score: inf
ROOT
ATOM      1  C   UNL     1       5.004  -4.360  19.183  1.00  0.00     0.015 C 
ATOM      2  C   UNL     1       4.706  -5.302  20.361  1.00  0.00     0.008 C 
ATOM      3  C   UNL     1       3.732  -4.720  21.374  1.00  0.00     0.008 C 
ATOM      4  C   UNL     1       2.395  -4.099  20.885  1.00  0.00    -0.026 C 
ATOM      5  C   UNL     1       1.361  -5.203  20.676  1.00  0.00     0.008 C 
ATOM      6  C   UNL     1       0.010  -4.604  20.147  1.00  0.00     0.005 C 
ATOM      7  C   UNL     1       0.001  -3.175  19.540  1.00  0.00     0.031 C 
ATOM      8  C   UNL     1       1.283  -2.846  18.847  1.00  0.00    -0.074 C 
ATOM      9  C   UNL     1       1.198  -2.224  17.636  1.00  0.00     0.008 C 
ATOM     10  C   UNL     1       2.634  -3.289  19.504  1.00  0.00     0.021 C 
ATOM     11  C   UNL     1       3.660  -3.996  18.512  1.00  0.00     0.016 C 
ATOM     12  C   UNL     1       1.882  -3.272  22.173  1.00  0.00     0.012 C 
ENDROOT
BRANCH   1  13
ATOM     13  C   UNL     1       5.827  -3.062  19.476  1.00  0.00    -0.077 C 
ATOM     14  C   UNL     1       6.106  -2.508  20.874  1.00  0.00     0.039 C 
ATOM     15  C   UNL     1       6.306  -2.364  18.429  1.00  0.00     0.008 C 
ENDBRANCH   1  13
TORSDOF 1
ENDMDL
MODEL 4
REMARK VINA RESULT:    -5.226      1.799      3.809
REMARK INTER + INTRA:          -5.748
REMARK INTER:                  -5.487
REMARK INTRA:                  -0.261
REMARK UNBOUND:                -0.216
REMARK SMILES C=C(C)[C@H]1CC[C@]2(C)CCCC(=C)[C@@H]2C1
REMARK SMILES IDX 4 1 5 2 6 3 7 4 9 5 10 6 11 7 12 8 13 9 14 10 15 11 8 12
REMARK SMILES IDX 2 13 3 14 1 15
REMARK H PARENT
REMARK Flexibility Score: inf
ROOT
ATOM      1  C   UNL     1       1.734  -2.583  15.813  1.00  0.00     0.015 C 
ATOM      2  C   UNL     1       3.183  -3.078  15.661  1.00  0.00     0.008 C 
ATOM      3  C   UNL     1       4.088  -2.673  16.815  1.00  0.00     0.008 C 
ATOM      4  C   UNL     1       3.628  -2.926  18.277  1.00  0.00    -0.026 C 
ATOM      5  C   UNL     1       3.939  -4.367  18.671  1.00  0.00     0.008 C 
ATOM      6  C   UNL     1       3.451  -4.659  20.134  1.00  0.00     0.005 C 
ATOM      7  C   UNL     1       2.427  -3.698  20.797  1.00  0.00     0.031 C 
ATOM      8  C   UNL     1       1.483  -3.103  19.803  1.00  0.00    -0.074 C 
ATOM      9  C   UNL     1       0.164  -3.054  20.143  1.00  0.00     0.008 C 
ATOM     10  C   UNL     1       2.041  -2.637  18.415  1.00  0.00     0.021 C 
ATOM     11  C   UNL     1       1.188  -3.115  17.158  1.00  0.00     0.016 C 
ATOM     12  C   UNL     1       4.645  -2.018  19.142  1.00  0.00     0.012 C 
ENDROOT
BRANCH   1  13
ATOM     13  C   UNL     1       1.472  -1.046  15.696  1.00  0.00    -0.077 C 
ATOM     14  C   UNL     1       2.536  -0.009  15.332  1.00  0.00     0.039 C 
ATOM     15  C   UNL     1       0.232  -0.592  15.960  1.00  0.00     0.008 C 
ENDBRANCH   1  13
TORSDOF 1
ENDMDL
MODEL 5
REMARK VINA RESULT:    -5.091      3.182      5.616
REMARK INTER + INTRA:          -5.605
REMARK INTER:                  -5.375
REMARK INTRA:                  -0.229
REMARK UNBOUND:                -0.216
REMARK SMILES C=C(C)[C@H]1CC[C@]2(C)CCCC(=C)[C@@H]2C1
REMARK SMILES IDX 4 1 5 2 6 3 7 4 9 5 10 6 11 7 12 8 13 9 14 10 15 11 8 12
REMARK SMILES IDX 2 13 3 14 1 15
REMARK H PARENT
REMARK Flexibility Score: inf
ROOT
ATOM      1  C   UNL     1       1.089  -4.512  21.423  1.00  0.00     0.015 C 
ATOM      2  C   UNL     1       2.437  -4.440  22.161  1.00  0.00     0.008 C 
ATOM      3  C   UNL     1       3.619  -4.886  21.314  1.00  0.00     0.008 C 
ATOM      4  C   UNL     1       3.804  -4.305  19.886  1.00  0.00    -0.026 C 
ATOM      5  C   UNL     1       4.504  -2.951  19.968  1.00  0.00     0.008 C 
ATOM      6  C   UNL     1       4.671  -2.325  18.539  1.00  0.00     0.005 C 
ATOM      7  C   UNL     1       3.815  -2.875  17.366  1.00  0.00     0.031 C 
ATOM      8  C   UNL     1       2.472  -3.349  17.819  1.00  0.00    -0.074 C 
ATOM      9  C   UNL     1       1.396  -3.001  17.057  1.00  0.00     0.008 C 
ATOM     10  C   UNL     1       2.364  -4.147  19.163  1.00  0.00     0.021 C 
ATOM     11  C   UNL     1       1.203  -3.660  20.138  1.00  0.00     0.016 C 
ATOM     12  C   UNL     1       4.884  -5.304  19.221  1.00  0.00     0.012 C 
ENDROOT
BRANCH   1  13
ATOM     13  C   UNL     1       0.520  -5.928  21.080  1.00  0.00    -0.077 C 
ATOM     14  C   UNL     1       0.848  -7.206  21.854  1.00  0.00     0.039 C 
ATOM     15  C   UNL     1      -0.295  -6.044  20.014  1.00  0.00     0.008 C 
ENDBRANCH   1  13
TORSDOF 1
ENDMDL
MODEL 6
REMARK VINA RESULT:    -5.087      3.191      5.276
REMARK INTER + INTRA:          -5.601
REMARK INTER:                  -5.336
REMARK INTRA:                  -0.266
REMARK UNBOUND:                -0.216
REMARK SMILES C=C(C)[C@H]1CC[C@]2(C)CCCC(=C)[C@@H]2C1
REMARK SMILES IDX 4 1 5 2 6 3 7 4 9 5 10 6 11 7 12 8 13 9 14 10 15 11 8 12
REMARK SMILES IDX 2 13 3 14 1 15
REMARK H PARENT
REMARK Flexibility Score: inf
ROOT
ATOM      1  C   UNL     1       0.559  -4.007  19.447  1.00  0.00     0.015 C 
ATOM      2  C   UNL     1       1.399  -4.523  18.266  1.00  0.00     0.008 C 
ATOM      3  C   UNL     1       2.752  -3.839  18.138  1.00  0.00     0.008 C 
ATOM      4  C   UNL     1       3.671  -3.712  19.383  1.00  0.00    -0.026 C 
ATOM      5  C   UNL     1       4.457  -5.007  19.575  1.00  0.00     0.008 C 
ATOM      6  C   UNL     1       5.369  -4.918  20.849  1.00  0.00     0.005 C 
ATOM      7  C   UNL     1       5.082  -3.821  21.910  1.00  0.00     0.031 C 
ATOM      8  C   UNL     1       3.627  -3.497  22.012  1.00  0.00    -0.074 C 
ATOM      9  C   UNL     1       3.101  -3.365  23.263  1.00  0.00     0.008 C 
ATOM     10  C   UNL     1       2.780  -3.399  20.698  1.00  0.00     0.021 C 
ATOM     11  C   UNL     1       1.393  -4.180  20.737  1.00  0.00     0.016 C 
ATOM     12  C   UNL     1       4.762  -2.614  18.924  1.00  0.00     0.012 C 
ENDROOT
BRANCH   1  13
ATOM     13  C   UNL     1      -0.002  -2.549  19.362  1.00  0.00    -0.077 C 
ATOM     14  C   UNL     1       0.110  -1.647  18.132  1.00  0.00     0.039 C 
ATOM     15  C   UNL     1      -0.604  -2.036  20.451  1.00  0.00     0.008 C 
ENDBRANCH   1  13
TORSDOF 1
ENDMDL
MODEL 7
REMARK VINA RESULT:    -5.061      3.319      5.851
REMARK INTER + INTRA:          -5.573
REMARK INTER:                  -5.303
REMARK INTRA:                  -0.270
REMARK UNBOUND:                -0.216
REMARK SMILES C=C(C)[C@H]1CC[C@]2(C)CCCC(=C)[C@@H]2C1
REMARK SMILES IDX 4 1 5 2 6 3 7 4 9 5 10 6 11 7 12 8 13 9 14 10 15 11 8 12
REMARK SMILES IDX 2 13 3 14 1 15
REMARK H PARENT
REMARK Flexibility Score: inf
ROOT
ATOM      1  C   UNL     1       3.562  -4.200  18.249  1.00  0.00     0.015 C 
ATOM      2  C   UNL     1       4.319  -5.153  19.191  1.00  0.00     0.008 C 
ATOM      3  C   UNL     1       4.371  -4.668  20.632  1.00  0.00     0.008 C 
ATOM      4  C   UNL     1       3.066  -4.207  21.336  1.00  0.00    -0.026 C 
ATOM      5  C   UNL     1       2.318  -5.422  21.879  1.00  0.00     0.008 C 
ATOM      6  C   UNL     1       0.975  -4.986  22.565  1.00  0.00     0.005 C 
ATOM      7  C   UNL     1       0.397  -3.576  22.269  1.00  0.00     0.031 C 
ATOM      8  C   UNL     1       0.707  -3.116  20.881  1.00  0.00    -0.074 C 
ATOM      9  C   UNL     1      -0.300  -2.526  20.177  1.00  0.00     0.008 C 
ATOM     10  C   UNL     1       2.132  -3.396  20.292  1.00  0.00     0.021 C 
ATOM     11  C   UNL     1       2.139  -3.999  18.818  1.00  0.00     0.016 C 
ATOM     12  C   UNL     1       3.609  -3.423  22.639  1.00  0.00     0.012 C 
ENDROOT
BRANCH   1  13
ATOM     13  C   UNL     1       4.216  -2.815  17.933  1.00  0.00    -0.077 C 
ATOM     14  C   UNL     1       5.661  -2.440  18.269  1.00  0.00     0.039 C 
ATOM     15  C   UNL     1       3.454  -1.872  17.347  1.00  0.00     0.008 C 
ENDBRANCH   1  13
TORSDOF 1
ENDMDL
MODEL 8
REMARK VINA RESULT:    -5.057     11.027     14.120
REMARK INTER + INTRA:          -5.569
REMARK INTER:                  -5.659
REMARK INTRA:                   0.090
REMARK UNBOUND:                -0.216
REMARK SMILES C=C(C)[C@H]1CC[C@]2(C)CCCC(=C)[C@@H]2C1
REMARK SMILES IDX 4 1 5 2 6 3 7 4 9 5 10 6 11 7 12 8 13 9 14 10 15 11 8 12
REMARK SMILES IDX 2 13 3 14 1 15
REMARK H PARENT
REMARK Flexibility Score: inf
ROOT
ATOM      1  C   UNL     1      13.110  -1.102  25.756  1.00  0.00     0.015 C 
ATOM      2  C   UNL     1      12.775  -1.427  27.221  1.00  0.00     0.008 C 
ATOM      3  C   UNL     1      12.115  -0.275  27.964  1.00  0.00     0.008 C 
ATOM      4  C   UNL     1      10.901   0.455  27.326  1.00  0.00    -0.026 C 
ATOM      5  C   UNL     1       9.622  -0.328  27.612  1.00  0.00     0.008 C 
ATOM      6  C   UNL     1       8.384   0.371  26.948  1.00  0.00     0.005 C 
ATOM      7  C   UNL     1       8.617   1.422  25.829  1.00  0.00     0.031 C 
ATOM      8  C   UNL     1       9.828   1.117  25.009  1.00  0.00    -0.074 C 
ATOM      9  C   UNL     1       9.717   1.246  23.656  1.00  0.00     0.008 C 
ATOM     10  C   UNL     1      11.121   0.604  25.730  1.00  0.00     0.021 C 
ATOM     11  C   UNL     1      11.804  -0.666  25.053  1.00  0.00     0.016 C 
ATOM     12  C   UNL     1      10.781   1.804  28.207  1.00  0.00     0.012 C 
ENDROOT
BRANCH   1  13
ATOM     13  C   UNL     1      14.243  -0.059  25.480  1.00  0.00    -0.077 C 
ATOM     14  C   UNL     1      14.118   1.445  25.730  1.00  0.00     0.039 C 
ATOM     15  C   UNL     1      15.404  -0.504  24.962  1.00  0.00     0.008 C 
ENDBRANCH   1  13
TORSDOF 1
ENDMDL
MODEL 9
REMARK VINA RESULT:    -5.029      2.083      5.300
REMARK INTER + INTRA:          -5.539
REMARK INTER:                  -5.281
REMARK INTRA:                  -0.258
REMARK UNBOUND:                -0.216
REMARK SMILES C=C(C)[C@H]1CC[C@]2(C)CCCC(=C)[C@@H]2C1
REMARK SMILES IDX 4 1 5 2 6 3 7 4 9 5 10 6 11 7 12 8 13 9 14 10 15 11 8 12
REMARK SMILES IDX 2 13 3 14 1 15
REMARK H PARENT
REMARK Flexibility Score: inf
ROOT
ATOM      1  C   UNL     1       5.527  -3.624  19.004  1.00  0.00     0.015 C 
ATOM      2  C   UNL     1       4.624  -4.744  19.551  1.00  0.00     0.008 C 
ATOM      3  C   UNL     1       3.231  -4.269  19.933  1.00  0.00     0.008 C 
ATOM      4  C   UNL     1       2.408  -3.413  18.932  1.00  0.00    -0.026 C 
ATOM      5  C   UNL     1       1.711  -4.327  17.927  1.00  0.00     0.008 C 
ATOM      6  C   UNL     1       0.900  -3.484  16.881  1.00  0.00     0.005 C 
ATOM      7  C   UNL     1       1.210  -1.971  16.724  1.00  0.00     0.031 C 
ATOM      8  C   UNL     1       2.649  -1.657  16.977  1.00  0.00    -0.074 C 
ATOM      9  C   UNL     1       3.265  -0.800  16.114  1.00  0.00     0.008 C 
ATOM     10  C   UNL     1       3.382  -2.375  18.162  1.00  0.00     0.021 C 
ATOM     11  C   UNL     1       4.809  -2.981  17.795  1.00  0.00     0.016 C 
ATOM     12  C   UNL     1       1.226  -2.809  19.851  1.00  0.00     0.012 C 
ENDROOT
BRANCH   1  13
ATOM     13  C   UNL     1       5.999  -2.515  20.001  1.00  0.00    -0.077 C 
ATOM     14  C   UNL     1       6.347  -1.080  19.601  1.00  0.00     0.039 C 
ATOM     15  C   UNL     1       6.137  -2.846  21.299  1.00  0.00     0.008 C 
ENDBRANCH   1  13
TORSDOF 1
ENDMDL
