MODEL 1
REMARK VINA RESULT:    -4.145      0.000      0.000
REMARK INTER + INTRA:          -4.464
REMARK INTER:                  -4.387
REMARK INTRA:                  -0.076
REMARK UNBOUND:                -0.076
REMARK SMILES CC(=O)c1cccc(C)c1
REMARK SMILES IDX 9 1 8 2 10 3 4 4 5 5 6 6 7 7 2 8 3 9 1 10
REMARK H PARENT
REMARK Flexibility Score: inf
ROOT
ATOM      1  C   UNL     1      31.329 170.281 154.236  1.00  0.00     0.044 C 
ATOM      2  C   UNL     1      32.249 169.560 155.177  1.00  0.00    -0.050 A 
ATOM      3  C   UNL     1      31.782 169.134 156.431  1.00  0.00     0.015 A 
ATOM      4  C   UNL     1      32.624 168.423 157.310  1.00  0.00     0.017 A 
ATOM      5  C   UNL     1      33.941 168.135 156.901  1.00  0.00     0.012 A 
ATOM      6  C   UNL     1      34.399 168.543 155.646  1.00  0.00     0.001 A 
ATOM      7  C   UNL     1      33.556 169.246 154.784  1.00  0.00     0.003 A 
ENDROOT
BRANCH   4   8
ATOM      8  C   UNL     1      32.115 167.988 158.639  1.00  0.00     0.159 C 
ATOM      9  O   UNL     1      32.599 166.963 159.191  1.00  0.00    -0.295 OA
ATOM     10  C   UNL     1      31.029 168.736 159.355  1.00  0.00     0.093 C 
ENDBRANCH   4   8
TORSDOF 1
ENDMDL
MODEL 2
REMARK VINA RESULT:    -4.021      2.123      3.905
REMARK INTER + INTRA:          -4.333
REMARK INTER:                  -4.265
REMARK INTRA:                  -0.068
REMARK UNBOUND:                -0.076
REMARK SMILES CC(=O)c1cccc(C)c1
REMARK SMILES IDX 9 1 8 2 10 3 4 4 5 5 6 6 7 7 2 8 3 9 1 10
REMARK H PARENT
REMARK Flexibility Score: inf
ROOT
ATOM      1  C   UNL     1      32.370 167.860 158.559  1.00  0.00     0.044 C 
ATOM      2  C   UNL     1      32.660 168.334 157.165  1.00  0.00    -0.050 A 
ATOM      3  C   UNL     1      31.639 168.901 156.386  1.00  0.00     0.015 A 
ATOM      4  C   UNL     1      31.905 169.383 155.088  1.00  0.00     0.017 A 
ATOM      5  C   UNL     1      33.221 169.297 154.592  1.00  0.00     0.012 A 
ATOM      6  C   UNL     1      34.240 168.749 155.374  1.00  0.00     0.001 A 
ATOM      7  C   UNL     1      33.964 168.275 156.657  1.00  0.00     0.003 A 
ENDROOT
BRANCH   4   8
ATOM      8  C   UNL     1      30.808 169.973 154.274  1.00  0.00     0.159 C 
ATOM      9  O   UNL     1      29.846 169.248 153.900  1.00  0.00    -0.295 OA
ATOM     10  C   UNL     1      30.806 171.419 153.875  1.00  0.00     0.093 C 
ENDBRANCH   4   8
TORSDOF 1
ENDMDL
MODEL 3
REMARK VINA RESULT:    -3.720     21.531     22.607
REMARK INTER + INTRA:          -4.014
REMARK INTER:                  -3.944
REMARK INTRA:                  -0.069
REMARK UNBOUND:                -0.076
REMARK SMILES CC(=O)c1cccc(C)c1
REMARK SMILES IDX 9 1 8 2 10 3 4 4 5 5 6 6 7 7 2 8 3 9 1 10
REMARK H PARENT
REMARK Flexibility Score: inf
ROOT
ATOM      1  C   UNL     1      37.773 183.743 170.684  1.00  0.00     0.044 C 
ATOM      2  C   UNL     1      39.018 183.755 171.521  1.00  0.00    -0.050 A 
ATOM      3  C   UNL     1      39.865 182.636 171.542  1.00  0.00     0.015 A 
ATOM      4  C   UNL     1      41.057 182.647 172.295  1.00  0.00     0.017 A 
ATOM      5  C   UNL     1      41.389 183.810 173.018  1.00  0.00     0.012 A 
ATOM      6  C   UNL     1      40.555 184.930 172.982  1.00  0.00     0.001 A 
ATOM      7  C   UNL     1      39.378 184.906 172.233  1.00  0.00     0.003 A 
ENDROOT
BRANCH   4   8
ATOM      8  C   UNL     1      41.937 181.447 172.313  1.00  0.00     0.159 C 
ATOM      9  O   UNL     1      41.479 180.339 172.703  1.00  0.00    -0.295 OA
ATOM     10  C   UNL     1      43.372 181.511 171.878  1.00  0.00     0.093 C 
ENDBRANCH   4   8
TORSDOF 1
ENDMDL
MODEL 4
REMARK VINA RESULT:    -3.628      2.363      3.370
REMARK INTER + INTRA:          -3.916
REMARK INTER:                  -3.838
REMARK INTRA:                  -0.078
REMARK UNBOUND:                -0.076
REMARK SMILES CC(=O)c1cccc(C)c1
REMARK SMILES IDX 9 1 8 2 10 3 4 4 5 5 6 6 7 7 2 8 3 9 1 10
REMARK H PARENT
REMARK Flexibility Score: inf
ROOT
ATOM      1  C   UNL     1      34.249 168.170 156.831  1.00  0.00     0.044 C 
ATOM      2  C   UNL     1      33.126 168.654 155.960  1.00  0.00    -0.050 A 
ATOM      3  C   UNL     1      31.814 168.694 156.458  1.00  0.00     0.015 A 
ATOM      4  C   UNL     1      30.756 169.180 155.664  1.00  0.00     0.017 A 
ATOM      5  C   UNL     1      31.042 169.638 154.363  1.00  0.00     0.012 A 
ATOM      6  C   UNL     1      32.350 169.616 153.875  1.00  0.00     0.001 A 
ATOM      7  C   UNL     1      33.390 169.132 154.670  1.00  0.00     0.003 A 
ENDROOT
BRANCH   4   8
ATOM      8  C   UNL     1      29.370 169.206 156.206  1.00  0.00     0.159 C 
ATOM      9  O   UNL     1      28.390 169.289 155.417  1.00  0.00    -0.295 OA
ATOM     10  C   UNL     1      29.094 169.137 157.679  1.00  0.00     0.093 C 
ENDBRANCH   4   8
TORSDOF 1
ENDMDL
MODEL 5
REMARK VINA RESULT:    -3.594     21.299     22.480
REMARK INTER + INTRA:          -3.880
REMARK INTER:                  -3.813
REMARK INTRA:                  -0.067
REMARK UNBOUND:                -0.076
REMARK SMILES CC(=O)c1cccc(C)c1
REMARK SMILES IDX 9 1 8 2 10 3 4 4 5 5 6 6 7 7 2 8 3 9 1 10
REMARK H PARENT
REMARK Flexibility Score: inf
ROOT
ATOM      1  C   UNL     1      42.108 181.698 172.252  1.00  0.00     0.044 C 
ATOM      2  C   UNL     1      41.128 182.833 172.213  1.00  0.00    -0.050 A 
ATOM      3  C   UNL     1      39.881 182.668 171.590  1.00  0.00     0.015 A 
ATOM      4  C   UNL     1      38.936 183.714 171.578  1.00  0.00     0.017 A 
ATOM      5  C   UNL     1      39.262 184.927 172.215  1.00  0.00     0.012 A 
ATOM      6  C   UNL     1      40.495 185.085 172.852  1.00  0.00     0.001 A 
ATOM      7  C   UNL     1      41.422 184.042 172.857  1.00  0.00     0.003 A 
ENDROOT
BRANCH   4   8
ATOM      8  C   UNL     1      37.622 183.522 170.903  1.00  0.00     0.159 C 
ATOM      9  O   UNL     1      36.773 182.733 171.399  1.00  0.00    -0.295 OA
ATOM     10  C   UNL     1      37.270 184.245 169.637  1.00  0.00     0.093 C 
ENDBRANCH   4   8
TORSDOF 1
ENDMDL
MODEL 6
REMARK VINA RESULT:    -3.540      1.644      2.489
REMARK INTER + INTRA:          -3.823
REMARK INTER:                  -3.744
REMARK INTRA:                  -0.079
REMARK UNBOUND:                -0.076
REMARK SMILES CC(=O)c1cccc(C)c1
REMARK SMILES IDX 9 1 8 2 10 3 4 4 5 5 6 6 7 7 2 8 3 9 1 10
REMARK H PARENT
REMARK Flexibility Score: inf
ROOT
ATOM      1  C   UNL     1      28.863 169.529 155.484  1.00  0.00     0.044 C 
ATOM      2  C   UNL     1      30.345 169.478 155.258  1.00  0.00    -0.050 A 
ATOM      3  C   UNL     1      31.175 168.809 156.173  1.00  0.00     0.015 A 
ATOM      4  C   UNL     1      32.565 168.722 155.955  1.00  0.00     0.017 A 
ATOM      5  C   UNL     1      33.106 169.308 154.794  1.00  0.00     0.012 A 
ATOM      6  C   UNL     1      32.277 169.957 153.875  1.00  0.00     0.001 A 
ATOM      7  C   UNL     1      30.903 170.037 154.102  1.00  0.00     0.003 A 
ENDROOT
BRANCH   4   8
ATOM      8  C   UNL     1      33.430 168.017 156.941  1.00  0.00     0.159 C 
ATOM      9  O   UNL     1      34.683 168.145 156.879  1.00  0.00    -0.295 OA
ATOM     10  C   UNL     1      32.856 167.147 158.019  1.00  0.00     0.093 C 
ENDBRANCH   4   8
TORSDOF 1
ENDMDL
MODEL 7
REMARK VINA RESULT:    -3.538     15.632     16.884
REMARK INTER + INTRA:          -3.821
REMARK INTER:                  -3.745
REMARK INTRA:                  -0.076
REMARK UNBOUND:                -0.076
REMARK SMILES CC(=O)c1cccc(C)c1
REMARK SMILES IDX 9 1 8 2 10 3 4 4 5 5 6 6 7 7 2 8 3 9 1 10
REMARK H PARENT
REMARK Flexibility Score: inf
ROOT
ATOM      1  C   UNL     1      25.174 184.097 166.158  1.00  0.00     0.044 C 
ATOM      2  C   UNL     1      25.353 182.679 165.699  1.00  0.00    -0.050 A 
ATOM      3  C   UNL     1      25.939 181.730 166.551  1.00  0.00     0.015 A 
ATOM      4  C   UNL     1      26.079 180.387 166.147  1.00  0.00     0.017 A 
ATOM      5  C   UNL     1      25.608 180.011 164.874  1.00  0.00     0.012 A 
ATOM      6  C   UNL     1      25.008 180.952 164.033  1.00  0.00     0.001 A 
ATOM      7  C   UNL     1      24.875 182.279 164.444  1.00  0.00     0.003 A 
ENDROOT
BRANCH   4   8
ATOM      8  C   UNL     1      26.712 179.397 167.061  1.00  0.00     0.159 C 
ATOM      9  O   UNL     1      26.375 178.183 167.000  1.00  0.00    -0.295 OA
ATOM     10  C   UNL     1      27.749 179.798 168.067  1.00  0.00     0.093 C 
ENDBRANCH   4   8
TORSDOF 1
ENDMDL
MODEL 8
REMARK VINA RESULT:    -3.513     15.538     16.466
REMARK INTER + INTRA:          -3.795
REMARK INTER:                  -3.720
REMARK INTRA:                  -0.075
REMARK UNBOUND:                -0.076
REMARK SMILES CC(=O)c1cccc(C)c1
REMARK SMILES IDX 9 1 8 2 10 3 4 4 5 5 6 6 7 7 2 8 3 9 1 10
REMARK H PARENT
REMARK Flexibility Score: inf
ROOT
ATOM      1  C   UNL     1      25.456 176.735 167.232  1.00  0.00     0.044 C 
ATOM      2  C   UNL     1      26.198 178.038 167.222  1.00  0.00    -0.050 A 
ATOM      3  C   UNL     1      25.794 179.074 166.364  1.00  0.00     0.015 A 
ATOM      4  C   UNL     1      26.459 180.317 166.370  1.00  0.00     0.017 A 
ATOM      5  C   UNL     1      27.531 180.505 167.264  1.00  0.00     0.012 A 
ATOM      6  C   UNL     1      27.922 179.481 168.130  1.00  0.00     0.001 A 
ATOM      7  C   UNL     1      27.256 178.255 168.114  1.00  0.00     0.003 A 
ENDROOT
BRANCH   4   8
ATOM      8  C   UNL     1      26.021 181.400 165.447  1.00  0.00     0.159 C 
ATOM      9  O   UNL     1      26.120 182.605 165.804  1.00  0.00    -0.295 OA
ATOM     10  C   UNL     1      25.457 181.103 164.089  1.00  0.00     0.093 C 
ENDBRANCH   4   8
TORSDOF 1
ENDMDL
MODEL 9
REMARK VINA RESULT:    -3.428      2.025      4.219
REMARK INTER + INTRA:          -3.705
REMARK INTER:                  -3.637
REMARK INTRA:                  -0.068
REMARK UNBOUND:                -0.076
REMARK SMILES CC(=O)c1cccc(C)c1
REMARK SMILES IDX 9 1 8 2 10 3 4 4 5 5 6 6 7 7 2 8 3 9 1 10
REMARK H PARENT
REMARK Flexibility Score: inf
ROOT
ATOM      1  C   UNL     1      29.588 170.250 159.906  1.00  0.00     0.044 C 
ATOM      2  C   UNL     1      30.591 169.171 159.621  1.00  0.00    -0.050 A 
ATOM      3  C   UNL     1      31.224 169.109 158.370  1.00  0.00     0.015 A 
ATOM      4  C   UNL     1      32.195 168.123 158.100  1.00  0.00     0.017 A 
ATOM      5  C   UNL     1      32.527 167.206 159.117  1.00  0.00     0.012 A 
ATOM      6  C   UNL     1      31.910 167.280 160.368  1.00  0.00     0.001 A 
ATOM      7  C   UNL     1      30.951 168.260 160.623  1.00  0.00     0.003 A 
ENDROOT
BRANCH   4   8
ATOM      8  C   UNL     1      32.849 168.068 156.765  1.00  0.00     0.159 C 
ATOM      9  O   UNL     1      32.164 167.796 155.742  1.00  0.00    -0.295 OA
ATOM     10  C   UNL     1      34.316 168.328 156.590  1.00  0.00     0.093 C 
ENDBRANCH   4   8
TORSDOF 1
ENDMDL
