MODEL 1
REMARK VINA RESULT:   101.262      0.000      0.000
REMARK INTER + INTRA:         111.362
REMARK INTER:                 110.142
REMARK INTRA:                   1.220
REMARK UNBOUND:                 1.220
REMARK SMILES CC1(C)CC[C@@]2(C(=O)[O-])CC[C@@]3(C)C(=CC[C@H]4[C@@]5(C)CC[C@@H](O)C(C)(C)[C@H]5CC[C@]43C)[C@@H]2C1
REMARK SMILES IDX 6 1 5 2 10 3 32 4 4 5 11 6 14 7 33 8 2 9 12 10 15 11 1 12
REMARK SMILES IDX 3 13 13 14 30 15 16 16 17 17 29 18 31 19 18 20 28 21 27 22
REMARK SMILES IDX 20 23 19 24 24 25 21 26 22 27 25 28 26 29 7 30 8 31 9 32
REMARK SMILES IDX 23 33
REMARK H PARENT 23 34
REMARK Flexibility Score: inf
ROOT
ATOM      1  C   UNL     1     122.631  69.347   0.509  1.00  0.00     0.017 C 
ATOM      2  C   UNL     1     122.651  69.959   1.934  1.00  0.00     0.014 C 
ATOM      3  C   UNL     1     122.736  67.813   0.647  1.00  0.00     0.014 C 
ATOM      4  C   UNL     1     121.270  69.672  -0.175  1.00  0.00     0.028 C 
ATOM      5  C   UNL     1     122.421  71.476   1.917  1.00  0.00     0.007 C 
ATOM      6  C   UNL     1     122.691  67.101  -0.712  1.00  0.00     0.013 C 
ATOM      7  C   UNL     1     121.154  68.955  -1.544  1.00  0.00    -0.064 C 
ATOM      8  C   UNL     1     120.982  71.206  -0.174  1.00  0.00     0.015 C 
ATOM      9  C   UNL     1     121.092  71.872   1.228  1.00  0.00    -0.035 C 
ATOM     10  C   UNL     1     121.439  67.440  -1.611  1.00  0.00    -0.006 C 
ATOM     11  C   UNL     1     120.559  69.572  -2.584  1.00  0.00    -0.027 C 
ATOM     12  C   UNL     1     121.074  73.406   1.047  1.00  0.00     0.011 C 
ATOM     13  C   UNL     1     119.882  71.488   2.116  1.00  0.00     0.011 C 
ATOM     14  C   UNL     1     120.199  66.741  -0.970  1.00  0.00     0.017 C 
ATOM     15  C   UNL     1     121.672  66.924  -3.132  1.00  0.00    -0.020 C 
ATOM     16  C   UNL     1     120.412  68.998  -3.952  1.00  0.00     0.032 C 
ATOM     17  C   UNL     1     120.537  67.453  -4.086  1.00  0.00     0.006 C 
ATOM     18  C   UNL     1     123.039  67.434  -3.708  1.00  0.00     0.008 C 
ATOM     19  C   UNL     1     121.678  65.357  -3.114  1.00  0.00     0.012 C 
ATOM     20  C   UNL     1     120.651  66.949  -5.624  1.00  0.00    -0.025 C 
ATOM     21  C   UNL     1     123.120  67.657  -5.243  1.00  0.00     0.005 C 
ATOM     22  C   UNL     1     122.175  66.754  -6.077  1.00  0.00     0.003 C 
ATOM     23  C   UNL     1     119.898  67.949  -6.580  1.00  0.00     0.010 C 
ATOM     24  C   UNL     1     119.888  65.584  -5.734  1.00  0.00     0.012 C 
ATOM     25  C   UNL     1     122.463  66.767  -7.652  1.00  0.00    -0.006 C 
ATOM     26  C   UNL     1     120.139  67.734  -8.074  1.00  0.00     0.033 C 
ATOM     27  C   UNL     1     121.630  67.847  -8.397  1.00  0.00     0.120 C 
ATOM     28  C   UNL     1     123.964  67.015  -7.980  1.00  0.00     0.014 C 
ATOM     29  C   UNL     1     122.159  65.367  -8.263  1.00  0.00     0.014 C 
ENDROOT
BRANCH   1  30
ATOM     30  C   UNL     1     123.838  69.864  -0.275  1.00  0.00     0.048 C 
ATOM     31  O   UNL     1     124.279  69.207  -1.257  1.00  0.00    -0.550 OA
ATOM     32  O   UNL     1     124.447  71.073   0.041  1.00  0.00    -0.550 OA
ENDBRANCH   1  30
BRANCH  27  33
ATOM     33  O   UNL     1     122.092  69.135  -8.068  1.00  0.00    -0.393 OA
ATOM     34  H   UNL     1     121.451  69.783  -8.463  1.00  0.00     0.210 HD
ENDBRANCH  27  33
TORSDOF 2
ENDMDL
