MODEL 1
REMARK VINA RESULT:    -5.259      0.000      0.000
REMARK INTER + INTRA:         -11.095
REMARK INTER:                  -9.562
REMARK INTRA:                  -1.532
REMARK UNBOUND:                -1.532
REMARK SMILES CCCCCCCCCCCCCC[C@H](C)C(=O)[O-]
REMARK SMILES IDX 9 1 10 2 11 3 12 4 13 5 14 6 15 7 16 8 17 9 18 10 19 11 8 12
REMARK SMILES IDX 7 13 6 14 5 15 4 16 3 17 2 18 1 19
REMARK H PARENT
REMARK Flexibility Score: inf
ROOT
ATOM      1  C   UNL     1      10.844  54.014  23.584  1.00  0.00     0.000 C 
ENDROOT
BRANCH   1   2
ATOM      2  C   UNL     1       9.567  54.852  23.801  1.00  0.00     0.000 C 
BRANCH   2   3
ATOM      3  C   UNL     1       8.314  54.046  24.187  1.00  0.00     0.000 C 
BRANCH   3   4
ATOM      4  C   UNL     1       7.259  54.007  23.067  1.00  0.00     0.000 C 
BRANCH   4   5
ATOM      5  C   UNL     1       7.531  55.043  21.964  1.00  0.00     0.001 C 
BRANCH   5   6
ATOM      6  C   UNL     1       7.718  54.397  20.577  1.00  0.00     0.009 C 
BRANCH   6   7
ATOM      7  C   UNL     1       8.002  55.406  19.442  1.00  0.00     0.032 C 
ATOM      8  C   UNL     1       7.513  56.822  19.775  1.00  0.00     0.014 C 
BRANCH   7   9
ATOM      9  C   UNL     1       7.458  54.925  18.121  1.00  0.00     0.044 C 
ATOM     10  O   UNL     1       7.177  53.708  17.965  1.00  0.00    -0.550 OA
ATOM     11  O   UNL     1       7.212  55.819  17.084  1.00  0.00    -0.550 OA
ENDBRANCH   7   9
ENDBRANCH   6   7
ENDBRANCH   5   6
ENDBRANCH   4   5
ENDBRANCH   3   4
ENDBRANCH   2   3
ENDBRANCH   1   2
BRANCH   1  12
ATOM     12  C   UNL     1      11.048  53.490  22.151  1.00  0.00     0.000 C 
BRANCH  12  13
ATOM     13  C   UNL     1      10.414  52.112  21.862  1.00  0.00    -0.000 C 
BRANCH  13  14
ATOM     14  C   UNL     1      10.395  51.143  23.059  1.00  0.00    -0.000 C 
BRANCH  14  15
ATOM     15  C   UNL     1      11.279  49.893  22.893  1.00  0.00    -0.000 C 
BRANCH  15  16
ATOM     16  C   UNL     1      10.504  48.564  23.025  1.00  0.00    -0.000 C 
BRANCH  16  17
ATOM     17  C   UNL     1      10.700  47.905  24.401  1.00  0.00    -0.000 C 
BRANCH  17  18
ATOM     18  C   UNL     1      12.172  47.884  24.841  1.00  0.00    -0.003 C 
ATOM     19  C   UNL     1      12.363  48.320  26.294  1.00  0.00     0.004 C 
ENDBRANCH  17  18
ENDBRANCH  16  17
ENDBRANCH  15  16
ENDBRANCH  14  15
ENDBRANCH  13  14
ENDBRANCH  12  13
ENDBRANCH   1  12
TORSDOF 14
ENDMDL
MODEL 2
REMARK VINA RESULT:    -4.973      5.004     10.511
REMARK INTER + INTRA:         -10.576
REMARK INTER:                  -9.658
REMARK INTRA:                  -0.918
REMARK UNBOUND:                -1.532
REMARK SMILES CCCCCCCCCCCCCC[C@H](C)C(=O)[O-]
REMARK SMILES IDX 9 1 10 2 11 3 12 4 13 5 14 6 15 7 16 8 17 9 18 10 19 11 8 12
REMARK SMILES IDX 7 13 6 14 5 15 4 16 3 17 2 18 1 19
REMARK H PARENT
REMARK Flexibility Score: inf
ROOT
ATOM      1  C   UNL     1       4.591  58.119  20.706  1.00  0.00     0.000 C 
ENDROOT
BRANCH   1   2
ATOM      2  C   UNL     1       5.342  56.894  21.264  1.00  0.00     0.000 C 
BRANCH   2   3
ATOM      3  C   UNL     1       6.862  56.892  21.020  1.00  0.00     0.000 C 
BRANCH   3   4
ATOM      4  C   UNL     1       7.266  56.092  19.769  1.00  0.00     0.000 C 
BRANCH   4   5
ATOM      5  C   UNL     1       7.710  54.658  20.103  1.00  0.00     0.001 C 
BRANCH   5   6
ATOM      6  C   UNL     1       8.920  54.619  21.057  1.00  0.00     0.009 C 
BRANCH   6   7
ATOM      7  C   UNL     1       8.801  53.572  22.187  1.00  0.00     0.032 C 
ATOM      8  C   UNL     1       7.883  54.036  23.327  1.00  0.00     0.014 C 
BRANCH   7   9
ATOM      9  C   UNL     1      10.154  53.151  22.699  1.00  0.00     0.044 C 
ATOM     10  O   UNL     1      10.810  53.922  23.447  1.00  0.00    -0.550 OA
ATOM     11  O   UNL     1      10.670  51.894  22.398  1.00  0.00    -0.550 OA
ENDBRANCH   7   9
ENDBRANCH   6   7
ENDBRANCH   5   6
ENDBRANCH   4   5
ENDBRANCH   3   4
ENDBRANCH   2   3
ENDBRANCH   1   2
BRANCH   1  12
ATOM     12  C   UNL     1       3.442  58.641  21.590  1.00  0.00     0.000 C 
BRANCH  12  13
ATOM     13  C   UNL     1       3.156  60.153  21.465  1.00  0.00    -0.000 C 
BRANCH  13  14
ATOM     14  C   UNL     1       1.829  60.507  20.768  1.00  0.00    -0.000 C 
BRANCH  14  15
ATOM     15  C   UNL     1       1.974  61.014  19.321  1.00  0.00    -0.000 C 
BRANCH  15  16
ATOM     16  C   UNL     1       1.953  59.887  18.264  1.00  0.00    -0.000 C 
BRANCH  16  17
ATOM     17  C   UNL     1       2.646  60.299  16.955  1.00  0.00    -0.000 C 
BRANCH  17  18
ATOM     18  C   UNL     1       1.737  60.132  15.728  1.00  0.00    -0.003 C 
ATOM     19  C   UNL     1       0.405  59.461  16.063  1.00  0.00     0.004 C 
ENDBRANCH  17  18
ENDBRANCH  16  17
ENDBRANCH  15  16
ENDBRANCH  14  15
ENDBRANCH  13  14
ENDBRANCH  12  13
ENDBRANCH   1  12
TORSDOF 14
ENDMDL
MODEL 3
REMARK VINA RESULT:    -4.944      5.682     10.116
REMARK INTER + INTRA:         -10.522
REMARK INTER:                  -9.606
REMARK INTRA:                  -0.916
REMARK UNBOUND:                -1.532
REMARK SMILES CCCCCCCCCCCCCC[C@H](C)C(=O)[O-]
REMARK SMILES IDX 9 1 10 2 11 3 12 4 13 5 14 6 15 7 16 8 17 9 18 10 19 11 8 12
REMARK SMILES IDX 7 13 6 14 5 15 4 16 3 17 2 18 1 19
REMARK H PARENT
REMARK Flexibility Score: inf
ROOT
ATOM      1  C   UNL     1       4.657  57.724  21.609  1.00  0.00     0.000 C 
ENDROOT
BRANCH   1   2
ATOM      2  C   UNL     1       5.490  56.542  21.075  1.00  0.00     0.000 C 
BRANCH   2   3
ATOM      3  C   UNL     1       7.012  56.678  21.261  1.00  0.00     0.000 C 
BRANCH   3   4
ATOM      4  C   UNL     1       7.814  56.000  20.136  1.00  0.00     0.000 C 
BRANCH   4   5
ATOM      5  C   UNL     1       8.085  54.513  20.416  1.00  0.00     0.001 C 
BRANCH   5   6
ATOM      6  C   UNL     1       8.342  54.229  21.910  1.00  0.00     0.009 C 
BRANCH   6   7
ATOM      7  C   UNL     1       9.802  54.467  22.357  1.00  0.00     0.032 C 
ATOM      8  C   UNL     1      10.789  53.502  21.686  1.00  0.00     0.014 C 
BRANCH   7   9
ATOM      9  C   UNL     1       9.935  54.446  23.858  1.00  0.00     0.044 C 
ATOM     10  O   UNL     1      11.073  54.536  24.388  1.00  0.00    -0.550 OA
ATOM     11  O   UNL     1       8.809  54.379  24.672  1.00  0.00    -0.550 OA
ENDBRANCH   7   9
ENDBRANCH   6   7
ENDBRANCH   5   6
ENDBRANCH   4   5
ENDBRANCH   3   4
ENDBRANCH   2   3
ENDBRANCH   1   2
BRANCH   1  12
ATOM     12  C   UNL     1       3.940  58.560  20.532  1.00  0.00     0.000 C 
BRANCH  12  13
ATOM     13  C   UNL     1       3.414  59.930  21.010  1.00  0.00    -0.000 C 
BRANCH  13  14
ATOM     14  C   UNL     1       2.293  59.863  22.064  1.00  0.00    -0.000 C 
BRANCH  14  15
ATOM     15  C   UNL     1       1.049  59.062  21.635  1.00  0.00    -0.000 C 
BRANCH  15  16
ATOM     16  C   UNL     1       0.184  58.579  22.820  1.00  0.00    -0.000 C 
BRANCH  16  17
ATOM     17  C   UNL     1       0.517  59.317  24.127  1.00  0.00    -0.000 C 
BRANCH  17  18
ATOM     18  C   UNL     1      -0.646  60.186  24.628  1.00  0.00    -0.003 C 
ATOM     19  C   UNL     1      -0.649  61.586  24.012  1.00  0.00     0.004 C 
ENDBRANCH  17  18
ENDBRANCH  16  17
ENDBRANCH  15  16
ENDBRANCH  14  15
ENDBRANCH  13  14
ENDBRANCH  12  13
ENDBRANCH   1  12
TORSDOF 14
ENDMDL
MODEL 4
REMARK VINA RESULT:    -4.928      5.744      7.541
REMARK INTER + INTRA:         -10.494
REMARK INTER:                  -9.529
REMARK INTRA:                  -0.966
REMARK UNBOUND:                -1.532
REMARK SMILES CCCCCCCCCCCCCC[C@H](C)C(=O)[O-]
REMARK SMILES IDX 9 1 10 2 11 3 12 4 13 5 14 6 15 7 16 8 17 9 18 10 19 11 8 12
REMARK SMILES IDX 7 13 6 14 5 15 4 16 3 17 2 18 1 19
REMARK H PARENT
REMARK Flexibility Score: inf
ROOT
ATOM      1  C   UNL     1       6.071  56.351  21.247  1.00  0.00     0.000 C 
ENDROOT
BRANCH   1   2
ATOM      2  C   UNL     1       4.979  57.368  21.637  1.00  0.00     0.000 C 
BRANCH   2   3
ATOM      3  C   UNL     1       4.380  58.167  20.465  1.00  0.00     0.000 C 
BRANCH   3   4
ATOM      4  C   UNL     1       3.504  59.343  20.929  1.00  0.00     0.000 C 
BRANCH   4   5
ATOM      5  C   UNL     1       2.201  58.880  21.600  1.00  0.00     0.001 C 
BRANCH   5   6
ATOM      6  C   UNL     1       1.809  59.759  22.804  1.00  0.00     0.009 C 
BRANCH   6   7
ATOM      7  C   UNL     1       0.285  59.912  23.007  1.00  0.00     0.032 C 
ATOM      8  C   UNL     1      -0.103  61.296  23.545  1.00  0.00     0.014 C 
BRANCH   7   9
ATOM      9  C   UNL     1      -0.277  58.805  23.862  1.00  0.00     0.044 C 
ATOM     10  O   UNL     1      -1.283  58.158  23.468  1.00  0.00    -0.550 OA
ATOM     11  O   UNL     1       0.332  58.452  25.061  1.00  0.00    -0.550 OA
ENDBRANCH   7   9
ENDBRANCH   6   7
ENDBRANCH   5   6
ENDBRANCH   4   5
ENDBRANCH   3   4
ENDBRANCH   2   3
ENDBRANCH   1   2
BRANCH   1  12
ATOM     12  C   UNL     1       7.054  56.829  20.162  1.00  0.00     0.000 C 
BRANCH  12  13
ATOM     13  C   UNL     1       8.352  56.004  20.047  1.00  0.00    -0.000 C 
BRANCH  13  14
ATOM     14  C   UNL     1       8.210  54.515  20.415  1.00  0.00    -0.000 C 
BRANCH  14  15
ATOM     15  C   UNL     1       9.437  53.902  21.115  1.00  0.00    -0.000 C 
BRANCH  15  16
ATOM     16  C   UNL     1       9.120  53.291  22.498  1.00  0.00    -0.000 C 
BRANCH  16  17
ATOM     17  C   UNL     1       8.717  54.356  23.531  1.00  0.00    -0.000 C 
BRANCH  17  18
ATOM     18  C   UNL     1       9.860  55.333  23.849  1.00  0.00    -0.003 C 
ATOM     19  C   UNL     1      11.030  54.662  24.569  1.00  0.00     0.004 C 
ENDBRANCH  17  18
ENDBRANCH  16  17
ENDBRANCH  15  16
ENDBRANCH  14  15
ENDBRANCH  13  14
ENDBRANCH  12  13
ENDBRANCH   1  12
TORSDOF 14
ENDMDL
MODEL 5
REMARK VINA RESULT:    -4.895      5.501     10.351
REMARK INTER + INTRA:         -10.433
REMARK INTER:                  -9.387
REMARK INTRA:                  -1.046
REMARK UNBOUND:                -1.532
REMARK SMILES CCCCCCCCCCCCCC[C@H](C)C(=O)[O-]
REMARK SMILES IDX 9 1 10 2 11 3 12 4 13 5 14 6 15 7 16 8 17 9 18 10 19 11 8 12
REMARK SMILES IDX 7 13 6 14 5 15 4 16 3 17 2 18 1 19
REMARK H PARENT
REMARK Flexibility Score: inf
ROOT
ATOM      1  C   UNL     1       4.768  57.386  21.617  1.00  0.00     0.000 C 
ENDROOT
BRANCH   1   2
ATOM      2  C   UNL     1       5.966  56.507  21.205  1.00  0.00     0.000 C 
BRANCH   2   3
ATOM      3  C   UNL     1       6.829  57.070  20.062  1.00  0.00     0.000 C 
BRANCH   3   4
ATOM      4  C   UNL     1       8.088  56.227  19.792  1.00  0.00     0.000 C 
BRANCH   4   5
ATOM      5  C   UNL     1       7.919  54.760  20.222  1.00  0.00     0.001 C 
BRANCH   5   6
ATOM      6  C   UNL     1       9.192  54.182  20.871  1.00  0.00     0.009 C 
BRANCH   6   7
ATOM      7  C   UNL     1       8.932  53.364  22.155  1.00  0.00     0.032 C 
ATOM      8  C   UNL     1       8.030  54.103  23.153  1.00  0.00     0.014 C 
BRANCH   7   9
ATOM      9  C   UNL     1      10.219  52.911  22.797  1.00  0.00     0.044 C 
ATOM     10  O   UNL     1      10.721  51.801  22.479  1.00  0.00    -0.550 OA
ATOM     11  O   UNL     1      10.890  53.728  23.701  1.00  0.00    -0.550 OA
ENDBRANCH   7   9
ENDBRANCH   6   7
ENDBRANCH   5   6
ENDBRANCH   4   5
ENDBRANCH   3   4
ENDBRANCH   2   3
ENDBRANCH   1   2
BRANCH   1  12
ATOM     12  C   UNL     1       4.265  58.357  20.532  1.00  0.00     0.000 C 
BRANCH  12  13
ATOM     13  C   UNL     1       2.931  59.062  20.853  1.00  0.00    -0.000 C 
BRANCH  13  14
ATOM     14  C   UNL     1       2.780  59.531  22.313  1.00  0.00    -0.000 C 
BRANCH  14  15
ATOM     15  C   UNL     1       1.352  59.429  22.880  1.00  0.00    -0.000 C 
BRANCH  15  16
ATOM     16  C   UNL     1       0.715  60.797  23.208  1.00  0.00    -0.000 C 
BRANCH  16  17
ATOM     17  C   UNL     1      -0.669  60.969  22.561  1.00  0.00    -0.000 C 
BRANCH  17  18
ATOM     18  C   UNL     1      -0.849  60.098  21.309  1.00  0.00    -0.003 C 
ATOM     19  C   UNL     1      -0.817  60.908  20.013  1.00  0.00     0.004 C 
ENDBRANCH  17  18
ENDBRANCH  16  17
ENDBRANCH  15  16
ENDBRANCH  14  15
ENDBRANCH  13  14
ENDBRANCH  12  13
ENDBRANCH   1  12
TORSDOF 14
ENDMDL
MODEL 6
REMARK VINA RESULT:    -4.889      5.358      7.734
REMARK INTER + INTRA:         -10.423
REMARK INTER:                  -9.768
REMARK INTRA:                  -0.655
REMARK UNBOUND:                -1.532
REMARK SMILES CCCCCCCCCCCCCC[C@H](C)C(=O)[O-]
REMARK SMILES IDX 9 1 10 2 11 3 12 4 13 5 14 6 15 7 16 8 17 9 18 10 19 11 8 12
REMARK SMILES IDX 7 13 6 14 5 15 4 16 3 17 2 18 1 19
REMARK H PARENT
REMARK Flexibility Score: inf
ROOT
ATOM      1  C   UNL     1       4.171  58.145  20.916  1.00  0.00     0.000 C 
ENDROOT
BRANCH   1   2
ATOM      2  C   UNL     1       3.501  59.066  21.956  1.00  0.00     0.000 C 
BRANCH   2   3
ATOM      3  C   UNL     1       2.769  60.288  21.372  1.00  0.00     0.000 C 
BRANCH   3   4
ATOM      4  C   UNL     1       3.169  60.584  19.916  1.00  0.00     0.000 C 
BRANCH   4   5
ATOM      5  C   UNL     1       1.979  60.493  18.947  1.00  0.00     0.001 C 
BRANCH   5   6
ATOM      6  C   UNL     1       2.413  60.174  17.503  1.00  0.00     0.009 C 
BRANCH   6   7
ATOM      7  C   UNL     1       1.333  60.465  16.437  1.00  0.00     0.032 C 
ATOM      8  C   UNL     1       0.609  59.195  15.968  1.00  0.00     0.014 C 
BRANCH   7   9
ATOM      9  C   UNL     1       1.891  61.249  15.278  1.00  0.00     0.044 C 
ATOM     10  O   UNL     1       1.219  62.186  14.773  1.00  0.00    -0.550 OA
ATOM     11  O   UNL     1       3.166  60.985  14.787  1.00  0.00    -0.550 OA
ENDBRANCH   7   9
ENDBRANCH   6   7
ENDBRANCH   5   6
ENDBRANCH   4   5
ENDBRANCH   3   4
ENDBRANCH   2   3
ENDBRANCH   1   2
BRANCH   1  12
ATOM     12  C   UNL     1       5.314  57.267  21.459  1.00  0.00     0.000 C 
BRANCH  12  13
ATOM     13  C   UNL     1       6.488  57.045  20.483  1.00  0.00    -0.000 C 
BRANCH  13  14
ATOM     14  C   UNL     1       7.699  56.306  21.082  1.00  0.00    -0.000 C 
BRANCH  14  15
ATOM     15  C   UNL     1       7.646  54.772  20.956  1.00  0.00    -0.000 C 
BRANCH  15  16
ATOM     16  C   UNL     1       8.485  54.033  22.023  1.00  0.00    -0.000 C 
BRANCH  16  17
ATOM     17  C   UNL     1       9.829  53.533  21.469  1.00  0.00    -0.000 C 
BRANCH  17  18
ATOM     18  C   UNL     1      10.961  53.609  22.505  1.00  0.00    -0.003 C 
ATOM     19  C   UNL     1      10.557  54.370  23.768  1.00  0.00     0.004 C 
ENDBRANCH  17  18
ENDBRANCH  16  17
ENDBRANCH  15  16
ENDBRANCH  14  15
ENDBRANCH  13  14
ENDBRANCH  12  13
ENDBRANCH   1  12
TORSDOF 14
ENDMDL
MODEL 7
REMARK VINA RESULT:    -4.846      6.117      9.026
REMARK INTER + INTRA:         -10.344
REMARK INTER:                  -9.308
REMARK INTRA:                  -1.036
REMARK UNBOUND:                -1.532
REMARK SMILES CCCCCCCCCCCCCC[C@H](C)C(=O)[O-]
REMARK SMILES IDX 9 1 10 2 11 3 12 4 13 5 14 6 15 7 16 8 17 9 18 10 19 11 8 12
REMARK SMILES IDX 7 13 6 14 5 15 4 16 3 17 2 18 1 19
REMARK H PARENT
REMARK Flexibility Score: inf
ROOT
ATOM      1  C   UNL     1       3.841  58.126  20.892  1.00  0.00     0.000 C 
ENDROOT
BRANCH   1   2
ATOM      2  C   UNL     1       3.783  59.536  20.270  1.00  0.00     0.000 C 
BRANCH   2   3
ATOM      3  C   UNL     1       2.722  60.475  20.874  1.00  0.00     0.000 C 
BRANCH   3   4
ATOM      4  C   UNL     1       2.505  60.240  22.379  1.00  0.00     0.000 C 
BRANCH   4   5
ATOM      5  C   UNL     1       1.020  60.287  22.776  1.00  0.00     0.001 C 
BRANCH   5   6
ATOM      6  C   UNL     1       0.258  59.010  22.369  1.00  0.00     0.009 C 
BRANCH   6   7
ATOM      7  C   UNL     1      -0.494  58.324  23.531  1.00  0.00     0.032 C 
ATOM      8  C   UNL     1       0.183  58.554  24.889  1.00  0.00     0.014 C 
BRANCH   7   9
ATOM      9  C   UNL     1      -0.717  56.858  23.262  1.00  0.00     0.044 C 
ATOM     10  O   UNL     1      -0.991  56.470  22.096  1.00  0.00    -0.550 OA
ATOM     11  O   UNL     1      -0.574  55.917  24.276  1.00  0.00    -0.550 OA
ENDBRANCH   7   9
ENDBRANCH   6   7
ENDBRANCH   5   6
ENDBRANCH   4   5
ENDBRANCH   3   4
ENDBRANCH   2   3
ENDBRANCH   1   2
BRANCH   1  12
ATOM     12  C   UNL     1       5.253  57.625  21.247  1.00  0.00     0.000 C 
BRANCH  12  13
ATOM     13  C   UNL     1       5.377  56.098  21.431  1.00  0.00    -0.000 C 
BRANCH  13  14
ATOM     14  C   UNL     1       6.819  55.578  21.584  1.00  0.00    -0.000 C 
BRANCH  14  15
ATOM     15  C   UNL     1       7.898  56.464  20.936  1.00  0.00    -0.000 C 
BRANCH  15  16
ATOM     16  C   UNL     1       8.036  56.258  19.411  1.00  0.00    -0.000 C 
BRANCH  16  17
ATOM     17  C   UNL     1       8.081  54.771  19.023  1.00  0.00    -0.000 C 
BRANCH  17  18
ATOM     18  C   UNL     1       6.955  54.379  18.054  1.00  0.00    -0.003 C 
ATOM     19  C   UNL     1       7.005  55.158  16.740  1.00  0.00     0.004 C 
ENDBRANCH  17  18
ENDBRANCH  16  17
ENDBRANCH  15  16
ENDBRANCH  14  15
ENDBRANCH  13  14
ENDBRANCH  12  13
ENDBRANCH   1  12
TORSDOF 14
ENDMDL
MODEL 8
REMARK VINA RESULT:    -4.799      3.653      8.763
REMARK INTER + INTRA:         -10.260
REMARK INTER:                  -9.597
REMARK INTRA:                  -0.663
REMARK UNBOUND:                -1.532
REMARK SMILES CCCCCCCCCCCCCC[C@H](C)C(=O)[O-]
REMARK SMILES IDX 9 1 10 2 11 3 12 4 13 5 14 6 15 7 16 8 17 9 18 10 19 11 8 12
REMARK SMILES IDX 7 13 6 14 5 15 4 16 3 17 2 18 1 19
REMARK H PARENT
REMARK Flexibility Score: inf
ROOT
ATOM      1  C   UNL     1      10.553  52.389  22.857  1.00  0.00     0.000 C 
ENDROOT
BRANCH   1   2
ATOM      2  C   UNL     1      10.370  50.916  22.438  1.00  0.00     0.000 C 
BRANCH   2   3
ATOM      3  C   UNL     1      11.247  49.906  23.200  1.00  0.00     0.000 C 
BRANCH   3   4
ATOM      4  C   UNL     1      11.044  48.458  22.721  1.00  0.00     0.000 C 
BRANCH   4   5
ATOM      5  C   UNL     1      11.399  47.423  23.802  1.00  0.00     0.001 C 
BRANCH   5   6
ATOM      6  C   UNL     1      10.693  46.070  23.582  1.00  0.00     0.009 C 
BRANCH   6   7
ATOM      7  C   UNL     1       9.543  45.787  24.573  1.00  0.00     0.032 C 
ATOM      8  C   UNL     1       9.922  44.746  25.635  1.00  0.00     0.014 C 
BRANCH   7   9
ATOM      9  C   UNL     1       8.270  45.415  23.857  1.00  0.00     0.044 C 
ATOM     10  O   UNL     1       8.070  44.220  23.516  1.00  0.00    -0.550 OA
ATOM     11  O   UNL     1       7.285  46.366  23.612  1.00  0.00    -0.550 OA
ENDBRANCH   7   9
ENDBRANCH   6   7
ENDBRANCH   5   6
ENDBRANCH   4   5
ENDBRANCH   3   4
ENDBRANCH   2   3
ENDBRANCH   1   2
BRANCH   1  12
ATOM     12  C   UNL     1      10.936  53.351  21.717  1.00  0.00     0.000 C 
BRANCH  12  13
ATOM     13  C   UNL     1       9.845  54.370  21.327  1.00  0.00    -0.000 C 
BRANCH  13  14
ATOM     14  C   UNL     1       8.438  54.055  21.870  1.00  0.00    -0.000 C 
BRANCH  14  15
ATOM     15  C   UNL     1       7.327  54.996  21.370  1.00  0.00    -0.000 C 
BRANCH  15  16
ATOM     16  C   UNL     1       7.854  56.335  20.808  1.00  0.00    -0.000 C 
BRANCH  16  17
ATOM     17  C   UNL     1       7.646  56.455  19.289  1.00  0.00    -0.000 C 
BRANCH  17  18
ATOM     18  C   UNL     1       7.402  55.095  18.617  1.00  0.00    -0.003 C 
ATOM     19  C   UNL     1       7.108  55.218  17.121  1.00  0.00     0.004 C 
ENDBRANCH  17  18
ENDBRANCH  16  17
ENDBRANCH  15  16
ENDBRANCH  14  15
ENDBRANCH  13  14
ENDBRANCH  12  13
ENDBRANCH   1  12
TORSDOF 14
ENDMDL
MODEL 9
REMARK VINA RESULT:    -4.645      4.851      9.267
REMARK INTER + INTRA:          -9.980
REMARK INTER:                  -9.072
REMARK INTRA:                  -0.907
REMARK UNBOUND:                -1.532
REMARK SMILES CCCCCCCCCCCCCC[C@H](C)C(=O)[O-]
REMARK SMILES IDX 9 1 10 2 11 3 12 4 13 5 14 6 15 7 16 8 17 9 18 10 19 11 8 12
REMARK SMILES IDX 7 13 6 14 5 15 4 16 3 17 2 18 1 19
REMARK H PARENT
REMARK Flexibility Score: inf
ROOT
ATOM      1  C   UNL     1      10.272  51.503  22.364  1.00  0.00     0.000 C 
ENDROOT
BRANCH   1   2
ATOM      2  C   UNL     1      11.022  50.404  23.142  1.00  0.00     0.000 C 
BRANCH   2   3
ATOM      3  C   UNL     1      10.656  48.960  22.752  1.00  0.00     0.000 C 
BRANCH   3   4
ATOM      4  C   UNL     1      11.382  47.907  23.607  1.00  0.00     0.000 C 
BRANCH   4   5
ATOM      5  C   UNL     1      11.505  48.327  25.081  1.00  0.00     0.001 C 
BRANCH   5   6
ATOM      6  C   UNL     1      12.866  47.942  25.696  1.00  0.00     0.009 C 
BRANCH   6   7
ATOM      7  C   UNL     1      12.933  48.095  27.232  1.00  0.00     0.032 C 
ATOM      8  C   UNL     1      13.959  49.147  27.675  1.00  0.00     0.014 C 
BRANCH   7   9
ATOM      9  C   UNL     1      13.162  46.771  27.914  1.00  0.00     0.044 C 
ATOM     10  O   UNL     1      14.280  46.522  28.439  1.00  0.00    -0.550 OA
ATOM     11  O   UNL     1      12.138  45.836  28.018  1.00  0.00    -0.550 OA
ENDBRANCH   7   9
ENDBRANCH   6   7
ENDBRANCH   5   6
ENDBRANCH   4   5
ENDBRANCH   3   4
ENDBRANCH   2   3
ENDBRANCH   1   2
BRANCH   1  12
ATOM     12  C   UNL     1      10.958  52.882  22.353  1.00  0.00     0.000 C 
BRANCH  12  13
ATOM     13  C   UNL     1      10.239  53.976  23.170  1.00  0.00    -0.000 C 
BRANCH  13  14
ATOM     14  C   UNL     1       8.778  53.657  23.539  1.00  0.00    -0.000 C 
BRANCH  14  15
ATOM     15  C   UNL     1       7.723  54.334  22.644  1.00  0.00    -0.000 C 
BRANCH  15  16
ATOM     16  C   UNL     1       8.291  55.472  21.768  1.00  0.00    -0.000 C 
BRANCH  16  17
ATOM     17  C   UNL     1       8.429  55.062  20.292  1.00  0.00    -0.000 C 
BRANCH  17  18
ATOM     18  C   UNL     1       7.135  54.461  19.722  1.00  0.00    -0.003 C 
ATOM     19  C   UNL     1       7.193  54.259  18.208  1.00  0.00     0.004 C 
ENDBRANCH  17  18
ENDBRANCH  16  17
ENDBRANCH  15  16
ENDBRANCH  14  15
ENDBRANCH  13  14
ENDBRANCH  12  13
ENDBRANCH   1  12
TORSDOF 14
ENDMDL
