MODEL 1
REMARK VINA RESULT:    -6.626      0.000      0.000
REMARK INTER + INTRA:          -7.640
REMARK INTER:                  -7.595
REMARK INTRA:                  -0.045
REMARK UNBOUND:                -0.045
REMARK SMILES O=C([O-])c1cc(O)c(O)c(O)c1
REMARK SMILES IDX 4 1 5 2 12 3 6 4 10 5 8 6 2 7 1 8 3 9 7 10 11 12 9 14
REMARK H PARENT 7 11 11 13 9 15
REMARK Flexibility Score: inf
ROOT
ATOM      1  C   UNL     1      12.518   7.754  28.492  1.00  0.00     0.005 A 
ATOM      2  C   UNL     1      12.631   8.531  29.656  1.00  0.00     0.060 A 
ATOM      3  C   UNL     1      11.261   7.631  27.873  1.00  0.00     0.060 A 
ATOM      4  C   UNL     1      11.510   9.174  30.197  1.00  0.00     0.162 A 
ATOM      5  C   UNL     1      10.136   8.273  28.409  1.00  0.00     0.162 A 
ATOM      6  C   UNL     1      10.261   9.047  29.575  1.00  0.00     0.200 A 
ENDROOT
BRANCH   1   7
ATOM      7  C   UNL     1      13.706   7.077  27.927  1.00  0.00     0.072 C 
ATOM      8  O   UNL     1      14.429   7.657  27.073  1.00  0.00    -0.545 OA
ATOM      9  O   UNL     1      14.043   5.790  28.331  1.00  0.00    -0.545 OA
ENDBRANCH   1   7
BRANCH   4  10
ATOM     10  O   UNL     1      11.628   9.944  31.352  1.00  0.00    -0.504 OA
ATOM     11  H   UNL     1      11.069  10.777  31.496  1.00  0.00     0.293 HD
ENDBRANCH   4  10
BRANCH   5  12
ATOM     12  O   UNL     1       8.895   8.143  27.788  1.00  0.00    -0.504 OA
ATOM     13  H   UNL     1       8.397   8.946  27.422  1.00  0.00     0.293 HD
ENDBRANCH   5  12
BRANCH   6  14
ATOM     14  O   UNL     1       9.156   9.696  30.128  1.00  0.00    -0.502 OA
ATOM     15  H   UNL     1       8.286   9.212  30.316  1.00  0.00     0.293 HD
ENDBRANCH   6  14
TORSDOF 4
ENDMDL
MODEL 2
REMARK VINA RESULT:    -6.530      0.376      2.437
REMARK INTER + INTRA:          -7.529
REMARK INTER:                  -7.485
REMARK INTRA:                  -0.045
REMARK UNBOUND:                -0.045
REMARK SMILES O=C([O-])c1cc(O)c(O)c(O)c1
REMARK SMILES IDX 4 1 5 2 12 3 6 4 10 5 8 6 2 7 1 8 3 9 7 10 11 12 9 14
REMARK H PARENT 7 11 11 13 9 15
REMARK Flexibility Score: inf
ROOT
ATOM      1  C   UNL     1      12.419   7.920  28.497  1.00  0.00     0.005 A 
ATOM      2  C   UNL     1      11.187   7.652  27.877  1.00  0.00     0.060 A 
ATOM      3  C   UNL     1      12.470   8.872  29.530  1.00  0.00     0.060 A 
ATOM      4  C   UNL     1      10.024   8.324  28.280  1.00  0.00     0.162 A 
ATOM      5  C   UNL     1      11.310   9.547  29.937  1.00  0.00     0.162 A 
ATOM      6  C   UNL     1      10.083   9.271  29.310  1.00  0.00     0.200 A 
ENDROOT
BRANCH   1   7
ATOM      7  C   UNL     1      13.642   7.207  28.067  1.00  0.00     0.072 C 
ATOM      8  O   UNL     1      14.367   7.676  27.148  1.00  0.00    -0.545 OA
ATOM      9  O   UNL     1      14.010   6.010  28.670  1.00  0.00    -0.545 OA
ENDBRANCH   1   7
BRANCH   4  10
ATOM     10  O   UNL     1       8.806   8.054  27.661  1.00  0.00    -0.504 OA
ATOM     11  H   UNL     1       8.750   7.812  26.678  1.00  0.00     0.293 HD
ENDBRANCH   4  10
BRANCH   5  12
ATOM     12  O   UNL     1      11.372  10.490  30.962  1.00  0.00    -0.504 OA
ATOM     13  H   UNL     1      12.255  10.775  31.369  1.00  0.00     0.293 HD
ENDBRANCH   5  12
BRANCH   6  14
ATOM     14  O   UNL     1       8.915   9.929  29.697  1.00  0.00    -0.502 OA
ATOM     15  H   UNL     1       8.930  10.850  30.119  1.00  0.00     0.293 HD
ENDBRANCH   6  14
TORSDOF 4
ENDMDL
MODEL 3
REMARK VINA RESULT:    -5.861      1.356      4.269
REMARK INTER + INTRA:          -6.762
REMARK INTER:                  -6.714
REMARK INTRA:                  -0.049
REMARK UNBOUND:                -0.045
REMARK SMILES O=C([O-])c1cc(O)c(O)c(O)c1
REMARK SMILES IDX 4 1 5 2 12 3 6 4 10 5 8 6 2 7 1 8 3 9 7 10 11 12 9 14
REMARK H PARENT 7 11 11 13 9 15
REMARK Flexibility Score: inf
ROOT
ATOM      1  C   UNL     1      11.910   9.800  29.970  1.00  0.00     0.005 A 
ATOM      2  C   UNL     1      10.617   9.441  29.555  1.00  0.00     0.060 A 
ATOM      3  C   UNL     1      13.017   9.164  29.381  1.00  0.00     0.060 A 
ATOM      4  C   UNL     1      10.430   8.464  28.568  1.00  0.00     0.162 A 
ATOM      5  C   UNL     1      12.836   8.186  28.393  1.00  0.00     0.162 A 
ATOM      6  C   UNL     1      11.538   7.835  27.985  1.00  0.00     0.200 A 
ENDROOT
BRANCH   1   7
ATOM      7  C   UNL     1      12.100  10.832  31.013  1.00  0.00     0.072 C 
ATOM      8  O   UNL     1      12.929  10.656  31.946  1.00  0.00    -0.545 OA
ATOM      9  O   UNL     1      11.366  12.012  30.979  1.00  0.00    -0.545 OA
ENDBRANCH   1   7
BRANCH   4  10
ATOM     10  O   UNL     1       9.145   8.112  28.159  1.00  0.00    -0.504 OA
ATOM     11  H   UNL     1       8.324   8.419  28.668  1.00  0.00     0.293 HD
ENDBRANCH   4  10
BRANCH   5  12
ATOM     12  O   UNL     1      13.941   7.562  27.816  1.00  0.00    -0.504 OA
ATOM     13  H   UNL     1      14.410   6.785  28.268  1.00  0.00     0.293 HD
ENDBRANCH   5  12
BRANCH   6  14
ATOM     14  O   UNL     1      11.332   6.865  27.003  1.00  0.00    -0.502 OA
ATOM     15  H   UNL     1      12.101   6.415  26.521  1.00  0.00     0.293 HD
ENDBRANCH   6  14
TORSDOF 4
ENDMDL
MODEL 4
REMARK VINA RESULT:    -5.858      1.364      3.941
REMARK INTER + INTRA:          -6.759
REMARK INTER:                  -6.710
REMARK INTRA:                  -0.048
REMARK UNBOUND:                -0.045
REMARK SMILES O=C([O-])c1cc(O)c(O)c(O)c1
REMARK SMILES IDX 4 1 5 2 12 3 6 4 10 5 8 6 2 7 1 8 3 9 7 10 11 12 9 14
REMARK H PARENT 7 11 11 13 9 15
REMARK Flexibility Score: inf
ROOT
ATOM      1  C   UNL     1      11.887   9.805  29.972  1.00  0.00     0.005 A 
ATOM      2  C   UNL     1      12.994   9.179  29.376  1.00  0.00     0.060 A 
ATOM      3  C   UNL     1      10.593   9.430  29.570  1.00  0.00     0.060 A 
ATOM      4  C   UNL     1      12.815   8.195  28.395  1.00  0.00     0.162 A 
ATOM      5  C   UNL     1      10.408   8.445  28.589  1.00  0.00     0.162 A 
ATOM      6  C   UNL     1      11.523   7.825  28.000  1.00  0.00     0.200 A 
ENDROOT
BRANCH   1   7
ATOM      7  C   UNL     1      12.084  10.844  31.007  1.00  0.00     0.072 C 
ATOM      8  O   UNL     1      12.898  10.662  31.952  1.00  0.00    -0.545 OA
ATOM      9  O   UNL     1      11.373  12.037  30.952  1.00  0.00    -0.545 OA
ENDBRANCH   1   7
BRANCH   4  10
ATOM     10  O   UNL     1      13.918   7.577  27.808  1.00  0.00    -0.504 OA
ATOM     11  H   UNL     1      14.859   7.734  28.150  1.00  0.00     0.293 HD
ENDBRANCH   4  10
BRANCH   5  12
ATOM     12  O   UNL     1       9.121   8.081  28.198  1.00  0.00    -0.504 OA
ATOM     13  H   UNL     1       8.733   7.172  28.423  1.00  0.00     0.293 HD
ENDBRANCH   5  12
BRANCH   6  14
ATOM     14  O   UNL     1      11.365   6.843  27.022  1.00  0.00    -0.502 OA
ATOM     15  H   UNL     1      10.553   6.812  26.416  1.00  0.00     0.293 HD
ENDBRANCH   6  14
TORSDOF 4
ENDMDL
MODEL 5
REMARK VINA RESULT:    -5.754      1.140      2.805
REMARK INTER + INTRA:          -6.639
REMARK INTER:                  -6.594
REMARK INTRA:                  -0.045
REMARK UNBOUND:                -0.045
REMARK SMILES O=C([O-])c1cc(O)c(O)c(O)c1
REMARK SMILES IDX 4 1 5 2 12 3 6 4 10 5 8 6 2 7 1 8 3 9 7 10 11 12 9 14
REMARK H PARENT 7 11 11 13 9 15
REMARK Flexibility Score: inf
ROOT
ATOM      1  C   UNL     1      12.636   8.040  28.778  1.00  0.00     0.005 A 
ATOM      2  C   UNL     1      11.419   8.396  28.173  1.00  0.00     0.060 A 
ATOM      3  C   UNL     1      13.091   8.780  29.883  1.00  0.00     0.060 A 
ATOM      4  C   UNL     1      10.668   9.473  28.662  1.00  0.00     0.162 A 
ATOM      5  C   UNL     1      12.343   9.858  30.377  1.00  0.00     0.162 A 
ATOM      6  C   UNL     1      11.127  10.205  29.764  1.00  0.00     0.200 A 
ENDROOT
BRANCH   1   7
ATOM      7  C   UNL     1      13.425   6.902  28.256  1.00  0.00     0.072 C 
ATOM      8  O   UNL     1      13.277   5.746  28.735  1.00  0.00    -0.545 OA
ATOM      9  O   UNL     1      14.340   7.091  27.227  1.00  0.00    -0.545 OA
ENDBRANCH   1   7
BRANCH   4  10
ATOM     10  O   UNL     1       9.461   9.821  28.058  1.00  0.00    -0.504 OA
ATOM     11  H   UNL     1       9.166  10.788  27.979  1.00  0.00     0.293 HD
ENDBRANCH   4  10
BRANCH   5  12
ATOM     12  O   UNL     1      12.804  10.585  31.473  1.00  0.00    -0.504 OA
ATOM     13  H   UNL     1      13.110  10.128  32.324  1.00  0.00     0.293 HD
ENDBRANCH   5  12
BRANCH   6  14
ATOM     14  O   UNL     1      10.364  11.274  30.237  1.00  0.00    -0.502 OA
ATOM     15  H   UNL     1       9.441  11.479  29.873  1.00  0.00     0.293 HD
ENDBRANCH   6  14
TORSDOF 4
ENDMDL
MODEL 6
REMARK VINA RESULT:    -5.394     12.197     13.379
REMARK INTER + INTRA:          -6.227
REMARK INTER:                  -6.179
REMARK INTRA:                  -0.047
REMARK UNBOUND:                -0.045
REMARK SMILES O=C([O-])c1cc(O)c(O)c(O)c1
REMARK SMILES IDX 4 1 5 2 12 3 6 4 10 5 8 6 2 7 1 8 3 9 7 10 11 12 9 14
REMARK H PARENT 7 11 11 13 9 15
REMARK Flexibility Score: inf
ROOT
ATOM      1  C   UNL     1      15.520  20.319  26.234  1.00  0.00     0.005 A 
ATOM      2  C   UNL     1      15.310  19.034  26.760  1.00  0.00     0.060 A 
ATOM      3  C   UNL     1      16.833  20.738  25.959  1.00  0.00     0.060 A 
ATOM      4  C   UNL     1      16.393  18.179  27.008  1.00  0.00     0.162 A 
ATOM      5  C   UNL     1      17.920  19.887  26.205  1.00  0.00     0.162 A 
ATOM      6  C   UNL     1      17.699  18.604  26.731  1.00  0.00     0.200 A 
ENDROOT
BRANCH   1   7
ATOM      7  C   UNL     1      14.372  21.216  25.975  1.00  0.00     0.072 C 
ATOM      8  O   UNL     1      13.399  20.826  25.275  1.00  0.00    -0.545 OA
ATOM      9  O   UNL     1      14.351  22.504  26.499  1.00  0.00    -0.545 OA
ENDBRANCH   1   7
BRANCH   4  10
ATOM     10  O   UNL     1      16.179  16.905  27.530  1.00  0.00    -0.504 OA
ATOM     11  H   UNL     1      15.244  16.538  27.670  1.00  0.00     0.293 HD
ENDBRANCH   4  10
BRANCH   5  12
ATOM     12  O   UNL     1      19.219  20.313  25.929  1.00  0.00    -0.504 OA
ATOM     13  H   UNL     1      19.989  20.114  26.557  1.00  0.00     0.293 HD
ENDBRANCH   5  12
BRANCH   6  14
ATOM     14  O   UNL     1      18.764  17.738  26.985  1.00  0.00    -0.502 OA
ATOM     15  H   UNL     1      19.414  17.893  27.747  1.00  0.00     0.293 HD
ENDBRANCH   6  14
TORSDOF 4
ENDMDL
MODEL 7
REMARK VINA RESULT:    -5.371     12.202     13.304
REMARK INTER + INTRA:          -6.201
REMARK INTER:                  -6.153
REMARK INTRA:                  -0.047
REMARK UNBOUND:                -0.045
REMARK SMILES O=C([O-])c1cc(O)c(O)c(O)c1
REMARK SMILES IDX 4 1 5 2 12 3 6 4 10 5 8 6 2 7 1 8 3 9 7 10 11 12 9 14
REMARK H PARENT 7 11 11 13 9 15
REMARK Flexibility Score: inf
ROOT
ATOM      1  C   UNL     1      15.500  20.331  26.246  1.00  0.00     0.005 A 
ATOM      2  C   UNL     1      16.812  20.749  25.968  1.00  0.00     0.060 A 
ATOM      3  C   UNL     1      15.291  19.044  26.774  1.00  0.00     0.060 A 
ATOM      4  C   UNL     1      17.898  19.897  26.211  1.00  0.00     0.162 A 
ATOM      5  C   UNL     1      16.374  18.189  27.019  1.00  0.00     0.162 A 
ATOM      6  C   UNL     1      17.682  18.617  26.737  1.00  0.00     0.200 A 
ENDROOT
BRANCH   1   7
ATOM      7  C   UNL     1      14.357  21.235  25.987  1.00  0.00     0.072 C 
ATOM      8  O   UNL     1      13.383  20.851  25.286  1.00  0.00    -0.545 OA
ATOM      9  O   UNL     1      14.342  22.521  26.514  1.00  0.00    -0.545 OA
ENDBRANCH   1   7
BRANCH   4  10
ATOM     10  O   UNL     1      19.197  20.317  25.933  1.00  0.00    -0.504 OA
ATOM     11  H   UNL     1      19.970  20.104  26.554  1.00  0.00     0.293 HD
ENDBRANCH   4  10
BRANCH   5  12
ATOM     12  O   UNL     1      16.155  16.915  27.541  1.00  0.00    -0.504 OA
ATOM     13  H   UNL     1      15.288  16.673  28.007  1.00  0.00     0.293 HD
ENDBRANCH   5  12
BRANCH   6  14
ATOM     14  O   UNL     1      18.777  17.784  26.972  1.00  0.00    -0.502 OA
ATOM     15  H   UNL     1      19.373  17.895  27.784  1.00  0.00     0.293 HD
ENDBRANCH   6  14
TORSDOF 4
ENDMDL
MODEL 8
REMARK VINA RESULT:    -5.126      2.031      4.509
REMARK INTER + INTRA:          -5.920
REMARK INTER:                  -5.871
REMARK INTRA:                  -0.049
REMARK UNBOUND:                -0.045
REMARK SMILES O=C([O-])c1cc(O)c(O)c(O)c1
REMARK SMILES IDX 4 1 5 2 12 3 6 4 10 5 8 6 2 7 1 8 3 9 7 10 11 12 9 14
REMARK H PARENT 7 11 11 13 9 15
REMARK Flexibility Score: inf
ROOT
ATOM      1  C   UNL     1      12.963   8.310  29.249  1.00  0.00     0.005 A 
ATOM      2  C   UNL     1      12.951   7.243  30.163  1.00  0.00     0.060 A 
ATOM      3  C   UNL     1      13.474   8.095  27.957  1.00  0.00     0.060 A 
ATOM      4  C   UNL     1      13.440   5.982  29.795  1.00  0.00     0.162 A 
ATOM      5  C   UNL     1      13.964   6.836  27.584  1.00  0.00     0.162 A 
ATOM      6  C   UNL     1      13.947   5.776  28.506  1.00  0.00     0.200 A 
ENDROOT
BRANCH   1   7
ATOM      7  C   UNL     1      12.445   9.638  29.645  1.00  0.00     0.072 C 
ATOM      8  O   UNL     1      11.738  10.313  28.849  1.00  0.00    -0.545 OA
ATOM      9  O   UNL     1      12.730  10.160  30.901  1.00  0.00    -0.545 OA
ENDBRANCH   1   7
BRANCH   4  10
ATOM     10  O   UNL     1      13.426   4.928  30.706  1.00  0.00    -0.504 OA
ATOM     11  H   UNL     1      13.965   4.084  30.551  1.00  0.00     0.293 HD
ENDBRANCH   4  10
BRANCH   5  12
ATOM     12  O   UNL     1      14.468   6.634  26.300  1.00  0.00    -0.504 OA
ATOM     13  H   UNL     1      14.446   7.366  25.598  1.00  0.00     0.293 HD
ENDBRANCH   5  12
BRANCH   6  14
ATOM     14  O   UNL     1      14.429   4.514  28.158  1.00  0.00    -0.502 OA
ATOM     15  H   UNL     1      13.811   3.732  27.977  1.00  0.00     0.293 HD
ENDBRANCH   6  14
TORSDOF 4
ENDMDL
MODEL 9
REMARK VINA RESULT:    -5.113      1.946      4.805
REMARK INTER + INTRA:          -5.905
REMARK INTER:                  -5.857
REMARK INTRA:                  -0.048
REMARK UNBOUND:                -0.045
REMARK SMILES O=C([O-])c1cc(O)c(O)c(O)c1
REMARK SMILES IDX 4 1 5 2 12 3 6 4 10 5 8 6 2 7 1 8 3 9 7 10 11 12 9 14
REMARK H PARENT 7 11 11 13 9 15
REMARK Flexibility Score: inf
ROOT
ATOM      1  C   UNL     1      12.923   8.275  29.152  1.00  0.00     0.005 A 
ATOM      2  C   UNL     1      13.426   8.004  27.869  1.00  0.00     0.060 A 
ATOM      3  C   UNL     1      12.962   7.264  30.128  1.00  0.00     0.060 A 
ATOM      4  C   UNL     1      13.959   6.745  27.563  1.00  0.00     0.162 A 
ATOM      5  C   UNL     1      13.494   6.002  29.827  1.00  0.00     0.162 A 
ATOM      6  C   UNL     1      13.994   5.742  28.540  1.00  0.00     0.200 A 
ENDROOT
BRANCH   1   7
ATOM      7  C   UNL     1      12.362   9.607  29.469  1.00  0.00     0.072 C 
ATOM      8  O   UNL     1      11.477  10.121  28.733  1.00  0.00    -0.545 OA
ATOM      9  O   UNL     1      12.803  10.311  30.583  1.00  0.00    -0.545 OA
ENDBRANCH   1   7
BRANCH   4  10
ATOM     10  O   UNL     1      14.456   6.482  26.288  1.00  0.00    -0.504 OA
ATOM     11  H   UNL     1      15.231   7.010  25.900  1.00  0.00     0.293 HD
ENDBRANCH   4  10
BRANCH   5  12
ATOM     12  O   UNL     1      13.527   5.006  30.801  1.00  0.00    -0.504 OA
ATOM     13  H   UNL     1      13.598   5.229  31.788  1.00  0.00     0.293 HD
ENDBRANCH   5  12
BRANCH   6  14
ATOM     14  O   UNL     1      14.529   4.494  28.216  1.00  0.00    -0.502 OA
ATOM     15  H   UNL     1      15.478   4.236  28.459  1.00  0.00     0.293 HD
ENDBRANCH   6  14
TORSDOF 4
ENDMDL
