MODEL 1
REMARK VINA RESULT:    -3.911      0.000      0.000
REMARK INTER + INTRA:         -10.849
REMARK INTER:                  -8.484
REMARK INTRA:                  -2.365
REMARK UNBOUND:                -2.365
REMARK SMILES CCCCCCCCCCCCCCCCCCCCCC(=O)[O-]
REMARK SMILES IDX 12 1 11 2 10 3 9 4 8 5 7 6 6 7 5 8 4 9 3 10 2 11 1 12 13 13
REMARK SMILES IDX 14 14 15 15 16 16 17 17 18 18 19 19 20 20 21 21 22 22 23 23
REMARK SMILES IDX 24 24
REMARK H PARENT
REMARK Flexibility Score: inf
ROOT
ATOM      1  C   UNL     1      20.966 -19.107 -18.534  1.00  0.00     0.000 C 
ENDROOT
BRANCH   1   2
ATOM      2  C   UNL     1      20.205 -20.113 -19.412  1.00  0.00     0.000 C 
BRANCH   2   3
ATOM      3  C   UNL     1      21.031 -21.377 -19.711  1.00  0.00     0.000 C 
BRANCH   3   4
ATOM      4  C   UNL     1      20.320 -22.668 -19.273  1.00  0.00    -0.000 C 
BRANCH   4   5
ATOM      5  C   UNL     1      19.637 -23.392 -20.447  1.00  0.00    -0.000 C 
BRANCH   5   6
ATOM      6  C   UNL     1      18.104 -23.371 -20.338  1.00  0.00    -0.000 C 
BRANCH   6   7
ATOM      7  C   UNL     1      17.615 -22.900 -18.960  1.00  0.00    -0.000 C 
BRANCH   7   8
ATOM      8  C   UNL     1      16.984 -24.062 -18.179  1.00  0.00    -0.000 C 
BRANCH   8   9
ATOM      9  C   UNL     1      15.813 -23.615 -17.287  1.00  0.00    -0.000 C 
BRANCH   9  10
ATOM     10  C   UNL     1      14.599 -23.050 -18.049  1.00  0.00    -0.000 C 
BRANCH  10  11
ATOM     11  C   UNL     1      14.000 -24.030 -19.079  1.00  0.00    -0.003 C 
ATOM     12  C   UNL     1      13.763 -23.375 -20.439  1.00  0.00     0.004 C 
ENDBRANCH  10  11
ENDBRANCH   9  10
ENDBRANCH   8   9
ENDBRANCH   7   8
ENDBRANCH   6   7
ENDBRANCH   5   6
ENDBRANCH   4   5
ENDBRANCH   3   4
ENDBRANCH   2   3
ENDBRANCH   1   2
BRANCH   1  13
ATOM     13  C   UNL     1      21.399 -19.713 -17.186  1.00  0.00     0.000 C 
BRANCH  13  14
ATOM     14  C   UNL     1      22.891 -19.492 -16.890  1.00  0.00     0.000 C 
BRANCH  14  15
ATOM     15  C   UNL     1      23.696 -19.131 -18.147  1.00  0.00     0.000 C 
BRANCH  15  16
ATOM     16  C   UNL     1      24.516 -17.851 -17.925  1.00  0.00     0.000 C 
BRANCH  16  17
ATOM     17  C   UNL     1      24.382 -17.300 -16.497  1.00  0.00     0.000 C 
BRANCH  17  18
ATOM     18  C   UNL     1      23.746 -15.901 -16.456  1.00  0.00     0.000 C 
BRANCH  18  19
ATOM     19  C   UNL     1      22.406 -15.844 -17.221  1.00  0.00     0.000 C 
BRANCH  19  20
ATOM     20  C   UNL     1      21.216 -15.396 -16.350  1.00  0.00     0.006 C 
BRANCH  20  21
ATOM     21  C   UNL     1      20.092 -16.436 -16.237  1.00  0.00     0.053 C 
BRANCH  21  22
ATOM     22  C   UNL     1      18.784 -15.812 -15.858  1.00  0.00     0.041 C 
ATOM     23  O   UNL     1      18.510 -14.639 -16.218  1.00  0.00    -0.550 OA
ATOM     24  O   UNL     1      17.866 -16.529 -15.102  1.00  0.00    -0.550 OA
ENDBRANCH  21  22
ENDBRANCH  20  21
ENDBRANCH  19  20
ENDBRANCH  18  19
ENDBRANCH  17  18
ENDBRANCH  16  17
ENDBRANCH  15  16
ENDBRANCH  14  15
ENDBRANCH  13  14
ENDBRANCH   1  13
TORSDOF 20
ENDMDL
MODEL 2
REMARK VINA RESULT:    -3.905      0.895      1.887
REMARK INTER + INTRA:         -10.836
REMARK INTER:                  -8.597
REMARK INTRA:                  -2.239
REMARK UNBOUND:                -2.365
REMARK SMILES CCCCCCCCCCCCCCCCCCCCCC(=O)[O-]
REMARK SMILES IDX 12 1 11 2 10 3 9 4 8 5 7 6 6 7 5 8 4 9 3 10 2 11 1 12 13 13
REMARK SMILES IDX 14 14 15 15 16 16 17 17 18 18 19 19 20 20 21 21 22 22 23 23
REMARK SMILES IDX 24 24
REMARK H PARENT
REMARK Flexibility Score: inf
ROOT
ATOM      1  C   UNL     1      21.348 -19.585 -16.997  1.00  0.00     0.000 C 
ENDROOT
BRANCH   1   2
ATOM      2  C   UNL     1      21.030 -19.155 -18.438  1.00  0.00     0.000 C 
BRANCH   2   3
ATOM      3  C   UNL     1      20.355 -20.274 -19.251  1.00  0.00     0.000 C 
BRANCH   3   4
ATOM      4  C   UNL     1      21.153 -21.588 -19.229  1.00  0.00    -0.000 C 
BRANCH   4   5
ATOM      5  C   UNL     1      20.291 -22.807 -19.604  1.00  0.00    -0.000 C 
BRANCH   5   6
ATOM      6  C   UNL     1      18.822 -22.639 -19.182  1.00  0.00    -0.000 C 
BRANCH   6   7
ATOM      7  C   UNL     1      17.847 -22.787 -20.359  1.00  0.00    -0.000 C 
BRANCH   7   8
ATOM      8  C   UNL     1      16.418 -22.416 -19.934  1.00  0.00    -0.000 C 
BRANCH   8   9
ATOM      9  C   UNL     1      15.418 -23.567 -20.134  1.00  0.00    -0.000 C 
BRANCH   9  10
ATOM     10  C   UNL     1      14.701 -24.032 -18.853  1.00  0.00    -0.000 C 
BRANCH  10  11
ATOM     11  C   UNL     1      15.528 -23.821 -17.567  1.00  0.00    -0.003 C 
ATOM     12  C   UNL     1      14.880 -22.816 -16.615  1.00  0.00     0.004 C 
ENDBRANCH  10  11
ENDBRANCH   9  10
ENDBRANCH   8   9
ENDBRANCH   7   8
ENDBRANCH   6   7
ENDBRANCH   5   6
ENDBRANCH   4   5
ENDBRANCH   3   4
ENDBRANCH   2   3
ENDBRANCH   1   2
BRANCH   1  13
ATOM     13  C   UNL     1      22.846 -19.458 -16.663  1.00  0.00     0.000 C 
BRANCH  13  14
ATOM     14  C   UNL     1      23.676 -18.945 -17.851  1.00  0.00     0.000 C 
BRANCH  14  15
ATOM     15  C   UNL     1      24.664 -17.841 -17.447  1.00  0.00     0.000 C 
BRANCH  15  16
ATOM     16  C   UNL     1      24.109 -17.006 -16.284  1.00  0.00     0.000 C 
BRANCH  16  17
ATOM     17  C   UNL     1      23.571 -15.640 -16.735  1.00  0.00     0.000 C 
BRANCH  17  18
ATOM     18  C   UNL     1      22.125 -15.712 -17.252  1.00  0.00     0.000 C 
BRANCH  18  19
ATOM     19  C   UNL     1      21.088 -15.540 -16.120  1.00  0.00     0.000 C 
BRANCH  19  20
ATOM     20  C   UNL     1      19.823 -16.401 -16.305  1.00  0.00     0.006 C 
BRANCH  20  21
ATOM     21  C   UNL     1      18.696 -16.083 -15.313  1.00  0.00     0.053 C 
BRANCH  21  22
ATOM     22  C   UNL     1      17.672 -15.162 -15.902  1.00  0.00     0.041 C 
ATOM     23  O   UNL     1      17.868 -13.920 -15.923  1.00  0.00    -0.550 OA
ATOM     24  O   UNL     1      16.493 -15.677 -16.427  1.00  0.00    -0.550 OA
ENDBRANCH  21  22
ENDBRANCH  20  21
ENDBRANCH  19  20
ENDBRANCH  18  19
ENDBRANCH  17  18
ENDBRANCH  16  17
ENDBRANCH  15  16
ENDBRANCH  14  15
ENDBRANCH  13  14
ENDBRANCH   1  13
TORSDOF 20
ENDMDL
MODEL 3
REMARK VINA RESULT:    -3.873      2.795      8.032
REMARK INTER + INTRA:         -10.766
REMARK INTER:                  -9.322
REMARK INTRA:                  -1.445
REMARK UNBOUND:                -2.365
REMARK SMILES CCCCCCCCCCCCCCCCCCCCCC(=O)[O-]
REMARK SMILES IDX 12 1 11 2 10 3 9 4 8 5 7 6 6 7 5 8 4 9 3 10 2 11 1 12 13 13
REMARK SMILES IDX 14 14 15 15 16 16 17 17 18 18 19 19 20 20 21 21 22 22 23 23
REMARK SMILES IDX 24 24
REMARK H PARENT
REMARK Flexibility Score: inf
ROOT
ATOM      1  C   UNL     1      22.202 -19.629 -17.403  1.00  0.00     0.000 C 
ENDROOT
BRANCH   1   2
ATOM      2  C   UNL     1      23.512 -19.214 -18.089  1.00  0.00     0.000 C 
BRANCH   2   3
ATOM      3  C   UNL     1      24.084 -17.901 -17.524  1.00  0.00     0.000 C 
BRANCH   3   4
ATOM      4  C   UNL     1      23.307 -16.663 -17.999  1.00  0.00    -0.000 C 
BRANCH   4   5
ATOM      5  C   UNL     1      23.213 -15.575 -16.914  1.00  0.00    -0.000 C 
BRANCH   5   6
ATOM      6  C   UNL     1      21.761 -15.161 -16.622  1.00  0.00    -0.000 C 
BRANCH   6   7
ATOM      7  C   UNL     1      20.885 -16.344 -16.181  1.00  0.00    -0.000 C 
BRANCH   7   8
ATOM      8  C   UNL     1      19.395 -16.004 -16.330  1.00  0.00    -0.000 C 
BRANCH   8   9
ATOM      9  C   UNL     1      18.595 -16.251 -15.039  1.00  0.00    -0.000 C 
BRANCH   9  10
ATOM     10  C   UNL     1      17.306 -15.419 -14.908  1.00  0.00    -0.000 C 
BRANCH  10  11
ATOM     11  C   UNL     1      17.076 -14.441 -16.079  1.00  0.00    -0.003 C 
ATOM     12  C   UNL     1      16.097 -14.992 -17.115  1.00  0.00     0.004 C 
ENDBRANCH  10  11
ENDBRANCH   9  10
ENDBRANCH   8   9
ENDBRANCH   7   8
ENDBRANCH   6   7
ENDBRANCH   5   6
ENDBRANCH   4   5
ENDBRANCH   3   4
ENDBRANCH   2   3
ENDBRANCH   1   2
BRANCH   1  13
ATOM     13  C   UNL     1      20.990 -19.546 -18.349  1.00  0.00     0.000 C 
BRANCH  13  14
ATOM     14  C   UNL     1      20.575 -20.919 -18.901  1.00  0.00     0.000 C 
BRANCH  14  15
ATOM     15  C   UNL     1      19.858 -20.819 -20.255  1.00  0.00     0.000 C 
BRANCH  15  16
ATOM     16  C   UNL     1      18.630 -21.740 -20.294  1.00  0.00     0.000 C 
BRANCH  16  17
ATOM     17  C   UNL     1      18.689 -22.857 -19.240  1.00  0.00     0.000 C 
BRANCH  17  18
ATOM     18  C   UNL     1      18.039 -24.164 -19.721  1.00  0.00     0.000 C 
BRANCH  18  19
ATOM     19  C   UNL     1      16.720 -24.471 -18.979  1.00  0.00     0.000 C 
BRANCH  19  20
ATOM     20  C   UNL     1      16.472 -23.564 -17.758  1.00  0.00     0.006 C 
BRANCH  20  21
ATOM     21  C   UNL     1      14.992 -23.255 -17.495  1.00  0.00     0.053 C 
BRANCH  21  22
ATOM     22  C   UNL     1      14.233 -23.015 -18.764  1.00  0.00     0.041 C 
ATOM     23  O   UNL     1      14.253 -21.885 -19.315  1.00  0.00    -0.550 OA
ATOM     24  O   UNL     1      13.496 -24.044 -19.338  1.00  0.00    -0.550 OA
ENDBRANCH  21  22
ENDBRANCH  20  21
ENDBRANCH  19  20
ENDBRANCH  18  19
ENDBRANCH  17  18
ENDBRANCH  16  17
ENDBRANCH  15  16
ENDBRANCH  14  15
ENDBRANCH  13  14
ENDBRANCH   1  13
TORSDOF 20
ENDMDL
MODEL 4
REMARK VINA RESULT:    -3.637      1.245      2.758
REMARK INTER + INTRA:         -10.255
REMARK INTER:                  -8.787
REMARK INTRA:                  -1.468
REMARK UNBOUND:                -2.365
REMARK SMILES CCCCCCCCCCCCCCCCCCCCCC(=O)[O-]
REMARK SMILES IDX 12 1 11 2 10 3 9 4 8 5 7 6 6 7 5 8 4 9 3 10 2 11 1 12 13 13
REMARK SMILES IDX 14 14 15 15 16 16 17 17 18 18 19 19 20 20 21 21 22 22 23 23
REMARK SMILES IDX 24 24
REMARK H PARENT
REMARK Flexibility Score: inf
ROOT
ATOM      1  C   UNL     1      24.226 -19.293 -18.067  1.00  0.00     0.000 C 
ENDROOT
BRANCH   1   2
ATOM      2  C   UNL     1      22.765 -19.151 -18.521  1.00  0.00     0.000 C 
BRANCH   2   3
ATOM      3  C   UNL     1      21.797 -19.980 -17.658  1.00  0.00     0.000 C 
BRANCH   3   4
ATOM      4  C   UNL     1      20.662 -20.612 -18.479  1.00  0.00    -0.000 C 
BRANCH   4   5
ATOM      5  C   UNL     1      21.185 -21.511 -19.613  1.00  0.00    -0.000 C 
BRANCH   5   6
ATOM      6  C   UNL     1      20.664 -22.953 -19.508  1.00  0.00    -0.000 C 
BRANCH   6   7
ATOM      7  C   UNL     1      19.165 -23.066 -19.826  1.00  0.00    -0.000 C 
BRANCH   7   8
ATOM      8  C   UNL     1      18.720 -24.536 -19.841  1.00  0.00    -0.000 C 
BRANCH   8   9
ATOM      9  C   UNL     1      17.275 -24.726 -19.350  1.00  0.00    -0.000 C 
BRANCH   9  10
ATOM     10  C   UNL     1      16.686 -23.522 -18.591  1.00  0.00    -0.000 C 
BRANCH  10  11
ATOM     11  C   UNL     1      15.242 -23.747 -18.094  1.00  0.00    -0.003 C 
ATOM     12  C   UNL     1      14.960 -23.024 -16.777  1.00  0.00     0.004 C 
ENDBRANCH  10  11
ENDBRANCH   9  10
ENDBRANCH   8   9
ENDBRANCH   7   8
ENDBRANCH   6   7
ENDBRANCH   5   6
ENDBRANCH   4   5
ENDBRANCH   3   4
ENDBRANCH   2   3
ENDBRANCH   1   2
BRANCH   1  13
ATOM     13  C   UNL     1      24.469 -18.692 -16.671  1.00  0.00     0.000 C 
BRANCH  13  14
ATOM     14  C   UNL     1      25.090 -17.287 -16.731  1.00  0.00     0.000 C 
BRANCH  14  15
ATOM     15  C   UNL     1      24.296 -16.255 -15.917  1.00  0.00     0.000 C 
BRANCH  15  16
ATOM     16  C   UNL     1      23.483 -15.336 -16.841  1.00  0.00     0.000 C 
BRANCH  16  17
ATOM     17  C   UNL     1      22.114 -15.927 -17.213  1.00  0.00     0.000 C 
BRANCH  17  18
ATOM     18  C   UNL     1      20.991 -15.464 -16.271  1.00  0.00     0.000 C 
BRANCH  18  19
ATOM     19  C   UNL     1      19.791 -16.436 -16.268  1.00  0.00     0.000 C 
BRANCH  19  20
ATOM     20  C   UNL     1      18.833 -16.232 -15.078  1.00  0.00     0.006 C 
BRANCH  20  21
ATOM     21  C   UNL     1      17.351 -16.156 -15.469  1.00  0.00     0.053 C 
BRANCH  21  22
ATOM     22  C   UNL     1      17.025 -14.888 -16.196  1.00  0.00     0.041 C 
ATOM     23  O   UNL     1      17.535 -13.796 -15.833  1.00  0.00    -0.550 OA
ATOM     24  O   UNL     1      16.152 -14.909 -17.276  1.00  0.00    -0.550 OA
ENDBRANCH  21  22
ENDBRANCH  20  21
ENDBRANCH  19  20
ENDBRANCH  18  19
ENDBRANCH  17  18
ENDBRANCH  16  17
ENDBRANCH  15  16
ENDBRANCH  14  15
ENDBRANCH  13  14
ENDBRANCH   1  13
TORSDOF 20
ENDMDL
MODEL 5
REMARK VINA RESULT:    -3.196     19.173     20.702
REMARK INTER + INTRA:          -9.297
REMARK INTER:                  -8.254
REMARK INTRA:                  -1.043
REMARK UNBOUND:                -2.365
REMARK SMILES CCCCCCCCCCCCCCCCCCCCCC(=O)[O-]
REMARK SMILES IDX 12 1 11 2 10 3 9 4 8 5 7 6 6 7 5 8 4 9 3 10 2 11 1 12 13 13
REMARK SMILES IDX 14 14 15 15 16 16 17 17 18 18 19 19 20 20 21 21 22 22 23 23
REMARK SMILES IDX 24 24
REMARK H PARENT
REMARK Flexibility Score: inf
ROOT
ATOM      1  C   UNL     1       5.913  -7.918  -8.850  1.00  0.00     0.000 C 
ENDROOT
BRANCH   1   2
ATOM      2  C   UNL     1       5.242  -8.795  -9.918  1.00  0.00     0.000 C 
BRANCH   2   3
ATOM      3  C   UNL     1       6.056  -8.861 -11.223  1.00  0.00     0.000 C 
BRANCH   3   4
ATOM      4  C   UNL     1       5.166  -8.912 -12.476  1.00  0.00    -0.000 C 
BRANCH   4   5
ATOM      5  C   UNL     1       4.894  -7.515 -13.062  1.00  0.00    -0.000 C 
BRANCH   5   6
ATOM      6  C   UNL     1       5.766  -7.216 -14.293  1.00  0.00    -0.000 C 
BRANCH   6   7
ATOM      7  C   UNL     1       4.946  -7.110 -15.588  1.00  0.00    -0.000 C 
BRANCH   7   8
ATOM      8  C   UNL     1       4.876  -8.469 -16.301  1.00  0.00    -0.000 C 
BRANCH   8   9
ATOM      9  C   UNL     1       4.915  -8.341 -17.833  1.00  0.00    -0.000 C 
BRANCH   9  10
ATOM     10  C   UNL     1       5.187  -6.918 -18.357  1.00  0.00    -0.000 C 
BRANCH  10  11
ATOM     11  C   UNL     1       6.128  -6.874 -19.578  1.00  0.00    -0.003 C 
ATOM     12  C   UNL     1       5.373  -6.650 -20.888  1.00  0.00     0.004 C 
ENDBRANCH  10  11
ENDBRANCH   9  10
ENDBRANCH   8   9
ENDBRANCH   7   8
ENDBRANCH   6   7
ENDBRANCH   5   6
ENDBRANCH   4   5
ENDBRANCH   3   4
ENDBRANCH   2   3
ENDBRANCH   1   2
BRANCH   1  13
ATOM     13  C   UNL     1       4.890  -7.154  -7.989  1.00  0.00     0.000 C 
BRANCH  13  14
ATOM     14  C   UNL     1       5.188  -5.648  -7.913  1.00  0.00     0.000 C 
BRANCH  14  15
ATOM     15  C   UNL     1       5.628  -5.203  -6.511  1.00  0.00     0.000 C 
BRANCH  15  16
ATOM     16  C   UNL     1       6.790  -6.068  -6.000  1.00  0.00     0.000 C 
BRANCH  16  17
ATOM     17  C   UNL     1       8.042  -5.963  -6.885  1.00  0.00     0.000 C 
BRANCH  17  18
ATOM     18  C   UNL     1       9.291  -6.566  -6.222  1.00  0.00     0.000 C 
BRANCH  18  19
ATOM     19  C   UNL     1      10.526  -5.648  -6.353  1.00  0.00     0.000 C 
BRANCH  19  20
ATOM     20  C   UNL     1      10.862  -4.876  -5.063  1.00  0.00     0.006 C 
BRANCH  20  21
ATOM     21  C   UNL     1      10.020  -5.286  -3.846  1.00  0.00     0.053 C 
BRANCH  21  22
ATOM     22  C   UNL     1      10.816  -6.073  -2.851  1.00  0.00     0.041 C 
ATOM     23  O   UNL     1      11.005  -7.305  -3.017  1.00  0.00    -0.550 OA
ATOM     24  O   UNL     1      11.349  -5.443  -1.733  1.00  0.00    -0.550 OA
ENDBRANCH  21  22
ENDBRANCH  20  21
ENDBRANCH  19  20
ENDBRANCH  18  19
ENDBRANCH  17  18
ENDBRANCH  16  17
ENDBRANCH  15  16
ENDBRANCH  14  15
ENDBRANCH  13  14
ENDBRANCH   1  13
TORSDOF 20
ENDMDL
MODEL 6
REMARK VINA RESULT:    -2.891      3.629      9.120
REMARK INTER + INTRA:          -8.637
REMARK INTER:                  -7.534
REMARK INTRA:                  -1.103
REMARK UNBOUND:                -2.365
REMARK SMILES CCCCCCCCCCCCCCCCCCCCCC(=O)[O-]
REMARK SMILES IDX 12 1 11 2 10 3 9 4 8 5 7 6 6 7 5 8 4 9 3 10 2 11 1 12 13 13
REMARK SMILES IDX 14 14 15 15 16 16 17 17 18 18 19 19 20 20 21 21 22 22 23 23
REMARK SMILES IDX 24 24
REMARK H PARENT
REMARK Flexibility Score: inf
ROOT
ATOM      1  C   UNL     1      15.687 -15.698 -18.465  1.00  0.00     0.000 C 
ENDROOT
BRANCH   1   2
ATOM      2  C   UNL     1      16.016 -14.684 -17.360  1.00  0.00     0.000 C 
BRANCH   2   3
ATOM      3  C   UNL     1      16.659 -15.343 -16.127  1.00  0.00     0.000 C 
BRANCH   3   4
ATOM      4  C   UNL     1      18.162 -15.044 -16.009  1.00  0.00    -0.000 C 
BRANCH   4   5
ATOM      5  C   UNL     1      18.961 -16.242 -15.466  1.00  0.00    -0.000 C 
BRANCH   5   6
ATOM      6  C   UNL     1      20.037 -16.726 -16.451  1.00  0.00    -0.000 C 
BRANCH   6   7
ATOM      7  C   UNL     1      21.170 -15.705 -16.639  1.00  0.00    -0.000 C 
BRANCH   7   8
ATOM      8  C   UNL     1      22.533 -16.409 -16.711  1.00  0.00    -0.000 C 
BRANCH   8   9
ATOM      9  C   UNL     1      22.567 -17.539 -17.754  1.00  0.00    -0.000 C 
BRANCH   9  10
ATOM     10  C   UNL     1      22.847 -18.940 -17.181  1.00  0.00    -0.000 C 
BRANCH  10  11
ATOM     11  C   UNL     1      21.577 -19.794 -16.979  1.00  0.00    -0.003 C 
ATOM     12  C   UNL     1      21.119 -20.471 -18.271  1.00  0.00     0.004 C 
ENDBRANCH  10  11
ENDBRANCH   9  10
ENDBRANCH   8   9
ENDBRANCH   7   8
ENDBRANCH   6   7
ENDBRANCH   5   6
ENDBRANCH   4   5
ENDBRANCH   3   4
ENDBRANCH   2   3
ENDBRANCH   1   2
BRANCH   1  13
ATOM     13  C   UNL     1      15.425 -15.023 -19.824  1.00  0.00     0.000 C 
BRANCH  13  14
ATOM     14  C   UNL     1      14.927 -16.012 -20.891  1.00  0.00     0.000 C 
BRANCH  14  15
ATOM     15  C   UNL     1      15.572 -17.399 -20.757  1.00  0.00     0.000 C 
BRANCH  15  16
ATOM     16  C   UNL     1      14.573 -18.506 -21.123  1.00  0.00     0.000 C 
BRANCH  16  17
ATOM     17  C   UNL     1      15.024 -19.895 -20.647  1.00  0.00     0.000 C 
BRANCH  17  18
ATOM     18  C   UNL     1      13.893 -20.936 -20.695  1.00  0.00     0.000 C 
BRANCH  18  19
ATOM     19  C   UNL     1      13.725 -21.683 -19.354  1.00  0.00     0.000 C 
BRANCH  19  20
ATOM     20  C   UNL     1      13.873 -23.212 -19.475  1.00  0.00     0.006 C 
BRANCH  20  21
ATOM     21  C   UNL     1      15.325 -23.709 -19.446  1.00  0.00     0.053 C 
BRANCH  21  22
ATOM     22  C   UNL     1      15.873 -23.763 -18.053  1.00  0.00     0.041 C 
ATOM     23  O   UNL     1      17.115 -23.762 -17.855  1.00  0.00    -0.550 OA
ATOM     24  O   UNL     1      15.007 -23.820 -16.968  1.00  0.00    -0.550 OA
ENDBRANCH  21  22
ENDBRANCH  20  21
ENDBRANCH  19  20
ENDBRANCH  18  19
ENDBRANCH  17  18
ENDBRANCH  16  17
ENDBRANCH  15  16
ENDBRANCH  14  15
ENDBRANCH  13  14
ENDBRANCH   1  13
TORSDOF 20
ENDMDL
MODEL 7
REMARK VINA RESULT:    -2.774      3.483      5.690
REMARK INTER + INTRA:          -8.384
REMARK INTER:                  -7.024
REMARK INTRA:                  -1.359
REMARK UNBOUND:                -2.365
REMARK SMILES CCCCCCCCCCCCCCCCCCCCCC(=O)[O-]
REMARK SMILES IDX 12 1 11 2 10 3 9 4 8 5 7 6 6 7 5 8 4 9 3 10 2 11 1 12 13 13
REMARK SMILES IDX 14 14 15 15 16 16 17 17 18 18 19 19 20 20 21 21 22 22 23 23
REMARK SMILES IDX 24 24
REMARK H PARENT
REMARK Flexibility Score: inf
ROOT
ATOM      1  C   UNL     1      16.081 -14.626 -17.434  1.00  0.00     0.000 C 
ENDROOT
BRANCH   1   2
ATOM      2  C   UNL     1      15.327 -15.585 -18.368  1.00  0.00     0.000 C 
BRANCH   2   3
ATOM      3  C   UNL     1      15.637 -15.326 -19.853  1.00  0.00     0.000 C 
BRANCH   3   4
ATOM      4  C   UNL     1      14.918 -16.310 -20.790  1.00  0.00    -0.000 C 
BRANCH   4   5
ATOM      5  C   UNL     1      15.613 -17.682 -20.849  1.00  0.00    -0.000 C 
BRANCH   5   6
ATOM      6  C   UNL     1      14.618 -18.836 -21.048  1.00  0.00    -0.000 C 
BRANCH   6   7
ATOM      7  C   UNL     1      15.091 -20.145 -20.399  1.00  0.00    -0.000 C 
BRANCH   7   8
ATOM      8  C   UNL     1      13.895 -21.036 -20.031  1.00  0.00    -0.000 C 
BRANCH   8   9
ATOM      9  C   UNL     1      14.194 -22.536 -20.201  1.00  0.00    -0.000 C 
BRANCH   9  10
ATOM     10  C   UNL     1      14.038 -23.376 -18.920  1.00  0.00    -0.000 C 
BRANCH  10  11
ATOM     11  C   UNL     1      14.989 -22.952 -17.780  1.00  0.00    -0.003 C 
ATOM     12  C   UNL     1      16.426 -23.413 -18.019  1.00  0.00     0.004 C 
ENDBRANCH  10  11
ENDBRANCH   9  10
ENDBRANCH   8   9
ENDBRANCH   7   8
ENDBRANCH   6   7
ENDBRANCH   5   6
ENDBRANCH   4   5
ENDBRANCH   3   4
ENDBRANCH   2   3
ENDBRANCH   1   2
BRANCH   1  13
ATOM     13  C   UNL     1      16.646 -15.339 -16.191  1.00  0.00     0.000 C 
BRANCH  13  14
ATOM     14  C   UNL     1      18.164 -15.155 -16.042  1.00  0.00     0.000 C 
BRANCH  14  15
ATOM     15  C   UNL     1      18.792 -16.173 -15.080  1.00  0.00     0.000 C 
BRANCH  15  16
ATOM     16  C   UNL     1      19.614 -17.219 -15.848  1.00  0.00     0.000 C 
BRANCH  16  17
ATOM     17  C   UNL     1      20.785 -16.600 -16.626  1.00  0.00     0.000 C 
BRANCH  17  18
ATOM     18  C   UNL     1      21.500 -17.616 -17.531  1.00  0.00     0.000 C 
BRANCH  18  19
ATOM     19  C   UNL     1      21.401 -19.058 -16.988  1.00  0.00     0.000 C 
BRANCH  19  20
ATOM     20  C   UNL     1      21.756 -20.137 -18.030  1.00  0.00     0.006 C 
BRANCH  20  21
ATOM     21  C   UNL     1      20.549 -20.932 -18.549  1.00  0.00     0.053 C 
BRANCH  21  22
ATOM     22  C   UNL     1      20.308 -20.698 -20.009  1.00  0.00     0.041 C 
ATOM     23  O   UNL     1      19.403 -19.912 -20.387  1.00  0.00    -0.550 OA
ATOM     24  O   UNL     1      21.084 -21.355 -20.955  1.00  0.00    -0.550 OA
ENDBRANCH  21  22
ENDBRANCH  20  21
ENDBRANCH  19  20
ENDBRANCH  18  19
ENDBRANCH  17  18
ENDBRANCH  16  17
ENDBRANCH  15  16
ENDBRANCH  14  15
ENDBRANCH  13  14
ENDBRANCH   1  13
TORSDOF 20
ENDMDL
MODEL 8
REMARK VINA RESULT:    -2.749      3.470      5.597
REMARK INTER + INTRA:          -8.329
REMARK INTER:                  -7.043
REMARK INTRA:                  -1.286
REMARK UNBOUND:                -2.365
REMARK SMILES CCCCCCCCCCCCCCCCCCCCCC(=O)[O-]
REMARK SMILES IDX 12 1 11 2 10 3 9 4 8 5 7 6 6 7 5 8 4 9 3 10 2 11 1 12 13 13
REMARK SMILES IDX 14 14 15 15 16 16 17 17 18 18 19 19 20 20 21 21 22 22 23 23
REMARK SMILES IDX 24 24
REMARK H PARENT
REMARK Flexibility Score: inf
ROOT
ATOM      1  C   UNL     1      16.122 -15.584 -18.493  1.00  0.00     0.000 C 
ENDROOT
BRANCH   1   2
ATOM      2  C   UNL     1      15.221 -15.220 -19.683  1.00  0.00     0.000 C 
BRANCH   2   3
ATOM      3  C   UNL     1      15.523 -16.068 -20.932  1.00  0.00     0.000 C 
BRANCH   3   4
ATOM      4  C   UNL     1      14.557 -17.253 -21.092  1.00  0.00    -0.000 C 
BRANCH   4   5
ATOM      5  C   UNL     1      15.288 -18.607 -21.125  1.00  0.00    -0.000 C 
BRANCH   5   6
ATOM      6  C   UNL     1      14.328 -19.796 -20.955  1.00  0.00    -0.000 C 
BRANCH   6   7
ATOM      7  C   UNL     1      15.003 -21.014 -20.307  1.00  0.00    -0.000 C 
BRANCH   7   8
ATOM      8  C   UNL     1      14.181 -22.289 -20.554  1.00  0.00    -0.000 C 
BRANCH   8   9
ATOM      9  C   UNL     1      13.922 -23.090 -19.266  1.00  0.00    -0.000 C 
BRANCH   9  10
ATOM     10  C   UNL     1      14.712 -22.608 -18.035  1.00  0.00    -0.000 C 
BRANCH  10  11
ATOM     11  C   UNL     1      15.706 -23.654 -17.487  1.00  0.00    -0.003 C 
ATOM     12  C   UNL     1      17.035 -23.647 -18.242  1.00  0.00     0.004 C 
ENDBRANCH  10  11
ENDBRANCH   9  10
ENDBRANCH   8   9
ENDBRANCH   7   8
ENDBRANCH   6   7
ENDBRANCH   5   6
ENDBRANCH   4   5
ENDBRANCH   3   4
ENDBRANCH   2   3
ENDBRANCH   1   2
BRANCH   1  13
ATOM     13  C   UNL     1      15.822 -14.731 -17.246  1.00  0.00     0.000 C 
BRANCH  13  14
ATOM     14  C   UNL     1      17.037 -14.596 -16.315  1.00  0.00     0.000 C 
BRANCH  14  15
ATOM     15  C   UNL     1      17.097 -15.707 -15.256  1.00  0.00     0.000 C 
BRANCH  15  16
ATOM     16  C   UNL     1      18.545 -16.159 -15.016  1.00  0.00     0.000 C 
BRANCH  16  17
ATOM     17  C   UNL     1      19.346 -16.305 -16.319  1.00  0.00     0.000 C 
BRANCH  17  18
ATOM     18  C   UNL     1      20.625 -15.452 -16.329  1.00  0.00     0.000 C 
BRANCH  18  19
ATOM     19  C   UNL     1      21.846 -16.230 -16.866  1.00  0.00     0.000 C 
BRANCH  19  20
ATOM     20  C   UNL     1      21.556 -17.719 -17.143  1.00  0.00     0.006 C 
BRANCH  20  21
ATOM     21  C   UNL     1      22.797 -18.542 -17.517  1.00  0.00     0.053 C 
BRANCH  21  22
ATOM     22  C   UNL     1      22.438 -19.796 -18.253  1.00  0.00     0.041 C 
ATOM     23  O   UNL     1      23.138 -20.188 -19.222  1.00  0.00    -0.550 OA
ATOM     24  O   UNL     1      21.325 -20.533 -17.870  1.00  0.00    -0.550 OA
ENDBRANCH  21  22
ENDBRANCH  20  21
ENDBRANCH  19  20
ENDBRANCH  18  19
ENDBRANCH  17  18
ENDBRANCH  16  17
ENDBRANCH  15  16
ENDBRANCH  14  15
ENDBRANCH  13  14
ENDBRANCH   1  13
TORSDOF 20
ENDMDL
