MODEL 1
REMARK VINA RESULT:     8.621      0.000      0.000
REMARK INTER + INTRA:           9.585
REMARK INTER:                  10.133
REMARK INTRA:                  -0.548
REMARK UNBOUND:                -0.548
REMARK SMILES C=C(C)[C@H]1CC[C@@]2(CO)CC[C@@]3(C)[C@H](CC[C@H]4[C@@]5(C)CC[C@H](O)C(C)(C)[C@H]5CC[C@]43C)[C@H]12
REMARK SMILES IDX 4 1 5 2 6 3 7 4 32 5 14 6 15 7 16 8 17 9 18 10 20 11 21 12
REMARK SMILES IDX 22 13 24 14 27 15 28 16 29 17 30 18 12 19 11 20 10 21 13 22
REMARK SMILES IDX 31 23 25 24 26 25 19 26 2 27 3 28 1 29 8 30 9 31 23 33
REMARK H PARENT 9 32 23 34
REMARK Flexibility Score: inf
ROOT
ATOM      1  C   UNL     1     -20.030  12.178 -29.230  1.00  0.00     0.018 C 
ATOM      2  C   UNL     1     -20.358  10.921 -28.385  1.00  0.00     0.009 C 
ATOM      3  C   UNL     1     -19.270   9.875 -28.717  1.00  0.00     0.010 C 
ATOM      4  C   UNL     1     -18.057  10.712 -29.197  1.00  0.00    -0.003 C 
ATOM      5  C   UNL     1     -18.811  11.740 -30.055  1.00  0.00     0.008 C 
ATOM      6  C   UNL     1     -17.965  12.756 -30.873  1.00  0.00    -0.000 C 
ATOM      7  C   UNL     1     -17.421  13.974 -30.078  1.00  0.00     0.005 C 
ATOM      8  C   UNL     1     -15.898  14.065 -29.973  1.00  0.00     0.005 C 
ATOM      9  C   UNL     1     -15.120  13.965 -31.319  1.00  0.00     0.002 C 
ATOM     10  C   UNL     1     -13.508  13.832 -31.156  1.00  0.00    -0.026 C 
ATOM     11  C   UNL     1     -13.030  12.646 -30.224  1.00  0.00     0.010 C 
ATOM     12  C   UNL     1     -12.500  11.360 -30.881  1.00  0.00     0.033 C 
ATOM     13  C   UNL     1     -11.593  11.527 -32.123  1.00  0.00     0.120 C 
ATOM     14  C   UNL     1     -11.364  13.002 -32.567  1.00  0.00    -0.006 C 
ATOM     15  C   UNL     1     -12.748  13.789 -32.565  1.00  0.00     0.003 C 
ATOM     16  C   UNL     1     -13.686  13.371 -33.740  1.00  0.00     0.005 C 
ATOM     17  C   UNL     1     -14.812  12.420 -33.341  1.00  0.00     0.008 C 
ATOM     18  C   UNL     1     -15.871  13.093 -32.425  1.00  0.00    -0.024 C 
ATOM     19  C   UNL     1     -16.909  12.016 -31.803  1.00  0.00    -0.024 C 
ATOM     20  C   UNL     1     -16.187  10.871 -30.998  1.00  0.00     0.008 C 
ATOM     21  C   UNL     1     -17.093   9.936 -30.128  1.00  0.00     0.010 C 
ATOM     22  C   UNL     1     -17.683  11.304 -32.968  1.00  0.00     0.012 C 
ATOM     23  C   UNL     1     -16.679  14.082 -33.355  1.00  0.00     0.012 C 
ATOM     24  C   UNL     1     -10.302  13.691 -31.660  1.00  0.00     0.014 C 
ATOM     25  C   UNL     1     -10.714  13.005 -33.988  1.00  0.00     0.014 C 
ATOM     26  C   UNL     1     -13.060  15.151 -30.428  1.00  0.00     0.012 C 
ENDROOT
BRANCH   1  27
ATOM     27  C   UNL     1     -21.191  12.635 -30.109  1.00  0.00    -0.077 C 
ATOM     28  C   UNL     1     -21.380  14.088 -30.478  1.00  0.00     0.039 C 
ATOM     29  C   UNL     1     -22.128  11.753 -30.492  1.00  0.00     0.008 C 
ENDBRANCH   1  27
BRANCH   4  30
ATOM     30  C   UNL     1     -17.350  11.263 -27.900  1.00  0.00     0.163 C 
BRANCH  30  31
ATOM     31  O   UNL     1     -16.927  10.258 -27.015  1.00  0.00    -0.396 OA
ATOM     32  H   UNL     1     -16.731   9.464 -27.588  1.00  0.00     0.210 HD
ENDBRANCH  30  31
ENDBRANCH   4  30
BRANCH  13  33
ATOM     33  O   UNL     1     -10.364  10.878 -31.889  1.00  0.00    -0.393 OA
ATOM     34  H   UNL     1      -9.815  10.976 -32.711  1.00  0.00     0.210 HD
ENDBRANCH  13  33
TORSDOF 4
ENDMDL
MODEL 2
REMARK VINA RESULT:    10.799      1.832      7.495
REMARK INTER + INTRA:          12.145
REMARK INTER:                  12.092
REMARK INTRA:                   0.053
REMARK UNBOUND:                -0.548
REMARK SMILES C=C(C)[C@H]1CC[C@@]2(CO)CC[C@@]3(C)[C@H](CC[C@H]4[C@@]5(C)CC[C@H](O)C(C)(C)[C@H]5CC[C@]43C)[C@H]12
REMARK SMILES IDX 4 1 5 2 6 3 7 4 32 5 14 6 15 7 16 8 17 9 18 10 20 11 21 12
REMARK SMILES IDX 22 13 24 14 27 15 28 16 29 17 30 18 12 19 11 20 10 21 13 22
REMARK SMILES IDX 31 23 25 24 26 25 19 26 2 27 3 28 1 29 8 30 9 31 23 33
REMARK H PARENT 9 32 23 34
REMARK Flexibility Score: inf
ROOT
ATOM      1  C   UNL     1     -10.956  12.934 -31.799  1.00  0.00     0.018 C 
ATOM      2  C   UNL     1     -10.415  14.387 -31.803  1.00  0.00     0.009 C 
ATOM      3  C   UNL     1     -11.649  15.312 -31.899  1.00  0.00     0.010 C 
ATOM      4  C   UNL     1     -12.814  14.471 -31.320  1.00  0.00    -0.003 C 
ATOM      5  C   UNL     1     -12.471  13.122 -31.971  1.00  0.00     0.008 C 
ATOM      6  C   UNL     1     -13.471  11.949 -31.772  1.00  0.00    -0.000 C 
ATOM      7  C   UNL     1     -13.371  11.201 -30.415  1.00  0.00     0.005 C 
ATOM      8  C   UNL     1     -14.603  11.301 -29.514  1.00  0.00     0.005 C 
ATOM      9  C   UNL     1     -15.961  10.933 -30.182  1.00  0.00     0.002 C 
ATOM     10  C   UNL     1     -17.269  11.268 -29.278  1.00  0.00    -0.026 C 
ATOM     11  C   UNL     1     -17.361  12.765 -28.772  1.00  0.00     0.010 C 
ATOM     12  C   UNL     1     -18.316  13.730 -29.497  1.00  0.00     0.033 C 
ATOM     13  C   UNL     1     -19.696  13.171 -29.916  1.00  0.00     0.120 C 
ATOM     14  C   UNL     1     -19.920  11.668 -29.572  1.00  0.00    -0.006 C 
ATOM     15  C   UNL     1     -18.635  10.821 -29.982  1.00  0.00     0.003 C 
ATOM     16  C   UNL     1     -18.488  10.652 -31.526  1.00  0.00     0.005 C 
ATOM     17  C   UNL     1     -17.453  11.574 -32.166  1.00  0.00     0.008 C 
ATOM     18  C   UNL     1     -15.997  11.222 -31.752  1.00  0.00    -0.024 C 
ATOM     19  C   UNL     1     -14.940  12.356 -32.224  1.00  0.00    -0.024 C 
ATOM     20  C   UNL     1     -15.299  13.787 -31.675  1.00  0.00     0.008 C 
ATOM     21  C   UNL     1     -14.210  14.901 -31.834  1.00  0.00     0.010 C 
ATOM     22  C   UNL     1     -14.965  12.474 -33.789  1.00  0.00     0.012 C 
ATOM     23  C   UNL     1     -15.649   9.875 -32.501  1.00  0.00     0.012 C 
ATOM     24  C   UNL     1     -20.274  11.496 -28.065  1.00  0.00     0.014 C 
ATOM     25  C   UNL     1     -21.194  11.164 -30.325  1.00  0.00     0.014 C 
ATOM     26  C   UNL     1     -17.107  10.392 -27.983  1.00  0.00     0.012 C 
ENDROOT
BRANCH   1  27
ATOM     27  C   UNL     1     -10.352  12.062 -32.896  1.00  0.00    -0.077 C 
ATOM     28  C   UNL     1     -10.174  10.572 -32.713  1.00  0.00     0.039 C 
ATOM     29  C   UNL     1      -9.875  12.628 -34.015  1.00  0.00     0.008 C 
ENDBRANCH   1  27
BRANCH   4  30
ATOM     30  C   UNL     1     -12.687  14.545 -29.750  1.00  0.00     0.163 C 
BRANCH  30  31
ATOM     31  O   UNL     1     -13.851  14.153 -29.069  1.00  0.00    -0.396 OA
ATOM     32  H   UNL     1     -14.556  14.801 -29.351  1.00  0.00     0.210 HD
ENDBRANCH  30  31
ENDBRANCH   4  30
BRANCH  13  33
ATOM     33  O   UNL     1     -20.710  13.970 -29.353  1.00  0.00    -0.393 OA
ATOM     34  H   UNL     1     -21.305  14.261 -30.094  1.00  0.00     0.210 HD
ENDBRANCH  13  33
TORSDOF 4
ENDMDL
MODEL 3
REMARK VINA RESULT:    11.014      2.015      7.541
REMARK INTER + INTRA:          12.397
REMARK INTER:                  12.679
REMARK INTRA:                  -0.282
REMARK UNBOUND:                -0.548
REMARK SMILES C=C(C)[C@H]1CC[C@@]2(CO)CC[C@@]3(C)[C@H](CC[C@H]4[C@@]5(C)CC[C@H](O)C(C)(C)[C@H]5CC[C@]43C)[C@H]12
REMARK SMILES IDX 4 1 5 2 6 3 7 4 32 5 14 6 15 7 16 8 17 9 18 10 20 11 21 12
REMARK SMILES IDX 22 13 24 14 27 15 28 16 29 17 30 18 12 19 11 20 10 21 13 22
REMARK SMILES IDX 31 23 25 24 26 25 19 26 2 27 3 28 1 29 8 30 9 31 23 33
REMARK H PARENT 9 32 23 34
REMARK Flexibility Score: inf
ROOT
ATOM      1  C   UNL     1     -11.773  13.958 -32.620  1.00  0.00     0.018 C 
ATOM      2  C   UNL     1     -11.550  13.745 -34.139  1.00  0.00     0.009 C 
ATOM      3  C   UNL     1     -12.544  12.646 -34.578  1.00  0.00     0.010 C 
ATOM      4  C   UNL     1     -13.687  12.714 -33.535  1.00  0.00    -0.003 C 
ATOM      5  C   UNL     1     -12.835  12.904 -32.270  1.00  0.00     0.008 C 
ATOM      6  C   UNL     1     -13.569  12.901 -30.900  1.00  0.00    -0.000 C 
ATOM      7  C   UNL     1     -14.264  14.232 -30.504  1.00  0.00     0.005 C 
ATOM      8  C   UNL     1     -15.786  14.167 -30.374  1.00  0.00     0.005 C 
ATOM      9  C   UNL     1     -16.339  13.031 -29.463  1.00  0.00     0.002 C 
ATOM     10  C   UNL     1     -17.952  12.842 -29.528  1.00  0.00    -0.026 C 
ATOM     11  C   UNL     1     -18.540  12.634 -30.982  1.00  0.00     0.010 C 
ATOM     12  C   UNL     1     -18.925  11.212 -31.425  1.00  0.00     0.033 C 
ATOM     13  C   UNL     1     -19.629  10.316 -30.379  1.00  0.00     0.120 C 
ATOM     14  C   UNL     1     -19.824  10.977 -28.983  1.00  0.00    -0.006 C 
ATOM     15  C   UNL     1     -18.479  11.702 -28.534  1.00  0.00     0.003 C 
ATOM     16  C   UNL     1     -17.357  10.699 -28.124  1.00  0.00     0.005 C 
ATOM     17  C   UNL     1     -16.283  10.483 -29.187  1.00  0.00     0.008 C 
ATOM     18  C   UNL     1     -15.400  11.741 -29.413  1.00  0.00    -0.024 C 
ATOM     19  C   UNL     1     -14.444  11.587 -30.712  1.00  0.00    -0.024 C 
ATOM     20  C   UNL     1     -15.253  11.284 -32.029  1.00  0.00     0.008 C 
ATOM     21  C   UNL     1     -14.471  11.388 -33.382  1.00  0.00     0.010 C 
ATOM     22  C   UNL     1     -13.477  10.368 -30.508  1.00  0.00     0.012 C 
ATOM     23  C   UNL     1     -14.482  11.860 -28.132  1.00  0.00     0.012 C 
ATOM     24  C   UNL     1     -21.034  11.958 -29.003  1.00  0.00     0.014 C 
ATOM     25  C   UNL     1     -20.241   9.875 -27.957  1.00  0.00     0.014 C 
ATOM     26  C   UNL     1     -18.545  14.207 -29.022  1.00  0.00     0.012 C 
ENDROOT
BRANCH   1  27
ATOM     27  C   UNL     1     -10.501  13.795 -31.794  1.00  0.00    -0.077 C 
ATOM     28  C   UNL     1      -9.887  12.436 -31.547  1.00  0.00     0.039 C 
ATOM     29  C   UNL     1      -9.956  14.860 -31.186  1.00  0.00     0.008 C 
ENDBRANCH   1  27
BRANCH   4  30
ATOM     30  C   UNL     1     -14.605  13.927 -33.952  1.00  0.00     0.163 C 
BRANCH  30  31
ATOM     31  O   UNL     1     -15.937  13.800 -33.526  1.00  0.00    -0.396 OA
ATOM     32  H   UNL     1     -15.972  12.946 -33.010  1.00  0.00     0.210 HD
ENDBRANCH  30  31
ENDBRANCH   4  30
BRANCH  13  33
ATOM     33  O   UNL     1     -20.861   9.875 -30.901  1.00  0.00    -0.393 OA
ATOM     34  H   UNL     1     -20.665   9.162 -31.564  1.00  0.00     0.210 HD
ENDBRANCH  13  33
TORSDOF 4
ENDMDL
