MODEL 1
REMARK VINA RESULT:    -6.796      0.000      0.000
REMARK INTER + INTRA:         -11.383
REMARK INTER:                  -9.776
REMARK INTRA:                  -1.607
REMARK UNBOUND:                -1.607
REMARK SMILES O=c1c(O[C@@H]2O[C@H](CO)[C@H](O)[C@@H](O)[C@H]2O)c(-c2ccc(O)cc2)oc2cc(O)cc(O)c12
REMARK SMILES IDX 4 1 3 2 16 3 24 4 2 5 25 6 1 7 32 8 26 9 30 10 27 11 29 12
REMARK SMILES IDX 17 13 18 14 19 15 20 16 23 17 22 18 21 19 31 21 28 23 5 25
REMARK SMILES IDX 14 26 6 27 12 28 7 29 10 30 15 31 13 33 8 35 9 36 11 38
REMARK H PARENT 21 20 31 22 28 24 15 32 13 34 9 37 11 39
REMARK Flexibility Score: inf
ROOT
ATOM      1  O   UNL     1       0.304 -20.898  25.917  1.00  0.00    -0.454 OA
ENDROOT
BRANCH   1   2
ATOM      2  C   UNL     1      -0.267 -19.658  26.225  1.00  0.00     0.214 A 
ATOM      3  C   UNL     1      -0.866 -19.416  27.478  1.00  0.00     0.180 A 
ATOM      4  O   UNL     1      -1.338 -18.205  27.761  1.00  0.00    -0.452 OA
ATOM      5  C   UNL     1      -0.231 -18.627  25.280  1.00  0.00     0.239 A 
ATOM      6  C   UNL     1      -1.303 -17.191  26.903  1.00  0.00     0.146 A 
ATOM      7  O   UNL     1       0.280 -18.847  24.148  1.00  0.00    -0.285 OA
ATOM      8  C   UNL     1      -0.750 -17.359  25.610  1.00  0.00     0.111 A 
ATOM      9  C   UNL     1      -1.829 -15.954  27.288  1.00  0.00     0.094 A 
ATOM     10  C   UNL     1      -0.734 -16.259  24.718  1.00  0.00     0.134 A 
ATOM     11  C   UNL     1      -1.811 -14.872  26.403  1.00  0.00     0.123 A 
ATOM     12  C   UNL     1      -1.265 -15.027  25.127  1.00  0.00     0.093 A 
BRANCH   3  13
ATOM     13  C   UNL     1      -0.994 -20.473  28.506  1.00  0.00     0.021 A 
ATOM     14  C   UNL     1      -0.369 -20.308  29.752  1.00  0.00     0.016 A 
ATOM     15  C   UNL     1      -0.483 -21.294  30.737  1.00  0.00     0.047 A 
ATOM     16  C   UNL     1      -1.233 -22.449  30.494  1.00  0.00     0.115 A 
ATOM     17  C   UNL     1      -1.765 -21.626  28.275  1.00  0.00     0.016 A 
ATOM     18  C   UNL     1      -1.877 -22.611  29.261  1.00  0.00     0.047 A 
BRANCH  16  19
ATOM     19  O   UNL     1      -1.334 -23.425  31.482  1.00  0.00    -0.508 OA
ATOM     20  H   UNL     1      -0.544 -24.008  31.733  1.00  0.00     0.293 HD
ENDBRANCH  16  19
ENDBRANCH   3  13
BRANCH  10  21
ATOM     21  O   UNL     1      -0.194 -16.382  23.435  1.00  0.00    -0.507 OA
ATOM     22  H   UNL     1      -0.782 -16.454  22.614  1.00  0.00     0.293 HD
ENDBRANCH  10  21
BRANCH  11  23
ATOM     23  O   UNL     1      -2.336 -13.638  26.783  1.00  0.00    -0.508 OA
ATOM     24  H   UNL     1      -1.740 -12.837  26.949  1.00  0.00     0.293 HD
ENDBRANCH  11  23
ENDBRANCH   1   2
BRANCH   1  25
ATOM     25  C   UNL     1       1.620 -21.248  26.345  1.00  0.00     0.339 C 
ATOM     26  C   UNL     1       1.655 -22.735  26.774  1.00  0.00     0.214 C 
ATOM     27  O   UNL     1       2.558 -20.886  25.337  1.00  0.00    -0.332 OA
ATOM     28  C   UNL     1       1.500 -23.691  25.564  1.00  0.00     0.180 C 
ATOM     29  C   UNL     1       2.928 -21.918  24.425  1.00  0.00     0.179 C 
ATOM     30  C   UNL     1       1.848 -23.011  24.217  1.00  0.00     0.177 C 
BRANCH  26  31
ATOM     31  O   UNL     1       2.804 -23.017  27.538  1.00  0.00    -0.384 OA
ATOM     32  H   UNL     1       3.268 -22.166  27.735  1.00  0.00     0.211 HD
ENDBRANCH  26  31
BRANCH  28  33
ATOM     33  O   UNL     1       2.241 -24.875  25.749  1.00  0.00    -0.387 OA
ATOM     34  H   UNL     1       2.084 -25.459  24.963  1.00  0.00     0.211 HD
ENDBRANCH  28  33
BRANCH  29  35
ATOM     35  C   UNL     1       3.319 -21.258  23.095  1.00  0.00     0.191 C 
BRANCH  35  36
ATOM     36  O   UNL     1       2.567 -20.091  22.876  1.00  0.00    -0.394 OA
ATOM     37  H   UNL     1       3.158 -19.452  22.399  1.00  0.00     0.210 HD
ENDBRANCH  35  36
ENDBRANCH  29  35
BRANCH  30  38
ATOM     38  O   UNL     1       0.700 -22.445  23.639  1.00  0.00    -0.387 OA
ATOM     39  H   UNL     1       0.446 -23.022  22.875  1.00  0.00     0.211 HD
ENDBRANCH  30  38
ENDBRANCH   1  25
TORSDOF 11
ENDMDL
MODEL 2
REMARK VINA RESULT:    -6.685      2.069      7.404
REMARK INTER + INTRA:         -11.223
REMARK INTER:                  -9.799
REMARK INTRA:                  -1.424
REMARK UNBOUND:                -1.607
REMARK SMILES O=c1c(O[C@@H]2O[C@H](CO)[C@H](O)[C@@H](O)[C@H]2O)c(-c2ccc(O)cc2)oc2cc(O)cc(O)c12
REMARK SMILES IDX 4 1 3 2 16 3 24 4 2 5 25 6 1 7 32 8 26 9 30 10 27 11 29 12
REMARK SMILES IDX 17 13 18 14 19 15 20 16 23 17 22 18 21 19 31 21 28 23 5 25
REMARK SMILES IDX 14 26 6 27 12 28 7 29 10 30 15 31 13 33 8 35 9 36 11 38
REMARK H PARENT 21 20 31 22 28 24 15 32 13 34 9 37 11 39
REMARK Flexibility Score: inf
ROOT
ATOM      1  O   UNL     1      -0.148 -20.920  27.808  1.00  0.00    -0.454 OA
ENDROOT
BRANCH   1   2
ATOM      2  C   UNL     1      -0.234 -22.252  28.230  1.00  0.00     0.214 A 
ATOM      3  C   UNL     1       0.498 -23.273  27.591  1.00  0.00     0.180 A 
ATOM      4  O   UNL     1       0.445 -24.516  28.062  1.00  0.00    -0.452 OA
ATOM      5  C   UNL     1      -1.049 -22.581  29.319  1.00  0.00     0.239 A 
ATOM      6  C   UNL     1      -0.297 -24.869  29.106  1.00  0.00     0.146 A 
ATOM      7  O   UNL     1      -1.727 -21.675  29.877  1.00  0.00    -0.285 OA
ATOM      8  C   UNL     1      -1.090 -23.911  29.784  1.00  0.00     0.111 A 
ATOM      9  C   UNL     1      -0.293 -26.202  29.525  1.00  0.00     0.094 A 
ATOM     10  C   UNL     1      -1.872 -24.321  30.890  1.00  0.00     0.134 A 
ATOM     11  C   UNL     1      -1.069 -26.602  30.618  1.00  0.00     0.123 A 
ATOM     12  C   UNL     1      -1.852 -25.664  31.295  1.00  0.00     0.093 A 
BRANCH   3  13
ATOM     13  C   UNL     1       1.335 -23.013  26.398  1.00  0.00     0.021 A 
ATOM     14  C   UNL     1       2.658 -22.573  26.562  1.00  0.00     0.016 A 
ATOM     15  C   UNL     1       3.465 -22.326  25.447  1.00  0.00     0.047 A 
ATOM     16  C   UNL     1       2.965 -22.530  24.158  1.00  0.00     0.115 A 
ATOM     17  C   UNL     1       0.844 -23.237  25.100  1.00  0.00     0.016 A 
ATOM     18  C   UNL     1       1.652 -22.989  23.987  1.00  0.00     0.047 A 
BRANCH  16  19
ATOM     19  O   UNL     1       3.778 -22.276  23.056  1.00  0.00    -0.508 OA
ATOM     20  H   UNL     1       4.784 -22.384  23.104  1.00  0.00     0.293 HD
ENDBRANCH  16  19
ENDBRANCH   3  13
BRANCH  10  21
ATOM     21  O   UNL     1      -2.665 -23.406  31.588  1.00  0.00    -0.507 OA
ATOM     22  H   UNL     1      -3.477 -23.699  32.117  1.00  0.00     0.293 HD
ENDBRANCH  10  21
BRANCH  11  23
ATOM     23  O   UNL     1      -1.070 -27.931  31.038  1.00  0.00    -0.508 OA
ATOM     24  H   UNL     1      -1.335 -28.189  31.980  1.00  0.00     0.293 HD
ENDBRANCH  11  23
ENDBRANCH   1   2
BRANCH   1  25
ATOM     25  C   UNL     1      -1.237 -20.265  27.157  1.00  0.00     0.339 C 
ATOM     26  C   UNL     1      -1.451 -18.863  27.775  1.00  0.00     0.214 C 
ATOM     27  O   UNL     1      -1.025 -20.280  25.749  1.00  0.00    -0.332 OA
ATOM     28  C   UNL     1      -0.298 -17.890  27.421  1.00  0.00     0.180 C 
ATOM     29  C   UNL     1      -0.414 -19.118  25.194  1.00  0.00     0.179 C 
ATOM     30  C   UNL     1       0.502 -18.341  26.175  1.00  0.00     0.177 C 
BRANCH  26  31
ATOM     31  O   UNL     1      -2.716 -18.344  27.434  1.00  0.00    -0.384 OA
ATOM     32  H   UNL     1      -3.188 -19.009  26.874  1.00  0.00     0.211 HD
ENDBRANCH  26  31
BRANCH  28  33
ATOM     33  O   UNL     1      -0.768 -16.569  27.279  1.00  0.00    -0.387 OA
ATOM     34  H   UNL     1      -0.239 -16.133  26.562  1.00  0.00     0.211 HD
ENDBRANCH  28  33
BRANCH  29  35
ATOM     35  C   UNL     1       0.349 -19.541  23.930  1.00  0.00     0.191 C 
BRANCH  35  36
ATOM     36  O   UNL     1       1.442 -18.688  23.697  1.00  0.00    -0.394 OA
ATOM     37  H   UNL     1       1.318 -18.301  22.792  1.00  0.00     0.210 HD
ENDBRANCH  35  36
ENDBRANCH  29  35
BRANCH  30  38
ATOM     38  O   UNL     1       1.589 -19.147  26.552  1.00  0.00    -0.387 OA
ATOM     39  H   UNL     1       1.448 -20.036  26.136  1.00  0.00     0.211 HD
ENDBRANCH  30  38
ENDBRANCH   1  25
TORSDOF 11
ENDMDL
MODEL 3
REMARK VINA RESULT:    -6.554      1.918      6.221
REMARK INTER + INTRA:         -11.035
REMARK INTER:                  -9.619
REMARK INTRA:                  -1.416
REMARK UNBOUND:                -1.607
REMARK SMILES O=c1c(O[C@@H]2O[C@H](CO)[C@H](O)[C@@H](O)[C@H]2O)c(-c2ccc(O)cc2)oc2cc(O)cc(O)c12
REMARK SMILES IDX 4 1 3 2 16 3 24 4 2 5 25 6 1 7 32 8 26 9 30 10 27 11 29 12
REMARK SMILES IDX 17 13 18 14 19 15 20 16 23 17 22 18 21 19 31 21 28 23 5 25
REMARK SMILES IDX 14 26 6 27 12 28 7 29 10 30 15 31 13 33 8 35 9 36 11 38
REMARK H PARENT 21 20 31 22 28 24 15 32 13 34 9 37 11 39
REMARK Flexibility Score: inf
ROOT
ATOM      1  O   UNL     1       0.911 -21.042  26.698  1.00  0.00    -0.454 OA
ENDROOT
BRANCH   1   2
ATOM      2  C   UNL     1       0.261 -21.722  27.734  1.00  0.00     0.214 A 
ATOM      3  C   UNL     1      -0.598 -21.051  28.628  1.00  0.00     0.180 A 
ATOM      4  O   UNL     1      -1.252 -21.741  29.557  1.00  0.00    -0.452 OA
ATOM      5  C   UNL     1       0.451 -23.101  27.882  1.00  0.00     0.239 A 
ATOM      6  C   UNL     1      -1.120 -23.053  29.719  1.00  0.00     0.146 A 
ATOM      7  O   UNL     1       1.240 -23.701  27.102  1.00  0.00    -0.285 OA
ATOM      8  C   UNL     1      -0.250 -23.798  28.886  1.00  0.00     0.111 A 
ATOM      9  C   UNL     1      -1.846 -23.692  30.729  1.00  0.00     0.094 A 
ATOM     10  C   UNL     1      -0.129 -25.194  29.088  1.00  0.00     0.134 A 
ATOM     11  C   UNL     1      -1.721 -25.071  30.925  1.00  0.00     0.123 A 
ATOM     12  C   UNL     1      -0.868 -25.815  30.106  1.00  0.00     0.093 A 
BRANCH   3  13
ATOM     13  C   UNL     1      -0.804 -19.586  28.571  1.00  0.00     0.021 A 
ATOM     14  C   UNL     1       0.057 -18.737  29.284  1.00  0.00     0.016 A 
ATOM     15  C   UNL     1      -0.119 -17.350  29.238  1.00  0.00     0.047 A 
ATOM     16  C   UNL     1      -1.147 -16.797  28.470  1.00  0.00     0.115 A 
ATOM     17  C   UNL     1      -1.823 -19.023  27.783  1.00  0.00     0.016 A 
ATOM     18  C   UNL     1      -1.997 -17.636  27.739  1.00  0.00     0.047 A 
BRANCH  16  19
ATOM     19  O   UNL     1      -1.314 -15.414  28.437  1.00  0.00    -0.508 OA
ATOM     20  H   UNL     1      -1.162 -14.882  27.589  1.00  0.00     0.293 HD
ENDBRANCH  16  19
ENDBRANCH   3  13
BRANCH  10  21
ATOM     21  O   UNL     1       0.716 -25.966  28.286  1.00  0.00    -0.507 OA
ATOM     22  H   UNL     1       1.272 -25.554  27.546  1.00  0.00     0.293 HD
ENDBRANCH  10  21
BRANCH  11  23
ATOM     23  O   UNL     1      -2.441 -25.711  31.931  1.00  0.00    -0.508 OA
ATOM     24  H   UNL     1      -2.068 -25.813  32.867  1.00  0.00     0.293 HD
ENDBRANCH  11  23
ENDBRANCH   1   2
BRANCH   1  25
ATOM     25  C   UNL     1       0.239 -20.695  25.487  1.00  0.00     0.339 C 
ATOM     26  C   UNL     1       1.025 -19.584  24.750  1.00  0.00     0.214 C 
ATOM     27  O   UNL     1      -0.003 -21.873  24.725  1.00  0.00    -0.332 OA
ATOM     28  C   UNL     1       2.366 -20.105  24.176  1.00  0.00     0.180 C 
ATOM     29  C   UNL     1       0.963 -22.180  23.723  1.00  0.00     0.179 C 
ATOM     30  C   UNL     1       2.389 -21.646  24.016  1.00  0.00     0.177 C 
BRANCH  26  31
ATOM     31  O   UNL     1       0.227 -18.960  23.771  1.00  0.00    -0.384 OA
ATOM     32  H   UNL     1      -0.073 -19.648  23.126  1.00  0.00     0.211 HD
ENDBRANCH  26  31
BRANCH  28  33
ATOM     33  O   UNL     1       2.691 -19.459  22.967  1.00  0.00    -0.387 OA
ATOM     34  H   UNL     1       3.317 -20.044  22.467  1.00  0.00     0.211 HD
ENDBRANCH  28  33
BRANCH  29  35
ATOM     35  C   UNL     1       0.968 -23.703  23.520  1.00  0.00     0.191 C 
BRANCH  35  36
ATOM     36  O   UNL     1      -0.228 -24.131  22.918  1.00  0.00    -0.394 OA
ATOM     37  H   UNL     1      -0.668 -24.750  23.557  1.00  0.00     0.210 HD
ENDBRANCH  35  36
ENDBRANCH  29  35
BRANCH  30  38
ATOM     38  O   UNL     1       2.898 -22.254  25.175  1.00  0.00    -0.387 OA
ATOM     39  H   UNL     1       2.295 -23.011  25.393  1.00  0.00     0.211 HD
ENDBRANCH  30  38
ENDBRANCH   1  25
TORSDOF 11
ENDMDL
MODEL 4
REMARK VINA RESULT:    -6.425      2.656      7.082
REMARK INTER + INTRA:         -10.850
REMARK INTER:                  -9.359
REMARK INTRA:                  -1.491
REMARK UNBOUND:                -1.607
REMARK SMILES O=c1c(O[C@@H]2O[C@H](CO)[C@H](O)[C@@H](O)[C@H]2O)c(-c2ccc(O)cc2)oc2cc(O)cc(O)c12
REMARK SMILES IDX 4 1 3 2 16 3 24 4 2 5 25 6 1 7 32 8 26 9 30 10 27 11 29 12
REMARK SMILES IDX 17 13 18 14 19 15 20 16 23 17 22 18 21 19 31 21 28 23 5 25
REMARK SMILES IDX 14 26 6 27 12 28 7 29 10 30 15 31 13 33 8 35 9 36 11 38
REMARK H PARENT 21 20 31 22 28 24 15 32 13 34 9 37 11 39
REMARK Flexibility Score: inf
ROOT
ATOM      1  O   UNL     1       0.052 -22.161  26.862  1.00  0.00    -0.454 OA
ENDROOT
BRANCH   1   2
ATOM      2  C   UNL     1       0.599 -23.076  27.769  1.00  0.00     0.214 A 
ATOM      3  C   UNL     1       0.350 -22.976  29.153  1.00  0.00     0.180 A 
ATOM      4  O   UNL     1       0.830 -23.903  29.978  1.00  0.00    -0.452 OA
ATOM      5  C   UNL     1       1.398 -24.123  27.297  1.00  0.00     0.239 A 
ATOM      6  C   UNL     1       1.572 -24.926  29.571  1.00  0.00     0.146 A 
ATOM      7  O   UNL     1       1.646 -24.201  26.063  1.00  0.00    -0.285 OA
ATOM      8  C   UNL     1       1.899 -25.081  28.201  1.00  0.00     0.111 A 
ATOM      9  C   UNL     1       2.037 -25.848  30.514  1.00  0.00     0.094 A 
ATOM     10  C   UNL     1       2.697 -26.181  27.802  1.00  0.00     0.134 A 
ATOM     11  C   UNL     1       2.826 -26.931  30.113  1.00  0.00     0.123 A 
ATOM     12  C   UNL     1       3.150 -27.094  28.764  1.00  0.00     0.093 A 
BRANCH   3  13
ATOM     13  C   UNL     1      -0.436 -21.864  29.733  1.00  0.00     0.021 A 
ATOM     14  C   UNL     1      -1.838 -21.903  29.677  1.00  0.00     0.016 A 
ATOM     15  C   UNL     1      -2.597 -20.863  30.224  1.00  0.00     0.047 A 
ATOM     16  C   UNL     1      -1.965 -19.781  30.844  1.00  0.00     0.115 A 
ATOM     17  C   UNL     1       0.193 -20.785  30.377  1.00  0.00     0.016 A 
ATOM     18  C   UNL     1      -0.567 -19.746  30.923  1.00  0.00     0.047 A 
BRANCH  16  19
ATOM     19  O   UNL     1      -2.733 -18.751  31.380  1.00  0.00    -0.508 OA
ATOM     20  H   UNL     1      -3.724 -18.864  31.554  1.00  0.00     0.293 HD
ENDBRANCH  16  19
ENDBRANCH   3  13
BRANCH  10  21
ATOM     21  O   UNL     1       3.038 -26.371  26.460  1.00  0.00    -0.507 OA
ATOM     22  H   UNL     1       3.830 -26.939  26.187  1.00  0.00     0.293 HD
ENDBRANCH  10  21
BRANCH  11  23
ATOM     23  O   UNL     1       3.293 -27.852  31.050  1.00  0.00    -0.508 OA
ATOM     24  H   UNL     1       2.810 -28.008  31.926  1.00  0.00     0.293 HD
ENDBRANCH  11  23
ENDBRANCH   1   2
BRANCH   1  25
ATOM     25  C   UNL     1       0.799 -21.047  26.374  1.00  0.00     0.339 C 
ATOM     26  C   UNL     1       0.612 -20.918  24.844  1.00  0.00     0.214 C 
ATOM     27  O   UNL     1       0.463 -19.884  27.125  1.00  0.00    -0.332 OA
ATOM     28  C   UNL     1      -0.823 -20.467  24.471  1.00  0.00     0.180 C 
ATOM     29  C   UNL     1      -0.544 -19.045  26.563  1.00  0.00     0.179 C 
ATOM     30  C   UNL     1      -1.557 -19.778  25.647  1.00  0.00     0.177 C 
BRANCH  26  31
ATOM     31  O   UNL     1       1.600 -20.090  24.277  1.00  0.00    -0.384 OA
ATOM     32  H   UNL     1       2.033 -19.576  25.003  1.00  0.00     0.211 HD
ENDBRANCH  26  31
BRANCH  28  33
ATOM     33  O   UNL     1      -0.821 -19.654  23.320  1.00  0.00    -0.387 OA
ATOM     34  H   UNL     1      -1.585 -19.929  22.750  1.00  0.00     0.211 HD
ENDBRANCH  28  33
BRANCH  29  35
ATOM     35  C   UNL     1      -1.254 -18.320  27.716  1.00  0.00     0.191 C 
BRANCH  35  36
ATOM     36  O   UNL     1      -2.642 -18.286  27.506  1.00  0.00    -0.394 OA
ATOM     37  H   UNL     1      -3.058 -18.011  28.364  1.00  0.00     0.210 HD
ENDBRANCH  35  36
ENDBRANCH  29  35
BRANCH  30  38
ATOM     38  O   UNL     1      -2.282 -20.721  26.396  1.00  0.00    -0.387 OA
ATOM     39  H   UNL     1      -2.220 -20.445  27.346  1.00  0.00     0.211 HD
ENDBRANCH  30  38
ENDBRANCH   1  25
TORSDOF 11
ENDMDL
MODEL 5
REMARK VINA RESULT:    -6.419      2.633      7.609
REMARK INTER + INTRA:         -10.841
REMARK INTER:                  -9.072
REMARK INTRA:                  -1.769
REMARK UNBOUND:                -1.607
REMARK SMILES O=c1c(O[C@@H]2O[C@H](CO)[C@H](O)[C@@H](O)[C@H]2O)c(-c2ccc(O)cc2)oc2cc(O)cc(O)c12
REMARK SMILES IDX 4 1 3 2 16 3 24 4 2 5 25 6 1 7 32 8 26 9 30 10 27 11 29 12
REMARK SMILES IDX 17 13 18 14 19 15 20 16 23 17 22 18 21 19 31 21 28 23 5 25
REMARK SMILES IDX 14 26 6 27 12 28 7 29 10 30 15 31 13 33 8 35 9 36 11 38
REMARK H PARENT 21 20 31 22 28 24 15 32 13 34 9 37 11 39
REMARK Flexibility Score: inf
ROOT
ATOM      1  O   UNL     1      -0.088 -19.946  28.646  1.00  0.00    -0.454 OA
ENDROOT
BRANCH   1   2
ATOM      2  C   UNL     1      -0.446 -21.212  29.122  1.00  0.00     0.214 A 
ATOM      3  C   UNL     1      -0.144 -22.382  28.394  1.00  0.00     0.180 A 
ATOM      4  O   UNL     1      -0.439 -23.572  28.909  1.00  0.00    -0.452 OA
ATOM      5  C   UNL     1      -1.102 -21.328  30.352  1.00  0.00     0.239 A 
ATOM      6  C   UNL     1      -1.039 -23.730  30.083  1.00  0.00     0.146 A 
ATOM      7  O   UNL     1      -1.397 -20.284  30.994  1.00  0.00    -0.285 OA
ATOM      8  C   UNL     1      -1.408 -22.606  30.862  1.00  0.00     0.111 A 
ATOM      9  C   UNL     1      -1.313 -25.023  30.540  1.00  0.00     0.094 A 
ATOM     10  C   UNL     1      -2.051 -22.810  32.107  1.00  0.00     0.134 A 
ATOM     11  C   UNL     1      -1.950 -25.218  31.770  1.00  0.00     0.123 A 
ATOM     12  C   UNL     1      -2.314 -24.116  32.546  1.00  0.00     0.093 A 
BRANCH   3  13
ATOM     13  C   UNL     1       0.494 -22.336  27.060  1.00  0.00     0.021 A 
ATOM     14  C   UNL     1       1.754 -22.926  26.874  1.00  0.00     0.016 A 
ATOM     15  C   UNL     1       2.371 -22.897  25.619  1.00  0.00     0.047 A 
ATOM     16  C   UNL     1       1.731 -22.290  24.535  1.00  0.00     0.115 A 
ATOM     17  C   UNL     1      -0.154 -21.746  25.961  1.00  0.00     0.016 A 
ATOM     18  C   UNL     1       0.465 -21.717  24.708  1.00  0.00     0.047 A 
BRANCH  16  19
ATOM     19  O   UNL     1       2.359 -22.263  23.292  1.00  0.00    -0.508 OA
ATOM     20  H   UNL     1       1.870 -22.529  22.446  1.00  0.00     0.293 HD
ENDBRANCH  16  19
ENDBRANCH   3  13
BRANCH  10  21
ATOM     21  O   UNL     1      -2.427 -21.728  32.907  1.00  0.00    -0.507 OA
ATOM     22  H   UNL     1      -1.964 -20.830  32.842  1.00  0.00     0.293 HD
ENDBRANCH  10  21
BRANCH  11  23
ATOM     23  O   UNL     1      -2.226 -26.505  32.228  1.00  0.00    -0.508 OA
ATOM     24  H   UNL     1      -1.957 -26.806  33.157  1.00  0.00     0.293 HD
ENDBRANCH  11  23
ENDBRANCH   1   2
BRANCH   1  25
ATOM     25  C   UNL     1       1.267 -19.495  28.649  1.00  0.00     0.339 C 
ATOM     26  C   UNL     1       1.446 -18.364  27.608  1.00  0.00     0.214 C 
ATOM     27  O   UNL     1       1.652 -19.162  29.978  1.00  0.00    -0.332 OA
ATOM     28  C   UNL     1       0.727 -17.061  28.038  1.00  0.00     0.180 C 
ATOM     29  C   UNL     1       1.533 -17.788  30.340  1.00  0.00     0.179 C 
ATOM     30  C   UNL     1       0.443 -17.009  29.559  1.00  0.00     0.177 C 
BRANCH  26  31
ATOM     31  O   UNL     1       2.808 -18.154  27.314  1.00  0.00    -0.384 OA
ATOM     32  H   UNL     1       3.059 -18.738  26.556  1.00  0.00     0.211 HD
ENDBRANCH  26  31
BRANCH  28  33
ATOM     33  O   UNL     1       1.433 -15.920  27.607  1.00  0.00    -0.387 OA
ATOM     34  H   UNL     1       1.360 -15.871  26.619  1.00  0.00     0.211 HD
ENDBRANCH  28  33
BRANCH  29  35
ATOM     35  C   UNL     1       1.295 -17.716  31.856  1.00  0.00     0.191 C 
BRANCH  35  36
ATOM     36  O   UNL     1       0.142 -18.434  32.216  1.00  0.00    -0.394 OA
ATOM     37  H   UNL     1      -0.591 -17.772  32.315  1.00  0.00     0.210 HD
ENDBRANCH  35  36
ENDBRANCH  29  35
BRANCH  30  38
ATOM     38  O   UNL     1      -0.824 -17.545  29.843  1.00  0.00    -0.387 OA
ATOM     39  H   UNL     1      -0.858 -17.703  30.821  1.00  0.00     0.211 HD
ENDBRANCH  30  38
ENDBRANCH   1  25
TORSDOF 11
ENDMDL
MODEL 6
REMARK VINA RESULT:    -6.410      2.509      4.735
REMARK INTER + INTRA:         -10.827
REMARK INTER:                  -9.171
REMARK INTRA:                  -1.656
REMARK UNBOUND:                -1.607
REMARK SMILES O=c1c(O[C@@H]2O[C@H](CO)[C@H](O)[C@@H](O)[C@H]2O)c(-c2ccc(O)cc2)oc2cc(O)cc(O)c12
REMARK SMILES IDX 4 1 3 2 16 3 24 4 2 5 25 6 1 7 32 8 26 9 30 10 27 11 29 12
REMARK SMILES IDX 17 13 18 14 19 15 20 16 23 17 22 18 21 19 31 21 28 23 5 25
REMARK SMILES IDX 14 26 6 27 12 28 7 29 10 30 15 31 13 33 8 35 9 36 11 38
REMARK H PARENT 21 20 31 22 28 24 15 32 13 34 9 37 11 39
REMARK Flexibility Score: inf
ROOT
ATOM      1  O   UNL     1       0.640 -22.551  26.722  1.00  0.00    -0.454 OA
ENDROOT
BRANCH   1   2
ATOM      2  C   UNL     1       0.034 -22.259  27.949  1.00  0.00     0.214 A 
ATOM      3  C   UNL     1       0.230 -23.080  29.078  1.00  0.00     0.180 A 
ATOM      4  O   UNL     1      -0.307 -22.735  30.245  1.00  0.00    -0.452 OA
ATOM      5  C   UNL     1      -0.772 -21.121  28.068  1.00  0.00     0.239 A 
ATOM      6  C   UNL     1      -1.059 -21.652  30.410  1.00  0.00     0.146 A 
ATOM      7  O   UNL     1      -0.972 -20.399  27.054  1.00  0.00    -0.285 OA
ATOM      8  C   UNL     1      -1.334 -20.792  29.318  1.00  0.00     0.111 A 
ATOM      9  C   UNL     1      -1.585 -21.373  31.675  1.00  0.00     0.094 A 
ATOM     10  C   UNL     1      -2.142 -19.649  29.527  1.00  0.00     0.134 A 
ATOM     11  C   UNL     1      -2.384 -20.243  31.874  1.00  0.00     0.123 A 
ATOM     12  C   UNL     1      -2.658 -19.388  30.805  1.00  0.00     0.093 A 
BRANCH   3  13
ATOM     13  C   UNL     1       1.019 -24.330  29.015  1.00  0.00     0.021 A 
ATOM     14  C   UNL     1       2.330 -24.348  29.516  1.00  0.00     0.016 A 
ATOM     15  C   UNL     1       3.091 -25.521  29.469  1.00  0.00     0.047 A 
ATOM     16  C   UNL     1       2.545 -26.692  28.934  1.00  0.00     0.115 A 
ATOM     17  C   UNL     1       0.468 -25.516  28.498  1.00  0.00     0.016 A 
ATOM     18  C   UNL     1       1.229 -26.687  28.452  1.00  0.00     0.047 A 
BRANCH  16  19
ATOM     19  O   UNL     1       3.314 -27.852  28.889  1.00  0.00    -0.508 OA
ATOM     20  H   UNL     1       4.326 -27.817  28.912  1.00  0.00     0.293 HD
ENDBRANCH  16  19
ENDBRANCH   3  13
BRANCH  10  21
ATOM     21  O   UNL     1      -2.434 -18.773  28.477  1.00  0.00    -0.507 OA
ATOM     22  H   UNL     1      -1.704 -18.345  27.922  1.00  0.00     0.293 HD
ENDBRANCH  10  21
BRANCH  11  23
ATOM     23  O   UNL     1      -2.912 -19.963  33.133  1.00  0.00    -0.508 OA
ATOM     24  H   UNL     1      -3.546 -20.601  33.597  1.00  0.00     0.293 HD
ENDBRANCH  11  23
ENDBRANCH   1   2
BRANCH   1  25
ATOM     25  C   UNL     1       2.011 -22.244  26.468  1.00  0.00     0.339 C 
ATOM     26  C   UNL     1       2.531 -23.099  25.288  1.00  0.00     0.214 C 
ATOM     27  O   UNL     1       2.159 -20.837  26.307  1.00  0.00    -0.332 OA
ATOM     28  C   UNL     1       1.902 -22.670  23.938  1.00  0.00     0.180 C 
ATOM     29  C   UNL     1       2.136 -20.353  24.966  1.00  0.00     0.179 C 
ATOM     30  C   UNL     1       1.328 -21.233  23.978  1.00  0.00     0.177 C 
BRANCH  26  31
ATOM     31  O   UNL     1       3.939 -23.107  25.246  1.00  0.00    -0.384 OA
ATOM     32  H   UNL     1       4.280 -22.701  26.081  1.00  0.00     0.211 HD
ENDBRANCH  26  31
BRANCH  28  33
ATOM     33  O   UNL     1       2.813 -22.830  22.875  1.00  0.00    -0.387 OA
ATOM     34  H   UNL     1       2.982 -21.935  22.480  1.00  0.00     0.211 HD
ENDBRANCH  28  33
BRANCH  29  35
ATOM     35  C   UNL     1       1.609 -18.911  24.992  1.00  0.00     0.191 C 
BRANCH  35  36
ATOM     36  O   UNL     1       1.120 -18.534  23.729  1.00  0.00    -0.394 OA
ATOM     37  H   UNL     1       1.909 -18.413  23.139  1.00  0.00     0.210 HD
ENDBRANCH  35  36
ENDBRANCH  29  35
BRANCH  30  38
ATOM     38  O   UNL     1      -0.026 -21.253  24.354  1.00  0.00    -0.387 OA
ATOM     39  H   UNL     1      -0.094 -21.831  25.156  1.00  0.00     0.211 HD
ENDBRANCH  30  38
ENDBRANCH   1  25
TORSDOF 11
ENDMDL
MODEL 7
REMARK VINA RESULT:    -6.379      0.987      2.256
REMARK INTER + INTRA:         -10.784
REMARK INTER:                  -9.466
REMARK INTRA:                  -1.318
REMARK UNBOUND:                -1.607
REMARK SMILES O=c1c(O[C@@H]2O[C@H](CO)[C@H](O)[C@@H](O)[C@H]2O)c(-c2ccc(O)cc2)oc2cc(O)cc(O)c12
REMARK SMILES IDX 4 1 3 2 16 3 24 4 2 5 25 6 1 7 32 8 26 9 30 10 27 11 29 12
REMARK SMILES IDX 17 13 18 14 19 15 20 16 23 17 22 18 21 19 31 21 28 23 5 25
REMARK SMILES IDX 14 26 6 27 12 28 7 29 10 30 15 31 13 33 8 35 9 36 11 38
REMARK H PARENT 21 20 31 22 28 24 15 32 13 34 9 37 11 39
REMARK Flexibility Score: inf
ROOT
ATOM      1  O   UNL     1       0.865 -20.577  26.089  1.00  0.00    -0.454 OA
ENDROOT
BRANCH   1   2
ATOM      2  C   UNL     1       0.067 -19.465  26.386  1.00  0.00     0.214 A 
ATOM      3  C   UNL     1      -0.720 -19.418  27.555  1.00  0.00     0.180 A 
ATOM      4  O   UNL     1      -1.412 -18.319  27.839  1.00  0.00    -0.452 OA
ATOM      5  C   UNL     1       0.059 -18.368  25.517  1.00  0.00     0.239 A 
ATOM      6  C   UNL     1      -1.430 -17.246  27.056  1.00  0.00     0.146 A 
ATOM      7  O   UNL     1       0.741 -18.417  24.457  1.00  0.00    -0.285 OA
ATOM      8  C   UNL     1      -0.695 -17.224  25.845  1.00  0.00     0.111 A 
ATOM      9  C   UNL     1      -2.193 -16.137  27.436  1.00  0.00     0.094 A 
ATOM     10  C   UNL     1      -0.740 -16.067  25.031  1.00  0.00     0.134 A 
ATOM     11  C   UNL     1      -2.235 -14.998  26.627  1.00  0.00     0.123 A 
ATOM     12  C   UNL     1      -1.511 -14.965  25.433  1.00  0.00     0.093 A 
BRANCH   3  13
ATOM     13  C   UNL     1      -0.808 -20.561  28.491  1.00  0.00     0.021 A 
ATOM     14  C   UNL     1       0.094 -20.651  29.562  1.00  0.00     0.016 A 
ATOM     15  C   UNL     1       0.023 -21.721  30.460  1.00  0.00     0.047 A 
ATOM     16  C   UNL     1      -0.958 -22.705  30.304  1.00  0.00     0.115 A 
ATOM     17  C   UNL     1      -1.806 -21.542  28.352  1.00  0.00     0.016 A 
ATOM     18  C   UNL     1      -1.875 -22.611  29.250  1.00  0.00     0.047 A 
BRANCH  16  19
ATOM     19  O   UNL     1      -1.015 -23.768  31.202  1.00  0.00    -0.508 OA
ATOM     20  H   UNL     1      -0.997 -23.617  32.204  1.00  0.00     0.293 HD
ENDBRANCH  16  19
ENDBRANCH   3  13
BRANCH  10  21
ATOM     21  O   UNL     1      -0.027 -16.003  23.831  1.00  0.00    -0.507 OA
ATOM     22  H   UNL     1       0.604 -16.743  23.546  1.00  0.00     0.293 HD
ENDBRANCH  10  21
BRANCH  11  23
ATOM     23  O   UNL     1      -2.995 -13.891  27.001  1.00  0.00    -0.508 OA
ATOM     24  H   UNL     1      -3.781 -13.977  27.633  1.00  0.00     0.293 HD
ENDBRANCH  11  23
ENDBRANCH   1   2
BRANCH   1  25
ATOM     25  C   UNL     1       0.380 -21.660  25.296  1.00  0.00     0.339 C 
ATOM     26  C   UNL     1       1.076 -21.652  23.914  1.00  0.00     0.214 C 
ATOM     27  O   UNL     1       0.502 -22.875  26.028  1.00  0.00    -0.332 OA
ATOM     28  C   UNL     1       2.573 -22.039  24.016  1.00  0.00     0.180 C 
ATOM     29  C   UNL     1       1.679 -23.641  25.780  1.00  0.00     0.179 C 
ATOM     30  C   UNL     1       2.903 -22.811  25.317  1.00  0.00     0.177 C 
BRANCH  26  31
ATOM     31  O   UNL     1       0.377 -22.450  22.987  1.00  0.00    -0.384 OA
ATOM     32  H   UNL     1      -0.304 -21.888  22.539  1.00  0.00     0.211 HD
ENDBRANCH  26  31
BRANCH  28  33
ATOM     33  O   UNL     1       2.997 -22.750  22.876  1.00  0.00    -0.387 OA
ATOM     34  H   UNL     1       2.298 -22.651  22.178  1.00  0.00     0.211 HD
ENDBRANCH  28  33
BRANCH  29  35
ATOM     35  C   UNL     1       1.996 -24.448  27.048  1.00  0.00     0.191 C 
BRANCH  35  36
ATOM     36  O   UNL     1       3.377 -24.687  27.156  1.00  0.00    -0.394 OA
ATOM     37  H   UNL     1       3.817 -23.801  27.241  1.00  0.00     0.210 HD
ENDBRANCH  35  36
ENDBRANCH  29  35
BRANCH  30  38
ATOM     38  O   UNL     1       3.288 -21.920  26.334  1.00  0.00    -0.387 OA
ATOM     39  H   UNL     1       4.269 -21.800  26.256  1.00  0.00     0.211 HD
ENDBRANCH  30  38
ENDBRANCH   1  25
TORSDOF 11
ENDMDL
MODEL 8
REMARK VINA RESULT:    -6.358      1.748      4.867
REMARK INTER + INTRA:         -10.754
REMARK INTER:                  -9.493
REMARK INTRA:                  -1.260
REMARK UNBOUND:                -1.607
REMARK SMILES O=c1c(O[C@@H]2O[C@H](CO)[C@H](O)[C@@H](O)[C@H]2O)c(-c2ccc(O)cc2)oc2cc(O)cc(O)c12
REMARK SMILES IDX 4 1 3 2 16 3 24 4 2 5 25 6 1 7 32 8 26 9 30 10 27 11 29 12
REMARK SMILES IDX 17 13 18 14 19 15 20 16 23 17 22 18 21 19 31 21 28 23 5 25
REMARK SMILES IDX 14 26 6 27 12 28 7 29 10 30 15 31 13 33 8 35 9 36 11 38
REMARK H PARENT 21 20 31 22 28 24 15 32 13 34 9 37 11 39
REMARK Flexibility Score: inf
ROOT
ATOM      1  O   UNL     1      -0.976 -20.541  28.509  1.00  0.00    -0.454 OA
ENDROOT
BRANCH   1   2
ATOM      2  C   UNL     1      -1.020 -19.302  27.859  1.00  0.00     0.214 A 
ATOM      3  C   UNL     1      -0.439 -19.119  26.587  1.00  0.00     0.180 A 
ATOM      4  O   UNL     1      -0.559 -17.947  25.970  1.00  0.00    -0.452 OA
ATOM      5  C   UNL     1      -1.667 -18.223  28.471  1.00  0.00     0.239 A 
ATOM      6  C   UNL     1      -1.184 -16.904  26.503  1.00  0.00     0.146 A 
ATOM      7  O   UNL     1      -2.165 -18.374  29.620  1.00  0.00    -0.285 OA
ATOM      8  C   UNL     1      -1.766 -16.992  27.791  1.00  0.00     0.111 A 
ATOM      9  C   UNL     1      -1.255 -15.709  25.779  1.00  0.00     0.094 A 
ATOM     10  C   UNL     1      -2.420 -15.859  28.333  1.00  0.00     0.134 A 
ATOM     11  C   UNL     1      -1.902 -14.593  26.320  1.00  0.00     0.123 A 
ATOM     12  C   UNL     1      -2.481 -14.672  27.588  1.00  0.00     0.093 A 
BRANCH   3  13
ATOM     13  C   UNL     1       0.312 -20.196  25.903  1.00  0.00     0.021 A 
ATOM     14  C   UNL     1       1.715 -20.192  25.937  1.00  0.00     0.016 A 
ATOM     15  C   UNL     1       2.441 -21.204  25.300  1.00  0.00     0.047 A 
ATOM     16  C   UNL     1       1.774 -22.236  24.634  1.00  0.00     0.115 A 
ATOM     17  C   UNL     1      -0.354 -21.248  25.250  1.00  0.00     0.016 A 
ATOM     18  C   UNL     1       0.373 -22.258  24.613  1.00  0.00     0.047 A 
BRANCH  16  19
ATOM     19  O   UNL     1       2.509 -23.235  24.000  1.00  0.00    -0.508 OA
ATOM     20  H   UNL     1       2.577 -23.281  22.990  1.00  0.00     0.293 HD
ENDBRANCH  16  19
ENDBRANCH   3  13
BRANCH  10  21
ATOM     21  O   UNL     1      -3.010 -15.906  29.598  1.00  0.00    -0.507 OA
ATOM     22  H   UNL     1      -3.214 -15.065  30.123  1.00  0.00     0.293 HD
ENDBRANCH  10  21
BRANCH  11  23
ATOM     23  O   UNL     1      -1.974 -13.401  25.603  1.00  0.00    -0.508 OA
ATOM     24  H   UNL     1      -1.837 -13.375  24.600  1.00  0.00     0.293 HD
ENDBRANCH  11  23
ENDBRANCH   1   2
BRANCH   1  25
ATOM     25  C   UNL     1       0.142 -20.933  29.305  1.00  0.00     0.339 C 
ATOM     26  C   UNL     1      -0.234 -20.870  30.805  1.00  0.00     0.214 C 
ATOM     27  O   UNL     1       0.625 -22.195  28.855  1.00  0.00    -0.332 OA
ATOM     28  C   UNL     1      -1.247 -21.975  31.197  1.00  0.00     0.180 C 
ATOM     29  C   UNL     1       0.136 -23.339  29.552  1.00  0.00     0.179 C 
ATOM     30  C   UNL     1      -1.264 -23.153  30.192  1.00  0.00     0.177 C 
BRANCH  26  31
ATOM     31  O   UNL     1       0.916 -20.882  31.619  1.00  0.00    -0.384 OA
ATOM     32  H   UNL     1       0.785 -21.550  32.338  1.00  0.00     0.211 HD
ENDBRANCH  26  31
BRANCH  28  33
ATOM     33  O   UNL     1      -1.030 -22.425  32.514  1.00  0.00    -0.387 OA
ATOM     34  H   UNL     1      -0.665 -23.347  32.465  1.00  0.00     0.211 HD
ENDBRANCH  28  33
BRANCH  29  35
ATOM     35  C   UNL     1       0.154 -24.529  28.581  1.00  0.00     0.191 C 
BRANCH  35  36
ATOM     36  O   UNL     1       0.928 -24.237  27.446  1.00  0.00    -0.394 OA
ATOM     37  H   UNL     1       0.570 -23.395  27.061  1.00  0.00     0.210 HD
ENDBRANCH  35  36
ENDBRANCH  29  35
BRANCH  30  38
ATOM     38  O   UNL     1      -2.222 -22.933  29.189  1.00  0.00    -0.387 OA
ATOM     39  H   UNL     1      -1.837 -22.267  28.563  1.00  0.00     0.211 HD
ENDBRANCH  30  38
ENDBRANCH   1  25
TORSDOF 11
ENDMDL
MODEL 9
REMARK VINA RESULT:    -6.268      5.290      9.911
REMARK INTER + INTRA:         -10.624
REMARK INTER:                  -8.872
REMARK INTRA:                  -1.752
REMARK UNBOUND:                -1.607
REMARK SMILES O=c1c(O[C@@H]2O[C@H](CO)[C@H](O)[C@@H](O)[C@H]2O)c(-c2ccc(O)cc2)oc2cc(O)cc(O)c12
REMARK SMILES IDX 4 1 3 2 16 3 24 4 2 5 25 6 1 7 32 8 26 9 30 10 27 11 29 12
REMARK SMILES IDX 17 13 18 14 19 15 20 16 23 17 22 18 21 19 31 21 28 23 5 25
REMARK SMILES IDX 14 26 6 27 12 28 7 29 10 30 15 31 13 33 8 35 9 36 11 38
REMARK H PARENT 21 20 31 22 28 24 15 32 13 34 9 37 11 39
REMARK Flexibility Score: inf
ROOT
ATOM      1  O   UNL     1      -2.068 -12.317  29.134  1.00  0.00    -0.454 OA
ENDROOT
BRANCH   1   2
ATOM      2  C   UNL     1      -3.305 -12.916  29.400  1.00  0.00     0.214 A 
ATOM      3  C   UNL     1      -3.696 -14.109  28.758  1.00  0.00     0.180 A 
ATOM      4  O   UNL     1      -4.849 -14.686  29.086  1.00  0.00    -0.452 OA
ATOM      5  C   UNL     1      -4.169 -12.332  30.333  1.00  0.00     0.239 A 
ATOM      6  C   UNL     1      -5.688 -14.180  29.983  1.00  0.00     0.146 A 
ATOM      7  O   UNL     1      -3.835 -11.250  30.889  1.00  0.00    -0.285 OA
ATOM      8  C   UNL     1      -5.388 -12.966  30.648  1.00  0.00     0.111 A 
ATOM      9  C   UNL     1      -6.881 -14.856  30.258  1.00  0.00     0.094 A 
ATOM     10  C   UNL     1      -6.306 -12.451  31.594  1.00  0.00     0.134 A 
ATOM     11  C   UNL     1      -7.785 -14.342  31.192  1.00  0.00     0.123 A 
ATOM     12  C   UNL     1      -7.496 -13.148  31.856  1.00  0.00     0.093 A 
BRANCH   3  13
ATOM     13  C   UNL     1      -2.863 -14.753  27.719  1.00  0.00     0.021 A 
ATOM     14  C   UNL     1      -2.274 -16.000  27.977  1.00  0.00     0.016 A 
ATOM     15  C   UNL     1      -1.487 -16.626  27.004  1.00  0.00     0.047 A 
ATOM     16  C   UNL     1      -1.292 -16.020  25.760  1.00  0.00     0.115 A 
ATOM     17  C   UNL     1      -2.681 -14.158  26.458  1.00  0.00     0.016 A 
ATOM     18  C   UNL     1      -1.894 -14.785  25.487  1.00  0.00     0.047 A 
BRANCH  16  19
ATOM     19  O   UNL     1      -0.502 -16.652  24.803  1.00  0.00    -0.508 OA
ATOM     20  H   UNL     1       0.492 -16.787  24.942  1.00  0.00     0.293 HD
ENDBRANCH  16  19
ENDBRANCH   3  13
BRANCH  10  21
ATOM     21  O   UNL     1      -6.046 -11.259  32.275  1.00  0.00    -0.507 OA
ATOM     22  H   UNL     1      -6.509 -10.393  32.029  1.00  0.00     0.293 HD
ENDBRANCH  10  21
BRANCH  11  23
ATOM     23  O   UNL     1      -8.975 -15.012  31.468  1.00  0.00    -0.508 OA
ATOM     24  H   UNL     1      -9.572 -14.739  32.239  1.00  0.00     0.293 HD
ENDBRANCH  11  23
ENDBRANCH   1   2
BRANCH   1  25
ATOM     25  C   UNL     1      -0.835 -12.966  29.445  1.00  0.00     0.339 C 
ATOM     26  C   UNL     1       0.340 -12.204  28.788  1.00  0.00     0.214 C 
ATOM     27  O   UNL     1      -0.732 -13.136  30.855  1.00  0.00    -0.332 OA
ATOM     28  C   UNL     1       0.583 -10.826  29.452  1.00  0.00     0.180 C 
ATOM     29  C   UNL     1      -0.009 -12.128  31.557  1.00  0.00     0.179 C 
ATOM     30  C   UNL     1      -0.018 -10.736  30.877  1.00  0.00     0.177 C 
BRANCH  26  31
ATOM     31  O   UNL     1       1.504 -12.997  28.752  1.00  0.00    -0.384 OA
ATOM     32  H   UNL     1       1.620 -13.344  27.833  1.00  0.00     0.211 HD
ENDBRANCH  26  31
BRANCH  28  33
ATOM     33  O   UNL     1       1.952 -10.491  29.450  1.00  0.00    -0.387 OA
ATOM     34  H   UNL     1       2.292 -10.591  30.377  1.00  0.00     0.211 HD
ENDBRANCH  28  33
BRANCH  29  35
ATOM     35  C   UNL     1      -0.564 -12.056  32.988  1.00  0.00     0.191 C 
BRANCH  35  36
ATOM     36  O   UNL     1      -1.960 -12.208  32.991  1.00  0.00    -0.394 OA
ATOM     37  H   UNL     1      -2.295 -11.822  32.139  1.00  0.00     0.210 HD
ENDBRANCH  35  36
ENDBRANCH  29  35
BRANCH  30  38
ATOM     38  O   UNL     1      -1.331 -10.237  30.827  1.00  0.00    -0.387 OA
ATOM     39  H   UNL     1      -1.720 -10.359  31.730  1.00  0.00     0.211 HD
ENDBRANCH  30  38
ENDBRANCH   1  25
TORSDOF 11
ENDMDL
