MODEL 1
REMARK VINA RESULT:    -5.104      0.000      0.000
REMARK INTER + INTRA:          -6.207
REMARK INTER:                  -6.149
REMARK INTRA:                  -0.059
REMARK UNBOUND:                -0.059
REMARK SMILES CC[C@@H](C)[C@@H]([NH3+])C(=O)[O-]
REMARK SMILES IDX 3 1 4 2 5 3 6 4 7 8 8 9 9 10 2 11 1 12
REMARK H PARENT 6 5 6 6 6 7
REMARK Flexibility Score: inf
ROOT
ATOM      1  C   UNL     1      21.809 -68.917  -0.310  1.00  0.00     0.050 C 
ATOM      2  C   UNL     1      23.065 -68.070  -0.597  1.00  0.00     0.014 C 
ENDROOT
BRANCH   1   3
ATOM      3  C   UNL     1      21.961 -69.684   1.044  1.00  0.00     0.230 C 
BRANCH   3   4
ATOM      4  N   UNL     1      21.281 -68.995   2.151  1.00  0.00    -0.350 N 
ATOM      5  H   UNL     1      20.843 -69.687   2.802  1.00  0.00     0.345 HD
ATOM      6  H   UNL     1      20.552 -68.344   1.782  1.00  0.00     0.345 HD
ATOM      7  H   UNL     1      21.968 -68.415   2.686  1.00  0.00     0.345 HD
ENDBRANCH   3   4
BRANCH   3   8
ATOM      8  C   UNL     1      21.429 -71.093   0.935  1.00  0.00     0.099 C 
ATOM      9  O   UNL     1      21.654 -71.932   1.847  1.00  0.00    -0.544 OA
ATOM     10  O   UNL     1      20.681 -71.469  -0.173  1.00  0.00    -0.544 OA
ENDBRANCH   3   8
ENDBRANCH   1   3
BRANCH   1  11
ATOM     11  C   UNL     1      20.554 -67.995  -0.332  1.00  0.00     0.006 C 
ATOM     12  C   UNL     1      20.350 -67.309  -1.684  1.00  0.00     0.004 C 
ENDBRANCH   1  11
TORSDOF 4
ENDMDL
MODEL 2
REMARK VINA RESULT:    -5.049      3.179      4.099
REMARK INTER + INTRA:          -6.140
REMARK INTER:                  -6.102
REMARK INTRA:                  -0.039
REMARK UNBOUND:                -0.059
REMARK SMILES CC[C@@H](C)[C@@H]([NH3+])C(=O)[O-]
REMARK SMILES IDX 3 1 4 2 5 3 6 4 7 8 8 9 9 10 2 11 1 12
REMARK H PARENT 6 5 6 6 6 7
REMARK Flexibility Score: inf
ROOT
ATOM      1  C   UNL     1      21.115 -69.428  -0.738  1.00  0.00     0.050 C 
ATOM      2  C   UNL     1      20.855 -70.800  -0.083  1.00  0.00     0.014 C 
ENDROOT
BRANCH   1   3
ATOM      3  C   UNL     1      19.813 -68.887  -1.415  1.00  0.00     0.230 C 
BRANCH   3   4
ATOM      4  N   UNL     1      18.599 -69.346  -0.725  1.00  0.00    -0.350 N 
ATOM      5  H   UNL     1      18.382 -68.727   0.091  1.00  0.00     0.345 HD
ATOM      6  H   UNL     1      18.714 -70.332  -0.401  1.00  0.00     0.345 HD
ATOM      7  H   UNL     1      17.787 -69.332  -1.384  1.00  0.00     0.345 HD
ENDBRANCH   3   4
BRANCH   3   8
ATOM      8  C   UNL     1      19.813 -67.378  -1.467  1.00  0.00     0.099 C 
ATOM      9  O   UNL     1      20.499 -66.769  -2.331  1.00  0.00    -0.544 OA
ATOM     10  O   UNL     1      19.050 -66.651  -0.562  1.00  0.00    -0.544 OA
ENDBRANCH   3   8
ENDBRANCH   1   3
BRANCH   1  11
ATOM     11  C   UNL     1      21.680 -68.447   0.332  1.00  0.00     0.006 C 
ATOM     12  C   UNL     1      21.325 -68.865   1.760  1.00  0.00     0.004 C 
ENDBRANCH   1  11
TORSDOF 4
ENDMDL
MODEL 3
REMARK VINA RESULT:    -5.019      1.741      2.434
REMARK INTER + INTRA:          -6.104
REMARK INTER:                  -6.002
REMARK INTRA:                  -0.102
REMARK UNBOUND:                -0.059
REMARK SMILES CC[C@@H](C)[C@@H]([NH3+])C(=O)[O-]
REMARK SMILES IDX 3 1 4 2 5 3 6 4 7 8 8 9 9 10 2 11 1 12
REMARK H PARENT 6 5 6 6 6 7
REMARK Flexibility Score: inf
ROOT
ATOM      1  C   UNL     1      20.182 -68.136  -0.568  1.00  0.00     0.050 C 
ATOM      2  C   UNL     1      18.986 -69.088  -0.772  1.00  0.00     0.014 C 
ENDROOT
BRANCH   1   3
ATOM      3  C   UNL     1      21.480 -68.946  -0.245  1.00  0.00     0.230 C 
BRANCH   3   4
ATOM      4  N   UNL     1      22.690 -68.116  -0.345  1.00  0.00    -0.350 N 
ATOM      5  H   UNL     1      23.019 -68.061  -1.337  1.00  0.00     0.345 HD
ATOM      6  H   UNL     1      23.449 -68.503   0.259  1.00  0.00     0.345 HD
ATOM      7  H   UNL     1      22.489 -67.148  -0.003  1.00  0.00     0.345 HD
ENDBRANCH   3   4
BRANCH   3   8
ATOM      8  C   UNL     1      21.412 -69.558   1.133  1.00  0.00     0.099 C 
ATOM      9  O   UNL     1      21.236 -68.831   2.147  1.00  0.00    -0.544 OA
ATOM     10  O   UNL     1      21.539 -70.932   1.290  1.00  0.00    -0.544 OA
ENDBRANCH   3   8
ENDBRANCH   1   3
BRANCH   1  11
ATOM     11  C   UNL     1      20.342 -67.236  -1.829  1.00  0.00     0.006 C 
ATOM     12  C   UNL     1      19.415 -66.019  -1.806  1.00  0.00     0.004 C 
ENDBRANCH   1  11
TORSDOF 4
ENDMDL
MODEL 4
REMARK VINA RESULT:    -5.016      3.173      4.176
REMARK INTER + INTRA:          -6.101
REMARK INTER:                  -6.015
REMARK INTRA:                  -0.086
REMARK UNBOUND:                -0.059
REMARK SMILES CC[C@@H](C)[C@@H]([NH3+])C(=O)[O-]
REMARK SMILES IDX 3 1 4 2 5 3 6 4 7 8 8 9 9 10 2 11 1 12
REMARK H PARENT 6 5 6 6 6 7
REMARK Flexibility Score: inf
ROOT
ATOM      1  C   UNL     1      20.676 -69.271  -0.032  1.00  0.00     0.050 C 
ATOM      2  C   UNL     1      22.064 -68.614  -0.166  1.00  0.00     0.014 C 
ENDROOT
BRANCH   1   3
ATOM      3  C   UNL     1      19.739 -68.821  -1.200  1.00  0.00     0.230 C 
BRANCH   3   4
ATOM      4  N   UNL     1      18.401 -69.420  -1.099  1.00  0.00    -0.350 N 
ATOM      5  H   UNL     1      18.099 -69.483  -0.099  1.00  0.00     0.345 HD
ATOM      6  H   UNL     1      18.392 -70.370  -1.533  1.00  0.00     0.345 HD
ATOM      7  H   UNL     1      17.708 -68.838  -1.624  1.00  0.00     0.345 HD
ENDBRANCH   3   4
BRANCH   3   8
ATOM      8  C   UNL     1      19.607 -67.318  -1.245  1.00  0.00     0.099 C 
ATOM      9  O   UNL     1      19.009 -66.702  -0.323  1.00  0.00    -0.544 OA
ATOM     10  O   UNL     1      20.151 -66.604  -2.306  1.00  0.00    -0.544 OA
ENDBRANCH   3   8
ENDBRANCH   1   3
BRANCH   1  11
ATOM     11  C   UNL     1      20.844 -70.818   0.032  1.00  0.00     0.006 C 
ATOM     12  C   UNL     1      21.564 -71.280   1.301  1.00  0.00     0.004 C 
ENDBRANCH   1  11
TORSDOF 4
ENDMDL
MODEL 5
REMARK VINA RESULT:    -4.949      1.531      2.065
REMARK INTER + INTRA:          -6.020
REMARK INTER:                  -5.965
REMARK INTRA:                  -0.055
REMARK UNBOUND:                -0.059
REMARK SMILES CC[C@@H](C)[C@@H]([NH3+])C(=O)[O-]
REMARK SMILES IDX 3 1 4 2 5 3 6 4 7 8 8 9 9 10 2 11 1 12
REMARK H PARENT 6 5 6 6 6 7
REMARK Flexibility Score: inf
ROOT
ATOM      1  C   UNL     1      20.186 -68.599  -1.346  1.00  0.00     0.050 C 
ATOM      2  C   UNL     1      20.413 -67.193  -1.937  1.00  0.00     0.014 C 
ENDROOT
BRANCH   1   3
ATOM      3  C   UNL     1      21.510 -69.157  -0.729  1.00  0.00     0.230 C 
BRANCH   3   4
ATOM      4  N   UNL     1      22.335 -68.094  -0.137  1.00  0.00    -0.350 N 
ATOM      5  H   UNL     1      23.350 -68.268  -0.323  1.00  0.00     0.345 HD
ATOM      6  H   UNL     1      22.169 -68.033   0.893  1.00  0.00     0.345 HD
ATOM      7  H   UNL     1      22.071 -67.167  -0.545  1.00  0.00     0.345 HD
ENDBRANCH   3   4
BRANCH   3   8
ATOM      8  C   UNL     1      21.223 -70.204   0.321  1.00  0.00     0.099 C 
ATOM      9  O   UNL     1      21.390 -69.945   1.542  1.00  0.00    -0.544 OA
ATOM     10  O   UNL     1      20.768 -71.460  -0.058  1.00  0.00    -0.544 OA
ENDBRANCH   3   8
ENDBRANCH   1   3
BRANCH   1  11
ATOM     11  C   UNL     1      19.026 -68.538  -0.309  1.00  0.00     0.006 C 
ATOM     12  C   UNL     1      18.848 -67.144   0.295  1.00  0.00     0.004 C 
ENDBRANCH   1  11
TORSDOF 4
ENDMDL
MODEL 6
REMARK VINA RESULT:    -4.855      2.219      2.814
REMARK INTER + INTRA:          -5.907
REMARK INTER:                  -5.829
REMARK INTRA:                  -0.078
REMARK UNBOUND:                -0.059
REMARK SMILES CC[C@@H](C)[C@@H]([NH3+])C(=O)[O-]
REMARK SMILES IDX 3 1 4 2 5 3 6 4 7 8 8 9 9 10 2 11 1 12
REMARK H PARENT 6 5 6 6 6 7
REMARK Flexibility Score: inf
ROOT
ATOM      1  C   UNL     1      20.054 -67.632  -0.165  1.00  0.00     0.050 C 
ATOM      2  C   UNL     1      18.656 -67.373   0.433  1.00  0.00     0.014 C 
ENDROOT
BRANCH   1   3
ATOM      3  C   UNL     1      20.705 -68.896   0.486  1.00  0.00     0.230 C 
BRANCH   3   4
ATOM      4  N   UNL     1      20.414 -70.121  -0.273  1.00  0.00    -0.350 N 
ATOM      5  H   UNL     1      21.221 -70.785  -0.225  1.00  0.00     0.345 HD
ATOM      6  H   UNL     1      20.204 -69.891  -1.270  1.00  0.00     0.345 HD
ATOM      7  H   UNL     1      19.566 -70.592   0.118  1.00  0.00     0.345 HD
ENDBRANCH   3   4
BRANCH   3   8
ATOM      8  C   UNL     1      22.200 -68.735   0.614  1.00  0.00     0.099 C 
ATOM      9  O   UNL     1      22.731 -68.573   1.745  1.00  0.00    -0.544 OA
ATOM     10  O   UNL     1      23.002 -68.769  -0.521  1.00  0.00    -0.544 OA
ENDBRANCH   3   8
ENDBRANCH   1   3
BRANCH   1  11
ATOM     11  C   UNL     1      19.935 -67.755  -1.713  1.00  0.00     0.006 C 
ATOM     12  C   UNL     1      20.386 -66.487  -2.441  1.00  0.00     0.004 C 
ENDBRANCH   1  11
TORSDOF 4
ENDMDL
MODEL 7
REMARK VINA RESULT:    -4.731      1.948      2.700
REMARK INTER + INTRA:          -5.758
REMARK INTER:                  -5.663
REMARK INTRA:                  -0.095
REMARK UNBOUND:                -0.059
REMARK SMILES CC[C@@H](C)[C@@H]([NH3+])C(=O)[O-]
REMARK SMILES IDX 3 1 4 2 5 3 6 4 7 8 8 9 9 10 2 11 1 12
REMARK H PARENT 6 5 6 6 6 7
REMARK Flexibility Score: inf
ROOT
ATOM      1  C   UNL     1      20.128 -68.066  -1.362  1.00  0.00     0.050 C 
ATOM      2  C   UNL     1      20.243 -66.757  -2.170  1.00  0.00     0.014 C 
ENDROOT
BRANCH   1   3
ATOM      3  C   UNL     1      20.956 -67.969  -0.038  1.00  0.00     0.230 C 
BRANCH   3   4
ATOM      4  N   UNL     1      20.097 -67.980   1.154  1.00  0.00    -0.350 N 
ATOM      5  H   UNL     1      20.674 -68.034   2.025  1.00  0.00     0.345 HD
ATOM      6  H   UNL     1      19.433 -68.786   1.119  1.00  0.00     0.345 HD
ATOM      7  H   UNL     1      19.519 -67.108   1.186  1.00  0.00     0.345 HD
ENDBRANCH   3   4
BRANCH   3   8
ATOM      8  C   UNL     1      21.956 -69.095   0.062  1.00  0.00     0.099 C 
ATOM      9  O   UNL     1      23.050 -69.035  -0.561  1.00  0.00    -0.544 OA
ATOM     10  O   UNL     1      21.676 -70.206   0.848  1.00  0.00    -0.544 OA
ENDBRANCH   3   8
ENDBRANCH   1   3
BRANCH   1  11
ATOM     11  C   UNL     1      18.624 -68.375  -1.100  1.00  0.00     0.006 C 
ATOM     12  C   UNL     1      18.310 -69.871  -1.166  1.00  0.00     0.004 C 
ENDBRANCH   1  11
TORSDOF 4
ENDMDL
MODEL 8
REMARK VINA RESULT:    -4.720      2.611      3.952
REMARK INTER + INTRA:          -5.745
REMARK INTER:                  -5.682
REMARK INTRA:                  -0.063
REMARK UNBOUND:                -0.059
REMARK SMILES CC[C@@H](C)[C@@H]([NH3+])C(=O)[O-]
REMARK SMILES IDX 3 1 4 2 5 3 6 4 7 8 8 9 9 10 2 11 1 12
REMARK H PARENT 6 5 6 6 6 7
REMARK Flexibility Score: inf
ROOT
ATOM      1  C   UNL     1      20.766 -69.103   0.703  1.00  0.00     0.050 C 
ATOM      2  C   UNL     1      21.239 -68.818   2.143  1.00  0.00     0.014 C 
ENDROOT
BRANCH   1   3
ATOM      3  C   UNL     1      21.277 -67.993  -0.273  1.00  0.00     0.230 C 
BRANCH   3   4
ATOM      4  N   UNL     1      22.571 -68.341  -0.878  1.00  0.00    -0.350 N 
ATOM      5  H   UNL     1      23.355 -67.875  -0.366  1.00  0.00     0.345 HD
ATOM      6  H   UNL     1      22.590 -68.063  -1.884  1.00  0.00     0.345 HD
ATOM      7  H   UNL     1      22.714 -69.377  -0.843  1.00  0.00     0.345 HD
ENDBRANCH   3   4
BRANCH   3   8
ATOM      8  C   UNL     1      20.274 -67.726  -1.368  1.00  0.00     0.099 C 
ATOM      9  O   UNL     1      20.506 -66.856  -2.249  1.00  0.00    -0.544 OA
ATOM     10  O   UNL     1      19.086 -68.445  -1.413  1.00  0.00    -0.544 OA
ENDBRANCH   3   8
ENDBRANCH   1   3
BRANCH   1  11
ATOM     11  C   UNL     1      21.234 -70.527   0.282  1.00  0.00     0.006 C 
ATOM     12  C   UNL     1      21.593 -71.408   1.480  1.00  0.00     0.004 C 
ENDBRANCH   1  11
TORSDOF 4
ENDMDL
MODEL 9
REMARK VINA RESULT:    -4.671      2.853      3.771
REMARK INTER + INTRA:          -5.686
REMARK INTER:                  -5.758
REMARK INTRA:                   0.072
REMARK UNBOUND:                -0.059
REMARK SMILES CC[C@@H](C)[C@@H]([NH3+])C(=O)[O-]
REMARK SMILES IDX 3 1 4 2 5 3 6 4 7 8 8 9 9 10 2 11 1 12
REMARK H PARENT 6 5 6 6 6 7
REMARK Flexibility Score: inf
ROOT
ATOM      1  C   UNL     1      21.250 -68.930  -0.798  1.00  0.00     0.050 C 
ATOM      2  C   UNL     1      20.764 -70.050   0.145  1.00  0.00     0.014 C 
ENDROOT
BRANCH   1   3
ATOM      3  C   UNL     1      20.193 -67.779  -0.874  1.00  0.00     0.230 C 
BRANCH   3   4
ATOM      4  N   UNL     1      20.428 -66.887  -2.018  1.00  0.00    -0.350 N 
ATOM      5  H   UNL     1      19.827 -67.160  -2.829  1.00  0.00     0.345 HD
ATOM      6  H   UNL     1      21.434 -66.911  -2.299  1.00  0.00     0.345 HD
ATOM      7  H   UNL     1      20.208 -65.899  -1.752  1.00  0.00     0.345 HD
ENDBRANCH   3   4
BRANCH   3   8
ATOM      8  C   UNL     1      18.791 -68.332  -0.957  1.00  0.00     0.099 C 
ATOM      9  O   UNL     1      17.898 -67.927  -0.166  1.00  0.00    -0.544 OA
ATOM     10  O   UNL     1      18.477 -69.290  -1.913  1.00  0.00    -0.544 OA
ENDBRANCH   3   8
ENDBRANCH   1   3
BRANCH   1  11
ATOM     11  C   UNL     1      22.643 -68.425  -0.319  1.00  0.00     0.006 C 
ATOM     12  C   UNL     1      22.747 -68.339   1.205  1.00  0.00     0.004 C 
ENDBRANCH   1  11
TORSDOF 4
ENDMDL
