MODEL 1
REMARK VINA RESULT:    -6.597      0.000      0.000
REMARK INTER + INTRA:         -10.524
REMARK INTER:                  -9.296
REMARK INTRA:                  -1.228
REMARK UNBOUND:                -1.228
REMARK SMILES OCC1=C[C@@H](O)[C@H]2C=CO[C@H](O[C@@H]3O[C@@H](CO)[C@@H](O)[C@H](O)[C@@H]3O)[C@@H]12
REMARK SMILES IDX 12 1 11 2 8 3 9 4 7 5 10 6 24 7 5 8 3 9 4 10 6 11 2 13 1 14
REMARK SMILES IDX 13 16 22 17 14 18 20 19 15 20 18 21 23 22 21 24 16 26 17 27
REMARK SMILES IDX 19 29
REMARK H PARENT 6 12 1 15 23 23 21 25 17 28 19 30
REMARK Flexibility Score: inf
ROOT
ATOM      1  O   UNL     1      25.731   6.638  21.332  1.00  0.00    -0.310 OA
ENDROOT
BRANCH   1   2
ATOM      2  C   UNL     1      25.438   5.973  22.553  1.00  0.00     0.316 C 
ATOM      3  C   UNL     1      28.093   6.231  23.546  1.00  0.00     0.018 C 
ATOM      4  C   UNL     1      27.689   5.090  22.988  1.00  0.00     0.186 C 
ATOM      5  C   UNL     1      27.116   7.283  24.037  1.00  0.00     0.061 C 
ATOM      6  O   UNL     1      26.341   4.882  22.698  1.00  0.00    -0.472 OA
ATOM      7  C   UNL     1      25.625   6.966  23.723  1.00  0.00     0.096 C 
ATOM      8  C   UNL     1      27.148   7.421  25.580  1.00  0.00     0.145 C 
ATOM      9  C   UNL     1      25.080   6.476  25.032  1.00  0.00    -0.036 C 
ATOM     10  C   UNL     1      25.907   6.731  26.037  1.00  0.00     0.007 C 
BRANCH   8  11
ATOM     11  O   UNL     1      28.304   6.889  26.184  1.00  0.00    -0.388 OA
ATOM     12  H   UNL     1      28.644   6.146  25.614  1.00  0.00     0.211 HD
ENDBRANCH   8  11
BRANCH   9  13
ATOM     13  C   UNL     1      23.670   5.994  25.261  1.00  0.00     0.187 C 
BRANCH  13  14
ATOM     14  O   UNL     1      22.779   6.642  24.390  1.00  0.00    -0.392 OA
ATOM     15  H   UNL     1      22.579   5.997  23.650  1.00  0.00     0.211 HD
ENDBRANCH  13  14
ENDBRANCH   9  13
ENDBRANCH   1   2
BRANCH   1  16
ATOM     16  C   UNL     1      24.626   7.346  20.784  1.00  0.00     0.286 C 
ATOM     17  C   UNL     1      24.722   7.381  19.235  1.00  0.00     0.202 C 
ATOM     18  O   UNL     1      23.375   6.900  21.321  1.00  0.00    -0.341 OA
ATOM     19  C   UNL     1      23.589   8.277  18.661  1.00  0.00     0.179 C 
ATOM     20  C   UNL     1      22.284   6.982  20.410  1.00  0.00     0.178 C 
ATOM     21  C   UNL     1      22.319   8.274  19.554  1.00  0.00     0.177 C 
BRANCH  17  22
ATOM     22  O   UNL     1      24.658   6.074  18.724  1.00  0.00    -0.385 OA
ATOM     23  H   UNL     1      24.380   6.144  17.776  1.00  0.00     0.211 HD
ENDBRANCH  17  22
BRANCH  19  24
ATOM     24  O   UNL     1      23.276   7.931  17.333  1.00  0.00    -0.387 OA
ATOM     25  H   UNL     1      23.126   6.948  17.303  1.00  0.00     0.211 HD
ENDBRANCH  19  24
BRANCH  20  26
ATOM     26  C   UNL     1      20.964   6.878  21.190  1.00  0.00     0.191 C 
BRANCH  26  27
ATOM     27  O   UNL     1      21.020   7.639  22.373  1.00  0.00    -0.394 OA
ATOM     28  H   UNL     1      21.528   8.463  22.152  1.00  0.00     0.210 HD
ENDBRANCH  26  27
ENDBRANCH  20  26
BRANCH  21  29
ATOM     29  O   UNL     1      22.341   9.405  20.393  1.00  0.00    -0.387 OA
ATOM     30  H   UNL     1      23.267   9.769  20.368  1.00  0.00     0.211 HD
ENDBRANCH  21  29
ENDBRANCH   1  16
TORSDOF 10
ENDMDL
MODEL 2
REMARK VINA RESULT:    -6.568      1.596      2.160
REMARK INTER + INTRA:         -10.483
REMARK INTER:                  -9.891
REMARK INTRA:                  -0.592
REMARK UNBOUND:                -1.228
REMARK SMILES OCC1=C[C@@H](O)[C@H]2C=CO[C@H](O[C@@H]3O[C@@H](CO)[C@@H](O)[C@H](O)[C@@H]3O)[C@@H]12
REMARK SMILES IDX 12 1 11 2 8 3 9 4 7 5 10 6 24 7 5 8 3 9 4 10 6 11 2 13 1 14
REMARK SMILES IDX 13 16 22 17 14 18 20 19 15 20 18 21 23 22 21 24 16 26 17 27
REMARK SMILES IDX 19 29
REMARK H PARENT 6 12 1 15 23 23 21 25 17 28 19 30
REMARK Flexibility Score: inf
ROOT
ATOM      1  O   UNL     1      25.951   6.150  21.054  1.00  0.00    -0.310 OA
ENDROOT
BRANCH   1   2
ATOM      2  C   UNL     1      25.548   5.615  22.307  1.00  0.00     0.316 C 
ATOM      3  C   UNL     1      28.110   5.974  23.494  1.00  0.00     0.018 C 
ATOM      4  C   UNL     1      27.745   4.781  23.023  1.00  0.00     0.186 C 
ATOM      5  C   UNL     1      27.104   7.071  23.789  1.00  0.00     0.061 C 
ATOM      6  O   UNL     1      26.425   4.544  22.641  1.00  0.00    -0.472 OA
ATOM      7  C   UNL     1      25.643   6.723  23.381  1.00  0.00     0.096 C 
ATOM      8  C   UNL     1      27.004   7.368  25.306  1.00  0.00     0.145 C 
ATOM      9  C   UNL     1      24.982   6.371  24.681  1.00  0.00    -0.036 C 
ATOM     10  C   UNL     1      25.722   6.728  25.722  1.00  0.00     0.007 C 
BRANCH   8  11
ATOM     11  O   UNL     1      28.099   6.901  26.059  1.00  0.00    -0.388 OA
ATOM     12  H   UNL     1      28.936   7.256  25.652  1.00  0.00     0.211 HD
ENDBRANCH   8  11
BRANCH   9  13
ATOM     13  C   UNL     1      23.553   5.915  24.835  1.00  0.00     0.187 C 
BRANCH  13  14
ATOM     14  O   UNL     1      22.693   6.721  24.072  1.00  0.00    -0.392 OA
ATOM     15  H   UNL     1      21.831   6.220  23.985  1.00  0.00     0.211 HD
ENDBRANCH  13  14
ENDBRANCH   9  13
ENDBRANCH   1   2
BRANCH   1  16
ATOM     16  C   UNL     1      24.884   6.304  20.125  1.00  0.00     0.286 C 
ATOM     17  C   UNL     1      25.362   7.102  18.883  1.00  0.00     0.202 C 
ATOM     18  O   UNL     1      24.218   5.065  19.853  1.00  0.00    -0.341 OA
ATOM     19  C   UNL     1      24.155   7.384  17.947  1.00  0.00     0.179 C 
ATOM     20  C   UNL     1      23.700   4.958  18.532  1.00  0.00     0.178 C 
ATOM     21  C   UNL     1      23.066   6.280  18.031  1.00  0.00     0.177 C 
BRANCH  17  22
ATOM     22  O   UNL     1      26.376   6.389  18.220  1.00  0.00    -0.385 OA
ATOM     23  H   UNL     1      25.957   5.581  17.830  1.00  0.00     0.211 HD
ENDBRANCH  17  22
BRANCH  19  24
ATOM     24  O   UNL     1      24.565   7.591  16.617  1.00  0.00    -0.387 OA
ATOM     25  H   UNL     1      24.791   8.554  16.514  1.00  0.00     0.211 HD
ENDBRANCH  19  24
BRANCH  20  26
ATOM     26  C   UNL     1      22.682   3.808  18.479  1.00  0.00     0.191 C 
BRANCH  26  27
ATOM     27  O   UNL     1      23.310   2.599  18.125  1.00  0.00    -0.394 OA
ATOM     28  H   UNL     1      24.009   2.831  17.460  1.00  0.00     0.210 HD
ENDBRANCH  26  27
ENDBRANCH  20  26
BRANCH  21  29
ATOM     29  O   UNL     1      22.055   6.695  18.919  1.00  0.00    -0.387 OA
ATOM     30  H   UNL     1      21.786   7.614  18.648  1.00  0.00     0.211 HD
ENDBRANCH  21  29
ENDBRANCH   1  16
TORSDOF 10
ENDMDL
MODEL 3
REMARK VINA RESULT:    -6.543      2.893      5.052
REMARK INTER + INTRA:         -10.448
REMARK INTER:                  -9.550
REMARK INTRA:                  -0.898
REMARK UNBOUND:                -1.228
REMARK SMILES OCC1=C[C@@H](O)[C@H]2C=CO[C@H](O[C@@H]3O[C@@H](CO)[C@@H](O)[C@H](O)[C@@H]3O)[C@@H]12
REMARK SMILES IDX 12 1 11 2 8 3 9 4 7 5 10 6 24 7 5 8 3 9 4 10 6 11 2 13 1 14
REMARK SMILES IDX 13 16 22 17 14 18 20 19 15 20 18 21 23 22 21 24 16 26 17 27
REMARK SMILES IDX 19 29
REMARK H PARENT 6 12 1 15 23 23 21 25 17 28 19 30
REMARK Flexibility Score: inf
ROOT
ATOM      1  O   UNL     1      23.275   6.730  20.804  1.00  0.00    -0.310 OA
ENDROOT
BRANCH   1   2
ATOM      2  C   UNL     1      24.514   7.194  20.287  1.00  0.00     0.316 C 
ATOM      3  C   UNL     1      25.245   8.507  22.705  1.00  0.00     0.018 C 
ATOM      4  C   UNL     1      24.721   9.198  21.692  1.00  0.00     0.186 C 
ATOM      5  C   UNL     1      25.837   7.122  22.519  1.00  0.00     0.061 C 
ATOM      6  O   UNL     1      24.563   8.609  20.439  1.00  0.00    -0.472 OA
ATOM      7  C   UNL     1      25.667   6.542  21.085  1.00  0.00     0.096 C 
ATOM      8  C   UNL     1      27.370   7.117  22.741  1.00  0.00     0.145 C 
ATOM      9  C   UNL     1      27.020   6.727  20.462  1.00  0.00    -0.036 C 
ATOM     10  C   UNL     1      27.941   7.032  21.366  1.00  0.00     0.007 C 
BRANCH   8  11
ATOM     11  O   UNL     1      27.854   8.235  23.449  1.00  0.00    -0.388 OA
ATOM     12  H   UNL     1      27.741   8.064  24.424  1.00  0.00     0.211 HD
ENDBRANCH   8  11
BRANCH   9  13
ATOM     13  C   UNL     1      27.382   6.361  19.044  1.00  0.00     0.187 C 
BRANCH  13  14
ATOM     14  O   UNL     1      28.776   6.355  18.877  1.00  0.00    -0.392 OA
ATOM     15  H   UNL     1      29.176   6.396  19.794  1.00  0.00     0.211 HD
ENDBRANCH  13  14
ENDBRANCH   9  13
ENDBRANCH   1   2
BRANCH   1  16
ATOM     16  C   UNL     1      23.219   5.321  20.986  1.00  0.00     0.286 C 
ATOM     17  C   UNL     1      22.453   4.975  22.291  1.00  0.00     0.202 C 
ATOM     18  O   UNL     1      22.781   4.638  19.805  1.00  0.00    -0.341 OA
ATOM     19  C   UNL     1      22.524   3.444  22.549  1.00  0.00     0.179 C 
ATOM     20  C   UNL     1      22.040   3.450  20.058  1.00  0.00     0.178 C 
ATOM     21  C   UNL     1      22.622   2.624  21.234  1.00  0.00     0.177 C 
BRANCH  17  22
ATOM     22  O   UNL     1      21.125   5.423  22.196  1.00  0.00    -0.385 OA
ATOM     23  H   UNL     1      21.154   6.411  22.135  1.00  0.00     0.211 HD
ENDBRANCH  17  22
BRANCH  19  24
ATOM     24  O   UNL     1      21.452   3.001  23.345  1.00  0.00    -0.387 OA
ATOM     25  H   UNL     1      21.331   3.657  24.084  1.00  0.00     0.211 HD
ENDBRANCH  19  24
BRANCH  20  26
ATOM     26  C   UNL     1      21.982   2.606  18.774  1.00  0.00     0.191 C 
BRANCH  26  27
ATOM     27  O   UNL     1      23.220   2.627  18.106  1.00  0.00    -0.394 OA
ATOM     28  H   UNL     1      23.755   1.880  18.484  1.00  0.00     0.210 HD
ENDBRANCH  26  27
ENDBRANCH  20  26
BRANCH  21  29
ATOM     29  O   UNL     1      23.971   2.313  20.982  1.00  0.00    -0.387 OA
ATOM     30  H   UNL     1      24.028   1.326  20.867  1.00  0.00     0.211 HD
ENDBRANCH  21  29
ENDBRANCH   1  16
TORSDOF 10
ENDMDL
MODEL 4
REMARK VINA RESULT:    -6.526      2.144      3.624
REMARK INTER + INTRA:         -10.424
REMARK INTER:                  -9.530
REMARK INTRA:                  -0.894
REMARK UNBOUND:                -1.228
REMARK SMILES OCC1=C[C@@H](O)[C@H]2C=CO[C@H](O[C@@H]3O[C@@H](CO)[C@@H](O)[C@H](O)[C@@H]3O)[C@@H]12
REMARK SMILES IDX 12 1 11 2 8 3 9 4 7 5 10 6 24 7 5 8 3 9 4 10 6 11 2 13 1 14
REMARK SMILES IDX 13 16 22 17 14 18 20 19 15 20 18 21 23 22 21 24 16 26 17 27
REMARK SMILES IDX 19 29
REMARK H PARENT 6 12 1 15 23 23 21 25 17 28 19 30
REMARK Flexibility Score: inf
ROOT
ATOM      1  O   UNL     1      22.987   6.541  21.892  1.00  0.00    -0.310 OA
ENDROOT
BRANCH   1   2
ATOM      2  C   UNL     1      23.737   7.604  22.463  1.00  0.00     0.316 C 
ATOM      3  C   UNL     1      25.223   5.883  24.176  1.00  0.00     0.018 C 
ATOM      4  C   UNL     1      24.172   6.558  24.643  1.00  0.00     0.186 C 
ATOM      5  C   UNL     1      25.919   6.262  22.882  1.00  0.00     0.061 C 
ATOM      6  O   UNL     1      23.576   7.558  23.877  1.00  0.00    -0.472 OA
ATOM      7  C   UNL     1      25.229   7.417  22.100  1.00  0.00     0.096 C 
ATOM      8  C   UNL     1      27.353   6.791  23.134  1.00  0.00     0.145 C 
ATOM      9  C   UNL     1      26.084   8.613  22.400  1.00  0.00    -0.036 C 
ATOM     10  C   UNL     1      27.238   8.267  22.955  1.00  0.00     0.007 C 
BRANCH   8  11
ATOM     11  O   UNL     1      27.881   6.449  24.394  1.00  0.00    -0.388 OA
ATOM     12  H   UNL     1      27.421   6.995  25.088  1.00  0.00     0.211 HD
ENDBRANCH   8  11
BRANCH   9  13
ATOM     13  C   UNL     1      25.821  10.015  21.910  1.00  0.00     0.187 C 
BRANCH  13  14
ATOM     14  O   UNL     1      26.921  10.846  22.180  1.00  0.00    -0.392 OA
ATOM     15  H   UNL     1      26.954  11.527  21.447  1.00  0.00     0.211 HD
ENDBRANCH  13  14
ENDBRANCH   9  13
ENDBRANCH   1   2
BRANCH   1  16
ATOM     16  C   UNL     1      23.285   6.297  20.523  1.00  0.00     0.286 C 
ATOM     17  C   UNL     1      23.200   4.778  20.214  1.00  0.00     0.202 C 
ATOM     18  O   UNL     1      22.547   7.155  19.645  1.00  0.00    -0.341 OA
ATOM     19  C   UNL     1      23.666   4.514  18.756  1.00  0.00     0.179 C 
ATOM     20  C   UNL     1      22.220   6.567  18.391  1.00  0.00     0.178 C 
ATOM     21  C   UNL     1      23.377   5.714  17.814  1.00  0.00     0.177 C 
BRANCH  17  22
ATOM     22  O   UNL     1      21.888   4.322  20.430  1.00  0.00    -0.385 OA
ATOM     23  H   UNL     1      21.435   4.308  19.549  1.00  0.00     0.211 HD
ENDBRANCH  17  22
BRANCH  19  24
ATOM     24  O   UNL     1      23.118   3.323  18.243  1.00  0.00    -0.387 OA
ATOM     25  H   UNL     1      23.725   2.994  17.527  1.00  0.00     0.211 HD
ENDBRANCH  19  24
BRANCH  20  26
ATOM     26  C   UNL     1      21.809   7.672  17.405  1.00  0.00     0.191 C 
BRANCH  26  27
ATOM     27  O   UNL     1      22.635   8.802  17.548  1.00  0.00    -0.394 OA
ATOM     28  H   UNL     1      22.122   9.460  18.087  1.00  0.00     0.210 HD
ENDBRANCH  26  27
ENDBRANCH  20  26
BRANCH  21  29
ATOM     29  O   UNL     1      24.540   6.499  17.695  1.00  0.00    -0.387 OA
ATOM     30  H   UNL     1      24.355   7.194  17.007  1.00  0.00     0.211 HD
ENDBRANCH  21  29
ENDBRANCH   1  16
TORSDOF 10
ENDMDL
MODEL 5
REMARK VINA RESULT:    -6.491      2.985      4.213
REMARK INTER + INTRA:         -10.374
REMARK INTER:                  -9.573
REMARK INTRA:                  -0.801
REMARK UNBOUND:                -1.228
REMARK SMILES OCC1=C[C@@H](O)[C@H]2C=CO[C@H](O[C@@H]3O[C@@H](CO)[C@@H](O)[C@H](O)[C@@H]3O)[C@@H]12
REMARK SMILES IDX 12 1 11 2 8 3 9 4 7 5 10 6 24 7 5 8 3 9 4 10 6 11 2 13 1 14
REMARK SMILES IDX 13 16 22 17 14 18 20 19 15 20 18 21 23 22 21 24 16 26 17 27
REMARK SMILES IDX 19 29
REMARK H PARENT 6 12 1 15 23 23 21 25 17 28 19 30
REMARK Flexibility Score: inf
ROOT
ATOM      1  O   UNL     1      24.918   5.239  21.697  1.00  0.00    -0.310 OA
ENDROOT
BRANCH   1   2
ATOM      2  C   UNL     1      24.245   6.162  22.543  1.00  0.00     0.316 C 
ATOM      3  C   UNL     1      26.283   8.137  22.319  1.00  0.00     0.018 C 
ATOM      4  C   UNL     1      26.232   7.336  23.383  1.00  0.00     0.186 C 
ATOM      5  C   UNL     1      25.097   8.326  21.391  1.00  0.00     0.061 C 
ATOM      6  O   UNL     1      25.124   6.520  23.604  1.00  0.00    -0.472 OA
ATOM      7  C   UNL     1      23.877   7.420  21.721  1.00  0.00     0.096 C 
ATOM      8  C   UNL     1      24.524   9.764  21.475  1.00  0.00     0.145 C 
ATOM      9  C   UNL     1      22.922   8.344  22.418  1.00  0.00    -0.036 C 
ATOM     10  C   UNL     1      23.275   9.615  22.276  1.00  0.00     0.007 C 
BRANCH   8  11
ATOM     11  O   UNL     1      25.408  10.705  22.040  1.00  0.00    -0.388 OA
ATOM     12  H   UNL     1      25.125  10.879  22.979  1.00  0.00     0.211 HD
ENDBRANCH   8  11
BRANCH   9  13
ATOM     13  C   UNL     1      21.583   7.945  22.987  1.00  0.00     0.187 C 
BRANCH  13  14
ATOM     14  O   UNL     1      20.706   9.042  23.000  1.00  0.00    -0.392 OA
ATOM     15  H   UNL     1      20.534   9.285  22.045  1.00  0.00     0.211 HD
ENDBRANCH  13  14
ENDBRANCH   9  13
ENDBRANCH   1   2
BRANCH   1  16
ATOM     16  C   UNL     1      24.052   4.523  20.824  1.00  0.00     0.286 C 
ATOM     17  C   UNL     1      24.713   3.191  20.382  1.00  0.00     0.202 C 
ATOM     18  O   UNL     1      22.722   4.417  21.346  1.00  0.00    -0.341 OA
ATOM     19  C   UNL     1      23.820   2.491  19.321  1.00  0.00     0.179 C 
ATOM     20  C   UNL     1      22.044   3.220  20.981  1.00  0.00     0.178 C 
ATOM     21  C   UNL     1      22.312   2.810  19.510  1.00  0.00     0.177 C 
BRANCH  17  22
ATOM     22  O   UNL     1      24.927   2.370  21.502  1.00  0.00    -0.385 OA
ATOM     23  H   UNL     1      25.890   2.429  21.728  1.00  0.00     0.211 HD
ENDBRANCH  17  22
BRANCH  19  24
ATOM     24  O   UNL     1      24.044   1.102  19.288  1.00  0.00    -0.387 OA
ATOM     25  H   UNL     1      24.829   0.934  18.701  1.00  0.00     0.211 HD
ENDBRANCH  19  24
BRANCH  20  26
ATOM     26  C   UNL     1      20.538   3.393  21.235  1.00  0.00     0.191 C 
BRANCH  26  27
ATOM     27  O   UNL     1      20.118   4.691  20.889  1.00  0.00    -0.394 OA
ATOM     28  H   UNL     1      20.097   5.213  21.733  1.00  0.00     0.210 HD
ENDBRANCH  26  27
ENDBRANCH  20  26
BRANCH  21  29
ATOM     29  O   UNL     1      21.950   3.859  18.645  1.00  0.00    -0.387 OA
ATOM     30  H   UNL     1      22.757   4.428  18.520  1.00  0.00     0.211 HD
ENDBRANCH  21  29
ENDBRANCH   1  16
TORSDOF 10
ENDMDL
MODEL 6
REMARK VINA RESULT:    -6.416      2.598      3.874
REMARK INTER + INTRA:         -10.269
REMARK INTER:                  -9.373
REMARK INTRA:                  -0.896
REMARK UNBOUND:                -1.228
REMARK SMILES OCC1=C[C@@H](O)[C@H]2C=CO[C@H](O[C@@H]3O[C@@H](CO)[C@@H](O)[C@H](O)[C@@H]3O)[C@@H]12
REMARK SMILES IDX 12 1 11 2 8 3 9 4 7 5 10 6 24 7 5 8 3 9 4 10 6 11 2 13 1 14
REMARK SMILES IDX 13 16 22 17 14 18 20 19 15 20 18 21 23 22 21 24 16 26 17 27
REMARK SMILES IDX 19 29
REMARK H PARENT 6 12 1 15 23 23 21 25 17 28 19 30
REMARK Flexibility Score: inf
ROOT
ATOM      1  O   UNL     1      23.927   5.261  22.621  1.00  0.00    -0.310 OA
ENDROOT
BRANCH   1   2
ATOM      2  C   UNL     1      23.983   6.670  22.800  1.00  0.00     0.316 C 
ATOM      3  C   UNL     1      26.383   6.566  24.328  1.00  0.00     0.018 C 
ATOM      4  C   UNL     1      25.201   6.676  24.934  1.00  0.00     0.186 C 
ATOM      5  C   UNL     1      26.570   6.878  22.854  1.00  0.00     0.061 C 
ATOM      6  O   UNL     1      24.048   6.943  24.196  1.00  0.00    -0.472 OA
ATOM      7  C   UNL     1      25.250   7.214  22.100  1.00  0.00     0.096 C 
ATOM      8  C   UNL     1      27.449   8.136  22.640  1.00  0.00     0.145 C 
ATOM      9  C   UNL     1      25.281   8.709  21.972  1.00  0.00    -0.036 C 
ATOM     10  C   UNL     1      26.478   9.203  22.260  1.00  0.00     0.007 C 
BRANCH   8  11
ATOM     11  O   UNL     1      28.223   8.497  23.759  1.00  0.00    -0.388 OA
ATOM     12  H   UNL     1      27.622   8.907  24.440  1.00  0.00     0.211 HD
ENDBRANCH   8  11
BRANCH   9  13
ATOM     13  C   UNL     1      24.199   9.551  21.346  1.00  0.00     0.187 C 
BRANCH  13  14
ATOM     14  O   UNL     1      24.190  10.839  21.905  1.00  0.00    -0.392 OA
ATOM     15  H   UNL     1      23.626  10.791  22.731  1.00  0.00     0.211 HD
ENDBRANCH  13  14
ENDBRANCH   9  13
ENDBRANCH   1   2
BRANCH   1  16
ATOM     16  C   UNL     1      23.822   4.858  21.261  1.00  0.00     0.286 C 
ATOM     17  C   UNL     1      24.091   3.335  21.128  1.00  0.00     0.202 C 
ATOM     18  O   UNL     1      22.621   5.336  20.644  1.00  0.00    -0.341 OA
ATOM     19  C   UNL     1      24.114   2.938  19.626  1.00  0.00     0.179 C 
ATOM     20  C   UNL     1      22.092   4.471  19.646  1.00  0.00     0.178 C 
ATOM     21  C   UNL     1      23.196   3.840  18.759  1.00  0.00     0.177 C 
BRANCH  17  22
ATOM     22  O   UNL     1      23.117   2.615  21.840  1.00  0.00    -0.385 OA
ATOM     23  H   UNL     1      22.842   1.853  21.270  1.00  0.00     0.211 HD
ENDBRANCH  17  22
BRANCH  19  24
ATOM     24  O   UNL     1      23.806   1.577  19.444  1.00  0.00    -0.387 OA
ATOM     25  H   UNL     1      23.094   1.336  20.096  1.00  0.00     0.211 HD
ENDBRANCH  19  24
BRANCH  20  26
ATOM     26  C   UNL     1      21.078   5.245  18.790  1.00  0.00     0.191 C 
BRANCH  26  27
ATOM     27  O   UNL     1      21.563   6.529  18.478  1.00  0.00    -0.394 OA
ATOM     28  H   UNL     1      22.453   6.398  18.056  1.00  0.00     0.210 HD
ENDBRANCH  26  27
ENDBRANCH  20  26
BRANCH  21  29
ATOM     29  O   UNL     1      23.972   4.854  18.165  1.00  0.00    -0.387 OA
ATOM     30  H   UNL     1      24.224   5.491  18.888  1.00  0.00     0.211 HD
ENDBRANCH  21  29
ENDBRANCH   1  16
TORSDOF 10
ENDMDL
MODEL 7
REMARK VINA RESULT:    -6.399      1.622      2.242
REMARK INTER + INTRA:         -10.246
REMARK INTER:                  -9.364
REMARK INTRA:                  -0.881
REMARK UNBOUND:                -1.228
REMARK SMILES OCC1=C[C@@H](O)[C@H]2C=CO[C@H](O[C@@H]3O[C@@H](CO)[C@@H](O)[C@H](O)[C@@H]3O)[C@@H]12
REMARK SMILES IDX 12 1 11 2 8 3 9 4 7 5 10 6 24 7 5 8 3 9 4 10 6 11 2 13 1 14
REMARK SMILES IDX 13 16 22 17 14 18 20 19 15 20 18 21 23 22 21 24 16 26 17 27
REMARK SMILES IDX 19 29
REMARK H PARENT 6 12 1 15 23 23 21 25 17 28 19 30
REMARK Flexibility Score: inf
ROOT
ATOM      1  O   UNL     1      23.207   5.345  21.362  1.00  0.00    -0.310 OA
ENDROOT
BRANCH   1   2
ATOM      2  C   UNL     1      23.813   5.202  22.639  1.00  0.00     0.316 C 
ATOM      3  C   UNL     1      26.277   4.259  21.569  1.00  0.00     0.018 C 
ATOM      4  C   UNL     1      25.378   3.401  22.053  1.00  0.00     0.186 C 
ATOM      5  C   UNL     1      26.242   5.740  21.898  1.00  0.00     0.061 C 
ATOM      6  O   UNL     1      24.274   3.861  22.769  1.00  0.00    -0.472 OA
ATOM      7  C   UNL     1      25.009   6.178  22.740  1.00  0.00     0.096 C 
ATOM      8  C   UNL     1      27.453   6.164  22.767  1.00  0.00     0.145 C 
ATOM      9  C   UNL     1      25.557   6.329  24.128  1.00  0.00    -0.036 C 
ATOM     10  C   UNL     1      26.884   6.327  24.136  1.00  0.00     0.007 C 
BRANCH   8  11
ATOM     11  O   UNL     1      28.528   5.254  22.744  1.00  0.00    -0.388 OA
ATOM     12  H   UNL     1      29.072   5.388  23.567  1.00  0.00     0.211 HD
ENDBRANCH   8  11
BRANCH   9  13
ATOM     13  C   UNL     1      24.751   6.703  25.346  1.00  0.00     0.187 C 
BRANCH  13  14
ATOM     14  O   UNL     1      25.561   6.700  26.494  1.00  0.00    -0.392 OA
ATOM     15  H   UNL     1      26.434   7.114  26.231  1.00  0.00     0.211 HD
ENDBRANCH  13  14
ENDBRANCH   9  13
ENDBRANCH   1   2
BRANCH   1  16
ATOM     16  C   UNL     1      22.879   6.689  21.029  1.00  0.00     0.286 C 
ATOM     17  C   UNL     1      23.126   6.946  19.518  1.00  0.00     0.202 C 
ATOM     18  O   UNL     1      21.591   7.072  21.525  1.00  0.00    -0.341 OA
ATOM     19  C   UNL     1      22.900   8.450  19.199  1.00  0.00     0.179 C 
ATOM     20  C   UNL     1      20.906   8.014  20.707  1.00  0.00     0.178 C 
ATOM     21  C   UNL     1      21.849   9.104  20.136  1.00  0.00     0.177 C 
BRANCH  17  22
ATOM     22  O   UNL     1      22.284   6.122  18.751  1.00  0.00    -0.385 OA
ATOM     23  H   UNL     1      21.359   6.452  18.877  1.00  0.00     0.211 HD
ENDBRANCH  17  22
BRANCH  19  24
ATOM     24  O   UNL     1      22.569   8.650  17.847  1.00  0.00    -0.387 OA
ATOM     25  H   UNL     1      23.161   9.367  17.492  1.00  0.00     0.211 HD
ENDBRANCH  19  24
BRANCH  20  26
ATOM     26  C   UNL     1      19.762   8.649  21.515  1.00  0.00     0.191 C 
BRANCH  26  27
ATOM     27  O   UNL     1      20.255   9.266  22.679  1.00  0.00    -0.394 OA
ATOM     28  H   UNL     1      20.737  10.082  22.383  1.00  0.00     0.210 HD
ENDBRANCH  26  27
ENDBRANCH  20  26
BRANCH  21  29
ATOM     29  O   UNL     1      22.514   9.763  21.188  1.00  0.00    -0.387 OA
ATOM     30  H   UNL     1      22.764   9.069  21.857  1.00  0.00     0.211 HD
ENDBRANCH  21  29
ENDBRANCH   1  16
TORSDOF 10
ENDMDL
MODEL 8
REMARK VINA RESULT:    -6.330      2.550      5.019
REMARK INTER + INTRA:         -10.148
REMARK INTER:                  -9.105
REMARK INTRA:                  -1.044
REMARK UNBOUND:                -1.228
REMARK SMILES OCC1=C[C@@H](O)[C@H]2C=CO[C@H](O[C@@H]3O[C@@H](CO)[C@@H](O)[C@H](O)[C@@H]3O)[C@@H]12
REMARK SMILES IDX 12 1 11 2 8 3 9 4 7 5 10 6 24 7 5 8 3 9 4 10 6 11 2 13 1 14
REMARK SMILES IDX 13 16 22 17 14 18 20 19 15 20 18 21 23 22 21 24 16 26 17 27
REMARK SMILES IDX 19 29
REMARK H PARENT 6 12 1 15 23 23 21 25 17 28 19 30
REMARK Flexibility Score: inf
ROOT
ATOM      1  O   UNL     1      23.941   6.965  22.174  1.00  0.00    -0.310 OA
ENDROOT
BRANCH   1   2
ATOM      2  C   UNL     1      24.658   7.409  21.030  1.00  0.00     0.316 C 
ATOM      3  C   UNL     1      27.082   7.799  22.470  1.00  0.00     0.018 C 
ATOM      4  C   UNL     1      26.284   8.832  22.199  1.00  0.00     0.186 C 
ATOM      5  C   UNL     1      26.978   6.479  21.730  1.00  0.00     0.061 C 
ATOM      6  O   UNL     1      25.214   8.688  21.317  1.00  0.00    -0.472 OA
ATOM      7  C   UNL     1      25.792   6.402  20.726  1.00  0.00     0.096 C 
ATOM      8  C   UNL     1      28.226   6.213  20.850  1.00  0.00     0.145 C 
ATOM      9  C   UNL     1      26.441   6.601  19.388  1.00  0.00    -0.036 C 
ATOM     10  C   UNL     1      27.761   6.491  19.460  1.00  0.00     0.007 C 
BRANCH   8  11
ATOM     11  O   UNL     1      29.352   6.984  21.197  1.00  0.00    -0.388 OA
ATOM     12  H   UNL     1      29.400   7.042  22.190  1.00  0.00     0.211 HD
ENDBRANCH   8  11
BRANCH   9  13
ATOM     13  C   UNL     1      25.715   6.654  18.067  1.00  0.00     0.187 C 
BRANCH  13  14
ATOM     14  O   UNL     1      24.568   5.843  18.102  1.00  0.00    -0.392 OA
ATOM     15  H   UNL     1      24.858   4.951  18.451  1.00  0.00     0.211 HD
ENDBRANCH  13  14
ENDBRANCH   9  13
ENDBRANCH   1   2
BRANCH   1  16
ATOM     16  C   UNL     1      23.482   5.622  22.079  1.00  0.00     0.286 C 
ATOM     17  C   UNL     1      22.687   5.233  23.354  1.00  0.00     0.202 C 
ATOM     18  O   UNL     1      22.830   5.358  20.831  1.00  0.00    -0.341 OA
ATOM     19  C   UNL     1      22.316   3.725  23.298  1.00  0.00     0.179 C 
ATOM     20  C   UNL     1      21.782   4.399  20.910  1.00  0.00     0.178 C 
ATOM     21  C   UNL     1      22.131   3.212  21.844  1.00  0.00     0.177 C 
BRANCH  17  22
ATOM     22  O   UNL     1      21.545   6.044  23.468  1.00  0.00    -0.385 OA
ATOM     23  H   UNL     1      21.246   5.996  24.411  1.00  0.00     0.211 HD
ENDBRANCH  17  22
BRANCH  19  24
ATOM     24  O   UNL     1      21.184   3.440  24.084  1.00  0.00    -0.387 OA
ATOM     25  H   UNL     1      21.256   2.495  24.388  1.00  0.00     0.211 HD
ENDBRANCH  19  24
BRANCH  20  26
ATOM     26  C   UNL     1      21.443   3.901  19.496  1.00  0.00     0.191 C 
BRANCH  26  27
ATOM     27  O   UNL     1      22.612   3.742  18.729  1.00  0.00    -0.394 OA
ATOM     28  H   UNL     1      23.122   4.589  18.815  1.00  0.00     0.210 HD
ENDBRANCH  26  27
ENDBRANCH  20  26
BRANCH  21  29
ATOM     29  O   UNL     1      23.324   2.598  21.416  1.00  0.00    -0.387 OA
ATOM     30  H   UNL     1      23.076   1.713  21.032  1.00  0.00     0.211 HD
ENDBRANCH  21  29
ENDBRANCH   1  16
TORSDOF 10
ENDMDL
MODEL 9
REMARK VINA RESULT:    -6.271      2.344      3.569
REMARK INTER + INTRA:         -10.064
REMARK INTER:                  -9.258
REMARK INTRA:                  -0.807
REMARK UNBOUND:                -1.228
REMARK SMILES OCC1=C[C@@H](O)[C@H]2C=CO[C@H](O[C@@H]3O[C@@H](CO)[C@@H](O)[C@H](O)[C@@H]3O)[C@@H]12
REMARK SMILES IDX 12 1 11 2 8 3 9 4 7 5 10 6 24 7 5 8 3 9 4 10 6 11 2 13 1 14
REMARK SMILES IDX 13 16 22 17 14 18 20 19 15 20 18 21 23 22 21 24 16 26 17 27
REMARK SMILES IDX 19 29
REMARK H PARENT 6 12 1 15 23 23 21 25 17 28 19 30
REMARK Flexibility Score: inf
ROOT
ATOM      1  O   UNL     1      24.242   7.036  20.078  1.00  0.00    -0.310 OA
ENDROOT
BRANCH   1   2
ATOM      2  C   UNL     1      24.774   5.719  20.047  1.00  0.00     0.316 C 
ATOM      3  C   UNL     1      27.358   6.543  20.913  1.00  0.00     0.018 C 
ATOM      4  C   UNL     1      27.115   6.327  19.620  1.00  0.00     0.186 C 
ATOM      5  C   UNL     1      26.451   6.009  22.007  1.00  0.00     0.061 C 
ATOM      6  O   UNL     1      25.928   5.721  19.213  1.00  0.00    -0.472 OA
ATOM      7  C   UNL     1      25.168   5.302  21.484  1.00  0.00     0.096 C 
ATOM      8  C   UNL     1      27.155   4.920  22.855  1.00  0.00     0.145 C 
ATOM      9  C   UNL     1      25.478   3.842  21.632  1.00  0.00    -0.036 C 
ATOM     10  C   UNL     1      26.553   3.640  22.382  1.00  0.00     0.007 C 
BRANCH   8  11
ATOM     11  O   UNL     1      28.559   4.919  22.745  1.00  0.00    -0.388 OA
ATOM     12  H   UNL     1      28.947   5.010  23.657  1.00  0.00     0.211 HD
ENDBRANCH   8  11
BRANCH   9  13
ATOM     13  C   UNL     1      24.565   2.713  21.223  1.00  0.00     0.187 C 
BRANCH  13  14
ATOM     14  O   UNL     1      23.349   2.784  21.923  1.00  0.00    -0.392 OA
ATOM     15  H   UNL     1      23.389   2.088  22.641  1.00  0.00     0.211 HD
ENDBRANCH  13  14
ENDBRANCH   9  13
ENDBRANCH   1   2
BRANCH   1  16
ATOM     16  C   UNL     1      23.304   7.252  21.126  1.00  0.00     0.286 C 
ATOM     17  C   UNL     1      23.105   8.773  21.367  1.00  0.00     0.202 C 
ATOM     18  O   UNL     1      22.106   6.486  20.948  1.00  0.00    -0.341 OA
ATOM     19  C   UNL     1      22.190   8.991  22.603  1.00  0.00     0.179 C 
ATOM     20  C   UNL     1      20.931   7.114  21.449  1.00  0.00     0.178 C 
ATOM     21  C   UNL     1      21.171   7.836  22.800  1.00  0.00     0.177 C 
BRANCH  17  22
ATOM     22  O   UNL     1      22.569   9.371  20.214  1.00  0.00    -0.385 OA
ATOM     23  H   UNL     1      21.733   9.828  20.484  1.00  0.00     0.211 HD
ENDBRANCH  17  22
BRANCH  19  24
ATOM     24  O   UNL     1      21.540  10.238  22.555  1.00  0.00    -0.387 OA
ATOM     25  H   UNL     1      21.424  10.483  21.598  1.00  0.00     0.211 HD
ENDBRANCH  19  24
BRANCH  20  26
ATOM     26  C   UNL     1      19.813   6.067  21.579  1.00  0.00     0.191 C 
BRANCH  26  27
ATOM     27  O   UNL     1      20.214   5.010  22.417  1.00  0.00    -0.394 OA
ATOM     28  H   UNL     1      20.861   4.467  21.895  1.00  0.00     0.210 HD
ENDBRANCH  26  27
ENDBRANCH  20  26
BRANCH  21  29
ATOM     29  O   UNL     1      21.680   6.926  23.746  1.00  0.00    -0.387 OA
ATOM     30  H   UNL     1      20.983   6.814  24.449  1.00  0.00     0.211 HD
ENDBRANCH  21  29
ENDBRANCH   1  16
TORSDOF 10
ENDMDL
