MODEL 1
REMARK VINA RESULT:    -8.261      0.000      0.000
REMARK INTER + INTRA:          -8.985
REMARK INTER:                  -8.985
REMARK INTRA:                   0.000
REMARK UNBOUND:                 0.000
REMARK SMILES Cc1cc(O)c2c(c1)C(=O)c1cc(O)cc(O)c1C2=O
REMARK SMILES IDX 1 1 2 2 8 3 7 4 6 5 4 6 3 7 19 8 20 9 18 10 11 11 9 12 10 13
REMARK SMILES IDX 12 14 13 15 15 16 16 17 5 18 17 20 14 22
REMARK H PARENT 5 19 17 21 14 23
REMARK Flexibility Score: inf
ROOT
ATOM      1  C   UNL     1      -8.945   2.675   7.833  1.00  0.00     0.044 C 
ATOM      2  C   UNL     1      -8.470   1.353   7.305  1.00  0.00    -0.047 A 
ATOM      3  C   UNL     1      -8.008   0.368   8.184  1.00  0.00     0.016 A 
ATOM      4  C   UNL     1      -7.536  -0.862   7.698  1.00  0.00     0.038 A 
ATOM      5  C   UNL     1      -7.525  -1.111   6.307  1.00  0.00     0.076 A 
ATOM      6  C   UNL     1      -7.916  -0.079   5.416  1.00  0.00     0.127 A 
ATOM      7  C   UNL     1      -8.402   1.130   5.925  1.00  0.00     0.050 A 
ATOM      8  C   UNL     1      -7.159  -2.473   5.839  1.00  0.00     0.201 C 
ATOM      9  O   UNL     1      -7.653  -2.923   4.772  1.00  0.00    -0.288 OA
ATOM     10  C   UNL     1      -6.365  -3.368   6.722  1.00  0.00     0.076 A 
ATOM     11  C   UNL     1      -6.375  -3.114   8.112  1.00  0.00     0.041 A 
ATOM     12  C   UNL     1      -7.040  -1.897   8.636  1.00  0.00     0.194 C 
ATOM     13  O   UNL     1      -7.161  -1.730   9.881  1.00  0.00    -0.289 OA
ATOM     14  C   UNL     1      -5.752  -4.015   8.991  1.00  0.00     0.059 A 
ATOM     15  C   UNL     1      -5.107  -5.154   8.501  1.00  0.00     0.120 A 
ATOM     16  C   UNL     1      -5.060  -5.386   7.127  1.00  0.00     0.093 A 
ATOM     17  C   UNL     1      -5.656  -4.494   6.229  1.00  0.00     0.131 A 
ENDROOT
BRANCH   6  18
ATOM     18  O   UNL     1      -7.804  -0.195   4.029  1.00  0.00    -0.507 OA
ATOM     19  H   UNL     1      -7.123   0.312   3.479  1.00  0.00     0.293 HD
ENDBRANCH   6  18
BRANCH  17  20
ATOM     20  O   UNL     1      -5.488  -4.744   4.865  1.00  0.00    -0.507 OA
ATOM     21  H   UNL     1      -4.595  -4.705   4.395  1.00  0.00     0.293 HD
ENDBRANCH  17  20
BRANCH  15  22
ATOM     22  O   UNL     1      -4.498  -6.056   9.370  1.00  0.00    -0.508 OA
ATOM     23  H   UNL     1      -3.492  -6.079   9.492  1.00  0.00     0.293 HD
ENDBRANCH  15  22
TORSDOF 3
ENDMDL
MODEL 2
REMARK VINA RESULT:    -7.642      1.601      6.368
REMARK INTER + INTRA:          -8.312
REMARK INTER:                  -8.312
REMARK INTRA:                   0.000
REMARK UNBOUND:                 0.000
REMARK SMILES Cc1cc(O)c2c(c1)C(=O)c1cc(O)cc(O)c1C2=O
REMARK SMILES IDX 1 1 2 2 8 3 7 4 6 5 4 6 3 7 19 8 20 9 18 10 11 11 9 12 10 13
REMARK SMILES IDX 12 14 13 15 15 16 16 17 5 18 17 20 14 22
REMARK H PARENT 5 19 17 21 14 23
REMARK Flexibility Score: inf
ROOT
ATOM      1  C   UNL     1      -3.866  -7.640   5.762  1.00  0.00     0.044 C 
ATOM      2  C   UNL     1      -4.493  -6.371   6.259  1.00  0.00    -0.047 A 
ATOM      3  C   UNL     1      -5.563  -5.795   5.565  1.00  0.00     0.016 A 
ATOM      4  C   UNL     1      -6.140  -4.593   6.007  1.00  0.00     0.038 A 
ATOM      5  C   UNL     1      -5.638  -3.955   7.164  1.00  0.00     0.076 A 
ATOM      6  C   UNL     1      -4.501  -4.499   7.815  1.00  0.00     0.127 A 
ATOM      7  C   UNL     1      -3.957  -5.708   7.369  1.00  0.00     0.050 A 
ATOM      8  C   UNL     1      -6.365  -2.769   7.684  1.00  0.00     0.201 C 
ATOM      9  O   UNL     1      -6.356  -2.520   8.919  1.00  0.00    -0.288 OA
ATOM     10  C   UNL     1      -7.252  -1.992   6.780  1.00  0.00     0.076 A 
ATOM     11  C   UNL     1      -7.750  -2.631   5.621  1.00  0.00     0.041 A 
ATOM     12  C   UNL     1      -7.267  -3.985   5.260  1.00  0.00     0.194 C 
ATOM     13  O   UNL     1      -7.799  -4.610   4.301  1.00  0.00    -0.289 OA
ATOM     14  C   UNL     1      -8.697  -1.978   4.816  1.00  0.00     0.059 A 
ATOM     15  C   UNL     1      -9.141  -0.693   5.141  1.00  0.00     0.120 A 
ATOM     16  C   UNL     1      -8.622  -0.044   6.261  1.00  0.00     0.093 A 
ATOM     17  C   UNL     1      -7.663  -0.664   7.067  1.00  0.00     0.131 A 
ENDROOT
BRANCH   6  18
ATOM     18  O   UNL     1      -3.861  -3.859   8.878  1.00  0.00    -0.507 OA
ATOM     19  H   UNL     1      -4.067  -4.048   9.850  1.00  0.00     0.293 HD
ENDBRANCH   6  18
BRANCH  17  20
ATOM     20  O   UNL     1      -7.122   0.084   8.117  1.00  0.00    -0.507 OA
ATOM     21  H   UNL     1      -7.559   0.171   9.023  1.00  0.00     0.293 HD
ENDBRANCH  17  20
BRANCH  15  22
ATOM     22  O   UNL     1     -10.090  -0.048   4.351  1.00  0.00    -0.508 OA
ATOM     23  H   UNL     1      -9.819   0.539   3.571  1.00  0.00     0.293 HD
ENDBRANCH  15  22
TORSDOF 3
ENDMDL
MODEL 3
REMARK VINA RESULT:    -7.465      3.120      4.732
REMARK INTER + INTRA:          -8.120
REMARK INTER:                  -8.120
REMARK INTRA:                   0.000
REMARK UNBOUND:                 0.000
REMARK SMILES Cc1cc(O)c2c(c1)C(=O)c1cc(O)cc(O)c1C2=O
REMARK SMILES IDX 1 1 2 2 8 3 7 4 6 5 4 6 3 7 19 8 20 9 18 10 11 11 9 12 10 13
REMARK SMILES IDX 12 14 13 15 15 16 16 17 5 18 17 20 14 22
REMARK H PARENT 5 19 17 21 14 23
REMARK Flexibility Score: inf
ROOT
ATOM      1  C   UNL     1      -9.234  -1.633   5.417  1.00  0.00     0.044 C 
ATOM      2  C   UNL     1      -8.659  -2.998   5.181  1.00  0.00    -0.047 A 
ATOM      3  C   UNL     1      -7.405  -3.335   5.702  1.00  0.00     0.016 A 
ATOM      4  C   UNL     1      -6.846  -4.601   5.464  1.00  0.00     0.038 A 
ATOM      5  C   UNL     1      -7.554  -5.548   4.689  1.00  0.00     0.076 A 
ATOM      6  C   UNL     1      -8.786  -5.173   4.095  1.00  0.00     0.127 A 
ATOM      7  C   UNL     1      -9.332  -3.914   4.364  1.00  0.00     0.050 A 
ATOM      8  C   UNL     1      -7.002  -6.923   4.582  1.00  0.00     0.201 C 
ATOM      9  O   UNL     1      -7.781  -7.902   4.437  1.00  0.00    -0.288 OA
ATOM     10  C   UNL     1      -5.556  -7.159   4.836  1.00  0.00     0.076 A 
ATOM     11  C   UNL     1      -4.850  -6.208   5.608  1.00  0.00     0.041 A 
ATOM     12  C   UNL     1      -5.513  -4.946   6.012  1.00  0.00     0.194 C 
ATOM     13  O   UNL     1      -4.932  -4.153   6.804  1.00  0.00    -0.289 OA
ATOM     14  C   UNL     1      -3.521  -6.463   5.984  1.00  0.00     0.059 A 
ATOM     15  C   UNL     1      -2.885  -7.643   5.589  1.00  0.00     0.120 A 
ATOM     16  C   UNL     1      -3.566  -8.565   4.794  1.00  0.00     0.093 A 
ATOM     17  C   UNL     1      -4.882  -8.325   4.389  1.00  0.00     0.131 A 
ENDROOT
BRANCH   6  18
ATOM     18  O   UNL     1      -9.479  -5.998   3.207  1.00  0.00    -0.507 OA
ATOM     19  H   UNL     1     -10.459  -6.227   3.306  1.00  0.00     0.293 HD
ENDBRANCH   6  18
BRANCH  17  20
ATOM     20  O   UNL     1      -5.467  -9.248   3.518  1.00  0.00    -0.507 OA
ATOM     21  H   UNL     1      -5.318  -9.246   2.519  1.00  0.00     0.293 HD
ENDBRANCH  17  20
BRANCH  15  22
ATOM     22  O   UNL     1      -1.571  -7.905   5.971  1.00  0.00    -0.508 OA
ATOM     23  H   UNL     1      -1.304  -7.963   6.946  1.00  0.00     0.293 HD
ENDBRANCH  15  22
TORSDOF 3
ENDMDL
MODEL 4
REMARK VINA RESULT:    -7.447      2.913      7.461
REMARK INTER + INTRA:          -8.100
REMARK INTER:                  -8.100
REMARK INTRA:                   0.000
REMARK UNBOUND:                 0.000
REMARK SMILES Cc1cc(O)c2c(c1)C(=O)c1cc(O)cc(O)c1C2=O
REMARK SMILES IDX 1 1 2 2 8 3 7 4 6 5 4 6 3 7 19 8 20 9 18 10 11 11 9 12 10 13
REMARK SMILES IDX 12 14 13 15 15 16 16 17 5 18 17 20 14 22
REMARK H PARENT 5 19 17 21 14 23
REMARK Flexibility Score: inf
ROOT
ATOM      1  C   UNL     1      -4.197 -10.093   2.922  1.00  0.00     0.044 C 
ATOM      2  C   UNL     1      -4.231  -9.080   4.028  1.00  0.00    -0.047 A 
ATOM      3  C   UNL     1      -5.179  -8.050   4.011  1.00  0.00     0.016 A 
ATOM      4  C   UNL     1      -5.202  -7.081   5.027  1.00  0.00     0.038 A 
ATOM      5  C   UNL     1      -4.260  -7.143   6.080  1.00  0.00     0.076 A 
ATOM      6  C   UNL     1      -3.251  -8.139   6.047  1.00  0.00     0.127 A 
ATOM      7  C   UNL     1      -3.261  -9.104   5.036  1.00  0.00     0.050 A 
ATOM      8  C   UNL     1      -4.408  -6.191   7.211  1.00  0.00     0.201 C 
ATOM      9  O   UNL     1      -4.028  -6.526   8.365  1.00  0.00    -0.288 OA
ATOM     10  C   UNL     1      -5.171  -4.930   7.021  1.00  0.00     0.076 A 
ATOM     11  C   UNL     1      -6.109  -4.871   5.965  1.00  0.00     0.041 A 
ATOM     12  C   UNL     1      -6.204  -5.989   4.997  1.00  0.00     0.194 C 
ATOM     13  O   UNL     1      -7.122  -5.999   4.132  1.00  0.00    -0.289 OA
ATOM     14  C   UNL     1      -6.946  -3.750   5.837  1.00  0.00     0.059 A 
ATOM     15  C   UNL     1      -6.847  -2.684   6.736  1.00  0.00     0.120 A 
ATOM     16  C   UNL     1      -5.895  -2.721   7.754  1.00  0.00     0.093 A 
ATOM     17  C   UNL     1      -5.036  -3.817   7.890  1.00  0.00     0.131 A 
ENDROOT
BRANCH   6  18
ATOM     18  O   UNL     1      -2.204  -8.184   6.970  1.00  0.00    -0.507 OA
ATOM     19  H   UNL     1      -1.336  -7.678   6.855  1.00  0.00     0.293 HD
ENDBRANCH   6  18
BRANCH  17  20
ATOM     20  O   UNL     1      -4.048  -3.742   8.875  1.00  0.00    -0.507 OA
ATOM     21  H   UNL     1      -3.442  -4.513   9.118  1.00  0.00     0.293 HD
ENDBRANCH  17  20
BRANCH  15  22
ATOM     22  O   UNL     1      -7.684  -1.576   6.619  1.00  0.00    -0.508 OA
ATOM     23  H   UNL     1      -8.670  -1.675   6.409  1.00  0.00     0.293 HD
ENDBRANCH  15  22
TORSDOF 3
ENDMDL
MODEL 5
REMARK VINA RESULT:    -7.361      2.908      7.103
REMARK INTER + INTRA:          -8.006
REMARK INTER:                  -8.006
REMARK INTRA:                   0.000
REMARK UNBOUND:                 0.000
REMARK SMILES Cc1cc(O)c2c(c1)C(=O)c1cc(O)cc(O)c1C2=O
REMARK SMILES IDX 1 1 2 2 8 3 7 4 6 5 4 6 3 7 19 8 20 9 18 10 11 11 9 12 10 13
REMARK SMILES IDX 12 14 13 15 15 16 16 17 5 18 17 20 14 22
REMARK H PARENT 5 19 17 21 14 23
REMARK Flexibility Score: inf
ROOT
ATOM      1  C   UNL     1      -4.729 -10.044   3.746  1.00  0.00     0.044 C 
ATOM      2  C   UNL     1      -4.888  -8.688   4.367  1.00  0.00    -0.047 A 
ATOM      3  C   UNL     1      -6.108  -8.009   4.276  1.00  0.00     0.016 A 
ATOM      4  C   UNL     1      -6.258  -6.728   4.830  1.00  0.00     0.038 A 
ATOM      5  C   UNL     1      -5.168  -6.113   5.487  1.00  0.00     0.076 A 
ATOM      6  C   UNL     1      -3.911  -6.770   5.503  1.00  0.00     0.127 A 
ATOM      7  C   UNL     1      -3.792  -8.054   4.963  1.00  0.00     0.050 A 
ATOM      8  C   UNL     1      -5.406  -4.825   6.187  1.00  0.00     0.201 C 
ATOM      9  O   UNL     1      -4.725  -4.530   7.206  1.00  0.00    -0.288 OA
ATOM     10  C   UNL     1      -6.566  -3.978   5.804  1.00  0.00     0.076 A 
ATOM     11  C   UNL     1      -7.653  -4.596   5.144  1.00  0.00     0.041 A 
ATOM     12  C   UNL     1      -7.552  -6.013   4.722  1.00  0.00     0.194 C 
ATOM     13  O   UNL     1      -8.562  -6.603   4.248  1.00  0.00    -0.289 OA
ATOM     14  C   UNL     1      -8.823  -3.861   4.888  1.00  0.00     0.059 A 
ATOM     15  C   UNL     1      -8.915  -2.519   5.266  1.00  0.00     0.120 A 
ATOM     16  C   UNL     1      -7.829  -1.896   5.880  1.00  0.00     0.093 A 
ATOM     17  C   UNL     1      -6.646  -2.599   6.128  1.00  0.00     0.131 A 
ENDROOT
BRANCH   6  18
ATOM     18  O   UNL     1      -2.754  -6.173   6.008  1.00  0.00    -0.507 OA
ATOM     19  H   UNL     1      -2.280  -6.491   6.843  1.00  0.00     0.293 HD
ENDBRANCH   6  18
BRANCH  17  20
ATOM     20  O   UNL     1      -5.571  -1.885   6.662  1.00  0.00    -0.507 OA
ATOM     21  H   UNL     1      -4.806  -2.317   7.161  1.00  0.00     0.293 HD
ENDBRANCH  17  20
BRANCH  15  22
ATOM     22  O   UNL     1     -10.078  -1.790   5.024  1.00  0.00    -0.508 OA
ATOM     23  H   UNL     1     -10.212  -1.277   4.161  1.00  0.00     0.293 HD
ENDBRANCH  15  22
TORSDOF 3
ENDMDL
MODEL 6
REMARK VINA RESULT:    -7.359      1.297      1.691
REMARK INTER + INTRA:          -8.004
REMARK INTER:                  -8.004
REMARK INTRA:                   0.000
REMARK UNBOUND:                 0.000
REMARK SMILES Cc1cc(O)c2c(c1)C(=O)c1cc(O)cc(O)c1C2=O
REMARK SMILES IDX 1 1 2 2 8 3 7 4 6 5 4 6 3 7 19 8 20 9 18 10 11 11 9 12 10 13
REMARK SMILES IDX 12 14 13 15 15 16 16 17 5 18 17 20 14 22
REMARK H PARENT 5 19 17 21 14 23
REMARK Flexibility Score: inf
ROOT
ATOM      1  C   UNL     1      -8.100   1.285   8.536  1.00  0.00     0.044 C 
ATOM      2  C   UNL     1      -7.847   0.042   7.735  1.00  0.00    -0.047 A 
ATOM      3  C   UNL     1      -7.062  -0.989   8.264  1.00  0.00     0.016 A 
ATOM      4  C   UNL     1      -6.797  -2.144   7.512  1.00  0.00     0.038 A 
ATOM      5  C   UNL     1      -7.324  -2.271   6.206  1.00  0.00     0.076 A 
ATOM      6  C   UNL     1      -8.048  -1.189   5.645  1.00  0.00     0.127 A 
ATOM      7  C   UNL     1      -8.317  -0.057   6.421  1.00  0.00     0.050 A 
ATOM      8  C   UNL     1      -7.146  -3.566   5.499  1.00  0.00     0.201 C 
ATOM      9  O   UNL     1      -8.010  -3.948   4.666  1.00  0.00    -0.288 OA
ATOM     10  C   UNL     1      -6.057  -4.489   5.912  1.00  0.00     0.076 A 
ATOM     11  C   UNL     1      -5.529  -4.357   7.217  1.00  0.00     0.041 A 
ATOM     12  C   UNL     1      -5.958  -3.228   8.076  1.00  0.00     0.194 C 
ATOM     13  O   UNL     1      -5.587  -3.177   9.282  1.00  0.00    -0.289 OA
ATOM     14  C   UNL     1      -4.598  -5.296   7.692  1.00  0.00     0.059 A 
ATOM     15  C   UNL     1      -4.177  -6.351   6.878  1.00  0.00     0.120 A 
ATOM     16  C   UNL     1      -4.665  -6.461   5.577  1.00  0.00     0.093 A 
ATOM     17  C   UNL     1      -5.577  -5.528   5.074  1.00  0.00     0.131 A 
ENDROOT
BRANCH   6  18
ATOM     18  O   UNL     1      -8.483  -1.178   4.318  1.00  0.00    -0.507 OA
ATOM     19  H   UNL     1      -8.564  -2.011   3.750  1.00  0.00     0.293 HD
ENDBRANCH   6  18
BRANCH  17  20
ATOM     20  O   UNL     1      -5.950  -5.650   3.732  1.00  0.00    -0.507 OA
ATOM     21  H   UNL     1      -6.505  -6.414   3.374  1.00  0.00     0.293 HD
ENDBRANCH  17  20
BRANCH  15  22
ATOM     22  O   UNL     1      -3.262  -7.291   7.350  1.00  0.00    -0.508 OA
ATOM     23  H   UNL     1      -3.565  -8.180   7.731  1.00  0.00     0.293 HD
ENDBRANCH  15  22
TORSDOF 3
ENDMDL
MODEL 7
REMARK VINA RESULT:    -7.203      1.643      4.033
REMARK INTER + INTRA:          -7.834
REMARK INTER:                  -7.834
REMARK INTRA:                   0.000
REMARK UNBOUND:                 0.000
REMARK SMILES Cc1cc(O)c2c(c1)C(=O)c1cc(O)cc(O)c1C2=O
REMARK SMILES IDX 1 1 2 2 8 3 7 4 6 5 4 6 3 7 19 8 20 9 18 10 11 11 9 12 10 13
REMARK SMILES IDX 12 14 13 15 15 16 16 17 5 18 17 20 14 22
REMARK H PARENT 5 19 17 21 14 23
REMARK Flexibility Score: inf
ROOT
ATOM      1  C   UNL     1      -9.209   0.028   7.703  1.00  0.00     0.044 C 
ATOM      2  C   UNL     1      -8.187  -1.069   7.752  1.00  0.00    -0.047 A 
ATOM      3  C   UNL     1      -8.007  -1.914   6.651  1.00  0.00     0.016 A 
ATOM      4  C   UNL     1      -7.073  -2.961   6.697  1.00  0.00     0.038 A 
ATOM      5  C   UNL     1      -6.304  -3.167   7.865  1.00  0.00     0.076 A 
ATOM      6  C   UNL     1      -6.549  -2.361   9.006  1.00  0.00     0.127 A 
ATOM      7  C   UNL     1      -7.470  -1.312   8.929  1.00  0.00     0.050 A 
ATOM      8  C   UNL     1      -5.224  -4.187   7.825  1.00  0.00     0.201 C 
ATOM      9  O   UNL     1      -4.196  -4.039   8.537  1.00  0.00    -0.288 OA
ATOM     10  C   UNL     1      -5.272  -5.274   6.812  1.00  0.00     0.076 A 
ATOM     11  C   UNL     1      -6.045  -5.066   5.646  1.00  0.00     0.041 A 
ATOM     12  C   UNL     1      -6.895  -3.857   5.530  1.00  0.00     0.194 C 
ATOM     13  O   UNL     1      -7.486  -3.604   4.444  1.00  0.00    -0.289 OA
ATOM     14  C   UNL     1      -6.007  -6.009   4.605  1.00  0.00     0.059 A 
ATOM     15  C   UNL     1      -5.223  -7.160   4.719  1.00  0.00     0.120 A 
ATOM     16  C   UNL     1      -4.491  -7.388   5.884  1.00  0.00     0.093 A 
ATOM     17  C   UNL     1      -4.528  -6.475   6.943  1.00  0.00     0.131 A 
ENDROOT
BRANCH   6  18
ATOM     18  O   UNL     1      -5.933  -2.588  10.238  1.00  0.00    -0.507 OA
ATOM     19  H   UNL     1      -5.592  -3.493  10.534  1.00  0.00     0.293 HD
ENDBRANCH   6  18
BRANCH  17  20
ATOM     20  O   UNL     1      -3.843  -6.815   8.113  1.00  0.00    -0.507 OA
ATOM     21  H   UNL     1      -3.782  -7.758   8.469  1.00  0.00     0.293 HD
ENDBRANCH  17  20
BRANCH  15  22
ATOM     22  O   UNL     1      -5.172  -8.091   3.684  1.00  0.00    -0.508 OA
ATOM     23  H   UNL     1      -5.873  -8.109   2.952  1.00  0.00     0.293 HD
ENDBRANCH  15  22
TORSDOF 3
ENDMDL
MODEL 8
REMARK VINA RESULT:    -7.170      2.291      6.432
REMARK INTER + INTRA:          -7.798
REMARK INTER:                  -7.798
REMARK INTRA:                   0.000
REMARK UNBOUND:                 0.000
REMARK SMILES Cc1cc(O)c2c(c1)C(=O)c1cc(O)cc(O)c1C2=O
REMARK SMILES IDX 1 1 2 2 8 3 7 4 6 5 4 6 3 7 19 8 20 9 18 10 11 11 9 12 10 13
REMARK SMILES IDX 12 14 13 15 15 16 16 17 5 18 17 20 14 22
REMARK H PARENT 5 19 17 21 14 23
REMARK Flexibility Score: inf
ROOT
ATOM      1  C   UNL     1      -3.162  -9.495   6.646  1.00  0.00     0.044 C 
ATOM      2  C   UNL     1      -4.134  -8.413   6.279  1.00  0.00    -0.047 A 
ATOM      3  C   UNL     1      -4.033  -7.147   6.865  1.00  0.00     0.016 A 
ATOM      4  C   UNL     1      -4.954  -6.136   6.548  1.00  0.00     0.038 A 
ATOM      5  C   UNL     1      -5.996  -6.395   5.629  1.00  0.00     0.076 A 
ATOM      6  C   UNL     1      -6.143  -7.704   5.102  1.00  0.00     0.127 A 
ATOM      7  C   UNL     1      -5.201  -8.689   5.416  1.00  0.00     0.050 A 
ATOM      8  C   UNL     1      -6.860  -5.263   5.207  1.00  0.00     0.201 C 
ATOM      9  O   UNL     1      -7.374  -5.261   4.057  1.00  0.00    -0.288 OA
ATOM     10  C   UNL     1      -6.962  -4.053   6.064  1.00  0.00     0.076 A 
ATOM     11  C   UNL     1      -5.920  -3.798   6.985  1.00  0.00     0.041 A 
ATOM     12  C   UNL     1      -4.845  -4.799   7.180  1.00  0.00     0.194 C 
ATOM     13  O   UNL     1      -3.849  -4.523   7.904  1.00  0.00    -0.289 OA
ATOM     14  C   UNL     1      -5.911  -2.596   7.714  1.00  0.00     0.059 A 
ATOM     15  C   UNL     1      -6.933  -1.658   7.548  1.00  0.00     0.120 A 
ATOM     16  C   UNL     1      -7.984  -1.925   6.670  1.00  0.00     0.093 A 
ATOM     17  C   UNL     1      -8.027  -3.122   5.948  1.00  0.00     0.131 A 
ENDROOT
BRANCH   6  18
ATOM     18  O   UNL     1      -7.222  -8.079   4.299  1.00  0.00    -0.507 OA
ATOM     19  H   UNL     1      -7.899  -7.423   3.932  1.00  0.00     0.293 HD
ENDBRANCH   6  18
BRANCH  17  20
ATOM     20  O   UNL     1      -9.156  -3.359   5.160  1.00  0.00    -0.507 OA
ATOM     21  H   UNL     1      -9.119  -3.500   4.160  1.00  0.00     0.293 HD
ENDBRANCH  17  20
BRANCH  15  22
ATOM     22  O   UNL     1      -6.921  -0.460   8.260  1.00  0.00    -0.508 OA
ATOM     23  H   UNL     1      -7.525  -0.313   9.060  1.00  0.00     0.293 HD
ENDBRANCH  15  22
TORSDOF 3
ENDMDL
MODEL 9
REMARK VINA RESULT:    -6.911      2.803      4.941
REMARK INTER + INTRA:          -7.518
REMARK INTER:                  -7.518
REMARK INTRA:                   0.000
REMARK UNBOUND:                 0.000
REMARK SMILES Cc1cc(O)c2c(c1)C(=O)c1cc(O)cc(O)c1C2=O
REMARK SMILES IDX 1 1 2 2 8 3 7 4 6 5 4 6 3 7 19 8 20 9 18 10 11 11 9 12 10 13
REMARK SMILES IDX 12 14 13 15 15 16 16 17 5 18 17 20 14 22
REMARK H PARENT 5 19 17 21 14 23
REMARK Flexibility Score: inf
ROOT
ATOM      1  C   UNL     1      -7.841  -0.702   7.034  1.00  0.00     0.044 C 
ATOM      2  C   UNL     1      -7.098  -2.000   6.914  1.00  0.00    -0.047 A 
ATOM      3  C   UNL     1      -7.570  -3.006   6.064  1.00  0.00     0.016 A 
ATOM      4  C   UNL     1      -6.896  -4.235   5.965  1.00  0.00     0.038 A 
ATOM      5  C   UNL     1      -5.730  -4.462   6.731  1.00  0.00     0.076 A 
ATOM      6  C   UNL     1      -5.304  -3.471   7.652  1.00  0.00     0.127 A 
ATOM      7  C   UNL     1      -5.979  -2.248   7.718  1.00  0.00     0.050 A 
ATOM      8  C   UNL     1      -4.964  -5.711   6.491  1.00  0.00     0.201 C 
ATOM      9  O   UNL     1      -3.717  -5.725   6.666  1.00  0.00    -0.288 OA
ATOM     10  C   UNL     1      -5.636  -6.881   5.867  1.00  0.00     0.076 A 
ATOM     11  C   UNL     1      -6.804  -6.651   5.105  1.00  0.00     0.041 A 
ATOM     12  C   UNL     1      -7.408  -5.298   5.069  1.00  0.00     0.194 C 
ATOM     13  O   UNL     1      -8.374  -5.059   4.293  1.00  0.00    -0.289 OA
ATOM     14  C   UNL     1      -7.389  -7.709   4.388  1.00  0.00     0.059 A 
ATOM     15  C   UNL     1      -6.835  -8.991   4.435  1.00  0.00     0.120 A 
ATOM     16  C   UNL     1      -5.706  -9.229   5.218  1.00  0.00     0.093 A 
ATOM     17  C   UNL     1      -5.117  -8.199   5.957  1.00  0.00     0.131 A 
ENDROOT
BRANCH   6  18
ATOM     18  O   UNL     1      -4.247  -3.671   8.542  1.00  0.00    -0.507 OA
ATOM     19  H   UNL     1      -3.520  -4.359   8.400  1.00  0.00     0.293 HD
ENDBRANCH   6  18
BRANCH  17  20
ATOM     20  O   UNL     1      -4.045  -8.534   6.790  1.00  0.00    -0.507 OA
ATOM     21  H   UNL     1      -3.207  -8.992   6.464  1.00  0.00     0.293 HD
ENDBRANCH  17  20
BRANCH  15  22
ATOM     22  O   UNL     1      -7.405 -10.038   3.715  1.00  0.00    -0.508 OA
ATOM     23  H   UNL     1      -7.222 -11.006   3.953  1.00  0.00     0.293 HD
ENDBRANCH  15  22
TORSDOF 3
ENDMDL
