MODEL 1
REMARK VINA RESULT:    -4.480      0.000      0.000
REMARK INTER + INTRA:          -9.352
REMARK INTER:                  -7.624
REMARK INTRA:                  -1.729
REMARK UNBOUND:                -1.729
REMARK SMILES CCCCCCCCCCCCCC(=O)[O-]
REMARK SMILES IDX 8 1 9 2 10 3 11 4 12 5 13 6 14 7 15 8 16 9 7 10 6 11 5 12
REMARK SMILES IDX 4 13 3 14 2 15 1 16
REMARK H PARENT
REMARK Flexibility Score: inf
ROOT
ATOM      1  C   UNL     1      -8.728  37.405   6.242  1.00  0.00     0.000 C 
ENDROOT
BRANCH   1   2
ATOM      2  C   UNL     1      -9.608  36.598   5.266  1.00  0.00     0.000 C 
BRANCH   2   3
ATOM      3  C   UNL     1     -10.086  35.233   5.793  1.00  0.00     0.000 C 
BRANCH   3   4
ATOM      4  C   UNL     1      -8.968  34.433   6.477  1.00  0.00     0.000 C 
BRANCH   4   5
ATOM      5  C   UNL     1      -8.199  33.579   5.456  1.00  0.00     0.006 C 
BRANCH   5   6
ATOM      6  C   UNL     1      -6.717  33.435   5.820  1.00  0.00     0.053 C 
BRANCH   6   7
ATOM      7  C   UNL     1      -6.440  32.141   6.524  1.00  0.00     0.041 C 
ATOM      8  O   UNL     1      -5.360  31.978   7.151  1.00  0.00    -0.550 OA
ATOM      9  O   UNL     1      -7.361  31.102   6.458  1.00  0.00    -0.550 OA
ENDBRANCH   6   7
ENDBRANCH   5   6
ENDBRANCH   4   5
ENDBRANCH   3   4
ENDBRANCH   2   3
ENDBRANCH   1   2
BRANCH   1  10
ATOM     10  C   UNL     1      -9.273  38.793   6.624  1.00  0.00     0.000 C 
BRANCH  10  11
ATOM     11  C   UNL     1     -10.539  39.174   5.837  1.00  0.00    -0.000 C 
BRANCH  11  12
ATOM     12  C   UNL     1     -11.768  39.346   6.745  1.00  0.00    -0.000 C 
BRANCH  12  13
ATOM     13  C   UNL     1     -11.642  38.576   8.067  1.00  0.00    -0.000 C 
BRANCH  13  14
ATOM     14  C   UNL     1     -12.514  37.315   8.054  1.00  0.00    -0.000 C 
BRANCH  14  15
ATOM     15  C   UNL     1     -11.876  36.194   8.883  1.00  0.00    -0.003 C 
ATOM     16  C   UNL     1     -10.492  36.597   9.382  1.00  0.00     0.004 C 
ENDBRANCH  14  15
ENDBRANCH  13  14
ENDBRANCH  12  13
ENDBRANCH  11  12
ENDBRANCH  10  11
ENDBRANCH   1  10
TORSDOF 12
ENDMDL
MODEL 2
REMARK VINA RESULT:    -4.441      1.075      2.859
REMARK INTER + INTRA:          -9.286
REMARK INTER:                  -7.742
REMARK INTRA:                  -1.544
REMARK UNBOUND:                -1.729
REMARK SMILES CCCCCCCCCCCCCC(=O)[O-]
REMARK SMILES IDX 8 1 9 2 10 3 11 4 12 5 13 6 14 7 15 8 16 9 7 10 6 11 5 12
REMARK SMILES IDX 4 13 3 14 2 15 1 16
REMARK H PARENT
REMARK Flexibility Score: inf
ROOT
ATOM      1  C   UNL     1     -10.581  36.545   9.047  1.00  0.00     0.000 C 
ENDROOT
BRANCH   1   2
ATOM      2  C   UNL     1     -11.209  35.433   8.181  1.00  0.00     0.000 C 
BRANCH   2   3
ATOM      3  C   UNL     1     -10.209  34.605   7.354  1.00  0.00     0.000 C 
BRANCH   3   4
ATOM      4  C   UNL     1      -9.955  35.195   5.960  1.00  0.00     0.000 C 
BRANCH   4   5
ATOM      5  C   UNL     1      -8.593  34.742   5.410  1.00  0.00     0.006 C 
BRANCH   5   6
ATOM      6  C   UNL     1      -8.336  33.250   5.655  1.00  0.00     0.053 C 
BRANCH   6   7
ATOM      7  C   UNL     1      -6.929  32.993   6.101  1.00  0.00     0.041 C 
ATOM      8  O   UNL     1      -6.008  33.792   5.785  1.00  0.00    -0.550 OA
ATOM      9  O   UNL     1      -6.629  31.853   6.837  1.00  0.00    -0.550 OA
ENDBRANCH   6   7
ENDBRANCH   5   6
ENDBRANCH   4   5
ENDBRANCH   3   4
ENDBRANCH   2   3
ENDBRANCH   1   2
BRANCH   1  10
ATOM     10  C   UNL     1     -11.582  37.416   9.825  1.00  0.00     0.000 C 
BRANCH  10  11
ATOM     11  C   UNL     1     -12.239  38.497   8.949  1.00  0.00    -0.000 C 
BRANCH  11  12
ATOM     12  C   UNL     1     -11.220  39.253   8.082  1.00  0.00    -0.000 C 
BRANCH  12  13
ATOM     13  C   UNL     1     -11.521  39.143   6.580  1.00  0.00    -0.000 C 
BRANCH  13  14
ATOM     14  C   UNL     1     -10.239  38.879   5.781  1.00  0.00    -0.000 C 
BRANCH  14  15
ATOM     15  C   UNL     1      -9.002  38.945   6.685  1.00  0.00    -0.003 C 
ATOM     16  C   UNL     1      -7.815  38.226   6.049  1.00  0.00     0.004 C 
ENDBRANCH  14  15
ENDBRANCH  13  14
ENDBRANCH  12  13
ENDBRANCH  11  12
ENDBRANCH  10  11
ENDBRANCH   1  10
TORSDOF 12
ENDMDL
MODEL 3
REMARK VINA RESULT:    -4.431      1.232      2.360
REMARK INTER + INTRA:          -9.269
REMARK INTER:                  -7.411
REMARK INTRA:                  -1.858
REMARK UNBOUND:                -1.729
REMARK SMILES CCCCCCCCCCCCCC(=O)[O-]
REMARK SMILES IDX 8 1 9 2 10 3 11 4 12 5 13 6 14 7 15 8 16 9 7 10 6 11 5 12
REMARK SMILES IDX 4 13 3 14 2 15 1 16
REMARK H PARENT
REMARK Flexibility Score: inf
ROOT
ATOM      1  C   UNL     1     -10.471  38.788   5.665  1.00  0.00     0.000 C 
ENDROOT
BRANCH   1   2
ATOM      2  C   UNL     1      -9.142  38.872   6.444  1.00  0.00     0.000 C 
BRANCH   2   3
ATOM      3  C   UNL     1      -8.107  37.790   6.090  1.00  0.00     0.000 C 
BRANCH   3   4
ATOM      4  C   UNL     1      -8.723  36.594   5.350  1.00  0.00     0.000 C 
BRANCH   4   5
ATOM      5  C   UNL     1      -8.042  35.280   5.766  1.00  0.00     0.006 C 
BRANCH   5   6
ATOM      6  C   UNL     1      -8.891  34.052   5.418  1.00  0.00     0.053 C 
BRANCH   6   7
ATOM      7  C   UNL     1      -8.110  32.780   5.554  1.00  0.00     0.041 C 
ATOM      8  O   UNL     1      -8.286  31.838   4.736  1.00  0.00    -0.550 OA
ATOM      9  O   UNL     1      -7.213  32.621   6.603  1.00  0.00    -0.550 OA
ENDBRANCH   6   7
ENDBRANCH   5   6
ENDBRANCH   4   5
ENDBRANCH   3   4
ENDBRANCH   2   3
ENDBRANCH   1   2
BRANCH   1  10
ATOM     10  C   UNL     1     -11.680  39.443   6.356  1.00  0.00     0.000 C 
BRANCH  10  11
ATOM     11  C   UNL     1     -11.558  39.454   7.889  1.00  0.00    -0.000 C 
BRANCH  11  12
ATOM     12  C   UNL     1     -12.781  38.833   8.583  1.00  0.00    -0.000 C 
BRANCH  12  13
ATOM     13  C   UNL     1     -12.491  37.440   9.161  1.00  0.00    -0.000 C 
BRANCH  13  14
ATOM     14  C   UNL     1     -10.982  37.193   9.270  1.00  0.00    -0.000 C 
BRANCH  14  15
ATOM     15  C   UNL     1     -10.572  35.933   8.498  1.00  0.00    -0.003 C 
ATOM     16  C   UNL     1     -11.644  35.531   7.488  1.00  0.00     0.004 C 
ENDBRANCH  14  15
ENDBRANCH  13  14
ENDBRANCH  12  13
ENDBRANCH  11  12
ENDBRANCH  10  11
ENDBRANCH   1  10
TORSDOF 12
ENDMDL
MODEL 4
REMARK VINA RESULT:    -4.335      2.922      6.055
REMARK INTER + INTRA:          -9.105
REMARK INTER:                  -8.063
REMARK INTRA:                  -1.042
REMARK UNBOUND:                -1.729
REMARK SMILES CCCCCCCCCCCCCC(=O)[O-]
REMARK SMILES IDX 8 1 9 2 10 3 11 4 12 5 13 6 14 7 15 8 16 9 7 10 6 11 5 12
REMARK SMILES IDX 4 13 3 14 2 15 1 16
REMARK H PARENT
REMARK Flexibility Score: inf
ROOT
ATOM      1  C   UNL     1      -9.344  38.815   6.460  1.00  0.00     0.000 C 
ENDROOT
BRANCH   1   2
ATOM      2  C   UNL     1     -10.505  39.042   5.469  1.00  0.00     0.000 C 
BRANCH   2   3
ATOM      3  C   UNL     1     -11.774  39.662   6.081  1.00  0.00     0.000 C 
BRANCH   3   4
ATOM      4  C   UNL     1     -11.866  39.458   7.600  1.00  0.00     0.000 C 
BRANCH   4   5
ATOM      5  C   UNL     1     -12.994  38.477   7.956  1.00  0.00     0.006 C 
BRANCH   5   6
ATOM      6  C   UNL     1     -12.458  37.101   8.369  1.00  0.00     0.053 C 
BRANCH   6   7
ATOM      7  C   UNL     1     -11.475  37.202   9.495  1.00  0.00     0.041 C 
ATOM      8  O   UNL     1     -11.786  37.802  10.558  1.00  0.00    -0.550 OA
ATOM      9  O   UNL     1     -10.202  36.661   9.358  1.00  0.00    -0.550 OA
ENDBRANCH   6   7
ENDBRANCH   5   6
ENDBRANCH   4   5
ENDBRANCH   3   4
ENDBRANCH   2   3
ENDBRANCH   1   2
BRANCH   1  10
ATOM     10  C   UNL     1      -8.566  37.501   6.269  1.00  0.00     0.000 C 
BRANCH  10  11
ATOM     11  C   UNL     1      -9.381  36.428   5.527  1.00  0.00    -0.000 C 
BRANCH  11  12
ATOM     12  C   UNL     1      -9.106  35.010   6.053  1.00  0.00    -0.000 C 
BRANCH  12  13
ATOM     13  C   UNL     1      -7.772  34.438   5.551  1.00  0.00    -0.000 C 
BRANCH  13  14
ATOM     14  C   UNL     1      -7.838  32.911   5.436  1.00  0.00    -0.000 C 
BRANCH  14  15
ATOM     15  C   UNL     1      -7.133  32.238   6.620  1.00  0.00    -0.003 C 
ATOM     16  C   UNL     1      -5.626  32.155   6.390  1.00  0.00     0.004 C 
ENDBRANCH  14  15
ENDBRANCH  13  14
ENDBRANCH  12  13
ENDBRANCH  11  12
ENDBRANCH  10  11
ENDBRANCH   1  10
TORSDOF 12
ENDMDL
MODEL 5
REMARK VINA RESULT:    -4.325      3.123      6.484
REMARK INTER + INTRA:          -9.088
REMARK INTER:                  -8.006
REMARK INTRA:                  -1.081
REMARK UNBOUND:                -1.729
REMARK SMILES CCCCCCCCCCCCCC(=O)[O-]
REMARK SMILES IDX 8 1 9 2 10 3 11 4 12 5 13 6 14 7 15 8 16 9 7 10 6 11 5 12
REMARK SMILES IDX 4 13 3 14 2 15 1 16
REMARK H PARENT
REMARK Flexibility Score: inf
ROOT
ATOM      1  C   UNL     1      -8.608  36.577   5.648  1.00  0.00     0.000 C 
ENDROOT
BRANCH   1   2
ATOM      2  C   UNL     1      -8.011  37.962   5.969  1.00  0.00     0.000 C 
BRANCH   2   3
ATOM      3  C   UNL     1      -9.021  39.009   6.472  1.00  0.00     0.000 C 
BRANCH   3   4
ATOM      4  C   UNL     1     -10.311  39.041   5.640  1.00  0.00     0.000 C 
BRANCH   4   5
ATOM      5  C   UNL     1     -11.551  39.024   6.547  1.00  0.00     0.006 C 
BRANCH   5   6
ATOM      6  C   UNL     1     -11.185  39.124   8.033  1.00  0.00     0.053 C 
BRANCH   6   7
ATOM      7  C   UNL     1     -11.796  38.014   8.832  1.00  0.00     0.041 C 
ATOM      8  O   UNL     1     -12.295  37.014   8.251  1.00  0.00    -0.550 OA
ATOM      9  O   UNL     1     -11.843  38.099  10.218  1.00  0.00    -0.550 OA
ENDBRANCH   6   7
ENDBRANCH   5   6
ENDBRANCH   4   5
ENDBRANCH   3   4
ENDBRANCH   2   3
ENDBRANCH   1   2
BRANCH   1  10
ATOM     10  C   UNL     1      -9.283  35.862   6.832  1.00  0.00     0.000 C 
BRANCH  10  11
ATOM     11  C   UNL     1      -9.320  34.333   6.663  1.00  0.00    -0.000 C 
BRANCH  11  12
ATOM     12  C   UNL     1      -9.063  33.894   5.212  1.00  0.00    -0.000 C 
BRANCH  12  13
ATOM     13  C   UNL     1      -7.961  32.831   5.100  1.00  0.00    -0.000 C 
BRANCH  13  14
ATOM     14  C   UNL     1      -6.737  33.218   5.937  1.00  0.00    -0.000 C 
BRANCH  14  15
ATOM     15  C   UNL     1      -6.336  32.082   6.887  1.00  0.00    -0.003 C 
ATOM     16  C   UNL     1      -5.314  31.155   6.237  1.00  0.00     0.004 C 
ENDBRANCH  14  15
ENDBRANCH  13  14
ENDBRANCH  12  13
ENDBRANCH  11  12
ENDBRANCH  10  11
ENDBRANCH   1  10
TORSDOF 12
ENDMDL
MODEL 6
REMARK VINA RESULT:    -4.233      1.092      2.793
REMARK INTER + INTRA:          -8.931
REMARK INTER:                  -7.477
REMARK INTRA:                  -1.455
REMARK UNBOUND:                -1.729
REMARK SMILES CCCCCCCCCCCCCC(=O)[O-]
REMARK SMILES IDX 8 1 9 2 10 3 11 4 12 5 13 6 14 7 15 8 16 9 7 10 6 11 5 12
REMARK SMILES IDX 4 13 3 14 2 15 1 16
REMARK H PARENT
REMARK Flexibility Score: inf
ROOT
ATOM      1  C   UNL     1     -10.240  34.976   7.741  1.00  0.00     0.000 C 
ENDROOT
BRANCH   1   2
ATOM      2  C   UNL     1     -10.232  35.284   6.229  1.00  0.00     0.000 C 
BRANCH   2   3
ATOM      3  C   UNL     1      -9.329  34.370   5.381  1.00  0.00     0.000 C 
BRANCH   3   4
ATOM      4  C   UNL     1      -7.848  34.770   5.444  1.00  0.00     0.000 C 
BRANCH   4   5
ATOM      5  C   UNL     1      -6.966  33.562   5.798  1.00  0.00     0.006 C 
BRANCH   5   6
ATOM      6  C   UNL     1      -7.741  32.483   6.563  1.00  0.00     0.053 C 
BRANCH   6   7
ATOM      7  C   UNL     1      -7.534  31.123   5.970  1.00  0.00     0.041 C 
ATOM      8  O   UNL     1      -8.515  30.468   5.528  1.00  0.00    -0.550 OA
ATOM      9  O   UNL     1      -6.262  30.565   5.935  1.00  0.00    -0.550 OA
ENDBRANCH   6   7
ENDBRANCH   5   6
ENDBRANCH   4   5
ENDBRANCH   3   4
ENDBRANCH   2   3
ENDBRANCH   1   2
BRANCH   1  10
ATOM     10  C   UNL     1     -10.662  36.146   8.647  1.00  0.00     0.000 C 
BRANCH  10  11
ATOM     11  C   UNL     1     -11.741  37.036   8.008  1.00  0.00    -0.000 C 
BRANCH  11  12
ATOM     12  C   UNL     1     -11.341  38.520   7.980  1.00  0.00    -0.000 C 
BRANCH  12  13
ATOM     13  C   UNL     1     -11.492  39.150   6.587  1.00  0.00    -0.000 C 
BRANCH  13  14
ATOM     14  C   UNL     1     -10.204  38.993   5.771  1.00  0.00    -0.000 C 
BRANCH  14  15
ATOM     15  C   UNL     1      -8.968  39.021   6.679  1.00  0.00    -0.003 C 
ATOM     16  C   UNL     1      -7.819  38.221   6.071  1.00  0.00     0.004 C 
ENDBRANCH  14  15
ENDBRANCH  13  14
ENDBRANCH  12  13
ENDBRANCH  11  12
ENDBRANCH  10  11
ENDBRANCH   1  10
TORSDOF 12
ENDMDL
MODEL 7
REMARK VINA RESULT:    -4.188      4.131      8.447
REMARK INTER + INTRA:          -8.855
REMARK INTER:                  -8.419
REMARK INTRA:                  -0.436
REMARK UNBOUND:                -1.729
REMARK SMILES CCCCCCCCCCCCCC(=O)[O-]
REMARK SMILES IDX 8 1 9 2 10 3 11 4 12 5 13 6 14 7 15 8 16 9 7 10 6 11 5 12
REMARK SMILES IDX 4 13 3 14 2 15 1 16
REMARK H PARENT
REMARK Flexibility Score: inf
ROOT
ATOM      1  C   UNL     1      -8.076  32.570   5.673  1.00  0.00     0.000 C 
ENDROOT
BRANCH   1   2
ATOM      2  C   UNL     1      -7.919  34.022   5.177  1.00  0.00     0.000 C 
BRANCH   2   3
ATOM      3  C   UNL     1      -8.829  35.052   5.869  1.00  0.00     0.000 C 
BRANCH   3   4
ATOM      4  C   UNL     1      -8.371  36.500   5.645  1.00  0.00     0.000 C 
BRANCH   4   5
ATOM      5  C   UNL     1      -9.236  37.481   6.452  1.00  0.00     0.006 C 
BRANCH   5   6
ATOM      6  C   UNL     1     -10.325  38.135   5.593  1.00  0.00     0.053 C 
BRANCH   6   7
ATOM      7  C   UNL     1     -11.150  39.104   6.384  1.00  0.00     0.041 C 
ATOM      8  O   UNL     1     -11.902  39.925   5.795  1.00  0.00    -0.550 OA
ATOM      9  O   UNL     1     -11.063  39.124   7.771  1.00  0.00    -0.550 OA
ENDBRANCH   6   7
ENDBRANCH   5   6
ENDBRANCH   4   5
ENDBRANCH   3   4
ENDBRANCH   2   3
ENDBRANCH   1   2
BRANCH   1  10
ATOM     10  C   UNL     1      -7.060  32.126   6.740  1.00  0.00     0.000 C 
BRANCH  10  11
ATOM     11  C   UNL     1      -5.604  32.223   6.253  1.00  0.00    -0.000 C 
BRANCH  11  12
ATOM     12  C   UNL     1      -4.745  31.036   6.720  1.00  0.00    -0.000 C 
BRANCH  12  13
ATOM     13  C   UNL     1      -4.952  29.780   5.862  1.00  0.00    -0.000 C 
BRANCH  13  14
ATOM     14  C   UNL     1      -3.716  28.873   5.910  1.00  0.00    -0.000 C 
BRANCH  14  15
ATOM     15  C   UNL     1      -3.655  28.093   7.229  1.00  0.00    -0.003 C 
ATOM     16  C   UNL     1      -2.407  28.458   8.028  1.00  0.00     0.004 C 
ENDBRANCH  14  15
ENDBRANCH  13  14
ENDBRANCH  12  13
ENDBRANCH  11  12
ENDBRANCH  10  11
ENDBRANCH   1  10
TORSDOF 12
ENDMDL
MODEL 8
REMARK VINA RESULT:    -4.176      4.062      8.772
REMARK INTER + INTRA:          -8.834
REMARK INTER:                  -8.393
REMARK INTRA:                  -0.441
REMARK UNBOUND:                -1.729
REMARK SMILES CCCCCCCCCCCCCC(=O)[O-]
REMARK SMILES IDX 8 1 9 2 10 3 11 4 12 5 13 6 14 7 15 8 16 9 7 10 6 11 5 12
REMARK SMILES IDX 4 13 3 14 2 15 1 16
REMARK H PARENT
REMARK Flexibility Score: inf
ROOT
ATOM      1  C   UNL     1      -5.608  32.493   6.443  1.00  0.00     0.000 C 
ENDROOT
BRANCH   1   2
ATOM      2  C   UNL     1      -7.089  32.505   6.010  1.00  0.00     0.000 C 
BRANCH   2   3
ATOM      3  C   UNL     1      -7.632  33.878   5.577  1.00  0.00     0.000 C 
BRANCH   3   4
ATOM      4  C   UNL     1      -8.892  34.292   6.351  1.00  0.00     0.000 C 
BRANCH   4   5
ATOM      5  C   UNL     1      -9.554  35.521   5.708  1.00  0.00     0.006 C 
BRANCH   5   6
ATOM      6  C   UNL     1      -8.563  36.673   5.502  1.00  0.00     0.053 C 
BRANCH   6   7
ATOM      7  C   UNL     1      -8.737  37.748   6.531  1.00  0.00     0.041 C 
ATOM      8  O   UNL     1      -9.620  37.636   7.422  1.00  0.00    -0.550 OA
ATOM      9  O   UNL     1      -7.946  38.889   6.486  1.00  0.00    -0.550 OA
ENDBRANCH   6   7
ENDBRANCH   5   6
ENDBRANCH   4   5
ENDBRANCH   3   4
ENDBRANCH   2   3
ENDBRANCH   1   2
BRANCH   1  10
ATOM     10  C   UNL     1      -4.966  31.098   6.549  1.00  0.00     0.000 C 
BRANCH  10  11
ATOM     11  C   UNL     1      -5.598  30.076   5.588  1.00  0.00    -0.000 C 
BRANCH  11  12
ATOM     12  C   UNL     1      -4.653  28.907   5.265  1.00  0.00    -0.000 C 
BRANCH  12  13
ATOM     13  C   UNL     1      -4.278  28.087   6.508  1.00  0.00    -0.000 C 
BRANCH  13  14
ATOM     14  C   UNL     1      -2.854  28.416   6.974  1.00  0.00    -0.000 C 
BRANCH  14  15
ATOM     15  C   UNL     1      -2.729  28.289   8.497  1.00  0.00    -0.003 C 
ATOM     16  C   UNL     1      -1.980  27.017   8.884  1.00  0.00     0.004 C 
ENDBRANCH  14  15
ENDBRANCH  13  14
ENDBRANCH  12  13
ENDBRANCH  11  12
ENDBRANCH  10  11
ENDBRANCH   1  10
TORSDOF 12
ENDMDL
MODEL 9
REMARK VINA RESULT:    -4.050     14.047     15.446
REMARK INTER + INTRA:          -8.620
REMARK INTER:                  -7.029
REMARK INTRA:                  -1.591
REMARK UNBOUND:                -1.729
REMARK SMILES CCCCCCCCCCCCCC(=O)[O-]
REMARK SMILES IDX 8 1 9 2 10 3 11 4 12 5 13 6 14 7 15 8 16 9 7 10 6 11 5 12
REMARK SMILES IDX 4 13 3 14 2 15 1 16
REMARK H PARENT
REMARK Flexibility Score: inf
ROOT
ATOM      1  C   UNL     1       2.288  42.612  -1.766  1.00  0.00     0.000 C 
ENDROOT
BRANCH   1   2
ATOM      2  C   UNL     1       2.757  43.636  -0.711  1.00  0.00     0.000 C 
BRANCH   2   3
ATOM      3  C   UNL     1       3.940  43.180   0.161  1.00  0.00     0.000 C 
BRANCH   3   4
ATOM      4  C   UNL     1       5.240  43.010  -0.637  1.00  0.00     0.000 C 
BRANCH   4   5
ATOM      5  C   UNL     1       5.639  41.529  -0.730  1.00  0.00     0.006 C 
BRANCH   5   6
ATOM      6  C   UNL     1       6.750  41.164   0.261  1.00  0.00     0.053 C 
BRANCH   6   7
ATOM      7  C   UNL     1       6.302  40.124   1.242  1.00  0.00     0.041 C 
ATOM      8  O   UNL     1       7.080  39.193   1.578  1.00  0.00    -0.550 OA
ATOM      9  O   UNL     1       5.013  40.165   1.760  1.00  0.00    -0.550 OA
ENDBRANCH   6   7
ENDBRANCH   5   6
ENDBRANCH   4   5
ENDBRANCH   3   4
ENDBRANCH   2   3
ENDBRANCH   1   2
BRANCH   1  10
ATOM     10  C   UNL     1       0.781  42.301  -1.756  1.00  0.00     0.000 C 
BRANCH  10  11
ATOM     11  C   UNL     1      -0.086  43.557  -1.558  1.00  0.00    -0.000 C 
BRANCH  11  12
ATOM     12  C   UNL     1      -1.181  43.356  -0.498  1.00  0.00    -0.000 C 
BRANCH  12  13
ATOM     13  C   UNL     1      -0.701  42.526   0.702  1.00  0.00    -0.000 C 
BRANCH  13  14
ATOM     14  C   UNL     1      -0.034  43.418   1.755  1.00  0.00    -0.000 C 
BRANCH  14  15
ATOM     15  C   UNL     1       1.004  42.633   2.566  1.00  0.00    -0.003 C 
ATOM     16  C   UNL     1       1.326  41.297   1.903  1.00  0.00     0.004 C 
ENDBRANCH  14  15
ENDBRANCH  13  14
ENDBRANCH  12  13
ENDBRANCH  11  12
ENDBRANCH  10  11
ENDBRANCH   1  10
TORSDOF 12
ENDMDL
