MODEL 1
REMARK VINA RESULT:    -4.983      0.000      0.000
REMARK INTER + INTRA:          -9.336
REMARK INTER:                  -7.605
REMARK INTRA:                  -1.730
REMARK UNBOUND:                -1.730
REMARK SMILES OC[C@H]1O[C@@H](O[C@@]2(CO)O[C@H](CO)[C@H](O)[C@@H]2O)[C@H](O)[C@H](O)[C@H]1O
REMARK SMILES IDX 6 1 5 2 3 3 22 4 4 5 20 6 18 7 2 8 1 9 23 11 21 13 19 15
REMARK SMILES IDX 7 17 16 18 10 19 14 20 11 21 8 22 9 23 17 25 15 27 12 29
REMARK SMILES IDX 13 30
REMARK H PARENT 1 10 23 12 21 14 19 16 9 24 17 26 15 28 13 31
REMARK Flexibility Score: inf
ROOT
ATOM      1  O   UNL     1     173.883 174.629 153.801  1.00  0.00    -0.313 OA
ENDROOT
BRANCH   1   2
ATOM      2  C   UNL     1     175.192 175.066 154.127  1.00  0.00     0.285 C 
ATOM      3  C   UNL     1     176.319 173.954 152.315  1.00  0.00     0.178 C 
ATOM      4  C   UNL     1     176.863 172.837 153.257  1.00  0.00     0.177 C 
ATOM      5  O   UNL     1     176.017 175.184 152.971  1.00  0.00    -0.341 OA
ATOM      6  C   UNL     1     176.031 172.724 154.541  1.00  0.00     0.179 C 
ATOM      7  C   UNL     1     175.829 174.126 155.166  1.00  0.00     0.202 C 
BRANCH   3   8
ATOM      8  C   UNL     1     175.270 173.540 151.254  1.00  0.00     0.191 C 
BRANCH   8   9
ATOM      9  O   UNL     1     174.230 174.474 151.063  1.00  0.00    -0.394 OA
ATOM     10  H   UNL     1     173.372 173.967 151.066  1.00  0.00     0.210 HD
ENDBRANCH   8   9
ENDBRANCH   3   8
BRANCH   4  11
ATOM     11  O   UNL     1     176.912 171.604 152.594  1.00  0.00    -0.387 OA
ATOM     12  H   UNL     1     177.865 171.325 152.633  1.00  0.00     0.211 HD
ENDBRANCH   4  11
BRANCH   6  13
ATOM     13  O   UNL     1     176.681 171.894 155.475  1.00  0.00    -0.387 OA
ATOM     14  H   UNL     1     176.784 172.413 156.313  1.00  0.00     0.211 HD
ENDBRANCH   6  13
BRANCH   7  15
ATOM     15  O   UNL     1     177.062 174.680 155.551  1.00  0.00    -0.385 OA
ATOM     16  H   UNL     1     177.552 174.935 154.726  1.00  0.00     0.211 HD
ENDBRANCH   7  15
ENDBRANCH   1   2
BRANCH   1  17
ATOM     17  C   UNL     1     172.796 175.504 154.152  1.00  0.00     0.224 C 
ATOM     18  C   UNL     1     171.614 174.785 154.869  1.00  0.00     0.208 C 
ATOM     19  O   UNL     1     172.276 175.961 152.911  1.00  0.00    -0.337 OA
ATOM     20  C   UNL     1     170.387 175.472 154.289  1.00  0.00     0.180 C 
ATOM     21  C   UNL     1     170.886 175.721 152.865  1.00  0.00     0.179 C 
BRANCH  17  22
ATOM     22  C   UNL     1     173.322 176.813 154.845  1.00  0.00     0.225 C 
BRANCH  22  23
ATOM     23  O   UNL     1     172.634 177.997 154.545  1.00  0.00    -0.391 OA
ATOM     24  H   UNL     1     172.844 178.273 153.620  1.00  0.00     0.210 HD
ENDBRANCH  22  23
ENDBRANCH  17  22
BRANCH  18  25
ATOM     25  O   UNL     1     171.653 174.767 156.275  1.00  0.00    -0.385 OA
ATOM     26  H   UNL     1     172.226 174.004 156.549  1.00  0.00     0.211 HD
ENDBRANCH  18  25
BRANCH  20  27
ATOM     27  O   UNL     1     170.104 176.671 154.970  1.00  0.00    -0.387 OA
ATOM     28  H   UNL     1     169.391 177.147 154.461  1.00  0.00     0.211 HD
ENDBRANCH  20  27
BRANCH  21  29
ATOM     29  C   UNL     1     170.199 176.862 152.091  1.00  0.00     0.191 C 
BRANCH  29  30
ATOM     30  O   UNL     1     170.585 178.110 152.614  1.00  0.00    -0.394 OA
ATOM     31  H   UNL     1     169.983 178.311 153.379  1.00  0.00     0.210 HD
ENDBRANCH  29  30
ENDBRANCH  21  29
ENDBRANCH   1  17
TORSDOF 13
ENDMDL
MODEL 2
REMARK VINA RESULT:    -4.934      1.661      6.183
REMARK INTER + INTRA:          -9.260
REMARK INTER:                  -7.504
REMARK INTRA:                  -1.756
REMARK UNBOUND:                -1.730
REMARK SMILES OC[C@H]1O[C@@H](O[C@@]2(CO)O[C@H](CO)[C@H](O)[C@@H]2O)[C@H](O)[C@H](O)[C@H]1O
REMARK SMILES IDX 6 1 5 2 3 3 22 4 4 5 20 6 18 7 2 8 1 9 23 11 21 13 19 15
REMARK SMILES IDX 7 17 16 18 10 19 14 20 11 21 8 22 9 23 17 25 15 27 12 29
REMARK SMILES IDX 13 30
REMARK H PARENT 1 10 23 12 21 14 19 16 9 24 17 26 15 28 13 31
REMARK Flexibility Score: inf
ROOT
ATOM      1  O   UNL     1     173.405 174.996 153.214  1.00  0.00    -0.313 OA
ENDROOT
BRANCH   1   2
ATOM      2  C   UNL     1     172.560 174.786 152.094  1.00  0.00     0.285 C 
ATOM      3  C   UNL     1     171.773 177.052 151.908  1.00  0.00     0.178 C 
ATOM      4  C   UNL     1     170.394 176.691 152.542  1.00  0.00     0.177 C 
ATOM      5  O   UNL     1     172.443 175.957 151.289  1.00  0.00    -0.341 OA
ATOM      6  C   UNL     1     170.472 175.401 153.368  1.00  0.00     0.179 C 
ATOM      7  C   UNL     1     171.176 174.291 152.550  1.00  0.00     0.202 C 
BRANCH   3   8
ATOM      8  C   UNL     1     172.709 177.975 152.725  1.00  0.00     0.191 C 
BRANCH   8   9
ATOM      9  O   UNL     1     172.548 177.883 154.123  1.00  0.00    -0.394 OA
ATOM     10  H   UNL     1     173.373 178.255 154.542  1.00  0.00     0.210 HD
ENDBRANCH   8   9
ENDBRANCH   3   8
BRANCH   4  11
ATOM     11  O   UNL     1     169.912 177.748 153.326  1.00  0.00    -0.387 OA
ATOM     12  H   UNL     1     168.928 177.612 153.368  1.00  0.00     0.211 HD
ENDBRANCH   4  11
BRANCH   6  13
ATOM     13  O   UNL     1     169.179 174.964 153.717  1.00  0.00    -0.387 OA
ATOM     14  H   UNL     1     168.698 174.756 152.875  1.00  0.00     0.211 HD
ENDBRANCH   6  13
BRANCH   7  15
ATOM     15  O   UNL     1     170.431 173.971 151.402  1.00  0.00    -0.385 OA
ATOM     16  H   UNL     1     170.530 172.996 151.238  1.00  0.00     0.211 HD
ENDBRANCH   7  15
ENDBRANCH   1   2
BRANCH   1  17
ATOM     17  C   UNL     1     174.810 174.753 153.025  1.00  0.00     0.224 C 
ATOM     18  C   UNL     1     175.220 174.551 151.535  1.00  0.00     0.208 C 
ATOM     19  O   UNL     1     175.057 173.509 153.667  1.00  0.00    -0.337 OA
ATOM     20  C   UNL     1     176.272 173.455 151.611  1.00  0.00     0.180 C 
ATOM     21  C   UNL     1     175.698 172.633 152.766  1.00  0.00     0.179 C 
BRANCH  17  22
ATOM     22  C   UNL     1     175.679 175.778 153.840  1.00  0.00     0.225 C 
BRANCH  22  23
ATOM     23  O   UNL     1     176.574 175.234 154.774  1.00  0.00    -0.391 OA
ATOM     24  H   UNL     1     177.415 174.988 154.317  1.00  0.00     0.210 HD
ENDBRANCH  22  23
ENDBRANCH  17  22
BRANCH  18  25
ATOM     25  O   UNL     1     175.636 175.701 150.839  1.00  0.00    -0.385 OA
ATOM     26  H   UNL     1     176.282 175.413 150.143  1.00  0.00     0.211 HD
ENDBRANCH  18  25
BRANCH  20  27
ATOM     27  O   UNL     1     177.540 173.984 151.914  1.00  0.00    -0.387 OA
ATOM     28  H   UNL     1     177.912 174.379 151.077  1.00  0.00     0.211 HD
ENDBRANCH  20  27
BRANCH  21  29
ATOM     29  C   UNL     1     176.697 171.751 153.538  1.00  0.00     0.191 C 
BRANCH  29  30
ATOM     30  O   UNL     1     177.650 172.552 154.194  1.00  0.00    -0.394 OA
ATOM     31  H   UNL     1     177.434 172.539 155.165  1.00  0.00     0.210 HD
ENDBRANCH  29  30
ENDBRANCH  21  29
ENDBRANCH   1  17
TORSDOF 13
ENDMDL
MODEL 3
REMARK VINA RESULT:    -4.822      2.153      3.380
REMARK INTER + INTRA:          -9.089
REMARK INTER:                  -7.210
REMARK INTRA:                  -1.879
REMARK UNBOUND:                -1.730
REMARK SMILES OC[C@H]1O[C@@H](O[C@@]2(CO)O[C@H](CO)[C@H](O)[C@@H]2O)[C@H](O)[C@H](O)[C@H]1O
REMARK SMILES IDX 6 1 5 2 3 3 22 4 4 5 20 6 18 7 2 8 1 9 23 11 21 13 19 15
REMARK SMILES IDX 7 17 16 18 10 19 14 20 11 21 8 22 9 23 17 25 15 27 12 29
REMARK SMILES IDX 13 30
REMARK H PARENT 1 10 23 12 21 14 19 16 9 24 17 26 15 28 13 31
REMARK Flexibility Score: inf
ROOT
ATOM      1  O   UNL     1     174.865 173.768 152.957  1.00  0.00    -0.313 OA
ENDROOT
BRANCH   1   2
ATOM      2  C   UNL     1     176.273 173.592 152.961  1.00  0.00     0.285 C 
ATOM      3  C   UNL     1     176.374 172.099 151.077  1.00  0.00     0.178 C 
ATOM      4  C   UNL     1     176.593 170.857 151.993  1.00  0.00     0.177 C 
ATOM      5  O   UNL     1     176.781 173.337 151.654  1.00  0.00    -0.341 OA
ATOM      6  C   UNL     1     176.110 171.118 153.426  1.00  0.00     0.179 C 
ATOM      7  C   UNL     1     176.671 172.468 153.935  1.00  0.00     0.202 C 
BRANCH   3   8
ATOM      8  C   UNL     1     175.036 172.182 150.301  1.00  0.00     0.191 C 
BRANCH   8   9
ATOM      9  O   UNL     1     173.905 171.776 151.040  1.00  0.00    -0.394 OA
ATOM     10  H   UNL     1     173.238 171.422 150.390  1.00  0.00     0.210 HD
ENDBRANCH   8   9
ENDBRANCH   3   8
BRANCH   4  11
ATOM     11  O   UNL     1     175.961 169.724 151.462  1.00  0.00    -0.387 OA
ATOM     12  H   UNL     1     176.532 169.441 150.699  1.00  0.00     0.211 HD
ENDBRANCH   4  11
BRANCH   6  13
ATOM     13  O   UNL     1     176.542 170.088 154.284  1.00  0.00    -0.387 OA
ATOM     14  H   UNL     1     176.528 169.243 153.766  1.00  0.00     0.211 HD
ENDBRANCH   6  13
BRANCH   7  15
ATOM     15  O   UNL     1     178.074 172.430 154.001  1.00  0.00    -0.385 OA
ATOM     16  H   UNL     1     178.327 171.793 154.720  1.00  0.00     0.211 HD
ENDBRANCH   7  15
ENDBRANCH   1   2
BRANCH   1  17
ATOM     17  C   UNL     1     174.377 175.111 152.798  1.00  0.00     0.224 C 
ATOM     18  C   UNL     1     175.440 176.107 152.242  1.00  0.00     0.208 C 
ATOM     19  O   UNL     1     174.084 175.554 154.117  1.00  0.00    -0.337 OA
ATOM     20  C   UNL     1     175.158 177.384 153.019  1.00  0.00     0.180 C 
ATOM     21  C   UNL     1     174.744 176.778 154.360  1.00  0.00     0.179 C 
BRANCH  17  22
ATOM     22  C   UNL     1     172.981 175.128 152.076  1.00  0.00     0.225 C 
BRANCH  22  23
ATOM     23  O   UNL     1     171.982 175.915 152.667  1.00  0.00    -0.391 OA
ATOM     24  H   UNL     1     171.970 176.806 152.238  1.00  0.00     0.210 HD
ENDBRANCH  22  23
ENDBRANCH  17  22
BRANCH  18  25
ATOM     25  O   UNL     1     175.467 176.276 150.845  1.00  0.00    -0.385 OA
ATOM     26  H   UNL     1     174.728 175.735 150.463  1.00  0.00     0.211 HD
ENDBRANCH  18  25
BRANCH  20  27
ATOM     27  O   UNL     1     174.119 178.124 152.425  1.00  0.00    -0.387 OA
ATOM     28  H   UNL     1     173.486 177.477 152.008  1.00  0.00     0.211 HD
ENDBRANCH  20  27
BRANCH  21  29
ATOM     29  C   UNL     1     173.861 177.660 155.263  1.00  0.00     0.191 C 
BRANCH  29  30
ATOM     30  O   UNL     1     172.564 177.766 154.726  1.00  0.00    -0.394 OA
ATOM     31  H   UNL     1     172.088 176.916 154.925  1.00  0.00     0.210 HD
ENDBRANCH  29  30
ENDBRANCH  21  29
ENDBRANCH   1  17
TORSDOF 13
ENDMDL
MODEL 4
REMARK VINA RESULT:    -4.793      1.287      2.620
REMARK INTER + INTRA:          -9.046
REMARK INTER:                  -7.494
REMARK INTRA:                  -1.551
REMARK UNBOUND:                -1.730
REMARK SMILES OC[C@H]1O[C@@H](O[C@@]2(CO)O[C@H](CO)[C@H](O)[C@@H]2O)[C@H](O)[C@H](O)[C@H]1O
REMARK SMILES IDX 6 1 5 2 3 3 22 4 4 5 20 6 18 7 2 8 1 9 23 11 21 13 19 15
REMARK SMILES IDX 7 17 16 18 10 19 14 20 11 21 8 22 9 23 17 25 15 27 12 29
REMARK SMILES IDX 13 30
REMARK H PARENT 1 10 23 12 21 14 19 16 9 24 17 26 15 28 13 31
REMARK Flexibility Score: inf
ROOT
ATOM      1  O   UNL     1     174.328 175.525 152.938  1.00  0.00    -0.313 OA
ENDROOT
BRANCH   1   2
ATOM      2  C   UNL     1     174.114 174.283 152.286  1.00  0.00     0.285 C 
ATOM      3  C   UNL     1     175.464 172.953 153.768  1.00  0.00     0.178 C 
ATOM      4  C   UNL     1     176.627 172.868 152.734  1.00  0.00     0.177 C 
ATOM      5  O   UNL     1     174.180 173.187 153.195  1.00  0.00    -0.341 OA
ATOM      6  C   UNL     1     176.552 174.001 151.703  1.00  0.00     0.179 C 
ATOM      7  C   UNL     1     175.116 174.102 151.132  1.00  0.00     0.202 C 
BRANCH   3   8
ATOM      8  C   UNL     1     175.725 173.758 155.065  1.00  0.00     0.191 C 
BRANCH   8   9
ATOM      9  O   UNL     1     176.413 174.974 154.871  1.00  0.00    -0.394 OA
ATOM     10  H   UNL     1     175.993 175.651 155.469  1.00  0.00     0.210 HD
ENDBRANCH   8   9
ENDBRANCH   3   8
BRANCH   4  11
ATOM     11  O   UNL     1     177.872 172.873 153.378  1.00  0.00    -0.387 OA
ATOM     12  H   UNL     1     178.367 173.640 152.982  1.00  0.00     0.211 HD
ENDBRANCH   4  11
BRANCH   6  13
ATOM     13  O   UNL     1     177.451 173.763 150.645  1.00  0.00    -0.387 OA
ATOM     14  H   UNL     1     176.945 173.312 149.921  1.00  0.00     0.211 HD
ENDBRANCH   6  13
BRANCH   7  15
ATOM     15  O   UNL     1     174.773 172.927 150.441  1.00  0.00    -0.385 OA
ATOM     16  H   UNL     1     175.452 172.784 149.731  1.00  0.00     0.211 HD
ENDBRANCH   7  15
ENDBRANCH   1   2
BRANCH   1  17
ATOM     17  C   UNL     1     173.160 176.238 153.381  1.00  0.00     0.224 C 
ATOM     18  C   UNL     1     172.234 175.409 154.322  1.00  0.00     0.208 C 
ATOM     19  O   UNL     1     172.403 176.472 152.201  1.00  0.00    -0.337 OA
ATOM     20  C   UNL     1     170.837 175.819 153.882  1.00  0.00     0.180 C 
ATOM     21  C   UNL     1     171.086 176.001 152.384  1.00  0.00     0.179 C 
BRANCH  17  22
ATOM     22  C   UNL     1     173.530 177.680 153.884  1.00  0.00     0.225 C 
BRANCH  22  23
ATOM     23  O   UNL     1     172.876 178.125 155.042  1.00  0.00    -0.391 OA
ATOM     24  H   UNL     1     173.537 178.527 155.657  1.00  0.00     0.210 HD
ENDBRANCH  22  23
ENDBRANCH  17  22
BRANCH  18  25
ATOM     25  O   UNL     1     172.466 175.542 155.703  1.00  0.00    -0.385 OA
ATOM     26  H   UNL     1     171.857 176.248 156.042  1.00  0.00     0.211 HD
ENDBRANCH  18  25
BRANCH  20  27
ATOM     27  O   UNL     1     170.437 177.017 154.504  1.00  0.00    -0.387 OA
ATOM     28  H   UNL     1     169.997 177.585 153.813  1.00  0.00     0.211 HD
ENDBRANCH  20  27
BRANCH  21  29
ATOM     29  C   UNL     1     170.106 176.926 151.637  1.00  0.00     0.191 C 
BRANCH  29  30
ATOM     30  O   UNL     1     168.806 176.781 152.154  1.00  0.00    -0.394 OA
ATOM     31  H   UNL     1     168.747 177.338 152.976  1.00  0.00     0.210 HD
ENDBRANCH  29  30
ENDBRANCH  21  29
ENDBRANCH   1  17
TORSDOF 13
ENDMDL
MODEL 5
REMARK VINA RESULT:    -4.791      2.085      6.153
REMARK INTER + INTRA:          -9.043
REMARK INTER:                  -7.455
REMARK INTRA:                  -1.588
REMARK UNBOUND:                -1.730
REMARK SMILES OC[C@H]1O[C@@H](O[C@@]2(CO)O[C@H](CO)[C@H](O)[C@@H]2O)[C@H](O)[C@H](O)[C@H]1O
REMARK SMILES IDX 6 1 5 2 3 3 22 4 4 5 20 6 18 7 2 8 1 9 23 11 21 13 19 15
REMARK SMILES IDX 7 17 16 18 10 19 14 20 11 21 8 22 9 23 17 25 15 27 12 29
REMARK SMILES IDX 13 30
REMARK H PARENT 1 10 23 12 21 14 19 16 9 24 17 26 15 28 13 31
REMARK Flexibility Score: inf
ROOT
ATOM      1  O   UNL     1     174.977 174.418 153.795  1.00  0.00    -0.313 OA
ENDROOT
BRANCH   1   2
ATOM      2  C   UNL     1     175.628 175.566 153.275  1.00  0.00     0.285 C 
ATOM      3  C   UNL     1     174.993 177.071 155.041  1.00  0.00     0.178 C 
ATOM      4  C   UNL     1     173.904 177.750 154.156  1.00  0.00     0.177 C 
ATOM      5  O   UNL     1     176.048 176.453 154.308  1.00  0.00    -0.341 OA
ATOM      6  C   UNL     1     173.471 176.844 152.997  1.00  0.00     0.179 C 
ATOM      7  C   UNL     1     174.718 176.288 152.266  1.00  0.00     0.202 C 
BRANCH   3   8
ATOM      8  C   UNL     1     174.507 176.242 156.254  1.00  0.00     0.191 C 
BRANCH   8   9
ATOM      9  O   UNL     1     173.241 175.642 156.084  1.00  0.00    -0.394 OA
ATOM     10  H   UNL     1     172.560 176.290 156.415  1.00  0.00     0.210 HD
ENDBRANCH   8   9
ENDBRANCH   3   8
BRANCH   4  11
ATOM     11  O   UNL     1     172.795 178.125 154.927  1.00  0.00    -0.387 OA
ATOM     12  H   UNL     1     173.044 177.909 155.864  1.00  0.00     0.211 HD
ENDBRANCH   4  11
BRANCH   6  13
ATOM     13  O   UNL     1     172.683 177.565 152.079  1.00  0.00    -0.387 OA
ATOM     14  H   UNL     1     172.517 176.974 151.300  1.00  0.00     0.211 HD
ENDBRANCH   6  13
BRANCH   7  15
ATOM     15  O   UNL     1     175.458 177.332 151.685  1.00  0.00    -0.385 OA
ATOM     16  H   UNL     1     176.208 177.550 152.298  1.00  0.00     0.211 HD
ENDBRANCH   7  15
ENDBRANCH   1   2
BRANCH   1  17
ATOM     17  C   UNL     1     175.768 173.224 153.928  1.00  0.00     0.224 C 
ATOM     18  C   UNL     1     176.505 172.808 152.620  1.00  0.00     0.208 C 
ATOM     19  O   UNL     1     174.831 172.189 154.191  1.00  0.00    -0.337 OA
ATOM     20  C   UNL     1     176.401 171.290 152.631  1.00  0.00     0.180 C 
ATOM     21  C   UNL     1     175.020 171.136 153.271  1.00  0.00     0.179 C 
BRANCH  17  22
ATOM     22  C   UNL     1     176.654 173.270 155.226  1.00  0.00     0.225 C 
BRANCH  22  23
ATOM     23  O   UNL     1     178.000 172.906 155.077  1.00  0.00    -0.391 OA
ATOM     24  H   UNL     1     178.139 172.005 155.457  1.00  0.00     0.210 HD
ENDBRANCH  22  23
ENDBRANCH  17  22
BRANCH  18  25
ATOM     25  O   UNL     1     177.816 173.294 152.458  1.00  0.00    -0.385 OA
ATOM     26  H   UNL     1     178.220 172.815 151.689  1.00  0.00     0.211 HD
ENDBRANCH  18  25
BRANCH  20  27
ATOM     27  O   UNL     1     177.417 170.714 153.417  1.00  0.00    -0.387 OA
ATOM     28  H   UNL     1     178.284 170.864 152.948  1.00  0.00     0.211 HD
ENDBRANCH  20  27
BRANCH  21  29
ATOM     29  C   UNL     1     174.738 169.793 153.970  1.00  0.00     0.191 C 
BRANCH  29  30
ATOM     30  O   UNL     1     175.360 169.758 155.232  1.00  0.00    -0.394 OA
ATOM     31  H   UNL     1     175.988 168.987 155.233  1.00  0.00     0.210 HD
ENDBRANCH  29  30
ENDBRANCH  21  29
ENDBRANCH   1  17
TORSDOF 13
ENDMDL
MODEL 6
REMARK VINA RESULT:    -4.772      1.850      3.739
REMARK INTER + INTRA:          -9.013
REMARK INTER:                  -7.405
REMARK INTRA:                  -1.608
REMARK UNBOUND:                -1.730
REMARK SMILES OC[C@H]1O[C@@H](O[C@@]2(CO)O[C@H](CO)[C@H](O)[C@@H]2O)[C@H](O)[C@H](O)[C@H]1O
REMARK SMILES IDX 6 1 5 2 3 3 22 4 4 5 20 6 18 7 2 8 1 9 23 11 21 13 19 15
REMARK SMILES IDX 7 17 16 18 10 19 14 20 11 21 8 22 9 23 17 25 15 27 12 29
REMARK SMILES IDX 13 30
REMARK H PARENT 1 10 23 12 21 14 19 16 9 24 17 26 15 28 13 31
REMARK Flexibility Score: inf
ROOT
ATOM      1  O   UNL     1     175.553 174.376 152.208  1.00  0.00    -0.313 OA
ENDROOT
BRANCH   1   2
ATOM      2  C   UNL     1     174.606 173.380 151.857  1.00  0.00     0.285 C 
ATOM      3  C   UNL     1     175.462 171.658 153.303  1.00  0.00     0.178 C 
ATOM      4  C   UNL     1     176.133 170.906 152.114  1.00  0.00     0.177 C 
ATOM      5  O   UNL     1     174.357 172.480 152.933  1.00  0.00    -0.341 OA
ATOM      6  C   UNL     1     176.362 171.835 150.914  1.00  0.00     0.179 C 
ATOM      7  C   UNL     1     175.066 172.622 150.600  1.00  0.00     0.202 C 
BRANCH   3   8
ATOM      8  C   UNL     1     176.397 172.306 154.353  1.00  0.00     0.191 C 
BRANCH   8   9
ATOM      9  O   UNL     1     177.624 172.772 153.835  1.00  0.00    -0.394 OA
ATOM     10  H   UNL     1     177.816 172.248 153.010  1.00  0.00     0.210 HD
ENDBRANCH   8   9
ENDBRANCH   3   8
BRANCH   4  11
ATOM     11  O   UNL     1     177.339 170.315 152.513  1.00  0.00    -0.387 OA
ATOM     12  H   UNL     1     177.172 169.335 152.480  1.00  0.00     0.211 HD
ENDBRANCH   4  11
BRANCH   6  13
ATOM     13  O   UNL     1     176.733 171.087 149.779  1.00  0.00    -0.387 OA
ATOM     14  H   UNL     1     177.072 170.211 150.098  1.00  0.00     0.211 HD
ENDBRANCH   6  13
BRANCH   7  15
ATOM     15  O   UNL     1     174.034 171.746 150.220  1.00  0.00    -0.385 OA
ATOM     16  H   UNL     1     173.877 171.866 149.247  1.00  0.00     0.211 HD
ENDBRANCH   7  15
ENDBRANCH   1   2
BRANCH   1  17
ATOM     17  C   UNL     1     175.034 175.654 152.615  1.00  0.00     0.224 C 
ATOM     18  C   UNL     1     175.275 175.983 154.120  1.00  0.00     0.208 C 
ATOM     19  O   UNL     1     173.625 175.544 152.464  1.00  0.00    -0.337 OA
ATOM     20  C   UNL     1     173.989 176.683 154.532  1.00  0.00     0.180 C 
ATOM     21  C   UNL     1     172.991 175.906 153.672  1.00  0.00     0.179 C 
BRANCH  17  22
ATOM     22  C   UNL     1     175.435 176.782 151.597  1.00  0.00     0.225 C 
BRANCH  22  23
ATOM     23  O   UNL     1     175.791 178.023 152.147  1.00  0.00    -0.391 OA
ATOM     24  H   UNL     1     175.317 178.148 153.006  1.00  0.00     0.210 HD
ENDBRANCH  22  23
ENDBRANCH  17  22
BRANCH  18  25
ATOM     25  O   UNL     1     176.445 176.703 154.423  1.00  0.00    -0.385 OA
ATOM     26  H   UNL     1     176.210 177.381 155.108  1.00  0.00     0.211 HD
ENDBRANCH  18  25
BRANCH  20  27
ATOM     27  O   UNL     1     174.023 178.050 154.203  1.00  0.00    -0.387 OA
ATOM     28  H   UNL     1     174.033 178.123 153.209  1.00  0.00     0.211 HD
ENDBRANCH  20  27
BRANCH  21  29
ATOM     29  C   UNL     1     171.663 176.620 153.354  1.00  0.00     0.191 C 
BRANCH  29  30
ATOM     30  O   UNL     1     171.159 177.250 154.507  1.00  0.00    -0.394 OA
ATOM     31  H   UNL     1     171.572 178.153 154.560  1.00  0.00     0.210 HD
ENDBRANCH  29  30
ENDBRANCH  21  29
ENDBRANCH   1  17
TORSDOF 13
ENDMDL
MODEL 7
REMARK VINA RESULT:    -4.762      2.193      5.892
REMARK INTER + INTRA:          -8.999
REMARK INTER:                  -7.212
REMARK INTRA:                  -1.787
REMARK UNBOUND:                -1.730
REMARK SMILES OC[C@H]1O[C@@H](O[C@@]2(CO)O[C@H](CO)[C@H](O)[C@@H]2O)[C@H](O)[C@H](O)[C@H]1O
REMARK SMILES IDX 6 1 5 2 3 3 22 4 4 5 20 6 18 7 2 8 1 9 23 11 21 13 19 15
REMARK SMILES IDX 7 17 16 18 10 19 14 20 11 21 8 22 9 23 17 25 15 27 12 29
REMARK SMILES IDX 13 30
REMARK H PARENT 1 10 23 12 21 14 19 16 9 24 17 26 15 28 13 31
REMARK Flexibility Score: inf
ROOT
ATOM      1  O   UNL     1     174.523 174.575 153.132  1.00  0.00    -0.313 OA
ENDROOT
BRANCH   1   2
ATOM      2  C   UNL     1     174.989 175.864 152.769  1.00  0.00     0.285 C 
ATOM      3  C   UNL     1     175.873 176.460 154.926  1.00  0.00     0.178 C 
ATOM      4  C   UNL     1     174.664 177.395 155.232  1.00  0.00     0.177 C 
ATOM      5  O   UNL     1     176.124 176.255 153.537  1.00  0.00    -0.341 OA
ATOM      6  C   UNL     1     173.442 177.039 154.377  1.00  0.00     0.179 C 
ATOM      7  C   UNL     1     173.857 176.899 152.892  1.00  0.00     0.202 C 
BRANCH   3   8
ATOM      8  C   UNL     1     176.012 175.176 155.780  1.00  0.00     0.191 C 
BRANCH   8   9
ATOM      9  O   UNL     1     176.896 174.213 155.250  1.00  0.00    -0.394 OA
ATOM     10  H   UNL     1     176.585 173.320 155.566  1.00  0.00     0.210 HD
ENDBRANCH   8   9
ENDBRANCH   3   8
BRANCH   4  11
ATOM     11  O   UNL     1     174.336 177.360 156.594  1.00  0.00    -0.387 OA
ATOM     12  H   UNL     1     175.207 177.396 157.072  1.00  0.00     0.211 HD
ENDBRANCH   4  11
BRANCH   6  13
ATOM     13  O   UNL     1     172.457 178.041 154.486  1.00  0.00    -0.387 OA
ATOM     14  H   UNL     1     172.069 177.977 155.396  1.00  0.00     0.211 HD
ENDBRANCH   6  13
BRANCH   7  15
ATOM     15  O   UNL     1     174.335 178.124 152.393  1.00  0.00    -0.385 OA
ATOM     16  H   UNL     1     173.891 178.852 152.902  1.00  0.00     0.211 HD
ENDBRANCH   7  15
ENDBRANCH   1   2
BRANCH   1  17
ATOM     17  C   UNL     1     175.094 173.454 152.433  1.00  0.00     0.224 C 
ATOM     18  C   UNL     1     174.053 172.611 151.636  1.00  0.00     0.208 C 
ATOM     19  O   UNL     1     175.587 172.597 153.454  1.00  0.00    -0.337 OA
ATOM     20  C   UNL     1     174.533 171.183 151.842  1.00  0.00     0.180 C 
ATOM     21  C   UNL     1     175.065 171.298 153.272  1.00  0.00     0.179 C 
BRANCH  17  22
ATOM     22  C   UNL     1     176.383 173.876 151.640  1.00  0.00     0.225 C 
BRANCH  22  23
ATOM     23  O   UNL     1     177.611 173.651 152.278  1.00  0.00    -0.391 OA
ATOM     24  H   UNL     1     177.835 174.431 152.842  1.00  0.00     0.210 HD
ENDBRANCH  22  23
ENDBRANCH  17  22
BRANCH  18  25
ATOM     25  O   UNL     1     173.862 172.966 150.288  1.00  0.00    -0.385 OA
ATOM     26  H   UNL     1     174.484 172.418 149.743  1.00  0.00     0.211 HD
ENDBRANCH  18  25
BRANCH  20  27
ATOM     27  O   UNL     1     175.545 170.847 150.924  1.00  0.00    -0.387 OA
ATOM     28  H   UNL     1     175.287 171.220 150.037  1.00  0.00     0.211 HD
ENDBRANCH  20  27
BRANCH  21  29
ATOM     29  C   UNL     1     176.124 170.262 153.692  1.00  0.00     0.191 C 
BRANCH  29  30
ATOM     30  O   UNL     1     177.415 170.730 153.384  1.00  0.00    -0.394 OA
ATOM     31  H   UNL     1     177.562 171.564 153.905  1.00  0.00     0.210 HD
ENDBRANCH  29  30
ENDBRANCH  21  29
ENDBRANCH   1  17
TORSDOF 13
ENDMDL
MODEL 8
REMARK VINA RESULT:    -4.742      2.001      6.087
REMARK INTER + INTRA:          -8.968
REMARK INTER:                  -7.263
REMARK INTRA:                  -1.705
REMARK UNBOUND:                -1.730
REMARK SMILES OC[C@H]1O[C@@H](O[C@@]2(CO)O[C@H](CO)[C@H](O)[C@@H]2O)[C@H](O)[C@H](O)[C@H]1O
REMARK SMILES IDX 6 1 5 2 3 3 22 4 4 5 20 6 18 7 2 8 1 9 23 11 21 13 19 15
REMARK SMILES IDX 7 17 16 18 10 19 14 20 11 21 8 22 9 23 17 25 15 27 12 29
REMARK SMILES IDX 13 30
REMARK H PARENT 1 10 23 12 21 14 19 16 9 24 17 26 15 28 13 31
REMARK Flexibility Score: inf
ROOT
ATOM      1  O   UNL     1     175.245 174.188 153.078  1.00  0.00    -0.313 OA
ENDROOT
BRANCH   1   2
ATOM      2  C   UNL     1     175.518 175.517 152.661  1.00  0.00     0.285 C 
ATOM      3  C   UNL     1     175.662 176.477 154.862  1.00  0.00     0.178 C 
ATOM      4  C   UNL     1     174.251 177.128 154.738  1.00  0.00     0.177 C 
ATOM      5  O   UNL     1     176.306 176.222 153.616  1.00  0.00    -0.341 OA
ATOM      6  C   UNL     1     173.396 176.428 153.675  1.00  0.00     0.179 C 
ATOM      7  C   UNL     1     174.207 176.267 152.366  1.00  0.00     0.202 C 
BRANCH   3   8
ATOM      8  C   UNL     1     175.830 175.337 155.895  1.00  0.00     0.191 C 
BRANCH   8   9
ATOM      9  O   UNL     1     176.986 174.548 155.714  1.00  0.00    -0.394 OA
ATOM     10  H   UNL     1     176.894 174.085 154.837  1.00  0.00     0.210 HD
ENDBRANCH   8   9
ENDBRANCH   3   8
BRANCH   4  11
ATOM     11  O   UNL     1     173.591 177.131 155.975  1.00  0.00    -0.387 OA
ATOM     12  H   UNL     1     174.227 177.558 156.608  1.00  0.00     0.211 HD
ENDBRANCH   4  11
BRANCH   6  13
ATOM     13  O   UNL     1     172.235 177.180 153.406  1.00  0.00    -0.387 OA
ATOM     14  H   UNL     1     172.442 177.787 152.650  1.00  0.00     0.211 HD
ENDBRANCH   6  13
BRANCH   7  15
ATOM     15  O   UNL     1     174.539 177.523 151.829  1.00  0.00    -0.385 OA
ATOM     16  H   UNL     1     173.794 177.807 151.237  1.00  0.00     0.211 HD
ENDBRANCH   7  15
ENDBRANCH   1   2
BRANCH   1  17
ATOM     17  C   UNL     1     175.838 173.128 152.308  1.00  0.00     0.224 C 
ATOM     18  C   UNL     1     176.637 173.623 151.065  1.00  0.00     0.208 C 
ATOM     19  O   UNL     1     174.740 172.388 151.793  1.00  0.00    -0.337 OA
ATOM     20  C   UNL     1     176.315 172.579 150.007  1.00  0.00     0.180 C 
ATOM     21  C   UNL     1     174.868 172.266 150.393  1.00  0.00     0.179 C 
BRANCH  17  22
ATOM     22  C   UNL     1     176.584 172.101 153.235  1.00  0.00     0.225 C 
BRANCH  22  23
ATOM     23  O   UNL     1     177.795 172.530 153.796  1.00  0.00    -0.391 OA
ATOM     24  H   UNL     1     177.666 173.416 154.214  1.00  0.00     0.210 HD
ENDBRANCH  22  23
ENDBRANCH  17  22
BRANCH  18  25
ATOM     25  O   UNL     1     178.014 173.846 151.254  1.00  0.00    -0.385 OA
ATOM     26  H   UNL     1     178.405 173.009 151.616  1.00  0.00     0.211 HD
ENDBRANCH  18  25
BRANCH  20  27
ATOM     27  O   UNL     1     177.152 171.454 150.128  1.00  0.00    -0.387 OA
ATOM     28  H   UNL     1     176.749 170.848 150.809  1.00  0.00     0.211 HD
ENDBRANCH  20  27
BRANCH  21  29
ATOM     29  C   UNL     1     174.325 170.895 149.951  1.00  0.00     0.191 C 
BRANCH  29  30
ATOM     30  O   UNL     1     174.815 169.880 150.794  1.00  0.00    -0.394 OA
ATOM     31  H   UNL     1     174.967 170.284 151.690  1.00  0.00     0.210 HD
ENDBRANCH  29  30
ENDBRANCH  21  29
ENDBRANCH   1  17
TORSDOF 13
ENDMDL
MODEL 9
REMARK VINA RESULT:    -4.724      7.842     11.017
REMARK INTER + INTRA:          -8.940
REMARK INTER:                  -7.096
REMARK INTRA:                  -1.844
REMARK UNBOUND:                -1.730
REMARK SMILES OC[C@H]1O[C@@H](O[C@@]2(CO)O[C@H](CO)[C@H](O)[C@@H]2O)[C@H](O)[C@H](O)[C@H]1O
REMARK SMILES IDX 6 1 5 2 3 3 22 4 4 5 20 6 18 7 2 8 1 9 23 11 21 13 19 15
REMARK SMILES IDX 7 17 16 18 10 19 14 20 11 21 8 22 9 23 17 25 15 27 12 29
REMARK SMILES IDX 13 30
REMARK H PARENT 1 10 23 12 21 14 19 16 9 24 17 26 15 28 13 31
REMARK Flexibility Score: inf
ROOT
ATOM      1  O   UNL     1     163.600 175.489 153.793  1.00  0.00    -0.313 OA
ENDROOT
BRANCH   1   2
ATOM      2  C   UNL     1     163.806 176.789 154.323  1.00  0.00     0.285 C 
ATOM      3  C   UNL     1     164.732 177.761 152.326  1.00  0.00     0.178 C 
ATOM      4  C   UNL     1     166.181 177.708 152.897  1.00  0.00     0.177 C 
ATOM      5  O   UNL     1     163.708 177.794 153.317  1.00  0.00    -0.341 OA
ATOM      6  C   UNL     1     166.308 176.675 154.025  1.00  0.00     0.179 C 
ATOM      7  C   UNL     1     165.161 176.865 155.048  1.00  0.00     0.202 C 
BRANCH   3   8
ATOM      8  C   UNL     1     164.407 176.840 151.125  1.00  0.00     0.191 C 
BRANCH   8   9
ATOM      9  O   UNL     1     164.979 175.552 151.203  1.00  0.00    -0.394 OA
ATOM     10  H   UNL     1     165.954 175.649 151.023  1.00  0.00     0.210 HD
ENDBRANCH   8   9
ENDBRANCH   3   8
BRANCH   4  11
ATOM     11  O   UNL     1     167.110 177.441 151.882  1.00  0.00    -0.387 OA
ATOM     12  H   UNL     1     167.598 176.628 152.182  1.00  0.00     0.211 HD
ENDBRANCH   4  11
BRANCH   6  13
ATOM     13  O   UNL     1     167.543 176.820 154.686  1.00  0.00    -0.387 OA
ATOM     14  H   UNL     1     167.503 177.662 155.208  1.00  0.00     0.211 HD
ENDBRANCH   6  13
BRANCH   7  15
ATOM     15  O   UNL     1     165.251 178.125 155.665  1.00  0.00    -0.385 OA
ATOM     16  H   UNL     1     165.483 177.979 156.620  1.00  0.00     0.211 HD
ENDBRANCH   7  15
ENDBRANCH   1   2
BRANCH   1  17
ATOM     17  C   UNL     1     162.343 174.856 154.089  1.00  0.00     0.224 C 
ATOM     18  C   UNL     1     162.480 173.397 154.618  1.00  0.00     0.208 C 
ATOM     19  O   UNL     1     161.679 174.754 152.836  1.00  0.00    -0.337 OA
ATOM     20  C   UNL     1     161.311 172.679 153.961  1.00  0.00     0.180 C 
ATOM     21  C   UNL     1     161.280 173.417 152.622  1.00  0.00     0.179 C 
BRANCH  17  22
ATOM     22  C   UNL     1     161.413 175.803 154.931  1.00  0.00     0.225 C 
BRANCH  22  23
ATOM     23  O   UNL     1     160.042 175.750 154.643  1.00  0.00    -0.391 OA
ATOM     24  H   UNL     1     159.830 176.406 153.935  1.00  0.00     0.210 HD
ENDBRANCH  22  23
ENDBRANCH  17  22
BRANCH  18  25
ATOM     25  O   UNL     1     162.541 173.241 156.015  1.00  0.00    -0.385 OA
ATOM     26  H   UNL     1     162.445 174.141 156.421  1.00  0.00     0.211 HD
ENDBRANCH  18  25
BRANCH  20  27
ATOM     27  O   UNL     1     160.124 172.859 154.695  1.00  0.00    -0.387 OA
ATOM     28  H   UNL     1     159.434 172.250 154.311  1.00  0.00     0.211 HD
ENDBRANCH  20  27
BRANCH  21  29
ATOM     29  C   UNL     1     159.939 173.402 151.865  1.00  0.00     0.191 C 
BRANCH  29  30
ATOM     30  O   UNL     1     159.004 174.233 152.511  1.00  0.00    -0.394 OA
ATOM     31  H   UNL     1     159.364 174.443 153.414  1.00  0.00     0.210 HD
ENDBRANCH  29  30
ENDBRANCH  21  29
ENDBRANCH   1  17
TORSDOF 13
ENDMDL
