MODEL 1
REMARK VINA RESULT:    -3.389      0.000      0.000
REMARK INTER + INTRA:          -5.547
REMARK INTER:                  -4.974
REMARK INTRA:                  -0.574
REMARK UNBOUND:                -0.574
REMARK SMILES O=C([O-])CCCCCCCC(=O)[O-]
REMARK SMILES IDX 7 1 6 2 5 3 4 4 2 5 1 6 3 7 8 8 9 9 10 10 11 11 12 12 13 13
REMARK H PARENT
REMARK Flexibility Score: inf
ROOT
ATOM      1  C   UNL     1     112.781  65.879 220.591  1.00  0.00     0.000 C 
ENDROOT
BRANCH   1   2
ATOM      2  C   UNL     1     112.709  67.382 220.273  1.00  0.00     0.000 C 
BRANCH   2   3
ATOM      3  C   UNL     1     111.808  68.156 221.245  1.00  0.00     0.006 C 
BRANCH   3   4
ATOM      4  C   UNL     1     111.455  67.301 222.466  1.00  0.00     0.053 C 
BRANCH   4   5
ATOM      5  C   UNL     1     109.985  67.358 222.738  1.00  0.00     0.041 C 
ATOM      6  O   UNL     1     109.221  67.990 221.962  1.00  0.00    -0.550 OA
ATOM      7  O   UNL     1     109.465  66.756 223.876  1.00  0.00    -0.550 OA
ENDBRANCH   4   5
ENDBRANCH   3   4
ENDBRANCH   2   3
ENDBRANCH   1   2
BRANCH   1   8
ATOM      8  C   UNL     1     112.444  64.975 219.386  1.00  0.00     0.000 C 
BRANCH   8   9
ATOM      9  C   UNL     1     111.677  65.731 218.290  1.00  0.00     0.006 C 
BRANCH   9  10
ATOM     10  C   UNL     1     112.328  65.524 216.920  1.00  0.00     0.053 C 
BRANCH  10  11
ATOM     11  C   UNL     1     113.525  66.408 216.768  1.00  0.00     0.041 C 
ATOM     12  O   UNL     1     113.405  67.658 216.861  1.00  0.00    -0.550 OA
ATOM     13  O   UNL     1     114.764  65.855 216.473  1.00  0.00    -0.550 OA
ENDBRANCH  10  11
ENDBRANCH   9  10
ENDBRANCH   8   9
ENDBRANCH   1   8
TORSDOF 8
ENDMDL
MODEL 2
REMARK VINA RESULT:    -3.341      5.009      7.023
REMARK INTER + INTRA:          -5.477
REMARK INTER:                  -5.171
REMARK INTRA:                  -0.306
REMARK UNBOUND:                -0.574
REMARK SMILES O=C([O-])CCCCCCCC(=O)[O-]
REMARK SMILES IDX 7 1 6 2 5 3 4 4 2 5 1 6 3 7 8 8 9 9 10 10 11 11 12 12 13 13
REMARK H PARENT
REMARK Flexibility Score: inf
ROOT
ATOM      1  C   UNL     1     111.166  62.309 216.046  1.00  0.00     0.000 C 
ENDROOT
BRANCH   1   2
ATOM      2  C   UNL     1     111.683  63.149 217.227  1.00  0.00     0.000 C 
BRANCH   2   3
ATOM      3  C   UNL     1     112.623  64.280 216.789  1.00  0.00     0.006 C 
BRANCH   3   4
ATOM      4  C   UNL     1     112.206  65.614 217.417  1.00  0.00     0.053 C 
BRANCH   4   5
ATOM      5  C   UNL     1     113.158  66.698 217.022  1.00  0.00     0.041 C 
ATOM      6  O   UNL     1     114.165  66.431 216.314  1.00  0.00    -0.550 OA
ATOM      7  O   UNL     1     112.960  67.996 217.476  1.00  0.00    -0.550 OA
ENDBRANCH   4   5
ENDBRANCH   3   4
ENDBRANCH   2   3
ENDBRANCH   1   2
BRANCH   1   8
ATOM      8  C   UNL     1     110.013  62.979 215.269  1.00  0.00     0.000 C 
BRANCH   8   9
ATOM      9  C   UNL     1     108.919  61.976 214.875  1.00  0.00     0.006 C 
BRANCH   9  10
ATOM     10  C   UNL     1     108.539  61.083 216.059  1.00  0.00     0.053 C 
BRANCH  10  11
ATOM     11  C   UNL     1     107.051  60.998 216.197  1.00  0.00     0.041 C 
ATOM     12  O   UNL     1     106.304  61.595 215.378  1.00  0.00    -0.550 OA
ATOM     13  O   UNL     1     106.491  60.303 217.261  1.00  0.00    -0.550 OA
ENDBRANCH  10  11
ENDBRANCH   9  10
ENDBRANCH   8   9
ENDBRANCH   1   8
TORSDOF 8
ENDMDL
MODEL 3
REMARK VINA RESULT:    -3.272      0.515      6.066
REMARK INTER + INTRA:          -5.376
REMARK INTER:                  -4.909
REMARK INTRA:                  -0.467
REMARK UNBOUND:                -0.574
REMARK SMILES O=C([O-])CCCCCCCC(=O)[O-]
REMARK SMILES IDX 7 1 6 2 5 3 4 4 2 5 1 6 3 7 8 8 9 9 10 10 11 11 12 12 13 13
REMARK H PARENT
REMARK Flexibility Score: inf
ROOT
ATOM      1  C   UNL     1     112.441  65.534 220.758  1.00  0.00     0.000 C 
ENDROOT
BRANCH   1   2
ATOM      2  C   UNL     1     112.478  64.765 219.426  1.00  0.00     0.000 C 
BRANCH   2   3
ATOM      3  C   UNL     1     111.638  65.430 218.328  1.00  0.00     0.006 C 
BRANCH   3   4
ATOM      4  C   UNL     1     112.326  65.313 216.964  1.00  0.00     0.053 C 
BRANCH   4   5
ATOM      5  C   UNL     1     113.205  66.499 216.718  1.00  0.00     0.041 C 
ATOM      6  O   UNL     1     114.236  66.385 216.003  1.00  0.00    -0.550 OA
ATOM      7  O   UNL     1     112.913  67.717 217.317  1.00  0.00    -0.550 OA
ENDBRANCH   4   5
ENDBRANCH   3   4
ENDBRANCH   2   3
ENDBRANCH   1   2
BRANCH   1   8
ATOM      8  C   UNL     1     112.498  67.067 220.588  1.00  0.00     0.000 C 
BRANCH   8   9
ATOM      9  C   UNL     1     111.966  67.808 221.823  1.00  0.00     0.006 C 
BRANCH   9  10
ATOM     10  C   UNL     1     111.371  66.829 222.838  1.00  0.00     0.053 C 
BRANCH  10  11
ATOM     11  C   UNL     1     109.949  67.183 223.138  1.00  0.00     0.041 C 
ATOM     12  O   UNL     1     109.279  67.866 222.319  1.00  0.00    -0.550 OA
ATOM     13  O   UNL     1     109.378  66.802 224.346  1.00  0.00    -0.550 OA
ENDBRANCH  10  11
ENDBRANCH   9  10
ENDBRANCH   8   9
ENDBRANCH   1   8
TORSDOF 8
ENDMDL
MODEL 4
REMARK VINA RESULT:    -3.217     12.643     16.286
REMARK INTER + INTRA:          -5.295
REMARK INTER:                  -4.585
REMARK INTRA:                  -0.710
REMARK UNBOUND:                -0.574
REMARK SMILES O=C([O-])CCCCCCCC(=O)[O-]
REMARK SMILES IDX 7 1 6 2 5 3 4 4 2 5 1 6 3 7 8 8 9 9 10 10 11 11 12 12 13 13
REMARK H PARENT
REMARK Flexibility Score: inf
ROOT
ATOM      1  C   UNL     1      97.123  65.555 224.595  1.00  0.00     0.000 C 
ENDROOT
BRANCH   1   2
ATOM      2  C   UNL     1      97.591  64.315 225.375  1.00  0.00     0.000 C 
BRANCH   2   3
ATOM      3  C   UNL     1      98.985  64.489 225.993  1.00  0.00     0.006 C 
BRANCH   3   4
ATOM      4  C   UNL     1      99.638  65.790 225.518  1.00  0.00     0.053 C 
BRANCH   4   5
ATOM      5  C   UNL     1     100.973  65.512 224.903  1.00  0.00     0.041 C 
ATOM      6  O   UNL     1     101.125  64.521 224.140  1.00  0.00    -0.550 OA
ATOM      7  O   UNL     1     102.062  66.316 225.212  1.00  0.00    -0.550 OA
ENDBRANCH   4   5
ENDBRANCH   3   4
ENDBRANCH   2   3
ENDBRANCH   1   2
BRANCH   1   8
ATOM      8  C   UNL     1      95.594  65.763 224.623  1.00  0.00     0.000 C 
BRANCH   8   9
ATOM      9  C   UNL     1      95.054  65.909 226.053  1.00  0.00     0.006 C 
BRANCH   9  10
ATOM     10  C   UNL     1      95.685  67.111 226.759  1.00  0.00     0.053 C 
BRANCH  10  11
ATOM     11  C   UNL     1      96.384  66.679 228.009  1.00  0.00     0.041 C 
ATOM     12  O   UNL     1      97.592  66.984 228.197  1.00  0.00    -0.550 OA
ATOM     13  O   UNL     1      95.717  65.898 228.944  1.00  0.00    -0.550 OA
ENDBRANCH  10  11
ENDBRANCH   9  10
ENDBRANCH   8   9
ENDBRANCH   1   8
TORSDOF 8
ENDMDL
MODEL 5
REMARK VINA RESULT:    -3.209     15.012     17.090
REMARK INTER + INTRA:          -5.284
REMARK INTER:                  -4.944
REMARK INTRA:                  -0.340
REMARK UNBOUND:                -0.574
REMARK SMILES O=C([O-])CCCCCCCC(=O)[O-]
REMARK SMILES IDX 7 1 6 2 5 3 4 4 2 5 1 6 3 7 8 8 9 9 10 10 11 11 12 12 13 13
REMARK H PARENT
REMARK Flexibility Score: inf
ROOT
ATOM      1  C   UNL     1     113.306  55.349 229.375  1.00  0.00     0.000 C 
ENDROOT
BRANCH   1   2
ATOM      2  C   UNL     1     113.885  53.984 228.967  1.00  0.00     0.000 C 
BRANCH   2   3
ATOM      3  C   UNL     1     113.590  53.623 227.504  1.00  0.00     0.006 C 
BRANCH   3   4
ATOM      4  C   UNL     1     113.367  54.882 226.662  1.00  0.00     0.053 C 
BRANCH   4   5
ATOM      5  C   UNL     1     112.005  54.864 226.044  1.00  0.00     0.041 C 
ATOM      6  O   UNL     1     110.994  55.174 226.729  1.00  0.00    -0.550 OA
ATOM      7  O   UNL     1     111.845  54.456 224.726  1.00  0.00    -0.550 OA
ENDBRANCH   4   5
ENDBRANCH   3   4
ENDBRANCH   2   3
ENDBRANCH   1   2
BRANCH   1   8
ATOM      8  C   UNL     1     112.700  55.364 230.794  1.00  0.00     0.000 C 
BRANCH   8   9
ATOM      9  C   UNL     1     113.587  54.631 231.812  1.00  0.00     0.006 C 
BRANCH   9  10
ATOM     10  C   UNL     1     112.798  53.545 232.548  1.00  0.00     0.053 C 
BRANCH  10  11
ATOM     11  C   UNL     1     113.448  53.219 233.856  1.00  0.00     0.041 C 
ATOM     12  O   UNL     1     114.621  52.762 233.884  1.00  0.00    -0.550 OA
ATOM     13  O   UNL     1     112.739  53.373 235.041  1.00  0.00    -0.550 OA
ENDBRANCH  10  11
ENDBRANCH   9  10
ENDBRANCH   8   9
ENDBRANCH   1   8
TORSDOF 8
ENDMDL
MODEL 6
REMARK VINA RESULT:    -3.169     12.010     15.559
REMARK INTER + INTRA:          -5.224
REMARK INTER:                  -4.638
REMARK INTRA:                  -0.586
REMARK UNBOUND:                -0.574
REMARK SMILES O=C([O-])CCCCCCCC(=O)[O-]
REMARK SMILES IDX 7 1 6 2 5 3 4 4 2 5 1 6 3 7 8 8 9 9 10 10 11 11 12 12 13 13
REMARK H PARENT
REMARK Flexibility Score: inf
ROOT
ATOM      1  C   UNL     1      99.188  65.582 226.862  1.00  0.00     0.000 C 
ENDROOT
BRANCH   1   2
ATOM      2  C   UNL     1      99.393  64.129 227.321  1.00  0.00     0.000 C 
BRANCH   2   3
ATOM      3  C   UNL     1     100.856  63.674 227.232  1.00  0.00     0.006 C 
BRANCH   3   4
ATOM      4  C   UNL     1     101.168  63.093 225.849  1.00  0.00     0.053 C 
BRANCH   4   5
ATOM      5  C   UNL     1     102.157  63.955 225.130  1.00  0.00     0.041 C 
ATOM      6  O   UNL     1     101.761  64.818 224.301  1.00  0.00    -0.550 OA
ATOM      7  O   UNL     1     103.518  63.774 225.338  1.00  0.00    -0.550 OA
ENDBRANCH   4   5
ENDBRANCH   3   4
ENDBRANCH   2   3
ENDBRANCH   1   2
BRANCH   1   8
ATOM      8  C   UNL     1      98.555  65.705 225.460  1.00  0.00     0.000 C 
BRANCH   8   9
ATOM      9  C   UNL     1      97.394  64.719 225.259  1.00  0.00     0.006 C 
BRANCH   9  10
ATOM     10  C   UNL     1      96.084  65.460 224.981  1.00  0.00     0.053 C 
BRANCH  10  11
ATOM     11  C   UNL     1      95.345  65.717 226.257  1.00  0.00     0.041 C 
ATOM     12  O   UNL     1      95.003  64.756 226.995  1.00  0.00    -0.550 OA
ATOM     13  O   UNL     1      94.990  67.014 226.604  1.00  0.00    -0.550 OA
ENDBRANCH  10  11
ENDBRANCH   9  10
ENDBRANCH   8   9
ENDBRANCH   1   8
TORSDOF 8
ENDMDL
MODEL 7
REMARK VINA RESULT:    -3.168      5.064      6.605
REMARK INTER + INTRA:          -5.223
REMARK INTER:                  -4.878
REMARK INTRA:                  -0.345
REMARK UNBOUND:                -0.574
REMARK SMILES O=C([O-])CCCCCCCC(=O)[O-]
REMARK SMILES IDX 7 1 6 2 5 3 4 4 2 5 1 6 3 7 8 8 9 9 10 10 11 11 12 12 13 13
REMARK H PARENT
REMARK Flexibility Score: inf
ROOT
ATOM      1  C   UNL     1     111.002  62.225 217.001  1.00  0.00     0.000 C 
ENDROOT
BRANCH   1   2
ATOM      2  C   UNL     1     110.681  62.334 215.501  1.00  0.00     0.000 C 
BRANCH   2   3
ATOM      3  C   UNL     1     109.312  61.744 215.138  1.00  0.00     0.006 C 
BRANCH   3   4
ATOM      4  C   UNL     1     108.716  60.972 216.319  1.00  0.00     0.053 C 
BRANCH   4   5
ATOM      5  C   UNL     1     107.235  60.833 216.160  1.00  0.00     0.041 C 
ATOM      6  O   UNL     1     106.653  59.783 216.542  1.00  0.00    -0.550 OA
ATOM      7  O   UNL     1     106.504  61.841 215.545  1.00  0.00    -0.550 OA
ENDBRANCH   4   5
ENDBRANCH   3   4
ENDBRANCH   2   3
ENDBRANCH   1   2
BRANCH   1   8
ATOM      8  C   UNL     1     112.311  62.934 217.407  1.00  0.00     0.000 C 
BRANCH   8   9
ATOM      9  C   UNL     1     112.591  64.174 216.545  1.00  0.00     0.006 C 
BRANCH   9  10
ATOM     10  C   UNL     1     112.099  65.447 217.237  1.00  0.00     0.053 C 
BRANCH  10  11
ATOM     11  C   UNL     1     113.031  66.586 216.966  1.00  0.00     0.041 C 
ATOM     12  O   UNL     1     112.793  67.727 217.445  1.00  0.00    -0.550 OA
ATOM     13  O   UNL     1     114.135  66.400 216.144  1.00  0.00    -0.550 OA
ENDBRANCH  10  11
ENDBRANCH   9  10
ENDBRANCH   8   9
ENDBRANCH   1   8
TORSDOF 8
ENDMDL
MODEL 8
REMARK VINA RESULT:    -3.086     12.082     14.989
REMARK INTER + INTRA:          -5.103
REMARK INTER:                  -4.495
REMARK INTRA:                  -0.609
REMARK UNBOUND:                -0.574
REMARK SMILES O=C([O-])CCCCCCCC(=O)[O-]
REMARK SMILES IDX 7 1 6 2 5 3 4 4 2 5 1 6 3 7 8 8 9 9 10 10 11 11 12 12 13 13
REMARK H PARENT
REMARK Flexibility Score: inf
ROOT
ATOM      1  C   UNL     1      99.030  64.386 227.523  1.00  0.00     0.000 C 
ENDROOT
BRANCH   1   2
ATOM      2  C   UNL     1      98.190  63.632 226.479  1.00  0.00     0.000 C 
BRANCH   2   3
ATOM      3  C   UNL     1      97.349  64.567 225.600  1.00  0.00     0.006 C 
BRANCH   3   4
ATOM      4  C   UNL     1      97.074  65.893 226.315  1.00  0.00     0.053 C 
BRANCH   4   5
ATOM      5  C   UNL     1      95.637  65.981 226.721  1.00  0.00     0.041 C 
ATOM      6  O   UNL     1      94.941  64.936 226.819  1.00  0.00    -0.550 OA
ATOM      7  O   UNL     1      95.051  67.221 226.943  1.00  0.00    -0.550 OA
ENDBRANCH   4   5
ENDBRANCH   3   4
ENDBRANCH   2   3
ENDBRANCH   1   2
BRANCH   1   8
ATOM      8  C   UNL     1     100.441  63.795 227.724  1.00  0.00     0.000 C 
BRANCH   8   9
ATOM      9  C   UNL     1     100.812  62.789 226.624  1.00  0.00     0.006 C 
BRANCH   9  10
ATOM     10  C   UNL     1     101.985  63.300 225.784  1.00  0.00     0.053 C 
BRANCH  10  11
ATOM     11  C   UNL     1     101.620  64.575 225.092  1.00  0.00     0.041 C 
ATOM     12  O   UNL     1     100.790  64.567 224.145  1.00  0.00    -0.550 OA
ATOM     13  O   UNL     1     102.235  65.765 225.459  1.00  0.00    -0.550 OA
ENDBRANCH  10  11
ENDBRANCH   9  10
ENDBRANCH   8   9
ENDBRANCH   1   8
TORSDOF 8
ENDMDL
MODEL 9
REMARK VINA RESULT:    -3.079     15.289     16.517
REMARK INTER + INTRA:          -5.093
REMARK INTER:                  -4.756
REMARK INTRA:                  -0.337
REMARK UNBOUND:                -0.574
REMARK SMILES O=C([O-])CCCCCCCC(=O)[O-]
REMARK SMILES IDX 7 1 6 2 5 3 4 4 2 5 1 6 3 7 8 8 9 9 10 10 11 11 12 12 13 13
REMARK H PARENT
REMARK Flexibility Score: inf
ROOT
ATOM      1  C   UNL     1     113.212  55.306 230.341  1.00  0.00     0.000 C 
ENDROOT
BRANCH   1   2
ATOM      2  C   UNL     1     112.932  54.934 231.807  1.00  0.00     0.000 C 
BRANCH   2   3
ATOM      3  C   UNL     1     113.191  53.452 232.108  1.00  0.00     0.006 C 
BRANCH   3   4
ATOM      4  C   UNL     1     113.141  53.180 233.614  1.00  0.00     0.053 C 
BRANCH   4   5
ATOM      5  C   UNL     1     111.729  52.972 234.062  1.00  0.00     0.041 C 
ATOM      6  O   UNL     1     111.222  53.729 234.932  1.00  0.00    -0.550 OA
ATOM      7  O   UNL     1     110.988  51.912 233.555  1.00  0.00    -0.550 OA
ENDBRANCH   4   5
ENDBRANCH   3   4
ENDBRANCH   2   3
ENDBRANCH   1   2
BRANCH   1   8
ATOM      8  C   UNL     1     113.639  54.107 229.470  1.00  0.00     0.000 C 
BRANCH   8   9
ATOM      9  C   UNL     1     113.994  54.528 228.036  1.00  0.00     0.006 C 
BRANCH   9  10
ATOM     10  C   UNL     1     113.123  53.793 227.015  1.00  0.00     0.053 C 
BRANCH  10  11
ATOM     11  C   UNL     1     112.405  54.769 226.137  1.00  0.00     0.041 C 
ATOM     12  O   UNL     1     111.957  54.404 225.018  1.00  0.00    -0.550 OA
ATOM     13  O   UNL     1     112.275  56.094 226.533  1.00  0.00    -0.550 OA
ENDBRANCH  10  11
ENDBRANCH   9  10
ENDBRANCH   8   9
ENDBRANCH   1   8
TORSDOF 8
ENDMDL
