MODEL 1
REMARK VINA RESULT:    -3.511      0.000      0.000
REMARK INTER + INTRA:          -5.075
REMARK INTER:                  -4.742
REMARK INTRA:                  -0.332
REMARK UNBOUND:                -0.332
REMARK SMILES CCCCCCC=CC(=O)[O-]
REMARK SMILES IDX 5 1 6 2 7 3 8 4 9 5 10 6 11 7 4 8 3 9 2 10 1 11
REMARK H PARENT
REMARK Flexibility Score: inf
ROOT
ATOM      1  C   UNL     1      63.435  32.876  59.285  1.00  0.00     0.004 C 
ENDROOT
BRANCH   1   2
ATOM      2  C   UNL     1      64.178  31.855  60.153  1.00  0.00     0.027 C 
BRANCH   2   3
ATOM      3  C   UNL     1      63.670  30.463  59.912  1.00  0.00    -0.025 C 
ATOM      4  C   UNL     1      63.384  29.637  60.924  1.00  0.00     0.020 C 
BRANCH   4   5
ATOM      5  C   UNL     1      62.872  28.274  60.711  1.00  0.00     0.064 C 
ATOM      6  O   UNL     1      63.594  27.381  60.193  1.00  0.00    -0.545 OA
ATOM      7  O   UNL     1      61.571  27.967  61.087  1.00  0.00    -0.545 OA
ENDBRANCH   4   5
ENDBRANCH   2   3
ENDBRANCH   1   2
BRANCH   1   8
ATOM      8  C   UNL     1      63.593  34.295  59.847  1.00  0.00     0.000 C 
BRANCH   8   9
ATOM      9  C   UNL     1      64.495  34.299  61.086  1.00  0.00    -0.000 C 
BRANCH   9  10
ATOM     10  C   UNL     1      64.044  35.365  62.092  1.00  0.00    -0.003 C 
ATOM     11  C   UNL     1      62.777  36.070  61.618  1.00  0.00     0.004 C 
ENDBRANCH   9  10
ENDBRANCH   8   9
ENDBRANCH   1   8
TORSDOF 6
ENDMDL
MODEL 2
REMARK VINA RESULT:    -3.346     12.347     13.144
REMARK INTER + INTRA:          -4.852
REMARK INTER:                  -4.556
REMARK INTRA:                  -0.296
REMARK UNBOUND:                -0.332
REMARK SMILES CCCCCCC=CC(=O)[O-]
REMARK SMILES IDX 5 1 6 2 7 3 8 4 9 5 10 6 11 7 4 8 3 9 2 10 1 11
REMARK H PARENT
REMARK Flexibility Score: inf
ROOT
ATOM      1  C   UNL     1      58.710  28.409  48.531  1.00  0.00     0.004 C 
ENDROOT
BRANCH   1   2
ATOM      2  C   UNL     1      59.892  27.435  48.589  1.00  0.00     0.027 C 
BRANCH   2   3
ATOM      3  C   UNL     1      59.455  26.076  49.058  1.00  0.00    -0.025 C 
ATOM      4  C   UNL     1      60.342  25.134  49.397  1.00  0.00     0.020 C 
BRANCH   4   5
ATOM      5  C   UNL     1      59.936  23.802  49.871  1.00  0.00     0.064 C 
ATOM      6  O   UNL     1      60.411  22.755  49.356  1.00  0.00    -0.545 OA
ATOM      7  O   UNL     1      59.015  23.697  50.904  1.00  0.00    -0.545 OA
ENDBRANCH   4   5
ENDBRANCH   2   3
ENDBRANCH   1   2
BRANCH   1   8
ATOM      8  C   UNL     1      58.017  28.515  49.895  1.00  0.00     0.000 C 
BRANCH   8   9
ATOM      9  C   UNL     1      56.507  28.291  49.765  1.00  0.00    -0.000 C 
BRANCH   9  10
ATOM     10  C   UNL     1      55.743  29.617  49.863  1.00  0.00    -0.003 C 
ATOM     11  C   UNL     1      56.074  30.349  51.159  1.00  0.00     0.004 C 
ENDBRANCH   9  10
ENDBRANCH   8   9
ENDBRANCH   1   8
TORSDOF 6
ENDMDL
MODEL 3
REMARK VINA RESULT:    -3.276      8.373      9.828
REMARK INTER + INTRA:          -4.757
REMARK INTER:                  -4.428
REMARK INTRA:                  -0.329
REMARK UNBOUND:                -0.332
REMARK SMILES CCCCCCC=CC(=O)[O-]
REMARK SMILES IDX 5 1 6 2 7 3 8 4 9 5 10 6 11 7 4 8 3 9 2 10 1 11
REMARK H PARENT
REMARK Flexibility Score: inf
ROOT
ATOM      1  C   UNL     1      71.309  31.287  59.269  1.00  0.00     0.004 C 
ENDROOT
BRANCH   1   2
ATOM      2  C   UNL     1      71.410  32.448  60.265  1.00  0.00     0.027 C 
BRANCH   2   3
ATOM      3  C   UNL     1      70.808  33.703  59.701  1.00  0.00    -0.025 C 
ATOM      4  C   UNL     1      70.360  33.760  58.442  1.00  0.00     0.020 C 
BRANCH   4   5
ATOM      5  C   UNL     1      69.755  34.974  57.873  1.00  0.00     0.064 C 
ATOM      6  O   UNL     1      70.457  35.835  57.279  1.00  0.00    -0.545 OA
ATOM      7  O   UNL     1      68.386  35.176  57.994  1.00  0.00    -0.545 OA
ENDBRANCH   4   5
ENDBRANCH   2   3
ENDBRANCH   1   2
BRANCH   1   8
ATOM      8  C   UNL     1      72.369  30.218  59.561  1.00  0.00     0.000 C 
BRANCH   8   9
ATOM      9  C   UNL     1      72.717  30.180  61.053  1.00  0.00    -0.000 C 
BRANCH   9  10
ATOM     10  C   UNL     1      72.845  28.737  61.553  1.00  0.00    -0.003 C 
ATOM     11  C   UNL     1      73.087  27.772  60.396  1.00  0.00     0.004 C 
ENDBRANCH   9  10
ENDBRANCH   8   9
ENDBRANCH   1   8
TORSDOF 6
ENDMDL
MODEL 4
REMARK VINA RESULT:    -3.209     12.235     13.599
REMARK INTER + INTRA:          -4.666
REMARK INTER:                  -3.944
REMARK INTRA:                  -0.722
REMARK UNBOUND:                -0.332
REMARK SMILES CCCCCCC=CC(=O)[O-]
REMARK SMILES IDX 5 1 6 2 7 3 8 4 9 5 10 6 11 7 4 8 3 9 2 10 1 11
REMARK H PARENT
REMARK Flexibility Score: inf
ROOT
ATOM      1  C   UNL     1      58.540  24.907  50.218  1.00  0.00     0.004 C 
ENDROOT
BRANCH   1   2
ATOM      2  C   UNL     1      57.225  25.513  49.715  1.00  0.00     0.027 C 
BRANCH   2   3
ATOM      3  C   UNL     1      56.953  26.839  50.366  1.00  0.00    -0.025 C 
ATOM      4  C   UNL     1      56.742  27.944  49.642  1.00  0.00     0.020 C 
BRANCH   4   5
ATOM      5  C   UNL     1      56.461  29.249  50.259  1.00  0.00     0.064 C 
ATOM      6  O   UNL     1      57.108  29.648  51.264  1.00  0.00    -0.545 OA
ATOM      7  O   UNL     1      55.466  30.057  49.725  1.00  0.00    -0.545 OA
ENDBRANCH   4   5
ENDBRANCH   2   3
ENDBRANCH   1   2
BRANCH   1   8
ATOM      8  C   UNL     1      59.640  25.022  49.156  1.00  0.00     0.000 C 
BRANCH   8   9
ATOM      9  C   UNL     1      60.621  26.149  49.499  1.00  0.00    -0.000 C 
BRANCH   9  10
ATOM     10  C   UNL     1      60.311  27.414  48.689  1.00  0.00    -0.003 C 
ATOM     11  C   UNL     1      60.333  28.655  49.575  1.00  0.00     0.004 C 
ENDBRANCH   9  10
ENDBRANCH   8   9
ENDBRANCH   1   8
TORSDOF 6
ENDMDL
MODEL 5
REMARK VINA RESULT:    -3.201     17.418     18.228
REMARK INTER + INTRA:          -4.656
REMARK INTER:                  -3.987
REMARK INTRA:                  -0.669
REMARK UNBOUND:                -0.332
REMARK SMILES CCCCCCC=CC(=O)[O-]
REMARK SMILES IDX 5 1 6 2 7 3 8 4 9 5 10 6 11 7 4 8 3 9 2 10 1 11
REMARK H PARENT
REMARK Flexibility Score: inf
ROOT
ATOM      1  C   UNL     1      58.043  16.441  50.294  1.00  0.00     0.004 C 
ENDROOT
BRANCH   1   2
ATOM      2  C   UNL     1      57.451  17.742  49.741  1.00  0.00     0.027 C 
BRANCH   2   3
ATOM      3  C   UNL     1      56.134  18.060  50.389  1.00  0.00    -0.025 C 
ATOM      4  C   UNL     1      56.065  18.764  51.525  1.00  0.00     0.020 C 
BRANCH   4   5
ATOM      5  C   UNL     1      54.786  19.098  52.170  1.00  0.00     0.064 C 
ATOM      6  O   UNL     1      53.946  19.846  51.601  1.00  0.00    -0.545 OA
ATOM      7  O   UNL     1      54.498  18.581  53.426  1.00  0.00    -0.545 OA
ENDBRANCH   4   5
ENDBRANCH   2   3
ENDBRANCH   1   2
BRANCH   1   8
ATOM      8  C   UNL     1      59.452  16.673  50.854  1.00  0.00     0.000 C 
BRANCH   8   9
ATOM      9  C   UNL     1      59.394  17.302  52.250  1.00  0.00    -0.000 C 
BRANCH   9  10
ATOM     10  C   UNL     1      58.902  16.290  53.291  1.00  0.00    -0.003 C 
ATOM     11  C   UNL     1      57.805  16.887  54.166  1.00  0.00     0.004 C 
ENDBRANCH   9  10
ENDBRANCH   8   9
ENDBRANCH   1   8
TORSDOF 6
ENDMDL
MODEL 6
REMARK VINA RESULT:    -3.192      6.998      7.915
REMARK INTER + INTRA:          -4.644
REMARK INTER:                  -4.044
REMARK INTRA:                  -0.600
REMARK UNBOUND:                -0.332
REMARK SMILES CCCCCCC=CC(=O)[O-]
REMARK SMILES IDX 5 1 6 2 7 3 8 4 9 5 10 6 11 7 4 8 3 9 2 10 1 11
REMARK H PARENT
REMARK Flexibility Score: inf
ROOT
ATOM      1  C   UNL     1      72.639  30.139  61.324  1.00  0.00     0.004 C 
ENDROOT
BRANCH   1   2
ATOM      2  C   UNL     1      72.275  28.658  61.469  1.00  0.00     0.027 C 
BRANCH   2   3
ATOM      3  C   UNL     1      71.062  28.313  60.653  1.00  0.00    -0.025 C 
ATOM      4  C   UNL     1      69.830  28.373  61.171  1.00  0.00     0.020 C 
BRANCH   4   5
ATOM      5  C   UNL     1      68.628  28.053  60.386  1.00  0.00     0.064 C 
ATOM      6  O   UNL     1      67.479  28.375  60.793  1.00  0.00    -0.545 OA
ATOM      7  O   UNL     1      68.759  27.386  59.176  1.00  0.00    -0.545 OA
ENDBRANCH   4   5
ENDBRANCH   2   3
ENDBRANCH   1   2
BRANCH   1   8
ATOM      8  C   UNL     1      72.374  30.633  59.896  1.00  0.00     0.000 C 
BRANCH   8   9
ATOM      9  C   UNL     1      71.527  31.911  59.903  1.00  0.00    -0.000 C 
BRANCH   9  10
ATOM     10  C   UNL     1      70.796  32.094  58.568  1.00  0.00    -0.003 C 
ATOM     11  C   UNL     1      69.995  30.848  58.203  1.00  0.00     0.004 C 
ENDBRANCH   9  10
ENDBRANCH   8   9
ENDBRANCH   1   8
TORSDOF 6
ENDMDL
MODEL 7
REMARK VINA RESULT:    -3.166     13.013     13.782
REMARK INTER + INTRA:          -4.608
REMARK INTER:                  -4.278
REMARK INTRA:                  -0.331
REMARK UNBOUND:                -0.332
REMARK SMILES CCCCCCC=CC(=O)[O-]
REMARK SMILES IDX 5 1 6 2 7 3 8 4 9 5 10 6 11 7 4 8 3 9 2 10 1 11
REMARK H PARENT
REMARK Flexibility Score: inf
ROOT
ATOM      1  C   UNL     1      58.788  28.085  48.703  1.00  0.00     0.004 C 
ENDROOT
BRANCH   1   2
ATOM      2  C   UNL     1      57.858  27.283  49.620  1.00  0.00     0.027 C 
BRANCH   2   3
ATOM      3  C   UNL     1      56.611  28.056  49.941  1.00  0.00    -0.025 C 
ATOM      4  C   UNL     1      56.610  29.392  49.995  1.00  0.00     0.020 C 
BRANCH   4   5
ATOM      5  C   UNL     1      55.398  30.169  50.294  1.00  0.00     0.064 C 
ATOM      6  O   UNL     1      55.446  31.196  51.023  1.00  0.00    -0.545 OA
ATOM      7  O   UNL     1      54.180  29.766  49.763  1.00  0.00    -0.545 OA
ENDBRANCH   4   5
ENDBRANCH   2   3
ENDBRANCH   1   2
BRANCH   1   8
ATOM      8  C   UNL     1      60.200  27.486  48.691  1.00  0.00     0.000 C 
BRANCH   8   9
ATOM      9  C   UNL     1      60.177  26.013  49.117  1.00  0.00    -0.000 C 
BRANCH   9  10
ATOM     10  C   UNL     1      61.575  25.538  49.529  1.00  0.00    -0.003 C 
ATOM     11  C   UNL     1      62.647  26.528  49.086  1.00  0.00     0.004 C 
ENDBRANCH   9  10
ENDBRANCH   8   9
ENDBRANCH   1   8
TORSDOF 6
ENDMDL
MODEL 8
REMARK VINA RESULT:    -3.155      3.581      5.761
REMARK INTER + INTRA:          -4.594
REMARK INTER:                  -4.212
REMARK INTRA:                  -0.382
REMARK UNBOUND:                -0.332
REMARK SMILES CCCCCCC=CC(=O)[O-]
REMARK SMILES IDX 5 1 6 2 7 3 8 4 9 5 10 6 11 7 4 8 3 9 2 10 1 11
REMARK H PARENT
REMARK Flexibility Score: inf
ROOT
ATOM      1  C   UNL     1      64.513  30.834  59.178  1.00  0.00     0.004 C 
ENDROOT
BRANCH   1   2
ATOM      2  C   UNL     1      64.083  32.251  58.784  1.00  0.00     0.027 C 
BRANCH   2   3
ATOM      3  C   UNL     1      64.119  33.179  59.964  1.00  0.00    -0.025 C 
ATOM      4  C   UNL     1      63.370  34.287  60.006  1.00  0.00     0.020 C 
BRANCH   4   5
ATOM      5  C   UNL     1      63.379  35.202  61.158  1.00  0.00     0.064 C 
ATOM      6  O   UNL     1      62.445  36.028  61.341  1.00  0.00    -0.545 OA
ATOM      7  O   UNL     1      64.435  35.156  62.059  1.00  0.00    -0.545 OA
ENDBRANCH   4   5
ENDBRANCH   2   3
ENDBRANCH   1   2
BRANCH   1   8
ATOM      8  C   UNL     1      64.103  30.516  60.622  1.00  0.00     0.000 C 
BRANCH   8   9
ATOM      9  C   UNL     1      63.186  29.289  60.676  1.00  0.00    -0.000 C 
BRANCH   9  10
ATOM     10  C   UNL     1      61.935  29.497  59.815  1.00  0.00    -0.003 C 
ATOM     11  C   UNL     1      60.676  29.054  60.554  1.00  0.00     0.004 C 
ENDBRANCH   9  10
ENDBRANCH   8   9
ENDBRANCH   1   8
TORSDOF 6
ENDMDL
MODEL 9
REMARK VINA RESULT:    -3.131      8.649      9.900
REMARK INTER + INTRA:          -4.562
REMARK INTER:                  -4.056
REMARK INTRA:                  -0.506
REMARK UNBOUND:                -0.332
REMARK SMILES CCCCCCC=CC(=O)[O-]
REMARK SMILES IDX 5 1 6 2 7 3 8 4 9 5 10 6 11 7 4 8 3 9 2 10 1 11
REMARK H PARENT
REMARK Flexibility Score: inf
ROOT
ATOM      1  C   UNL     1      72.464  29.081  57.808  1.00  0.00     0.004 C 
ENDROOT
BRANCH   1   2
ATOM      2  C   UNL     1      71.075  29.715  57.672  1.00  0.00     0.027 C 
BRANCH   2   3
ATOM      3  C   UNL     1      70.911  30.872  58.615  1.00  0.00    -0.025 C 
ATOM      4  C   UNL     1      71.019  32.138  58.195  1.00  0.00     0.020 C 
BRANCH   4   5
ATOM      5  C   UNL     1      70.849  33.286  59.098  1.00  0.00     0.064 C 
ATOM      6  O   UNL     1      71.300  33.262  60.274  1.00  0.00    -0.545 OA
ATOM      7  O   UNL     1      70.180  34.416  58.647  1.00  0.00    -0.545 OA
ENDBRANCH   4   5
ENDBRANCH   2   3
ENDBRANCH   1   2
BRANCH   1   8
ATOM      8  C   UNL     1      73.096  29.426  59.162  1.00  0.00     0.000 C 
BRANCH   8   9
ATOM      9  C   UNL     1      73.125  28.201  60.084  1.00  0.00    -0.000 C 
BRANCH   9  10
ATOM     10  C   UNL     1      72.842  28.599  61.537  1.00  0.00    -0.003 C 
ATOM     11  C   UNL     1      72.895  30.113  61.715  1.00  0.00     0.004 C 
ENDBRANCH   9  10
ENDBRANCH   8   9
ENDBRANCH   1   8
TORSDOF 6
ENDMDL
