MODEL 1
REMARK VINA RESULT:    -3.474      0.000      0.000
REMARK INTER + INTRA:          -8.769
REMARK INTER:                  -6.520
REMARK INTRA:                  -2.249
REMARK UNBOUND:                -2.249
REMARK SMILES O=C([O-])CCCCCCCCCCCCCCC(=O)[O-]
REMARK SMILES IDX 10 1 9 2 8 3 7 4 6 5 5 6 4 7 2 8 1 9 3 10 11 11 12 12 13 13
REMARK SMILES IDX 14 14 15 15 16 16 17 17 18 18 19 19 20 20
REMARK H PARENT
REMARK Flexibility Score: inf
ROOT
ATOM      1  C   UNL     1     153.381 151.022 158.353  1.00  0.00     0.000 C 
ENDROOT
BRANCH   1   2
ATOM      2  C   UNL     1     154.755 151.379 157.773  1.00  0.00     0.000 C 
BRANCH   2   3
ATOM      3  C   UNL     1     155.065 152.870 157.972  1.00  0.00     0.000 C 
BRANCH   3   4
ATOM      4  C   UNL     1     154.637 153.729 156.771  1.00  0.00     0.000 C 
BRANCH   4   5
ATOM      5  C   UNL     1     154.491 155.215 157.128  1.00  0.00     0.000 C 
BRANCH   5   6
ATOM      6  C   UNL     1     154.906 155.471 158.586  1.00  0.00     0.006 C 
BRANCH   6   7
ATOM      7  C   UNL     1     154.620 156.912 159.027  1.00  0.00     0.053 C 
BRANCH   7   8
ATOM      8  C   UNL     1     155.811 157.539 159.685  1.00  0.00     0.041 C 
ATOM      9  O   UNL     1     155.657 158.456 160.534  1.00  0.00    -0.550 OA
ATOM     10  O   UNL     1     157.091 157.093 159.380  1.00  0.00    -0.550 OA
ENDBRANCH   7   8
ENDBRANCH   6   7
ENDBRANCH   5   6
ENDBRANCH   4   5
ENDBRANCH   3   4
ENDBRANCH   2   3
ENDBRANCH   1   2
BRANCH   1  11
ATOM     11  C   UNL     1     153.121 151.785 159.662  1.00  0.00     0.000 C 
BRANCH  11  12
ATOM     12  C   UNL     1     151.840 152.638 159.616  1.00  0.00     0.000 C 
BRANCH  12  13
ATOM     13  C   UNL     1     151.198 152.775 158.224  1.00  0.00     0.000 C 
BRANCH  13  14
ATOM     14  C   UNL     1     150.949 154.235 157.819  1.00  0.00     0.000 C 
BRANCH  14  15
ATOM     15  C   UNL     1     151.264 155.189 158.981  1.00  0.00     0.000 C 
BRANCH  15  16
ATOM     16  C   UNL     1     150.756 156.618 158.729  1.00  0.00     0.006 C 
BRANCH  16  17
ATOM     17  C   UNL     1     150.661 157.448 160.017  1.00  0.00     0.053 C 
BRANCH  17  18
ATOM     18  C   UNL     1     149.242 157.843 160.277  1.00  0.00     0.041 C 
ATOM     19  O   UNL     1     148.354 156.961 160.419  1.00  0.00    -0.550 OA
ATOM     20  O   UNL     1     148.909 159.183 160.417  1.00  0.00    -0.550 OA
ENDBRANCH  17  18
ENDBRANCH  16  17
ENDBRANCH  15  16
ENDBRANCH  14  15
ENDBRANCH  13  14
ENDBRANCH  12  13
ENDBRANCH  11  12
ENDBRANCH   1  11
TORSDOF 15
ENDMDL
MODEL 2
REMARK VINA RESULT:    -3.406      2.288      2.992
REMARK INTER + INTRA:          -8.641
REMARK INTER:                  -6.496
REMARK INTRA:                  -2.145
REMARK UNBOUND:                -2.249
REMARK SMILES O=C([O-])CCCCCCCCCCCCCCC(=O)[O-]
REMARK SMILES IDX 10 1 9 2 8 3 7 4 6 5 5 6 4 7 2 8 1 9 3 10 11 11 12 12 13 13
REMARK SMILES IDX 14 14 15 15 16 16 17 17 18 18 19 19 20 20
REMARK H PARENT
REMARK Flexibility Score: inf
ROOT
ATOM      1  C   UNL     1     154.983 151.587 157.741  1.00  0.00     0.000 C 
ENDROOT
BRANCH   1   2
ATOM      2  C   UNL     1     154.973 153.078 157.381  1.00  0.00     0.000 C 
BRANCH   2   3
ATOM      3  C   UNL     1     155.187 153.946 158.630  1.00  0.00     0.000 C 
BRANCH   3   4
ATOM      4  C   UNL     1     155.716 155.350 158.292  1.00  0.00     0.000 C 
BRANCH   4   5
ATOM      5  C   UNL     1     154.608 156.414 158.288  1.00  0.00     0.000 C 
BRANCH   5   6
ATOM      6  C   UNL     1     154.617 157.208 156.972  1.00  0.00     0.006 C 
BRANCH   6   7
ATOM      7  C   UNL     1     153.358 156.956 156.133  1.00  0.00     0.053 C 
BRANCH   7   8
ATOM      8  C   UNL     1     153.630 156.032 154.985  1.00  0.00     0.041 C 
ATOM      9  O   UNL     1     154.756 155.480 154.869  1.00  0.00    -0.550 OA
ATOM     10  O   UNL     1     152.632 155.760 154.059  1.00  0.00    -0.550 OA
ENDBRANCH   7   8
ENDBRANCH   6   7
ENDBRANCH   5   6
ENDBRANCH   4   5
ENDBRANCH   3   4
ENDBRANCH   2   3
ENDBRANCH   1   2
BRANCH   1  11
ATOM     11  C   UNL     1     153.555 151.062 157.955  1.00  0.00     0.000 C 
BRANCH  11  12
ATOM     12  C   UNL     1     153.023 151.331 159.375  1.00  0.00     0.000 C 
BRANCH  12  13
ATOM     13  C   UNL     1     151.967 152.445 159.475  1.00  0.00     0.000 C 
BRANCH  13  14
ATOM     14  C   UNL     1     151.295 152.757 158.130  1.00  0.00     0.000 C 
BRANCH  14  15
ATOM     15  C   UNL     1     151.371 154.259 157.813  1.00  0.00     0.000 C 
BRANCH  15  16
ATOM     16  C   UNL     1     151.272 155.137 159.070  1.00  0.00     0.006 C 
BRANCH  16  17
ATOM     17  C   UNL     1     150.694 156.528 158.777  1.00  0.00     0.053 C 
BRANCH  17  18
ATOM     18  C   UNL     1     149.890 157.013 159.941  1.00  0.00     0.041 C 
ATOM     19  O   UNL     1     148.641 156.853 159.960  1.00  0.00    -0.550 OA
ATOM     20  O   UNL     1     150.526 157.593 161.030  1.00  0.00    -0.550 OA
ENDBRANCH  17  18
ENDBRANCH  16  17
ENDBRANCH  15  16
ENDBRANCH  14  15
ENDBRANCH  13  14
ENDBRANCH  12  13
ENDBRANCH  11  12
ENDBRANCH   1  11
TORSDOF 15
ENDMDL
MODEL 3
REMARK VINA RESULT:    -3.392      2.653      3.220
REMARK INTER + INTRA:          -8.615
REMARK INTER:                  -6.572
REMARK INTRA:                  -2.043
REMARK UNBOUND:                -2.249
REMARK SMILES O=C([O-])CCCCCCCCCCCCCCC(=O)[O-]
REMARK SMILES IDX 10 1 9 2 8 3 7 4 6 5 5 6 4 7 2 8 1 9 3 10 11 11 12 12 13 13
REMARK SMILES IDX 14 14 15 15 16 16 17 17 18 18 19 19 20 20
REMARK H PARENT
REMARK Flexibility Score: inf
ROOT
ATOM      1  C   UNL     1     153.156 151.117 157.940  1.00  0.00     0.000 C 
ENDROOT
BRANCH   1   2
ATOM      2  C   UNL     1     154.588 150.900 157.437  1.00  0.00     0.000 C 
BRANCH   2   3
ATOM      3  C   UNL     1     155.489 152.085 157.815  1.00  0.00     0.000 C 
BRANCH   3   4
ATOM      4  C   UNL     1     154.894 153.439 157.395  1.00  0.00     0.000 C 
BRANCH   4   5
ATOM      5  C   UNL     1     154.969 154.491 158.511  1.00  0.00     0.000 C 
BRANCH   5   6
ATOM      6  C   UNL     1     154.706 155.899 157.955  1.00  0.00     0.006 C 
BRANCH   6   7
ATOM      7  C   UNL     1     154.221 156.871 159.039  1.00  0.00     0.053 C 
BRANCH   7   8
ATOM      8  C   UNL     1     155.143 158.042 159.189  1.00  0.00     0.041 C 
ATOM      9  O   UNL     1     155.507 158.421 160.333  1.00  0.00    -0.550 OA
ATOM     10  O   UNL     1     155.621 158.701 158.063  1.00  0.00    -0.550 OA
ENDBRANCH   7   8
ENDBRANCH   6   7
ENDBRANCH   5   6
ENDBRANCH   4   5
ENDBRANCH   3   4
ENDBRANCH   2   3
ENDBRANCH   1   2
BRANCH   1  11
ATOM     11  C   UNL     1     153.122 151.235 159.472  1.00  0.00     0.000 C 
BRANCH  11  12
ATOM     12  C   UNL     1     152.257 152.409 159.966  1.00  0.00     0.000 C 
BRANCH  12  13
ATOM     13  C   UNL     1     151.408 153.094 158.880  1.00  0.00     0.000 C 
BRANCH  13  14
ATOM     14  C   UNL     1     151.297 154.613 159.076  1.00  0.00     0.000 C 
BRANCH  14  15
ATOM     15  C   UNL     1     150.324 155.229 158.058  1.00  0.00     0.000 C 
BRANCH  15  16
ATOM     16  C   UNL     1     150.607 154.775 156.617  1.00  0.00     0.006 C 
BRANCH  16  17
ATOM     17  C   UNL     1     151.581 155.706 155.883  1.00  0.00     0.053 C 
BRANCH  17  18
ATOM     18  C   UNL     1     151.305 155.692 154.413  1.00  0.00     0.041 C 
ATOM     19  O   UNL     1     150.119 155.686 153.990  1.00  0.00    -0.550 OA
ATOM     20  O   UNL     1     152.357 155.742 153.509  1.00  0.00    -0.550 OA
ENDBRANCH  17  18
ENDBRANCH  16  17
ENDBRANCH  15  16
ENDBRANCH  14  15
ENDBRANCH  13  14
ENDBRANCH  12  13
ENDBRANCH  11  12
ENDBRANCH   1  11
TORSDOF 15
ENDMDL
MODEL 4
REMARK VINA RESULT:    -3.363      2.815      5.500
REMARK INTER + INTRA:          -8.561
REMARK INTER:                  -6.539
REMARK INTRA:                  -2.022
REMARK UNBOUND:                -2.249
REMARK SMILES O=C([O-])CCCCCCCCCCCCCCC(=O)[O-]
REMARK SMILES IDX 10 1 9 2 8 3 7 4 6 5 5 6 4 7 2 8 1 9 3 10 11 11 12 12 13 13
REMARK SMILES IDX 14 14 15 15 16 16 17 17 18 18 19 19 20 20
REMARK H PARENT
REMARK Flexibility Score: inf
ROOT
ATOM      1  C   UNL     1     153.148 151.084 158.025  1.00  0.00     0.000 C 
ENDROOT
BRANCH   1   2
ATOM      2  C   UNL     1     153.115 151.171 159.555  1.00  0.00     0.000 C 
BRANCH   2   3
ATOM      3  C   UNL     1     152.313 152.397 160.018  1.00  0.00     0.000 C 
BRANCH   3   4
ATOM      4  C   UNL     1     151.288 152.864 158.972  1.00  0.00     0.000 C 
BRANCH   4   5
ATOM      5  C   UNL     1     151.423 154.356 158.636  1.00  0.00     0.000 C 
BRANCH   5   6
ATOM      6  C   UNL     1     151.320 154.588 157.120  1.00  0.00     0.006 C 
BRANCH   6   7
ATOM      7  C   UNL     1     151.970 155.908 156.688  1.00  0.00     0.053 C 
BRANCH   7   8
ATOM      8  C   UNL     1     152.462 155.849 155.274  1.00  0.00     0.041 C 
ATOM      9  O   UNL     1     151.694 156.150 154.322  1.00  0.00    -0.550 OA
ATOM     10  O   UNL     1     153.777 155.489 155.008  1.00  0.00    -0.550 OA
ENDBRANCH   7   8
ENDBRANCH   6   7
ENDBRANCH   5   6
ENDBRANCH   4   5
ENDBRANCH   3   4
ENDBRANCH   2   3
ENDBRANCH   1   2
BRANCH   1  11
ATOM     11  C   UNL     1     154.531 151.476 157.481  1.00  0.00     0.000 C 
BRANCH  11  12
ATOM     12  C   UNL     1     154.686 152.994 157.271  1.00  0.00     0.000 C 
BRANCH  12  13
ATOM     13  C   UNL     1     155.437 153.733 158.392  1.00  0.00     0.000 C 
BRANCH  13  14
ATOM     14  C   UNL     1     154.914 155.158 158.627  1.00  0.00     0.000 C 
BRANCH  14  15
ATOM     15  C   UNL     1     155.792 156.192 157.906  1.00  0.00     0.000 C 
BRANCH  15  16
ATOM     16  C   UNL     1     155.960 157.491 158.710  1.00  0.00     0.006 C 
BRANCH  16  17
ATOM     17  C   UNL     1     157.426 157.795 159.045  1.00  0.00     0.053 C 
BRANCH  17  18
ATOM     18  C   UNL     1     157.748 157.338 160.433  1.00  0.00     0.041 C 
ATOM     19  O   UNL     1     158.607 156.437 160.620  1.00  0.00    -0.550 OA
ATOM     20  O   UNL     1     157.140 157.946 161.523  1.00  0.00    -0.550 OA
ENDBRANCH  17  18
ENDBRANCH  16  17
ENDBRANCH  15  16
ENDBRANCH  14  15
ENDBRANCH  13  14
ENDBRANCH  12  13
ENDBRANCH  11  12
ENDBRANCH   1  11
TORSDOF 15
ENDMDL
MODEL 5
REMARK VINA RESULT:    -3.336      1.426      2.123
REMARK INTER + INTRA:          -8.511
REMARK INTER:                  -6.512
REMARK INTRA:                  -1.999
REMARK UNBOUND:                -2.249
REMARK SMILES O=C([O-])CCCCCCCCCCCCCCC(=O)[O-]
REMARK SMILES IDX 10 1 9 2 8 3 7 4 6 5 5 6 4 7 2 8 1 9 3 10 11 11 12 12 13 13
REMARK SMILES IDX 14 14 15 15 16 16 17 17 18 18 19 19 20 20
REMARK H PARENT
REMARK Flexibility Score: inf
ROOT
ATOM      1  C   UNL     1     154.593 151.788 157.446  1.00  0.00     0.000 C 
ENDROOT
BRANCH   1   2
ATOM      2  C   UNL     1     154.891 153.238 157.847  1.00  0.00     0.000 C 
BRANCH   2   3
ATOM      3  C   UNL     1     154.488 154.212 156.730  1.00  0.00     0.000 C 
BRANCH   3   4
ATOM      4  C   UNL     1     154.457 155.675 157.202  1.00  0.00     0.000 C 
BRANCH   4   5
ATOM      5  C   UNL     1     155.050 155.856 158.606  1.00  0.00     0.000 C 
BRANCH   5   6
ATOM      6  C   UNL     1     156.319 156.722 158.558  1.00  0.00     0.006 C 
BRANCH   6   7
ATOM      7  C   UNL     1     157.472 156.110 159.362  1.00  0.00     0.053 C 
BRANCH   7   8
ATOM      8  C   UNL     1     158.125 157.120 160.256  1.00  0.00     0.041 C 
ATOM      9  O   UNL     1     159.291 157.525 160.009  1.00  0.00    -0.550 OA
ATOM     10  O   UNL     1     157.435 157.634 161.347  1.00  0.00    -0.550 OA
ENDBRANCH   7   8
ENDBRANCH   6   7
ENDBRANCH   5   6
ENDBRANCH   4   5
ENDBRANCH   3   4
ENDBRANCH   2   3
ENDBRANCH   1   2
BRANCH   1  11
ATOM     11  C   UNL     1     153.356 151.255 158.186  1.00  0.00     0.000 C 
BRANCH  11  12
ATOM     12  C   UNL     1     153.121 151.949 159.541  1.00  0.00     0.000 C 
BRANCH  12  13
ATOM     13  C   UNL     1     151.811 152.750 159.644  1.00  0.00     0.000 C 
BRANCH  13  14
ATOM     14  C   UNL     1     151.074 152.871 158.302  1.00  0.00     0.000 C 
BRANCH  14  15
ATOM     15  C   UNL     1     150.874 154.344 157.916  1.00  0.00     0.000 C 
BRANCH  15  16
ATOM     16  C   UNL     1     151.321 155.314 159.022  1.00  0.00     0.006 C 
BRANCH  16  17
ATOM     17  C   UNL     1     150.256 156.367 159.353  1.00  0.00     0.053 C 
BRANCH  17  18
ATOM     18  C   UNL     1     150.899 157.606 159.891  1.00  0.00     0.041 C 
ATOM     19  O   UNL     1     150.430 158.170 160.915  1.00  0.00    -0.550 OA
ATOM     20  O   UNL     1     152.048 158.107 159.295  1.00  0.00    -0.550 OA
ENDBRANCH  17  18
ENDBRANCH  16  17
ENDBRANCH  15  16
ENDBRANCH  14  15
ENDBRANCH  13  14
ENDBRANCH  12  13
ENDBRANCH  11  12
ENDBRANCH   1  11
TORSDOF 15
ENDMDL
MODEL 6
REMARK VINA RESULT:    -3.336      2.993      5.806
REMARK INTER + INTRA:          -8.510
REMARK INTER:                  -6.292
REMARK INTRA:                  -2.217
REMARK UNBOUND:                -2.249
REMARK SMILES O=C([O-])CCCCCCCCCCCCCCC(=O)[O-]
REMARK SMILES IDX 10 1 9 2 8 3 7 4 6 5 5 6 4 7 2 8 1 9 3 10 11 11 12 12 13 13
REMARK SMILES IDX 14 14 15 15 16 16 17 17 18 18 19 19 20 20
REMARK H PARENT
REMARK Flexibility Score: inf
ROOT
ATOM      1  C   UNL     1     153.753 151.181 157.835  1.00  0.00     0.000 C 
ENDROOT
BRANCH   1   2
ATOM      2  C   UNL     1     153.319 151.465 159.279  1.00  0.00     0.000 C 
BRANCH   2   3
ATOM      3  C   UNL     1     151.874 151.984 159.325  1.00  0.00     0.000 C 
BRANCH   3   4
ATOM      4  C   UNL     1     151.797 153.519 159.361  1.00  0.00     0.000 C 
BRANCH   4   5
ATOM      5  C   UNL     1     150.869 154.091 158.280  1.00  0.00     0.000 C 
BRANCH   5   6
ATOM      6  C   UNL     1     150.479 153.006 157.263  1.00  0.00     0.006 C 
BRANCH   6   7
ATOM      7  C   UNL     1     149.086 153.243 156.666  1.00  0.00     0.053 C 
BRANCH   7   8
ATOM      8  C   UNL     1     149.043 154.487 155.832  1.00  0.00     0.041 C 
ATOM      9  O   UNL     1     148.355 155.475 156.202  1.00  0.00    -0.550 OA
ATOM     10  O   UNL     1     149.784 154.566 154.660  1.00  0.00    -0.550 OA
ENDBRANCH   7   8
ENDBRANCH   6   7
ENDBRANCH   5   6
ENDBRANCH   4   5
ENDBRANCH   3   4
ENDBRANCH   2   3
ENDBRANCH   1   2
BRANCH   1  11
ATOM     11  C   UNL     1     155.057 151.919 157.497  1.00  0.00     0.000 C 
BRANCH  11  12
ATOM     12  C   UNL     1     154.878 153.446 157.414  1.00  0.00     0.000 C 
BRANCH  12  13
ATOM     13  C   UNL     1     155.552 154.244 158.545  1.00  0.00     0.000 C 
BRANCH  13  14
ATOM     14  C   UNL     1     155.414 155.763 158.373  1.00  0.00     0.000 C 
BRANCH  14  15
ATOM     15  C   UNL     1     153.941 156.166 158.209  1.00  0.00     0.000 C 
BRANCH  15  16
ATOM     16  C   UNL     1     153.676 156.930 156.901  1.00  0.00     0.006 C 
BRANCH  16  17
ATOM     17  C   UNL     1     152.802 156.138 155.920  1.00  0.00     0.053 C 
BRANCH  17  18
ATOM     18  C   UNL     1     153.585 155.782 154.696  1.00  0.00     0.041 C 
ATOM     19  O   UNL     1     153.001 155.633 153.590  1.00  0.00    -0.550 OA
ATOM     20  O   UNL     1     154.967 155.667 154.765  1.00  0.00    -0.550 OA
ENDBRANCH  17  18
ENDBRANCH  16  17
ENDBRANCH  15  16
ENDBRANCH  14  15
ENDBRANCH  13  14
ENDBRANCH  12  13
ENDBRANCH  11  12
ENDBRANCH   1  11
TORSDOF 15
ENDMDL
MODEL 7
REMARK VINA RESULT:    -3.321      1.129      4.799
REMARK INTER + INTRA:          -8.483
REMARK INTER:                  -6.401
REMARK INTRA:                  -2.082
REMARK UNBOUND:                -2.249
REMARK SMILES O=C([O-])CCCCCCCCCCCCCCC(=O)[O-]
REMARK SMILES IDX 10 1 9 2 8 3 7 4 6 5 5 6 4 7 2 8 1 9 3 10 11 11 12 12 13 13
REMARK SMILES IDX 14 14 15 15 16 16 17 17 18 18 19 19 20 20
REMARK H PARENT
REMARK Flexibility Score: inf
ROOT
ATOM      1  C   UNL     1     152.962 151.486 159.595  1.00  0.00     0.000 C 
ENDROOT
BRANCH   1   2
ATOM      2  C   UNL     1     152.297 152.862 159.714  1.00  0.00     0.000 C 
BRANCH   2   3
ATOM      3  C   UNL     1     151.172 153.020 158.679  1.00  0.00     0.000 C 
BRANCH   3   4
ATOM      4  C   UNL     1     151.309 154.307 157.849  1.00  0.00     0.000 C 
BRANCH   4   5
ATOM      5  C   UNL     1     151.441 155.563 158.723  1.00  0.00     0.000 C 
BRANCH   5   6
ATOM      6  C   UNL     1     150.058 156.109 159.111  1.00  0.00     0.006 C 
BRANCH   6   7
ATOM      7  C   UNL     1     150.144 157.199 160.187  1.00  0.00     0.053 C 
BRANCH   7   8
ATOM      8  C   UNL     1     151.108 158.281 159.806  1.00  0.00     0.041 C 
ATOM      9  O   UNL     1     152.156 158.463 160.482  1.00  0.00    -0.550 OA
ATOM     10  O   UNL     1     150.864 159.070 158.690  1.00  0.00    -0.550 OA
ENDBRANCH   7   8
ENDBRANCH   6   7
ENDBRANCH   5   6
ENDBRANCH   4   5
ENDBRANCH   3   4
ENDBRANCH   2   3
ENDBRANCH   1   2
BRANCH   1  11
ATOM     11  C   UNL     1     153.288 151.156 158.130  1.00  0.00     0.000 C 
BRANCH  11  12
ATOM     12  C   UNL     1     154.793 151.232 157.817  1.00  0.00     0.000 C 
BRANCH  12  13
ATOM     13  C   UNL     1     155.380 152.655 157.783  1.00  0.00     0.000 C 
BRANCH  13  14
ATOM     14  C   UNL     1     154.654 153.581 156.797  1.00  0.00     0.000 C 
BRANCH  14  15
ATOM     15  C   UNL     1     154.916 155.057 157.134  1.00  0.00     0.000 C 
BRANCH  15  16
ATOM     16  C   UNL     1     155.044 155.307 158.645  1.00  0.00     0.006 C 
BRANCH  16  17
ATOM     17  C   UNL     1     154.791 156.771 159.027  1.00  0.00     0.053 C 
BRANCH  17  18
ATOM     18  C   UNL     1     156.067 157.425 159.455  1.00  0.00     0.041 C 
ATOM     19  O   UNL     1     157.161 156.810 159.350  1.00  0.00    -0.550 OA
ATOM     20  O   UNL     1     156.055 158.733 159.918  1.00  0.00    -0.550 OA
ENDBRANCH  17  18
ENDBRANCH  16  17
ENDBRANCH  15  16
ENDBRANCH  14  15
ENDBRANCH  13  14
ENDBRANCH  12  13
ENDBRANCH  11  12
ENDBRANCH   1  11
TORSDOF 15
ENDMDL
MODEL 8
REMARK VINA RESULT:    -3.286      2.661      4.457
REMARK INTER + INTRA:          -8.416
REMARK INTER:                  -5.990
REMARK INTRA:                  -2.426
REMARK UNBOUND:                -2.249
REMARK SMILES O=C([O-])CCCCCCCCCCCCCCC(=O)[O-]
REMARK SMILES IDX 10 1 9 2 8 3 7 4 6 5 5 6 4 7 2 8 1 9 3 10 11 11 12 12 13 13
REMARK SMILES IDX 14 14 15 15 16 16 17 17 18 18 19 19 20 20
REMARK H PARENT
REMARK Flexibility Score: inf
ROOT
ATOM      1  C   UNL     1     152.991 151.666 159.457  1.00  0.00     0.000 C 
ENDROOT
BRANCH   1   2
ATOM      2  C   UNL     1     151.783 152.609 159.515  1.00  0.00     0.000 C 
BRANCH   2   3
ATOM      3  C   UNL     1     151.168 152.801 158.120  1.00  0.00     0.000 C 
BRANCH   3   4
ATOM      4  C   UNL     1     150.999 154.282 157.747  1.00  0.00     0.000 C 
BRANCH   4   5
ATOM      5  C   UNL     1     151.400 155.230 158.887  1.00  0.00     0.000 C 
BRANCH   5   6
ATOM      6  C   UNL     1     151.521 156.676 158.381  1.00  0.00     0.006 C 
BRANCH   6   7
ATOM      7  C   UNL     1     152.749 157.392 158.958  1.00  0.00     0.053 C 
BRANCH   7   8
ATOM      8  C   UNL     1     152.367 158.625 159.718  1.00  0.00     0.041 C 
ATOM      9  O   UNL     1     151.715 158.532 160.792  1.00  0.00    -0.550 OA
ATOM     10  O   UNL     1     152.754 159.877 159.256  1.00  0.00    -0.550 OA
ENDBRANCH   7   8
ENDBRANCH   6   7
ENDBRANCH   5   6
ENDBRANCH   4   5
ENDBRANCH   3   4
ENDBRANCH   2   3
ENDBRANCH   1   2
BRANCH   1  11
ATOM     11  C   UNL     1     153.387 151.368 158.002  1.00  0.00     0.000 C 
BRANCH  11  12
ATOM     12  C   UNL     1     154.725 152.015 157.599  1.00  0.00     0.000 C 
BRANCH  12  13
ATOM     13  C   UNL     1     155.163 153.204 158.473  1.00  0.00     0.000 C 
BRANCH  13  14
ATOM     14  C   UNL     1     154.814 154.565 157.851  1.00  0.00     0.000 C 
BRANCH  14  15
ATOM     15  C   UNL     1     154.527 154.426 156.349  1.00  0.00     0.000 C 
BRANCH  15  16
ATOM     16  C   UNL     1     154.411 155.783 155.638  1.00  0.00     0.006 C 
BRANCH  16  17
ATOM     17  C   UNL     1     153.490 155.734 154.412  1.00  0.00     0.053 C 
BRANCH  17  18
ATOM     18  C   UNL     1     152.211 156.456 154.692  1.00  0.00     0.041 C 
ATOM     19  O   UNL     1     152.230 157.659 155.061  1.00  0.00    -0.550 OA
ATOM     20  O   UNL     1     150.994 155.817 154.492  1.00  0.00    -0.550 OA
ENDBRANCH  17  18
ENDBRANCH  16  17
ENDBRANCH  15  16
ENDBRANCH  14  15
ENDBRANCH  13  14
ENDBRANCH  12  13
ENDBRANCH  11  12
ENDBRANCH   1  11
TORSDOF 15
ENDMDL
MODEL 9
REMARK VINA RESULT:    -3.207      2.538      4.978
REMARK INTER + INTRA:          -8.269
REMARK INTER:                  -6.312
REMARK INTRA:                  -1.956
REMARK UNBOUND:                -2.249
REMARK SMILES O=C([O-])CCCCCCCCCCCCCCC(=O)[O-]
REMARK SMILES IDX 10 1 9 2 8 3 7 4 6 5 5 6 4 7 2 8 1 9 3 10 11 11 12 12 13 13
REMARK SMILES IDX 14 14 15 15 16 16 17 17 18 18 19 19 20 20
REMARK H PARENT
REMARK Flexibility Score: inf
ROOT
ATOM      1  C   UNL     1     155.084 155.233 157.002  1.00  0.00     0.000 C 
ENDROOT
BRANCH   1   2
ATOM      2  C   UNL     1     154.714 155.703 158.414  1.00  0.00     0.000 C 
BRANCH   2   3
ATOM      3  C   UNL     1     153.859 156.978 158.362  1.00  0.00     0.000 C 
BRANCH   3   4
ATOM      4  C   UNL     1     154.169 157.946 159.516  1.00  0.00     0.000 C 
BRANCH   4   5
ATOM      5  C   UNL     1     152.904 158.428 160.240  1.00  0.00     0.000 C 
BRANCH   5   6
ATOM      6  C   UNL     1     151.641 157.855 159.577  1.00  0.00     0.006 C 
BRANCH   6   7
ATOM      7  C   UNL     1     150.472 157.732 160.563  1.00  0.00     0.053 C 
BRANCH   7   8
ATOM      8  C   UNL     1     149.167 157.526 159.856  1.00  0.00     0.041 C 
ATOM      9  O   UNL     1     148.225 156.916 160.428  1.00  0.00    -0.550 OA
ATOM     10  O   UNL     1     148.982 158.031 158.575  1.00  0.00    -0.550 OA
ENDBRANCH   7   8
ENDBRANCH   6   7
ENDBRANCH   5   6
ENDBRANCH   4   5
ENDBRANCH   3   4
ENDBRANCH   2   3
ENDBRANCH   1   2
BRANCH   1  11
ATOM     11  C   UNL     1     154.450 153.868 156.691  1.00  0.00     0.000 C 
BRANCH  11  12
ATOM     12  C   UNL     1     154.861 152.773 157.692  1.00  0.00     0.000 C 
BRANCH  12  13
ATOM     13  C   UNL     1     154.043 151.472 157.606  1.00  0.00     0.000 C 
BRANCH  13  14
ATOM     14  C   UNL     1     153.385 151.087 158.940  1.00  0.00     0.000 C 
BRANCH  14  15
ATOM     15  C   UNL     1     153.205 152.320 159.839  1.00  0.00     0.000 C 
BRANCH  15  16
ATOM     16  C   UNL     1     151.748 152.805 159.896  1.00  0.00     0.006 C 
BRANCH  16  17
ATOM     17  C   UNL     1     151.527 154.109 159.119  1.00  0.00     0.053 C 
BRANCH  17  18
ATOM     18  C   UNL     1     150.636 153.869 157.941  1.00  0.00     0.041 C 
ATOM     19  O   UNL     1     150.679 152.770 157.328  1.00  0.00    -0.550 OA
ATOM     20  O   UNL     1     149.720 154.837 157.554  1.00  0.00    -0.550 OA
ENDBRANCH  17  18
ENDBRANCH  16  17
ENDBRANCH  15  16
ENDBRANCH  14  15
ENDBRANCH  13  14
ENDBRANCH  12  13
ENDBRANCH  11  12
ENDBRANCH   1  11
TORSDOF 15
ENDMDL
