MODEL 1
REMARK VINA RESULT:    -4.833      0.000      0.000
REMARK INTER + INTRA:          -5.133
REMARK INTER:                  -5.116
REMARK INTRA:                  -0.017
REMARK UNBOUND:                -0.017
REMARK SMILES O=C([O-])c1cccnc1
REMARK SMILES IDX 4 1 5 2 9 3 6 4 8 5 7 6 2 7 1 8 3 9
REMARK H PARENT
REMARK Flexibility Score: inf
ROOT
ATOM      1  C   UNL     1      52.824  39.057  29.663  1.00  0.00     0.016 A 
ATOM      2  C   UNL     1      53.778  40.061  29.897  1.00  0.00     0.013 A 
ATOM      3  C   UNL     1      53.158  38.009  28.788  1.00  0.00     0.120 A 
ATOM      4  C   UNL     1      55.023  40.005  29.267  1.00  0.00     0.021 A 
ATOM      5  N   UNL     1      54.379  37.978  28.188  1.00  0.00    -0.264 NA
ATOM      6  C   UNL     1      55.308  38.944  28.407  1.00  0.00     0.111 A 
ENDROOT
BRANCH   1   7
ATOM      7  C   UNL     1      51.502  39.106  30.324  1.00  0.00     0.073 C 
ATOM      8  O   UNL     1      51.402  38.947  31.569  1.00  0.00    -0.545 OA
ATOM      9  O   UNL     1      50.350  39.327  29.578  1.00  0.00    -0.545 OA
ENDBRANCH   1   7
TORSDOF 1
ENDMDL
MODEL 2
REMARK VINA RESULT:    -4.826      2.706      3.552
REMARK INTER + INTRA:          -5.126
REMARK INTER:                  -5.102
REMARK INTRA:                  -0.024
REMARK UNBOUND:                -0.017
REMARK SMILES O=C([O-])c1cccnc1
REMARK SMILES IDX 4 1 5 2 9 3 6 4 8 5 7 6 2 7 1 8 3 9
REMARK H PARENT
REMARK Flexibility Score: inf
ROOT
ATOM      1  C   UNL     1      53.709  39.104  29.151  1.00  0.00     0.016 A 
ATOM      2  C   UNL     1      52.793  39.715  30.024  1.00  0.00     0.013 A 
ATOM      3  C   UNL     1      53.308  37.942  28.468  1.00  0.00     0.120 A 
ATOM      4  C   UNL     1      51.520  39.170  30.198  1.00  0.00     0.021 A 
ATOM      5  N   UNL     1      52.061  37.431  28.657  1.00  0.00    -0.264 NA
ATOM      6  C   UNL     1      51.169  38.015  29.498  1.00  0.00     0.111 A 
ENDROOT
BRANCH   1   7
ATOM      7  C   UNL     1      55.060  39.673  28.958  1.00  0.00     0.073 C 
ATOM      8  O   UNL     1      55.369  40.779  29.474  1.00  0.00    -0.545 OA
ATOM      9  O   UNL     1      56.009  38.993  28.203  1.00  0.00    -0.545 OA
ENDBRANCH   1   7
TORSDOF 1
ENDMDL
MODEL 3
REMARK VINA RESULT:    -4.641      2.874      3.872
REMARK INTER + INTRA:          -4.930
REMARK INTER:                  -4.907
REMARK INTRA:                  -0.023
REMARK UNBOUND:                -0.017
REMARK SMILES O=C([O-])c1cccnc1
REMARK SMILES IDX 4 1 5 2 9 3 6 4 8 5 7 6 2 7 1 8 3 9
REMARK H PARENT
REMARK Flexibility Score: inf
ROOT
ATOM      1  C   UNL     1      53.565  39.146  29.225  1.00  0.00     0.016 A 
ATOM      2  C   UNL     1      53.043  38.045  28.526  1.00  0.00     0.013 A 
ATOM      3  C   UNL     1      52.734  39.809  30.144  1.00  0.00     0.120 A 
ATOM      4  C   UNL     1      51.728  37.633  28.751  1.00  0.00     0.021 A 
ATOM      5  N   UNL     1      51.457  39.387  30.343  1.00  0.00    -0.264 NA
ATOM      6  C   UNL     1      50.942  38.324  29.673  1.00  0.00     0.111 A 
ENDROOT
BRANCH   1   7
ATOM      7  C   UNL     1      54.956  39.592  28.996  1.00  0.00     0.073 C 
ATOM      8  O   UNL     1      55.347  40.715  29.414  1.00  0.00    -0.545 OA
ATOM      9  O   UNL     1      55.854  38.778  28.315  1.00  0.00    -0.545 OA
ENDBRANCH   1   7
TORSDOF 1
ENDMDL
MODEL 4
REMARK VINA RESULT:    -4.576      3.006      3.841
REMARK INTER + INTRA:          -4.860
REMARK INTER:                  -4.842
REMARK INTRA:                  -0.018
REMARK UNBOUND:                -0.017
REMARK SMILES O=C([O-])c1cccnc1
REMARK SMILES IDX 4 1 5 2 9 3 6 4 8 5 7 6 2 7 1 8 3 9
REMARK H PARENT
REMARK Flexibility Score: inf
ROOT
ATOM      1  C   UNL     1      54.622  38.005  28.449  1.00  0.00     0.016 A 
ATOM      2  C   UNL     1      55.422  36.852  28.515  1.00  0.00     0.013 A 
ATOM      3  C   UNL     1      53.256  37.854  28.156  1.00  0.00     0.120 A 
ATOM      4  C   UNL     1      54.859  35.594  28.290  1.00  0.00     0.021 A 
ATOM      5  N   UNL     1      52.732  36.617  27.941  1.00  0.00    -0.264 NA
ATOM      6  C   UNL     1      53.497  35.496  28.002  1.00  0.00     0.111 A 
ENDROOT
BRANCH   1   7
ATOM      7  C   UNL     1      55.207  39.342  28.685  1.00  0.00     0.073 C 
ATOM      8  O   UNL     1      54.722  40.109  29.559  1.00  0.00    -0.545 OA
ATOM      9  O   UNL     1      56.303  39.772  27.945  1.00  0.00    -0.545 OA
ENDBRANCH   1   7
TORSDOF 1
ENDMDL
MODEL 5
REMARK VINA RESULT:    -4.498      2.947      3.723
REMARK INTER + INTRA:          -4.778
REMARK INTER:                  -4.758
REMARK INTRA:                  -0.020
REMARK UNBOUND:                -0.017
REMARK SMILES O=C([O-])c1cccnc1
REMARK SMILES IDX 4 1 5 2 9 3 6 4 8 5 7 6 2 7 1 8 3 9
REMARK H PARENT
REMARK Flexibility Score: inf
ROOT
ATOM      1  C   UNL     1      53.110  38.274  28.627  1.00  0.00     0.016 A 
ATOM      2  C   UNL     1      52.848  39.239  29.612  1.00  0.00     0.013 A 
ATOM      3  C   UNL     1      52.041  37.820  27.835  1.00  0.00     0.120 A 
ATOM      4  C   UNL     1      51.551  39.726  29.789  1.00  0.00     0.021 A 
ATOM      5  N   UNL     1      50.787  38.311  28.028  1.00  0.00    -0.264 NA
ATOM      6  C   UNL     1      50.523  39.245  28.979  1.00  0.00     0.111 A 
ENDROOT
BRANCH   1   7
ATOM      7  C   UNL     1      54.479  37.751  28.429  1.00  0.00     0.073 C 
ATOM      8  O   UNL     1      55.462  38.536  28.368  1.00  0.00    -0.545 OA
ATOM      9  O   UNL     1      54.700  36.384  28.308  1.00  0.00    -0.545 OA
ENDBRANCH   1   7
TORSDOF 1
ENDMDL
MODEL 6
REMARK VINA RESULT:    -4.484      3.287      4.190
REMARK INTER + INTRA:          -4.763
REMARK INTER:                  -4.743
REMARK INTRA:                  -0.019
REMARK UNBOUND:                -0.017
REMARK SMILES O=C([O-])c1cccnc1
REMARK SMILES IDX 4 1 5 2 9 3 6 4 8 5 7 6 2 7 1 8 3 9
REMARK H PARENT
REMARK Flexibility Score: inf
ROOT
ATOM      1  C   UNL     1      53.876  36.772  27.979  1.00  0.00     0.016 A 
ATOM      2  C   UNL     1      54.790  35.742  28.258  1.00  0.00     0.013 A 
ATOM      3  C   UNL     1      52.754  36.473  27.186  1.00  0.00     0.120 A 
ATOM      4  C   UNL     1      54.575  34.459  27.752  1.00  0.00     0.021 A 
ATOM      5  N   UNL     1      52.570  35.214  26.705  1.00  0.00    -0.264 NA
ATOM      6  C   UNL     1      53.448  34.211  26.969  1.00  0.00     0.111 A 
ENDROOT
BRANCH   1   7
ATOM      7  C   UNL     1      54.092  38.135  28.511  1.00  0.00     0.073 C 
ATOM      8  O   UNL     1      53.142  38.778  29.031  1.00  0.00    -0.545 OA
ATOM      9  O   UNL     1      55.349  38.726  28.442  1.00  0.00    -0.545 OA
ENDBRANCH   1   7
TORSDOF 1
ENDMDL
MODEL 7
REMARK VINA RESULT:    -4.379      2.747      3.661
REMARK INTER + INTRA:          -4.652
REMARK INTER:                  -4.636
REMARK INTRA:                  -0.016
REMARK UNBOUND:                -0.017
REMARK SMILES O=C([O-])c1cccnc1
REMARK SMILES IDX 4 1 5 2 9 3 6 4 8 5 7 6 2 7 1 8 3 9
REMARK H PARENT
REMARK Flexibility Score: inf
ROOT
ATOM      1  C   UNL     1      52.541  38.013  28.500  1.00  0.00     0.016 A 
ATOM      2  C   UNL     1      51.362  37.837  29.242  1.00  0.00     0.013 A 
ATOM      3  C   UNL     1      53.482  38.955  28.954  1.00  0.00     0.120 A 
ATOM      4  C   UNL     1      51.144  38.586  30.400  1.00  0.00     0.021 A 
ATOM      5  N   UNL     1      53.243  39.673  30.085  1.00  0.00    -0.264 NA
ATOM      6  C   UNL     1      52.106  39.509  30.809  1.00  0.00     0.111 A 
ENDROOT
BRANCH   1   7
ATOM      7  C   UNL     1      52.784  37.225  27.273  1.00  0.00     0.073 C 
ATOM      8  O   UNL     1      53.529  36.209  27.301  1.00  0.00    -0.545 OA
ATOM      9  O   UNL     1      52.194  37.595  26.070  1.00  0.00    -0.545 OA
ENDBRANCH   1   7
TORSDOF 1
ENDMDL
MODEL 8
REMARK VINA RESULT:    -4.358      2.814      3.774
REMARK INTER + INTRA:          -4.630
REMARK INTER:                  -4.608
REMARK INTRA:                  -0.022
REMARK UNBOUND:                -0.017
REMARK SMILES O=C([O-])c1cccnc1
REMARK SMILES IDX 4 1 5 2 9 3 6 4 8 5 7 6 2 7 1 8 3 9
REMARK H PARENT
REMARK Flexibility Score: inf
ROOT
ATOM      1  C   UNL     1      53.982  37.955  28.489  1.00  0.00     0.016 A 
ATOM      2  C   UNL     1      52.611  38.231  28.613  1.00  0.00     0.013 A 
ATOM      3  C   UNL     1      54.375  36.636  28.203  1.00  0.00     0.120 A 
ATOM      4  C   UNL     1      51.673  37.209  28.455  1.00  0.00     0.021 A 
ATOM      5  N   UNL     1      53.441  35.658  28.054  1.00  0.00    -0.264 NA
ATOM      6  C   UNL     1      52.112  35.915  28.173  1.00  0.00     0.111 A 
ENDROOT
BRANCH   1   7
ATOM      7  C   UNL     1      54.985  39.029  28.653  1.00  0.00     0.073 C 
ATOM      8  O   UNL     1      56.113  38.943  28.100  1.00  0.00    -0.545 OA
ATOM      9  O   UNL     1      54.695  40.151  29.422  1.00  0.00    -0.545 OA
ENDBRANCH   1   7
TORSDOF 1
ENDMDL
MODEL 9
REMARK VINA RESULT:    -4.311      4.545      5.518
REMARK INTER + INTRA:          -4.580
REMARK INTER:                  -4.558
REMARK INTRA:                  -0.023
REMARK UNBOUND:                -0.017
REMARK SMILES O=C([O-])c1cccnc1
REMARK SMILES IDX 4 1 5 2 9 3 6 4 8 5 7 6 2 7 1 8 3 9
REMARK H PARENT
REMARK Flexibility Score: inf
ROOT
ATOM      1  C   UNL     1      53.428  35.072  27.312  1.00  0.00     0.016 A 
ATOM      2  C   UNL     1      54.525  34.208  27.462  1.00  0.00     0.013 A 
ATOM      3  C   UNL     1      52.204  34.528  26.884  1.00  0.00     0.120 A 
ATOM      4  C   UNL     1      54.389  32.846  27.188  1.00  0.00     0.021 A 
ATOM      5  N   UNL     1      52.098  33.197  26.623  1.00  0.00    -0.264 NA
ATOM      6  C   UNL     1      53.154  32.354  26.764  1.00  0.00     0.111 A 
ENDROOT
BRANCH   1   7
ATOM      7  C   UNL     1      53.560  36.516  27.601  1.00  0.00     0.073 C 
ATOM      8  O   UNL     1      54.472  36.937  28.361  1.00  0.00    -0.545 OA
ATOM      9  O   UNL     1      52.678  37.430  27.036  1.00  0.00    -0.545 OA
ENDBRANCH   1   7
TORSDOF 1
ENDMDL
