MODEL 1
REMARK VINA RESULT:    -5.518      0.000      0.000
REMARK INTER + INTRA:          -6.619
REMARK INTER:                  -6.325
REMARK INTRA:                  -0.294
REMARK UNBOUND:                -0.294
REMARK SMILES O=C1C[C@@H](c2ccc(O)cc2)Oc2cc(O)cc(O)c21
REMARK SMILES IDX 3 1 4 2 12 3 13 4 14 5 15 6 17 7 18 8 20 9 2 10 1 11 5 12
REMARK SMILES IDX 6 13 11 14 7 15 10 16 8 17 9 18 19 20 16 22
REMARK H PARENT 9 19 19 21 16 23
REMARK Flexibility Score: inf
ROOT
ATOM      1  C   UNL     1      46.035  15.137  -3.062  1.00  0.00     0.131 C 
ATOM      2  C   UNL     1      46.126  16.093  -4.258  1.00  0.00     0.211 C 
ATOM      3  O   UNL     1      47.462  16.573  -4.400  1.00  0.00    -0.484 OA
ATOM      4  C   UNL     1      48.566  15.718  -4.315  1.00  0.00     0.138 A 
ATOM      5  C   UNL     1      49.804  16.169  -4.774  1.00  0.00     0.093 A 
ATOM      6  C   UNL     1      50.920  15.333  -4.728  1.00  0.00     0.123 A 
ATOM      7  C   UNL     1      50.791  14.033  -4.235  1.00  0.00     0.093 A 
ATOM      8  C   UNL     1      49.557  13.555  -3.777  1.00  0.00     0.133 A 
ATOM      9  C   UNL     1      48.429  14.423  -3.766  1.00  0.00     0.102 A 
ATOM     10  C   UNL     1      47.115  14.094  -3.136  1.00  0.00     0.174 C 
ATOM     11  O   UNL     1      46.916  12.994  -2.558  1.00  0.00    -0.294 OA
ENDROOT
BRANCH   2  12
ATOM     12  C   UNL     1      45.172  17.250  -4.093  1.00  0.00    -0.007 A 
ATOM     13  C   UNL     1      45.084  18.240  -5.087  1.00  0.00     0.011 A 
ATOM     14  C   UNL     1      44.321  17.324  -2.976  1.00  0.00     0.011 A 
ATOM     15  C   UNL     1      44.180  19.298  -4.952  1.00  0.00     0.046 A 
ATOM     16  C   UNL     1      43.418  18.383  -2.844  1.00  0.00     0.046 A 
ATOM     17  C   UNL     1      43.345  19.373  -3.829  1.00  0.00     0.115 A 
BRANCH  17  18
ATOM     18  O   UNL     1      42.441  20.422  -3.684  1.00  0.00    -0.508 OA
ATOM     19  H   UNL     1      41.549  20.291  -3.220  1.00  0.00     0.293 HD
ENDBRANCH  17  18
ENDBRANCH   2  12
BRANCH   8  20
ATOM     20  O   UNL     1      49.512  12.221  -3.363  1.00  0.00    -0.507 OA
ATOM     21  H   UNL     1      50.317  11.679  -3.093  1.00  0.00     0.293 HD
ENDBRANCH   8  20
BRANCH   6  22
ATOM     22  O   UNL     1      52.162  15.777  -5.178  1.00  0.00    -0.508 OA
ATOM     23  H   UNL     1      52.960  15.156  -5.231  1.00  0.00     0.293 HD
ENDBRANCH   6  22
TORSDOF 4
ENDMDL
MODEL 2
REMARK VINA RESULT:    -5.366      1.855      7.186
REMARK INTER + INTRA:          -6.445
REMARK INTER:                  -6.138
REMARK INTRA:                  -0.307
REMARK UNBOUND:                -0.294
REMARK SMILES O=C1C[C@@H](c2ccc(O)cc2)Oc2cc(O)cc(O)c21
REMARK SMILES IDX 3 1 4 2 12 3 13 4 14 5 15 6 17 7 18 8 20 9 2 10 1 11 5 12
REMARK SMILES IDX 6 13 11 14 7 15 10 16 8 17 9 18 19 20 16 22
REMARK H PARENT 9 19 19 21 16 23
REMARK Flexibility Score: inf
ROOT
ATOM      1  C   UNL     1      46.176  17.739  -5.076  1.00  0.00     0.131 C 
ATOM      2  C   UNL     1      46.152  16.235  -4.779  1.00  0.00     0.211 C 
ATOM      3  O   UNL     1      45.424  15.985  -3.576  1.00  0.00    -0.484 OA
ATOM      4  C   UNL     1      44.196  16.601  -3.317  1.00  0.00     0.138 A 
ATOM      5  C   UNL     1      43.386  16.089  -2.302  1.00  0.00     0.093 A 
ATOM      6  C   UNL     1      42.143  16.663  -2.035  1.00  0.00     0.123 A 
ATOM      7  C   UNL     1      41.701  17.744  -2.799  1.00  0.00     0.093 A 
ATOM      8  C   UNL     1      42.492  18.270  -3.828  1.00  0.00     0.133 A 
ATOM      9  C   UNL     1      43.786  17.727  -4.066  1.00  0.00     0.102 A 
ATOM     10  C   UNL     1      44.790  18.315  -5.003  1.00  0.00     0.174 C 
ATOM     11  O   UNL     1      44.548  19.358  -5.663  1.00  0.00    -0.294 OA
ENDROOT
BRANCH   2  12
ATOM     12  C   UNL     1      47.554  15.688  -4.661  1.00  0.00    -0.007 A 
ATOM     13  C   UNL     1      48.651  16.468  -5.064  1.00  0.00     0.011 A 
ATOM     14  C   UNL     1      47.783  14.420  -4.100  1.00  0.00     0.011 A 
ATOM     15  C   UNL     1      49.953  15.976  -4.928  1.00  0.00     0.046 A 
ATOM     16  C   UNL     1      49.086  13.931  -3.965  1.00  0.00     0.046 A 
ATOM     17  C   UNL     1      50.174  14.706  -4.380  1.00  0.00     0.115 A 
BRANCH  17  18
ATOM     18  O   UNL     1      51.467  14.206  -4.241  1.00  0.00    -0.508 OA
ATOM     19  H   UNL     1      51.659  13.212  -4.304  1.00  0.00     0.293 HD
ENDBRANCH  17  18
ENDBRANCH   2  12
BRANCH   8  20
ATOM     20  O   UNL     1      41.938  19.310  -4.580  1.00  0.00    -0.507 OA
ATOM     21  H   UNL     1      42.192  20.280  -4.487  1.00  0.00     0.293 HD
ENDBRANCH   8  20
BRANCH   6  22
ATOM     22  O   UNL     1      41.331  16.162  -1.019  1.00  0.00    -0.508 OA
ATOM     23  H   UNL     1      41.588  16.251  -0.043  1.00  0.00     0.293 HD
ENDBRANCH   6  22
TORSDOF 4
ENDMDL
MODEL 3
REMARK VINA RESULT:    -5.148      2.096      3.161
REMARK INTER + INTRA:          -6.194
REMARK INTER:                  -5.886
REMARK INTRA:                  -0.308
REMARK UNBOUND:                -0.294
REMARK SMILES O=C1C[C@@H](c2ccc(O)cc2)Oc2cc(O)cc(O)c21
REMARK SMILES IDX 3 1 4 2 12 3 13 4 14 5 15 6 17 7 18 8 20 9 2 10 1 11 5 12
REMARK SMILES IDX 6 13 11 14 7 15 10 16 8 17 9 18 19 20 16 22
REMARK H PARENT 9 19 19 21 16 23
REMARK Flexibility Score: inf
ROOT
ATOM      1  C   UNL     1      43.469  15.759  -2.542  1.00  0.00     0.131 C 
ATOM      2  C   UNL     1      43.692  17.079  -3.290  1.00  0.00     0.211 C 
ATOM      3  O   UNL     1      45.090  17.317  -3.455  1.00  0.00    -0.484 OA
ATOM      4  C   UNL     1      45.964  16.310  -3.877  1.00  0.00     0.138 A 
ATOM      5  C   UNL     1      47.236  16.668  -4.328  1.00  0.00     0.093 A 
ATOM      6  C   UNL     1      48.124  15.691  -4.780  1.00  0.00     0.123 A 
ATOM      7  C   UNL     1      47.729  14.353  -4.797  1.00  0.00     0.093 A 
ATOM      8  C   UNL     1      46.456  13.970  -4.358  1.00  0.00     0.133 A 
ATOM      9  C   UNL     1      45.568  14.955  -3.840  1.00  0.00     0.102 A 
ATOM     10  C   UNL     1      44.265  14.652  -3.176  1.00  0.00     0.174 C 
ATOM     11  O   UNL     1      43.856  13.471  -3.029  1.00  0.00    -0.294 OA
ENDROOT
BRANCH   2  12
ATOM     12  C   UNL     1      43.052  18.229  -2.551  1.00  0.00    -0.007 A 
ATOM     13  C   UNL     1      42.107  17.980  -1.540  1.00  0.00     0.011 A 
ATOM     14  C   UNL     1      43.432  19.555  -2.822  1.00  0.00     0.011 A 
ATOM     15  C   UNL     1      41.535  19.042  -0.833  1.00  0.00     0.046 A 
ATOM     16  C   UNL     1      42.858  20.614  -2.113  1.00  0.00     0.046 A 
ATOM     17  C   UNL     1      41.908  20.362  -1.118  1.00  0.00     0.115 A 
BRANCH  17  18
ATOM     18  O   UNL     1      41.344  21.427  -0.420  1.00  0.00    -0.508 OA
ATOM     19  H   UNL     1      40.519  21.906  -0.762  1.00  0.00     0.293 HD
ENDBRANCH  17  18
ENDBRANCH   2  12
BRANCH   8  20
ATOM     20  O   UNL     1      46.128  12.617  -4.474  1.00  0.00    -0.507 OA
ATOM     21  H   UNL     1      45.464  12.138  -3.888  1.00  0.00     0.293 HD
ENDBRANCH   8  20
BRANCH   6  22
ATOM     22  O   UNL     1      49.397  16.039  -5.226  1.00  0.00    -0.508 OA
ATOM     23  H   UNL     1      49.833  16.913  -4.956  1.00  0.00     0.293 HD
ENDBRANCH   6  22
TORSDOF 4
ENDMDL
MODEL 4
REMARK VINA RESULT:    -5.041      2.010      6.717
REMARK INTER + INTRA:          -6.072
REMARK INTER:                  -5.763
REMARK INTRA:                  -0.309
REMARK UNBOUND:                -0.294
REMARK SMILES O=C1C[C@@H](c2ccc(O)cc2)Oc2cc(O)cc(O)c21
REMARK SMILES IDX 3 1 4 2 12 3 13 4 14 5 15 6 17 7 18 8 20 9 2 10 1 11 5 12
REMARK SMILES IDX 6 13 11 14 7 15 10 16 8 17 9 18 19 20 16 22
REMARK H PARENT 9 19 19 21 16 23
REMARK Flexibility Score: inf
ROOT
ATOM      1  C   UNL     1      45.682  13.595  -3.563  1.00  0.00     0.131 C 
ATOM      2  C   UNL     1      46.598  14.679  -2.983  1.00  0.00     0.211 C 
ATOM      3  O   UNL     1      46.060  15.972  -3.257  1.00  0.00    -0.484 OA
ATOM      4  C   UNL     1      44.705  16.261  -3.069  1.00  0.00     0.138 A 
ATOM      5  C   UNL     1      44.299  17.597  -3.039  1.00  0.00     0.093 A 
ATOM      6  C   UNL     1      42.958  17.921  -2.828  1.00  0.00     0.123 A 
ATOM      7  C   UNL     1      42.024  16.904  -2.627  1.00  0.00     0.093 A 
ATOM      8  C   UNL     1      42.408  15.558  -2.644  1.00  0.00     0.133 A 
ATOM      9  C   UNL     1      43.763  15.218  -2.919  1.00  0.00     0.102 A 
ATOM     10  C   UNL     1      44.257  13.827  -3.145  1.00  0.00     0.174 C 
ATOM     11  O   UNL     1      43.484  12.836  -3.104  1.00  0.00    -0.294 OA
ENDROOT
BRANCH   2  12
ATOM     12  C   UNL     1      47.992  14.564  -3.551  1.00  0.00    -0.007 A 
ATOM     13  C   UNL     1      48.629  15.694  -4.092  1.00  0.00     0.011 A 
ATOM     14  C   UNL     1      48.689  13.345  -3.496  1.00  0.00     0.011 A 
ATOM     15  C   UNL     1      49.931  15.598  -4.591  1.00  0.00     0.046 A 
ATOM     16  C   UNL     1      49.992  13.252  -3.996  1.00  0.00     0.046 A 
ATOM     17  C   UNL     1      50.616  14.377  -4.546  1.00  0.00     0.115 A 
BRANCH  17  18
ATOM     18  O   UNL     1      51.913  14.269  -5.041  1.00  0.00    -0.508 OA
ATOM     19  H   UNL     1      52.092  14.043  -6.013  1.00  0.00     0.293 HD
ENDBRANCH  17  18
ENDBRANCH   2  12
BRANCH   8  20
ATOM     20  O   UNL     1      41.414  14.614  -2.370  1.00  0.00    -0.507 OA
ATOM     21  H   UNL     1      41.551  13.617  -2.396  1.00  0.00     0.293 HD
ENDBRANCH   8  20
BRANCH   6  22
ATOM     22  O   UNL     1      42.544  19.251  -2.803  1.00  0.00    -0.508 OA
ATOM     23  H   UNL     1      43.033  19.949  -2.255  1.00  0.00     0.293 HD
ENDBRANCH   6  22
TORSDOF 4
ENDMDL
MODEL 5
REMARK VINA RESULT:    -5.010      1.941      3.284
REMARK INTER + INTRA:          -6.036
REMARK INTER:                  -5.728
REMARK INTRA:                  -0.309
REMARK UNBOUND:                -0.294
REMARK SMILES O=C1C[C@@H](c2ccc(O)cc2)Oc2cc(O)cc(O)c21
REMARK SMILES IDX 3 1 4 2 12 3 13 4 14 5 15 6 17 7 18 8 20 9 2 10 1 11 5 12
REMARK SMILES IDX 6 13 11 14 7 15 10 16 8 17 9 18 19 20 16 22
REMARK H PARENT 9 19 19 21 16 23
REMARK Flexibility Score: inf
ROOT
ATOM      1  C   UNL     1      46.973  14.799  -5.125  1.00  0.00     0.131 C 
ATOM      2  C   UNL     1      46.861  15.539  -3.786  1.00  0.00     0.211 C 
ATOM      3  O   UNL     1      46.745  14.602  -2.717  1.00  0.00    -0.484 OA
ATOM      4  C   UNL     1      47.566  13.472  -2.635  1.00  0.00     0.138 A 
ATOM      5  C   UNL     1      47.634  12.775  -1.427  1.00  0.00     0.093 A 
ATOM      6  C   UNL     1      48.463  11.659  -1.304  1.00  0.00     0.123 A 
ATOM      7  C   UNL     1      49.239  11.250  -2.390  1.00  0.00     0.093 A 
ATOM      8  C   UNL     1      49.193  11.938  -3.609  1.00  0.00     0.133 A 
ATOM      9  C   UNL     1      48.305  13.040  -3.759  1.00  0.00     0.102 A 
ATOM     10  C   UNL     1      48.032  13.734  -5.053  1.00  0.00     0.174 C 
ATOM     11  O   UNL     1      48.586  13.379  -6.125  1.00  0.00    -0.294 OA
ENDROOT
BRANCH   2  12
ATOM     12  C   UNL     1      45.677  16.475  -3.788  1.00  0.00    -0.007 A 
ATOM     13  C   UNL     1      44.709  16.390  -2.773  1.00  0.00     0.011 A 
ATOM     14  C   UNL     1      45.555  17.475  -4.768  1.00  0.00     0.011 A 
ATOM     15  C   UNL     1      43.626  17.275  -2.754  1.00  0.00     0.046 A 
ATOM     16  C   UNL     1      44.472  18.359  -4.747  1.00  0.00     0.046 A 
ATOM     17  C   UNL     1      43.504  18.261  -3.742  1.00  0.00     0.115 A 
BRANCH  17  18
ATOM     18  O   UNL     1      42.430  19.148  -3.734  1.00  0.00    -0.508 OA
ATOM     19  H   UNL     1      41.603  18.971  -3.175  1.00  0.00     0.293 HD
ENDBRANCH  17  18
ENDBRANCH   2  12
BRANCH   8  20
ATOM     20  O   UNL     1      50.053  11.493  -4.616  1.00  0.00    -0.507 OA
ATOM     21  H   UNL     1      49.831  10.767  -5.278  1.00  0.00     0.293 HD
ENDBRANCH   8  20
BRANCH   6  22
ATOM     22  O   UNL     1      48.533  10.954  -0.104  1.00  0.00    -0.508 OA
ATOM     23  H   UNL     1      48.595  11.431   0.788  1.00  0.00     0.293 HD
ENDBRANCH   6  22
TORSDOF 4
ENDMDL
MODEL 6
REMARK VINA RESULT:    -4.996      2.233      7.212
REMARK INTER + INTRA:          -6.020
REMARK INTER:                  -5.706
REMARK INTRA:                  -0.314
REMARK UNBOUND:                -0.294
REMARK SMILES O=C1C[C@@H](c2ccc(O)cc2)Oc2cc(O)cc(O)c21
REMARK SMILES IDX 3 1 4 2 12 3 13 4 14 5 15 6 17 7 18 8 20 9 2 10 1 11 5 12
REMARK SMILES IDX 6 13 11 14 7 15 10 16 8 17 9 18 19 20 16 22
REMARK H PARENT 9 19 19 21 16 23
REMARK Flexibility Score: inf
ROOT
ATOM      1  C   UNL     1      47.038  15.974  -4.207  1.00  0.00     0.131 C 
ATOM      2  C   UNL     1      46.234  14.767  -3.709  1.00  0.00     0.211 C 
ATOM      3  O   UNL     1      45.273  15.186  -2.740  1.00  0.00    -0.484 OA
ATOM      4  C   UNL     1      44.474  16.317  -2.936  1.00  0.00     0.138 A 
ATOM      5  C   UNL     1      43.349  16.495  -2.128  1.00  0.00     0.093 A 
ATOM      6  C   UNL     1      42.516  17.599  -2.315  1.00  0.00     0.123 A 
ATOM      7  C   UNL     1      42.801  18.519  -3.324  1.00  0.00     0.093 A 
ATOM      8  C   UNL     1      43.919  18.357  -4.152  1.00  0.00     0.133 A 
ATOM      9  C   UNL     1      44.805  17.266  -3.929  1.00  0.00     0.102 A 
ATOM     10  C   UNL     1      46.118  17.090  -4.618  1.00  0.00     0.174 C 
ATOM     11  O   UNL     1      46.537  17.919  -5.466  1.00  0.00    -0.294 OA
ENDROOT
BRANCH   2  12
ATOM     12  C   UNL     1      47.146  13.721  -3.118  1.00  0.00    -0.007 A 
ATOM     13  C   UNL     1      48.285  13.296  -3.825  1.00  0.00     0.011 A 
ATOM     14  C   UNL     1      46.902  13.199  -1.836  1.00  0.00     0.011 A 
ATOM     15  C   UNL     1      49.149  12.349  -3.267  1.00  0.00     0.046 A 
ATOM     16  C   UNL     1      47.768  12.252  -1.281  1.00  0.00     0.046 A 
ATOM     17  C   UNL     1      48.892  11.823  -1.994  1.00  0.00     0.115 A 
BRANCH  17  18
ATOM     18  O   UNL     1      49.745  10.879  -1.429  1.00  0.00    -0.508 OA
ATOM     19  H   UNL     1      50.464  10.421  -1.977  1.00  0.00     0.293 HD
ENDBRANCH  17  18
ENDBRANCH   2  12
BRANCH   8  20
ATOM     20  O   UNL     1      44.086  19.293  -5.176  1.00  0.00    -0.507 OA
ATOM     21  H   UNL     1      43.683  19.211  -6.096  1.00  0.00     0.293 HD
ENDBRANCH   8  20
BRANCH   6  22
ATOM     22  O   UNL     1      41.394  17.787  -1.509  1.00  0.00    -0.508 OA
ATOM     23  H   UNL     1      40.530  18.161  -1.882  1.00  0.00     0.293 HD
ENDBRANCH   6  22
TORSDOF 4
ENDMDL
MODEL 7
REMARK VINA RESULT:    -4.963      1.800      3.308
REMARK INTER + INTRA:          -5.982
REMARK INTER:                  -5.676
REMARK INTRA:                  -0.305
REMARK UNBOUND:                -0.294
REMARK SMILES O=C1C[C@@H](c2ccc(O)cc2)Oc2cc(O)cc(O)c21
REMARK SMILES IDX 3 1 4 2 12 3 13 4 14 5 15 6 17 7 18 8 20 9 2 10 1 11 5 12
REMARK SMILES IDX 6 13 11 14 7 15 10 16 8 17 9 18 19 20 16 22
REMARK H PARENT 9 19 19 21 16 23
REMARK Flexibility Score: inf
ROOT
ATOM      1  C   UNL     1      45.776  17.109  -4.559  1.00  0.00     0.131 C 
ATOM      2  C   UNL     1      45.454  16.683  -3.122  1.00  0.00     0.211 C 
ATOM      3  O   UNL     1      45.886  15.341  -2.900  1.00  0.00    -0.484 OA
ATOM      4  C   UNL     1      47.143  14.893  -3.321  1.00  0.00     0.138 A 
ATOM      5  C   UNL     1      47.637  13.693  -2.805  1.00  0.00     0.093 A 
ATOM      6  C   UNL     1      48.898  13.231  -3.184  1.00  0.00     0.123 A 
ATOM      7  C   UNL     1      49.673  13.981  -4.069  1.00  0.00     0.093 A 
ATOM      8  C   UNL     1      49.202  15.191  -4.594  1.00  0.00     0.133 A 
ATOM      9  C   UNL     1      47.893  15.638  -4.258  1.00  0.00     0.102 A 
ATOM     10  C   UNL     1      47.211  16.807  -4.890  1.00  0.00     0.174 C 
ATOM     11  O   UNL     1      47.768  17.492  -5.786  1.00  0.00    -0.294 OA
ENDROOT
BRANCH   2  12
ATOM     12  C   UNL     1      43.975  16.805  -2.845  1.00  0.00    -0.007 A 
ATOM     13  C   UNL     1      43.193  15.652  -2.661  1.00  0.00     0.011 A 
ATOM     14  C   UNL     1      43.373  18.069  -2.712  1.00  0.00     0.011 A 
ATOM     15  C   UNL     1      41.829  15.762  -2.374  1.00  0.00     0.046 A 
ATOM     16  C   UNL     1      42.009  18.176  -2.426  1.00  0.00     0.046 A 
ATOM     17  C   UNL     1      41.233  17.024  -2.258  1.00  0.00     0.115 A 
BRANCH  17  18
ATOM     18  O   UNL     1      39.875  17.146  -1.973  1.00  0.00    -0.508 OA
ATOM     19  H   UNL     1      39.481  16.784  -1.111  1.00  0.00     0.293 HD
ENDBRANCH  17  18
ENDBRANCH   2  12
BRANCH   8  20
ATOM     20  O   UNL     1      50.075  15.903  -5.420  1.00  0.00    -0.507 OA
ATOM     21  H   UNL     1      51.004  16.190  -5.157  1.00  0.00     0.293 HD
ENDBRANCH   8  20
BRANCH   6  22
ATOM     22  O   UNL     1      49.397  12.032  -2.679  1.00  0.00    -0.508 OA
ATOM     23  H   UNL     1      50.326  11.970  -2.281  1.00  0.00     0.293 HD
ENDBRANCH   6  22
TORSDOF 4
ENDMDL
MODEL 8
REMARK VINA RESULT:    -4.929      1.843      7.689
REMARK INTER + INTRA:          -5.943
REMARK INTER:                  -5.647
REMARK INTRA:                  -0.296
REMARK UNBOUND:                -0.294
REMARK SMILES O=C1C[C@@H](c2ccc(O)cc2)Oc2cc(O)cc(O)c21
REMARK SMILES IDX 3 1 4 2 12 3 13 4 14 5 15 6 17 7 18 8 20 9 2 10 1 11 5 12
REMARK SMILES IDX 6 13 11 14 7 15 10 16 8 17 9 18 19 20 16 22
REMARK H PARENT 9 19 19 21 16 23
REMARK Flexibility Score: inf
ROOT
ATOM      1  C   UNL     1      45.157  18.123  -4.784  1.00  0.00     0.131 C 
ATOM      2  C   UNL     1      44.727  16.876  -4.002  1.00  0.00     0.211 C 
ATOM      3  O   UNL     1      44.146  17.257  -2.755  1.00  0.00    -0.484 OA
ATOM      4  C   UNL     1      43.211  18.294  -2.664  1.00  0.00     0.138 A 
ATOM      5  C   UNL     1      42.446  18.410  -1.502  1.00  0.00     0.093 A 
ATOM      6  C   UNL     1      41.486  19.418  -1.389  1.00  0.00     0.123 A 
ATOM      7  C   UNL     1      41.281  20.300  -2.451  1.00  0.00     0.093 A 
ATOM      8  C   UNL     1      42.031  20.197  -3.629  1.00  0.00     0.133 A 
ATOM      9  C   UNL     1      43.051  19.211  -3.728  1.00  0.00     0.102 A 
ATOM     10  C   UNL     1      44.034  19.120  -4.849  1.00  0.00     0.174 C 
ATOM     11  O   UNL     1      44.021  19.934  -5.807  1.00  0.00    -0.294 OA
ENDROOT
BRANCH   2  12
ATOM     12  C   UNL     1      45.901  15.957  -3.769  1.00  0.00    -0.007 A 
ATOM     13  C   UNL     1      47.186  16.330  -4.199  1.00  0.00     0.011 A 
ATOM     14  C   UNL     1      45.736  14.747  -3.073  1.00  0.00     0.011 A 
ATOM     15  C   UNL     1      48.281  15.495  -3.958  1.00  0.00     0.046 A 
ATOM     16  C   UNL     1      46.833  13.914  -2.833  1.00  0.00     0.046 A 
ATOM     17  C   UNL     1      48.108  14.284  -3.276  1.00  0.00     0.115 A 
BRANCH  17  18
ATOM     18  O   UNL     1      49.191  13.444  -3.030  1.00  0.00    -0.508 OA
ATOM     19  H   UNL     1      49.625  12.909  -3.775  1.00  0.00     0.293 HD
ENDBRANCH  17  18
ENDBRANCH   2  12
BRANCH   8  20
ATOM     20  O   UNL     1      41.709  21.084  -4.661  1.00  0.00    -0.507 OA
ATOM     21  H   UNL     1      41.454  22.049  -4.525  1.00  0.00     0.293 HD
ENDBRANCH   8  20
BRANCH   6  22
ATOM     22  O   UNL     1      40.722  19.545  -0.231  1.00  0.00    -0.508 OA
ATOM     23  H   UNL     1      40.491  18.742   0.342  1.00  0.00     0.293 HD
ENDBRANCH   6  22
TORSDOF 4
ENDMDL
MODEL 9
REMARK VINA RESULT:    -4.886      2.590      6.985
REMARK INTER + INTRA:          -5.893
REMARK INTER:                  -5.590
REMARK INTRA:                  -0.303
REMARK UNBOUND:                -0.294
REMARK SMILES O=C1C[C@@H](c2ccc(O)cc2)Oc2cc(O)cc(O)c21
REMARK SMILES IDX 3 1 4 2 12 3 13 4 14 5 15 6 17 7 18 8 20 9 2 10 1 11 5 12
REMARK SMILES IDX 6 13 11 14 7 15 10 16 8 17 9 18 19 20 16 22
REMARK H PARENT 9 19 19 21 16 23
REMARK Flexibility Score: inf
ROOT
ATOM      1  C   UNL     1      48.478  16.254  -4.856  1.00  0.00     0.131 C 
ATOM      2  C   UNL     1      48.969  14.873  -5.306  1.00  0.00     0.211 C 
ATOM      3  O   UNL     1      48.543  13.876  -4.378  1.00  0.00    -0.484 OA
ATOM      4  C   UNL     1      47.236  13.842  -3.881  1.00  0.00     0.138 A 
ATOM      5  C   UNL     1      46.787  12.684  -3.244  1.00  0.00     0.093 A 
ATOM      6  C   UNL     1      45.480  12.607  -2.760  1.00  0.00     0.123 A 
ATOM      7  C   UNL     1      44.615  13.689  -2.931  1.00  0.00     0.093 A 
ATOM      8  C   UNL     1      45.040  14.858  -3.574  1.00  0.00     0.133 A 
ATOM      9  C   UNL     1      46.388  14.965  -4.016  1.00  0.00     0.102 A 
ATOM     10  C   UNL     1      47.008  16.217  -4.545  1.00  0.00     0.174 C 
ATOM     11  O   UNL     1      46.357  17.289  -4.637  1.00  0.00    -0.294 OA
ENDROOT
BRANCH   2  12
ATOM     12  C   UNL     1      50.473  14.854  -5.435  1.00  0.00    -0.007 A 
ATOM     13  C   UNL     1      51.157  13.631  -5.543  1.00  0.00     0.011 A 
ATOM     14  C   UNL     1      51.201  16.055  -5.505  1.00  0.00     0.011 A 
ATOM     15  C   UNL     1      52.547  13.611  -5.694  1.00  0.00     0.046 A 
ATOM     16  C   UNL     1      52.591  16.031  -5.656  1.00  0.00     0.046 A 
ATOM     17  C   UNL     1      53.268  14.811  -5.749  1.00  0.00     0.115 A 
BRANCH  17  18
ATOM     18  O   UNL     1      54.653  14.803  -5.898  1.00  0.00    -0.508 OA
ATOM     19  H   UNL     1      55.174  15.661  -6.039  1.00  0.00     0.293 HD
ENDBRANCH  17  18
ENDBRANCH   2  12
BRANCH   8  20
ATOM     20  O   UNL     1      44.084  15.861  -3.755  1.00  0.00    -0.507 OA
ATOM     21  H   UNL     1      43.174  15.868  -3.322  1.00  0.00     0.293 HD
ENDBRANCH   8  20
BRANCH   6  22
ATOM     22  O   UNL     1      45.027  11.457  -2.118  1.00  0.00    -0.508 OA
ATOM     23  H   UNL     1      44.996  11.392  -1.107  1.00  0.00     0.293 HD
ENDBRANCH   6  22
TORSDOF 4
ENDMDL
