MODEL 1
REMARK VINA RESULT:    11.260      0.000      0.000
REMARK INTER + INTRA:          21.231
REMARK INTER:                  21.134
REMARK INTRA:                   0.097
REMARK UNBOUND:                 0.097
REMARK SMILES O=C([O-])CCCCCCCCCCCCCCC(=O)[O-]
REMARK SMILES IDX 10 1 9 2 8 3 7 4 6 5 5 6 4 7 2 8 1 9 3 10 11 11 12 12 13 13
REMARK SMILES IDX 14 14 15 15 16 16 17 17 18 18 19 19 20 20
REMARK H PARENT
REMARK Flexibility Score: inf
ROOT
ATOM      1  C   UNL     1       1.826  -7.555  12.184  1.00  0.00     0.000 C 
ENDROOT
BRANCH   1   2
ATOM      2  C   UNL     1       0.348  -7.934  12.008  1.00  0.00     0.000 C 
BRANCH   2   3
ATOM      3  C   UNL     1       0.107  -8.592  10.643  1.00  0.00     0.000 C 
BRANCH   3   4
ATOM      4  C   UNL     1      -1.125  -7.989   9.952  1.00  0.00     0.000 C 
BRANCH   4   5
ATOM      5  C   UNL     1      -0.772  -6.807   9.036  1.00  0.00     0.000 C 
BRANCH   5   6
ATOM      6  C   UNL     1      -0.042  -5.677   9.782  1.00  0.00     0.006 C 
BRANCH   6   7
ATOM      7  C   UNL     1       1.224  -5.219   9.046  1.00  0.00     0.053 C 
BRANCH   7   8
ATOM      8  C   UNL     1       2.207  -4.575   9.974  1.00  0.00     0.041 C 
ATOM      9  O   UNL     1       2.709  -5.236  10.922  1.00  0.00    -0.550 OA
ATOM     10  O   UNL     1       2.594  -3.256   9.776  1.00  0.00    -0.550 OA
ENDBRANCH   7   8
ENDBRANCH   6   7
ENDBRANCH   5   6
ENDBRANCH   4   5
ENDBRANCH   3   4
ENDBRANCH   2   3
ENDBRANCH   1   2
BRANCH   1  11
ATOM     11  C   UNL     1       2.680  -7.949  10.959  1.00  0.00     0.000 C 
BRANCH  11  12
ATOM     12  C   UNL     1       4.014  -8.619  11.330  1.00  0.00     0.000 C 
BRANCH  12  13
ATOM     13  C   UNL     1       4.274  -8.635  12.846  1.00  0.00     0.000 C 
BRANCH  13  14
ATOM     14  C   UNL     1       5.011  -7.377  13.330  1.00  0.00     0.000 C 
BRANCH  14  15
ATOM     15  C   UNL     1       5.683  -6.609  12.179  1.00  0.00     0.000 C 
BRANCH  15  16
ATOM     16  C   UNL     1       7.208  -6.482  12.349  1.00  0.00     0.006 C 
BRANCH  16  17
ATOM     17  C   UNL     1       7.709  -6.832  13.761  1.00  0.00     0.053 C 
BRANCH  17  18
ATOM     18  C   UNL     1       8.056  -5.616  14.565  1.00  0.00     0.041 C 
ATOM     19  O   UNL     1       7.146  -4.920  15.087  1.00  0.00    -0.550 OA
ATOM     20  O   UNL     1       9.386  -5.269  14.768  1.00  0.00    -0.550 OA
ENDBRANCH  17  18
ENDBRANCH  16  17
ENDBRANCH  15  16
ENDBRANCH  14  15
ENDBRANCH  13  14
ENDBRANCH  12  13
ENDBRANCH  11  12
ENDBRANCH   1  11
TORSDOF 15
ENDMDL
MODEL 2
REMARK VINA RESULT:    11.568      0.491      6.537
REMARK INTER + INTRA:          21.809
REMARK INTER:                  21.955
REMARK INTRA:                  -0.146
REMARK UNBOUND:                 0.097
REMARK SMILES O=C([O-])CCCCCCCCCCCCCCC(=O)[O-]
REMARK SMILES IDX 10 1 9 2 8 3 7 4 6 5 5 6 4 7 2 8 1 9 3 10 11 11 12 12 13 13
REMARK SMILES IDX 14 14 15 15 16 16 17 17 18 18 19 19 20 20
REMARK H PARENT
REMARK Flexibility Score: inf
ROOT
ATOM      1  C   UNL     1       3.383  -8.190  10.518  1.00  0.00     0.000 C 
ENDROOT
BRANCH   1   2
ATOM      2  C   UNL     1       4.442  -8.888  11.384  1.00  0.00     0.000 C 
BRANCH   2   3
ATOM      3  C   UNL     1       4.309  -8.476  12.856  1.00  0.00     0.000 C 
BRANCH   3   4
ATOM      4  C   UNL     1       4.815  -7.042  13.074  1.00  0.00     0.000 C 
BRANCH   4   5
ATOM      5  C   UNL     1       5.866  -6.619  12.035  1.00  0.00     0.000 C 
BRANCH   5   6
ATOM      6  C   UNL     1       7.306  -6.760  12.559  1.00  0.00     0.006 C 
BRANCH   6   7
ATOM      7  C   UNL     1       7.361  -6.829  14.091  1.00  0.00     0.053 C 
BRANCH   7   8
ATOM      8  C   UNL     1       7.838  -5.542  14.691  1.00  0.00     0.041 C 
ATOM      9  O   UNL     1       7.020  -4.758  15.241  1.00  0.00    -0.550 OA
ATOM     10  O   UNL     1       9.190  -5.222  14.669  1.00  0.00    -0.550 OA
ENDBRANCH   7   8
ENDBRANCH   6   7
ENDBRANCH   5   6
ENDBRANCH   4   5
ENDBRANCH   3   4
ENDBRANCH   2   3
ENDBRANCH   1   2
BRANCH   1  11
ATOM     11  C   UNL     1       1.954  -8.681  10.834  1.00  0.00     0.000 C 
BRANCH  11  12
ATOM     12  C   UNL     1       1.255  -7.870  11.939  1.00  0.00     0.000 C 
BRANCH  12  13
ATOM     13  C   UNL     1      -0.254  -7.703  11.694  1.00  0.00     0.000 C 
BRANCH  13  14
ATOM     14  C   UNL     1      -0.683  -8.201  10.305  1.00  0.00     0.000 C 
BRANCH  14  15
ATOM     15  C   UNL     1      -0.832  -7.056   9.288  1.00  0.00     0.000 C 
BRANCH  15  16
ATOM     16  C   UNL     1      -0.162  -5.749   9.751  1.00  0.00     0.006 C 
BRANCH  16  17
ATOM     17  C   UNL     1       1.245  -5.530   9.167  1.00  0.00     0.053 C 
BRANCH  17  18
ATOM     18  C   UNL     1       2.160  -4.826  10.122  1.00  0.00     0.041 C 
ATOM     19  O   UNL     1       2.593  -5.425  11.141  1.00  0.00    -0.550 OA
ATOM     20  O   UNL     1       2.564  -3.521   9.869  1.00  0.00    -0.550 OA
ENDBRANCH  17  18
ENDBRANCH  16  17
ENDBRANCH  15  16
ENDBRANCH  14  15
ENDBRANCH  13  14
ENDBRANCH  12  13
ENDBRANCH  11  12
ENDBRANCH   1  11
TORSDOF 15
ENDMDL
MODEL 3
REMARK VINA RESULT:    12.002      1.071      1.832
REMARK INTER + INTRA:          22.623
REMARK INTER:                  21.325
REMARK INTRA:                   1.298
REMARK UNBOUND:                 0.097
REMARK SMILES O=C([O-])CCCCCCCCCCCCCCC(=O)[O-]
REMARK SMILES IDX 10 1 9 2 8 3 7 4 6 5 5 6 4 7 2 8 1 9 3 10 11 11 12 12 13 13
REMARK SMILES IDX 14 14 15 15 16 16 17 17 18 18 19 19 20 20
REMARK H PARENT
REMARK Flexibility Score: inf
ROOT
ATOM      1  C   UNL     1       2.017  -8.682  10.761  1.00  0.00     0.000 C 
ENDROOT
BRANCH   1   2
ATOM      2  C   UNL     1       0.766  -9.121   9.985  1.00  0.00     0.000 C 
BRANCH   2   3
ATOM      3  C   UNL     1      -0.512  -8.638  10.683  1.00  0.00     0.000 C 
BRANCH   3   4
ATOM      4  C   UNL     1      -0.273  -7.305  11.409  1.00  0.00     0.000 C 
BRANCH   4   5
ATOM      5  C   UNL     1       1.017  -7.308  12.244  1.00  0.00     0.000 C 
BRANCH   5   6
ATOM      6  C   UNL     1       1.693  -5.927  12.293  1.00  0.00     0.006 C 
BRANCH   6   7
ATOM      7  C   UNL     1       2.742  -5.756  11.187  1.00  0.00     0.053 C 
BRANCH   7   8
ATOM      8  C   UNL     1       2.249  -4.873  10.082  1.00  0.00     0.041 C 
ATOM      9  O   UNL     1       2.698  -3.702   9.959  1.00  0.00    -0.550 OA
ATOM     10  O   UNL     1       1.317  -5.351   9.170  1.00  0.00    -0.550 OA
ENDBRANCH   7   8
ENDBRANCH   6   7
ENDBRANCH   5   6
ENDBRANCH   4   5
ENDBRANCH   3   4
ENDBRANCH   2   3
ENDBRANCH   1   2
BRANCH   1  11
ATOM     11  C   UNL     1       3.316  -9.229  10.131  1.00  0.00     0.000 C 
BRANCH  11  12
ATOM     12  C   UNL     1       4.571  -8.959  10.979  1.00  0.00     0.000 C 
BRANCH  12  13
ATOM     13  C   UNL     1       4.242  -8.634  12.446  1.00  0.00     0.000 C 
BRANCH  13  14
ATOM     14  C   UNL     1       4.981  -7.385  12.951  1.00  0.00     0.000 C 
BRANCH  14  15
ATOM     15  C   UNL     1       5.849  -6.733  11.861  1.00  0.00     0.000 C 
BRANCH  15  16
ATOM     16  C   UNL     1       7.240  -6.311  12.371  1.00  0.00     0.006 C 
BRANCH  16  17
ATOM     17  C   UNL     1       7.520  -6.721  13.827  1.00  0.00     0.053 C 
BRANCH  17  18
ATOM     18  C   UNL     1       7.968  -5.568  14.673  1.00  0.00     0.041 C 
ATOM     19  O   UNL     1       9.195  -5.323  14.811  1.00  0.00    -0.550 OA
ATOM     20  O   UNL     1       7.031  -4.743  15.282  1.00  0.00    -0.550 OA
ENDBRANCH  17  18
ENDBRANCH  16  17
ENDBRANCH  15  16
ENDBRANCH  14  15
ENDBRANCH  13  14
ENDBRANCH  12  13
ENDBRANCH  11  12
ENDBRANCH   1  11
TORSDOF 15
ENDMDL
MODEL 4
REMARK VINA RESULT:    12.525      1.028      6.355
REMARK INTER + INTRA:          23.606
REMARK INTER:                  21.069
REMARK INTRA:                   2.537
REMARK UNBOUND:                 0.097
REMARK SMILES O=C([O-])CCCCCCCCCCCCCCC(=O)[O-]
REMARK SMILES IDX 10 1 9 2 8 3 7 4 6 5 5 6 4 7 2 8 1 9 3 10 11 11 12 12 13 13
REMARK SMILES IDX 14 14 15 15 16 16 17 17 18 18 19 19 20 20
REMARK H PARENT
REMARK Flexibility Score: inf
ROOT
ATOM      1  C   UNL     1       3.281  -9.472  10.223  1.00  0.00     0.000 C 
ENDROOT
BRANCH   1   2
ATOM      2  C   UNL     1       4.304  -8.563  10.919  1.00  0.00     0.000 C 
BRANCH   2   3
ATOM      3  C   UNL     1       4.056  -8.511  12.432  1.00  0.00     0.000 C 
BRANCH   3   4
ATOM      4  C   UNL     1       5.100  -7.627  13.130  1.00  0.00     0.000 C 
BRANCH   4   5
ATOM      5  C   UNL     1       5.814  -6.672  12.160  1.00  0.00     0.000 C 
BRANCH   5   6
ATOM      6  C   UNL     1       7.313  -6.523  12.471  1.00  0.00     0.006 C 
BRANCH   6   7
ATOM      7  C   UNL     1       7.630  -6.806  13.946  1.00  0.00     0.053 C 
BRANCH   7   8
ATOM      8  C   UNL     1       7.926  -5.548  14.703  1.00  0.00     0.041 C 
ATOM      9  O   UNL     1       9.107  -5.113  14.771  1.00  0.00    -0.550 OA
ATOM     10  O   UNL     1       6.897  -4.840  15.310  1.00  0.00    -0.550 OA
ENDBRANCH   7   8
ENDBRANCH   6   7
ENDBRANCH   5   6
ENDBRANCH   4   5
ENDBRANCH   3   4
ENDBRANCH   2   3
ENDBRANCH   1   2
BRANCH   1  11
ATOM     11  C   UNL     1       1.950  -8.743   9.936  1.00  0.00     0.000 C 
BRANCH  11  12
ATOM     12  C   UNL     1       0.738  -9.373  10.643  1.00  0.00     0.000 C 
BRANCH  12  13
ATOM     13  C   UNL     1      -0.589  -8.689  10.277  1.00  0.00     0.000 C 
BRANCH  13  14
ATOM     14  C   UNL     1      -0.775  -7.342  10.993  1.00  0.00     0.000 C 
BRANCH  14  15
ATOM     15  C   UNL     1       0.269  -7.115  12.099  1.00  0.00     0.000 C 
BRANCH  15  16
ATOM     16  C   UNL     1       1.707  -7.003  11.557  1.00  0.00     0.006 C 
BRANCH  16  17
ATOM     17  C   UNL     1       2.272  -5.573  11.583  1.00  0.00     0.053 C 
BRANCH  17  18
ATOM     18  C   UNL     1       2.190  -4.898  10.247  1.00  0.00     0.041 C 
ATOM     19  O   UNL     1       1.578  -5.450   9.296  1.00  0.00    -0.550 OA
ATOM     20  O   UNL     1       2.760  -3.645  10.061  1.00  0.00    -0.550 OA
ENDBRANCH  17  18
ENDBRANCH  16  17
ENDBRANCH  15  16
ENDBRANCH  14  15
ENDBRANCH  13  14
ENDBRANCH  12  13
ENDBRANCH  11  12
ENDBRANCH   1  11
TORSDOF 15
ENDMDL
MODEL 5
REMARK VINA RESULT:    13.046      3.302      4.750
REMARK INTER + INTRA:          24.584
REMARK INTER:                  25.526
REMARK INTRA:                  -0.942
REMARK UNBOUND:                 0.097
REMARK SMILES O=C([O-])CCCCCCCCCCCCCCC(=O)[O-]
REMARK SMILES IDX 10 1 9 2 8 3 7 4 6 5 5 6 4 7 2 8 1 9 3 10 11 11 12 12 13 13
REMARK SMILES IDX 14 14 15 15 16 16 17 17 18 18 19 19 20 20
REMARK H PARENT
REMARK Flexibility Score: inf
ROOT
ATOM      1  C   UNL     1       1.918  -5.784  11.465  1.00  0.00     0.000 C 
ENDROOT
BRANCH   1   2
ATOM      2  C   UNL     1       2.912  -5.097  10.517  1.00  0.00     0.000 C 
BRANCH   2   3
ATOM      3  C   UNL     1       2.237  -3.957   9.744  1.00  0.00     0.000 C 
BRANCH   3   4
ATOM      4  C   UNL     1       2.765  -2.591  10.207  1.00  0.00     0.000 C 
BRANCH   4   5
ATOM      5  C   UNL     1       2.323  -1.441   9.289  1.00  0.00     0.000 C 
BRANCH   5   6
ATOM      6  C   UNL     1       1.403  -0.433  10.001  1.00  0.00     0.006 C 
BRANCH   6   7
ATOM      7  C   UNL     1       1.483   0.966   9.378  1.00  0.00     0.053 C 
BRANCH   7   8
ATOM      8  C   UNL     1       0.149   1.647   9.364  1.00  0.00     0.041 C 
ATOM      9  O   UNL     1      -0.838   1.120   9.943  1.00  0.00    -0.550 OA
ATOM     10  O   UNL     1       0.002   2.879   8.738  1.00  0.00    -0.550 OA
ENDBRANCH   7   8
ENDBRANCH   6   7
ENDBRANCH   5   6
ENDBRANCH   4   5
ENDBRANCH   3   4
ENDBRANCH   2   3
ENDBRANCH   1   2
BRANCH   1  11
ATOM     11  C   UNL     1       0.693  -6.353  10.717  1.00  0.00     0.000 C 
BRANCH  11  12
ATOM     12  C   UNL     1       0.385  -7.819  11.068  1.00  0.00     0.000 C 
BRANCH  12  13
ATOM     13  C   UNL     1       1.634  -8.604  11.503  1.00  0.00     0.000 C 
BRANCH  13  14
ATOM     14  C   UNL     1       2.625  -8.820  10.349  1.00  0.00     0.000 C 
BRANCH  14  15
ATOM     15  C   UNL     1       4.069  -8.457  10.737  1.00  0.00     0.000 C 
BRANCH  15  16
ATOM     16  C   UNL     1       4.354  -8.644  12.239  1.00  0.00     0.006 C 
BRANCH  16  17
ATOM     17  C   UNL     1       4.716  -7.340  12.971  1.00  0.00     0.053 C 
BRANCH  17  18
ATOM     18  C   UNL     1       6.073  -6.827  12.596  1.00  0.00     0.041 C 
ATOM     19  O   UNL     1       6.191  -5.934  11.716  1.00  0.00    -0.550 OA
ATOM     20  O   UNL     1       7.205  -7.310  13.239  1.00  0.00    -0.550 OA
ENDBRANCH  17  18
ENDBRANCH  16  17
ENDBRANCH  15  16
ENDBRANCH  14  15
ENDBRANCH  13  14
ENDBRANCH  12  13
ENDBRANCH  11  12
ENDBRANCH   1  11
TORSDOF 15
ENDMDL
MODEL 6
REMARK VINA RESULT:    13.255      3.001      7.704
REMARK INTER + INTRA:          24.976
REMARK INTER:                  25.901
REMARK INTRA:                  -0.925
REMARK UNBOUND:                 0.097
REMARK SMILES O=C([O-])CCCCCCCCCCCCCCC(=O)[O-]
REMARK SMILES IDX 10 1 9 2 8 3 7 4 6 5 5 6 4 7 2 8 1 9 3 10 11 11 12 12 13 13
REMARK SMILES IDX 14 14 15 15 16 16 17 17 18 18 19 19 20 20
REMARK H PARENT
REMARK Flexibility Score: inf
ROOT
ATOM      1  C   UNL     1       2.104  -7.636  11.619  1.00  0.00     0.000 C 
ENDROOT
BRANCH   1   2
ATOM      2  C   UNL     1       3.438  -8.255  11.177  1.00  0.00     0.000 C 
BRANCH   2   3
ATOM      3  C   UNL     1       4.272  -8.689  12.390  1.00  0.00     0.000 C 
BRANCH   3   4
ATOM      4  C   UNL     1       4.892  -7.472  13.094  1.00  0.00     0.000 C 
BRANCH   4   5
ATOM      5  C   UNL     1       5.681  -6.569  12.134  1.00  0.00     0.000 C 
BRANCH   5   6
ATOM      6  C   UNL     1       7.197  -6.612  12.392  1.00  0.00     0.006 C 
BRANCH   6   7
ATOM      7  C   UNL     1       7.527  -6.903  13.861  1.00  0.00     0.053 C 
BRANCH   7   8
ATOM      8  C   UNL     1       7.844  -5.651  14.620  1.00  0.00     0.041 C 
ATOM      9  O   UNL     1       6.918  -4.978  15.146  1.00  0.00    -0.550 OA
ATOM     10  O   UNL     1       9.163  -5.242  14.773  1.00  0.00    -0.550 OA
ENDBRANCH   7   8
ENDBRANCH   6   7
ENDBRANCH   5   6
ENDBRANCH   4   5
ENDBRANCH   3   4
ENDBRANCH   2   3
ENDBRANCH   1   2
BRANCH   1  11
ATOM     11  C   UNL     1       1.761  -6.358  10.823  1.00  0.00     0.000 C 
BRANCH  11  12
ATOM     12  C   UNL     1       2.713  -5.183  11.107  1.00  0.00     0.000 C 
BRANCH  12  13
ATOM     13  C   UNL     1       2.815  -4.198   9.931  1.00  0.00     0.000 C 
BRANCH  13  14
ATOM     14  C   UNL     1       1.704  -3.137   9.954  1.00  0.00     0.000 C 
BRANCH  14  15
ATOM     15  C   UNL     1       2.258  -1.703   9.907  1.00  0.00     0.000 C 
BRANCH  15  16
ATOM     16  C   UNL     1       1.177  -0.632  10.142  1.00  0.00     0.006 C 
BRANCH  16  17
ATOM     17  C   UNL     1       1.485   0.721   9.477  1.00  0.00     0.053 C 
BRANCH  17  18
ATOM     18  C   UNL     1       0.272   1.590   9.352  1.00  0.00     0.041 C 
ATOM     19  O   UNL     1      -0.786   1.293   9.967  1.00  0.00    -0.550 OA
ATOM     20  O   UNL     1       0.317   2.748   8.585  1.00  0.00    -0.550 OA
ENDBRANCH  17  18
ENDBRANCH  16  17
ENDBRANCH  15  16
ENDBRANCH  14  15
ENDBRANCH  13  14
ENDBRANCH  12  13
ENDBRANCH  11  12
ENDBRANCH   1  11
TORSDOF 15
ENDMDL
MODEL 7
REMARK VINA RESULT:    13.291      3.050      4.193
REMARK INTER + INTRA:          25.042
REMARK INTER:                  25.007
REMARK INTRA:                   0.035
REMARK UNBOUND:                 0.097
REMARK SMILES O=C([O-])CCCCCCCCCCCCCCC(=O)[O-]
REMARK SMILES IDX 10 1 9 2 8 3 7 4 6 5 5 6 4 7 2 8 1 9 3 10 11 11 12 12 13 13
REMARK SMILES IDX 14 14 15 15 16 16 17 17 18 18 19 19 20 20
REMARK H PARENT
REMARK Flexibility Score: inf
ROOT
ATOM      1  C   UNL     1       2.105  -5.865  11.674  1.00  0.00     0.000 C 
ENDROOT
BRANCH   1   2
ATOM      2  C   UNL     1       2.233  -5.368  10.226  1.00  0.00     0.000 C 
BRANCH   2   3
ATOM      3  C   UNL     1       2.893  -3.984  10.175  1.00  0.00     0.000 C 
BRANCH   3   4
ATOM      4  C   UNL     1       1.855  -2.891   9.878  1.00  0.00     0.000 C 
BRANCH   4   5
ATOM      5  C   UNL     1       2.478  -1.489   9.797  1.00  0.00     0.000 C 
BRANCH   5   6
ATOM      6  C   UNL     1       1.504  -0.382  10.236  1.00  0.00     0.006 C 
BRANCH   6   7
ATOM      7  C   UNL     1       1.469   0.787   9.244  1.00  0.00     0.053 C 
BRANCH   7   8
ATOM      8  C   UNL     1       0.165   1.523   9.294  1.00  0.00     0.041 C 
ATOM      9  O   UNL     1      -0.856   0.969   9.779  1.00  0.00    -0.550 OA
ATOM     10  O   UNL     1       0.084   2.831   8.832  1.00  0.00    -0.550 OA
ENDBRANCH   7   8
ENDBRANCH   6   7
ENDBRANCH   5   6
ENDBRANCH   4   5
ENDBRANCH   3   4
ENDBRANCH   2   3
ENDBRANCH   1   2
BRANCH   1  11
ATOM     11  C   UNL     1       1.468  -7.269  11.755  1.00  0.00     0.000 C 
BRANCH  11  12
ATOM     12  C   UNL     1       2.124  -8.298  10.818  1.00  0.00     0.000 C 
BRANCH  12  13
ATOM     13  C   UNL     1       3.653  -8.358  10.974  1.00  0.00     0.000 C 
BRANCH  13  14
ATOM     14  C   UNL     1       4.130  -7.792  12.321  1.00  0.00     0.000 C 
BRANCH  14  15
ATOM     15  C   UNL     1       5.653  -7.912  12.504  1.00  0.00     0.000 C 
BRANCH  15  16
ATOM     16  C   UNL     1       6.350  -6.547  12.657  1.00  0.00     0.006 C 
BRANCH  16  17
ATOM     17  C   UNL     1       7.719  -6.622  13.354  1.00  0.00     0.053 C 
BRANCH  17  18
ATOM     18  C   UNL     1       7.842  -5.647  14.485  1.00  0.00     0.041 C 
ATOM     19  O   UNL     1       8.977  -5.251  14.860  1.00  0.00    -0.550 OA
ATOM     20  O   UNL     1       6.703  -5.147  15.104  1.00  0.00    -0.550 OA
ENDBRANCH  17  18
ENDBRANCH  16  17
ENDBRANCH  15  16
ENDBRANCH  14  15
ENDBRANCH  13  14
ENDBRANCH  12  13
ENDBRANCH  11  12
ENDBRANCH   1  11
TORSDOF 15
ENDMDL
MODEL 8
REMARK VINA RESULT:    13.347      3.053      7.313
REMARK INTER + INTRA:          25.148
REMARK INTER:                  25.684
REMARK INTRA:                  -0.536
REMARK UNBOUND:                 0.097
REMARK SMILES O=C([O-])CCCCCCCCCCCCCCC(=O)[O-]
REMARK SMILES IDX 10 1 9 2 8 3 7 4 6 5 5 6 4 7 2 8 1 9 3 10 11 11 12 12 13 13
REMARK SMILES IDX 14 14 15 15 16 16 17 17 18 18 19 19 20 20
REMARK H PARENT
REMARK Flexibility Score: inf
ROOT
ATOM      1  C   UNL     1       0.609  -7.157  11.264  1.00  0.00     0.000 C 
ENDROOT
BRANCH   1   2
ATOM      2  C   UNL     1       1.840  -7.908  11.793  1.00  0.00     0.000 C 
BRANCH   2   3
ATOM      3  C   UNL     1       2.654  -8.510  10.640  1.00  0.00     0.000 C 
BRANCH   3   4
ATOM      4  C   UNL     1       4.148  -8.569  10.994  1.00  0.00     0.000 C 
BRANCH   4   5
ATOM      5  C   UNL     1       4.442  -8.055  12.412  1.00  0.00     0.000 C 
BRANCH   5   6
ATOM      6  C   UNL     1       5.119  -6.673  12.413  1.00  0.00     0.006 C 
BRANCH   6   7
ATOM      7  C   UNL     1       6.631  -6.768  12.176  1.00  0.00     0.053 C 
BRANCH   7   8
ATOM      8  C   UNL     1       7.406  -6.612  13.448  1.00  0.00     0.041 C 
ATOM      9  O   UNL     1       7.115  -5.693  14.258  1.00  0.00    -0.550 OA
ATOM     10  O   UNL     1       8.431  -7.499  13.754  1.00  0.00    -0.550 OA
ENDBRANCH   7   8
ENDBRANCH   6   7
ENDBRANCH   5   6
ENDBRANCH   4   5
ENDBRANCH   3   4
ENDBRANCH   2   3
ENDBRANCH   1   2
BRANCH   1  11
ATOM     11  C   UNL     1       0.994  -5.908  10.441  1.00  0.00     0.000 C 
BRANCH  11  12
ATOM     12  C   UNL     1       2.422  -5.406  10.719  1.00  0.00     0.000 C 
BRANCH  12  13
ATOM     13  C   UNL     1       2.789  -4.162   9.892  1.00  0.00     0.000 C 
BRANCH  13  14
ATOM     14  C   UNL     1       1.817  -2.994  10.125  1.00  0.00     0.000 C 
BRANCH  14  15
ATOM     15  C   UNL     1       2.460  -1.627   9.834  1.00  0.00     0.000 C 
BRANCH  15  16
ATOM     16  C   UNL     1       1.536  -0.443  10.174  1.00  0.00     0.006 C 
BRANCH  16  17
ATOM     17  C   UNL     1       0.982   0.289   8.939  1.00  0.00     0.053 C 
BRANCH  17  18
ATOM     18  C   UNL     1       0.171   1.495   9.301  1.00  0.00     0.041 C 
ATOM     19  O   UNL     1      -0.889   1.369   9.970  1.00  0.00    -0.550 OA
ATOM     20  O   UNL     1       0.600   2.763   8.931  1.00  0.00    -0.550 OA
ENDBRANCH  17  18
ENDBRANCH  16  17
ENDBRANCH  15  16
ENDBRANCH  14  15
ENDBRANCH  13  14
ENDBRANCH  12  13
ENDBRANCH  11  12
ENDBRANCH   1  11
TORSDOF 15
ENDMDL
