MODEL 1
REMARK VINA RESULT:    -5.609      0.000      0.000
REMARK INTER + INTRA:         -10.800
REMARK INTER:                  -9.544
REMARK INTRA:                  -1.255
REMARK UNBOUND:                -1.255
REMARK SMILES CCCCCCCCCCCCCC(=O)[O-]
REMARK SMILES IDX 8 1 9 2 10 3 11 4 12 5 13 6 14 7 15 8 16 9 7 10 6 11 5 12
REMARK SMILES IDX 4 13 3 14 2 15 1 16
REMARK H PARENT
REMARK Flexibility Score: inf
ROOT
ATOM      1  C   UNL     1       6.426 -55.418 -31.025  1.00  0.00     0.000 C 
ENDROOT
BRANCH   1   2
ATOM      2  C   UNL     1       4.901 -55.469 -30.836  1.00  0.00     0.000 C 
BRANCH   2   3
ATOM      3  C   UNL     1       4.477 -56.539 -29.807  1.00  0.00     0.000 C 
BRANCH   3   4
ATOM      4  C   UNL     1       3.357 -56.073 -28.862  1.00  0.00     0.000 C 
BRANCH   4   5
ATOM      5  C   UNL     1       3.875 -55.681 -27.469  1.00  0.00     0.006 C 
BRANCH   5   6
ATOM      6  C   UNL     1       5.095 -56.511 -27.049  1.00  0.00     0.053 C 
BRANCH   6   7
ATOM      7  C   UNL     1       4.842 -57.263 -25.778  1.00  0.00     0.041 C 
ATOM      8  O   UNL     1       5.743 -57.987 -25.280  1.00  0.00    -0.550 OA
ATOM      9  O   UNL     1       3.622 -57.136 -25.127  1.00  0.00    -0.550 OA
ENDBRANCH   6   7
ENDBRANCH   5   6
ENDBRANCH   4   5
ENDBRANCH   3   4
ENDBRANCH   2   3
ENDBRANCH   1   2
BRANCH   1  10
ATOM     10  C   UNL     1       7.171 -56.408 -30.115  1.00  0.00     0.000 C 
BRANCH  10  11
ATOM     11  C   UNL     1       8.087 -55.706 -29.102  1.00  0.00    -0.000 C 
BRANCH  11  12
ATOM     12  C   UNL     1       8.774 -54.489 -29.733  1.00  0.00    -0.000 C 
BRANCH  12  13
ATOM     13  C   UNL     1      10.000 -54.914 -30.555  1.00  0.00    -0.000 C 
BRANCH  13  14
ATOM     14  C   UNL     1       9.868 -54.555 -32.044  1.00  0.00    -0.000 C 
BRANCH  14  15
ATOM     15  C   UNL     1      10.400 -55.661 -32.968  1.00  0.00    -0.003 C 
ATOM     16  C   UNL     1       9.353 -56.062 -34.002  1.00  0.00     0.004 C 
ENDBRANCH  14  15
ENDBRANCH  13  14
ENDBRANCH  12  13
ENDBRANCH  11  12
ENDBRANCH  10  11
ENDBRANCH   1  10
TORSDOF 12
ENDMDL
MODEL 2
REMARK VINA RESULT:    -5.516      3.474      6.976
REMARK INTER + INTRA:         -10.640
REMARK INTER:                  -9.467
REMARK INTRA:                  -1.173
REMARK UNBOUND:                -1.255
REMARK SMILES CCCCCCCCCCCCCC(=O)[O-]
REMARK SMILES IDX 8 1 9 2 10 3 11 4 12 5 13 6 14 7 15 8 16 9 7 10 6 11 5 12
REMARK SMILES IDX 4 13 3 14 2 15 1 16
REMARK H PARENT
REMARK Flexibility Score: inf
ROOT
ATOM      1  C   UNL     1       6.630 -55.779 -31.193  1.00  0.00     0.000 C 
ENDROOT
BRANCH   1   2
ATOM      2  C   UNL     1       7.489 -56.421 -30.090  1.00  0.00     0.000 C 
BRANCH   2   3
ATOM      3  C   UNL     1       7.960 -55.389 -29.043  1.00  0.00     0.000 C 
BRANCH   3   4
ATOM      4  C   UNL     1       9.031 -54.420 -29.574  1.00  0.00     0.000 C 
BRANCH   4   5
ATOM      5  C   UNL     1      10.032 -55.098 -30.523  1.00  0.00     0.006 C 
BRANCH   5   6
ATOM      6  C   UNL     1       9.935 -54.552 -31.954  1.00  0.00     0.053 C 
BRANCH   6   7
ATOM      7  C   UNL     1      10.452 -55.537 -32.957  1.00  0.00     0.041 C 
ATOM      8  O   UNL     1      11.567 -55.351 -33.513  1.00  0.00    -0.550 OA
ATOM      9  O   UNL     1       9.717 -56.678 -33.254  1.00  0.00    -0.550 OA
ENDBRANCH   6   7
ENDBRANCH   5   6
ENDBRANCH   4   5
ENDBRANCH   3   4
ENDBRANCH   2   3
ENDBRANCH   1   2
BRANCH   1  10
ATOM     10  C   UNL     1       5.246 -55.341 -30.688  1.00  0.00     0.000 C 
BRANCH  10  11
ATOM     11  C   UNL     1       4.209 -56.472 -30.748  1.00  0.00    -0.000 C 
BRANCH  11  12
ATOM     12  C   UNL     1       3.917 -57.023 -29.347  1.00  0.00    -0.000 C 
BRANCH  12  13
ATOM     13  C   UNL     1       3.285 -55.946 -28.453  1.00  0.00    -0.000 C 
BRANCH  13  14
ATOM     14  C   UNL     1       3.791 -56.009 -27.003  1.00  0.00    -0.000 C 
BRANCH  14  15
ATOM     15  C   UNL     1       5.132 -56.747 -26.876  1.00  0.00    -0.003 C 
ATOM     16  C   UNL     1       5.083 -57.788 -25.762  1.00  0.00     0.004 C 
ENDBRANCH  14  15
ENDBRANCH  13  14
ENDBRANCH  12  13
ENDBRANCH  11  12
ENDBRANCH  10  11
ENDBRANCH   1  10
TORSDOF 12
ENDMDL
MODEL 3
REMARK VINA RESULT:    -5.512      3.693      7.290
REMARK INTER + INTRA:         -10.634
REMARK INTER:                  -9.679
REMARK INTRA:                  -0.955
REMARK UNBOUND:                -1.255
REMARK SMILES CCCCCCCCCCCCCC(=O)[O-]
REMARK SMILES IDX 8 1 9 2 10 3 11 4 12 5 13 6 14 7 15 8 16 9 7 10 6 11 5 12
REMARK SMILES IDX 4 13 3 14 2 15 1 16
REMARK H PARENT
REMARK Flexibility Score: inf
ROOT
ATOM      1  C   UNL     1       5.232 -55.879 -30.419  1.00  0.00     0.000 C 
ENDROOT
BRANCH   1   2
ATOM      2  C   UNL     1       6.511 -56.122 -29.600  1.00  0.00     0.000 C 
BRANCH   2   3
ATOM      3  C   UNL     1       7.788 -55.801 -30.406  1.00  0.00     0.000 C 
BRANCH   3   4
ATOM      4  C   UNL     1       7.617 -54.629 -31.387  1.00  0.00     0.000 C 
BRANCH   4   5
ATOM      5  C   UNL     1       8.958 -54.044 -31.859  1.00  0.00     0.006 C 
BRANCH   5   6
ATOM      6  C   UNL     1      10.098 -55.068 -31.776  1.00  0.00     0.053 C 
BRANCH   6   7
ATOM      7  C   UNL     1      10.458 -55.605 -33.127  1.00  0.00     0.041 C 
ATOM      8  O   UNL     1      11.547 -55.281 -33.670  1.00  0.00    -0.550 OA
ATOM      9  O   UNL     1       9.605 -56.491 -33.772  1.00  0.00    -0.550 OA
ENDBRANCH   6   7
ENDBRANCH   5   6
ENDBRANCH   4   5
ENDBRANCH   3   4
ENDBRANCH   2   3
ENDBRANCH   1   2
BRANCH   1  10
ATOM     10  C   UNL     1       4.125 -55.194 -29.601  1.00  0.00     0.000 C 
BRANCH  10  11
ATOM     11  C   UNL     1       3.324 -56.185 -28.743  1.00  0.00    -0.000 C 
BRANCH  11  12
ATOM     12  C   UNL     1       2.858 -55.529 -27.437  1.00  0.00    -0.000 C 
BRANCH  12  13
ATOM     13  C   UNL     1       3.925 -55.665 -26.342  1.00  0.00    -0.000 C 
BRANCH  13  14
ATOM     14  C   UNL     1       3.555 -56.712 -25.279  1.00  0.00    -0.000 C 
BRANCH  14  15
ATOM     15  C   UNL     1       4.629 -57.797 -25.119  1.00  0.00    -0.003 C 
ATOM     16  C   UNL     1       5.728 -57.640 -26.167  1.00  0.00     0.004 C 
ENDBRANCH  14  15
ENDBRANCH  13  14
ENDBRANCH  12  13
ENDBRANCH  11  12
ENDBRANCH  10  11
ENDBRANCH   1  10
TORSDOF 12
ENDMDL
MODEL 4
REMARK VINA RESULT:    -5.440      1.286      1.423
REMARK INTER + INTRA:         -10.511
REMARK INTER:                  -9.643
REMARK INTRA:                  -0.868
REMARK UNBOUND:                -1.255
REMARK SMILES CCCCCCCCCCCCCC(=O)[O-]
REMARK SMILES IDX 8 1 9 2 10 3 11 4 12 5 13 6 14 7 15 8 16 9 7 10 6 11 5 12
REMARK SMILES IDX 4 13 3 14 2 15 1 16
REMARK H PARENT
REMARK Flexibility Score: inf
ROOT
ATOM      1  C   UNL     1       6.133 -55.400 -30.374  1.00  0.00     0.000 C 
ENDROOT
BRANCH   1   2
ATOM      2  C   UNL     1       4.849 -56.155 -30.758  1.00  0.00     0.000 C 
BRANCH   2   3
ATOM      3  C   UNL     1       3.938 -56.412 -29.538  1.00  0.00     0.000 C 
BRANCH   3   4
ATOM      4  C   UNL     1       3.559 -55.132 -28.774  1.00  0.00     0.000 C 
BRANCH   4   5
ATOM      5  C   UNL     1       2.725 -55.412 -27.514  1.00  0.00     0.006 C 
BRANCH   5   6
ATOM      6  C   UNL     1       3.526 -56.169 -26.445  1.00  0.00     0.053 C 
BRANCH   6   7
ATOM      7  C   UNL     1       2.802 -56.206 -25.135  1.00  0.00     0.041 C 
ATOM      8  O   UNL     1       3.440 -56.104 -24.054  1.00  0.00    -0.550 OA
ATOM      9  O   UNL     1       1.418 -56.319 -25.108  1.00  0.00    -0.550 OA
ENDBRANCH   6   7
ENDBRANCH   5   6
ENDBRANCH   4   5
ENDBRANCH   3   4
ENDBRANCH   2   3
ENDBRANCH   1   2
BRANCH   1  10
ATOM     10  C   UNL     1       7.277 -56.342 -29.968  1.00  0.00     0.000 C 
BRANCH  10  11
ATOM     11  C   UNL     1       8.244 -55.699 -28.962  1.00  0.00    -0.000 C 
BRANCH  11  12
ATOM     12  C   UNL     1       9.605 -55.419 -29.611  1.00  0.00    -0.000 C 
BRANCH  12  13
ATOM     13  C   UNL     1       9.599 -54.066 -30.338  1.00  0.00    -0.000 C 
BRANCH  13  14
ATOM     14  C   UNL     1       9.364 -54.207 -31.851  1.00  0.00    -0.000 C 
BRANCH  14  15
ATOM     15  C   UNL     1      10.388 -55.133 -32.524  1.00  0.00    -0.003 C 
ATOM     16  C   UNL     1       9.695 -56.283 -33.249  1.00  0.00     0.004 C 
ENDBRANCH  14  15
ENDBRANCH  13  14
ENDBRANCH  12  13
ENDBRANCH  11  12
ENDBRANCH  10  11
ENDBRANCH   1  10
TORSDOF 12
ENDMDL
MODEL 5
REMARK VINA RESULT:    -5.424      2.228      6.023
REMARK INTER + INTRA:         -10.485
REMARK INTER:                  -9.599
REMARK INTRA:                  -0.886
REMARK UNBOUND:                -1.255
REMARK SMILES CCCCCCCCCCCCCC(=O)[O-]
REMARK SMILES IDX 8 1 9 2 10 3 11 4 12 5 13 6 14 7 15 8 16 9 7 10 6 11 5 12
REMARK SMILES IDX 4 13 3 14 2 15 1 16
REMARK H PARENT
REMARK Flexibility Score: inf
ROOT
ATOM      1  C   UNL     1       6.531 -54.960 -32.171  1.00  0.00     0.000 C 
ENDROOT
BRANCH   1   2
ATOM      2  C   UNL     1       7.979 -55.323 -32.541  1.00  0.00     0.000 C 
BRANCH   2   3
ATOM      3  C   UNL     1       8.967 -54.183 -32.215  1.00  0.00     0.000 C 
BRANCH   3   4
ATOM      4  C   UNL     1      10.014 -54.563 -31.153  1.00  0.00     0.000 C 
BRANCH   4   5
ATOM      5  C   UNL     1       9.647 -54.064 -29.747  1.00  0.00     0.006 C 
BRANCH   5   6
ATOM      6  C   UNL     1      10.519 -54.704 -28.658  1.00  0.00     0.053 C 
BRANCH   6   7
ATOM      7  C   UNL     1       9.884 -55.940 -28.098  1.00  0.00     0.041 C 
ATOM      8  O   UNL     1       8.731 -56.284 -28.467  1.00  0.00    -0.550 OA
ATOM      9  O   UNL     1      10.582 -56.730 -27.193  1.00  0.00    -0.550 OA
ENDBRANCH   6   7
ENDBRANCH   5   6
ENDBRANCH   4   5
ENDBRANCH   3   4
ENDBRANCH   2   3
ENDBRANCH   1   2
BRANCH   1  10
ATOM     10  C   UNL     1       6.161 -55.381 -30.740  1.00  0.00     0.000 C 
BRANCH  10  11
ATOM     11  C   UNL     1       4.647 -55.347 -30.485  1.00  0.00    -0.000 C 
BRANCH  11  12
ATOM     12  C   UNL     1       4.194 -56.584 -29.699  1.00  0.00    -0.000 C 
BRANCH  12  13
ATOM     13  C   UNL     1       3.348 -56.183 -28.482  1.00  0.00    -0.000 C 
BRANCH  13  14
ATOM     14  C   UNL     1       4.203 -55.866 -27.244  1.00  0.00    -0.000 C 
BRANCH  14  15
ATOM     15  C   UNL     1       5.343 -56.876 -27.040  1.00  0.00    -0.003 C 
ATOM     16  C   UNL     1       5.148 -57.670 -25.752  1.00  0.00     0.004 C 
ENDBRANCH  14  15
ENDBRANCH  13  14
ENDBRANCH  12  13
ENDBRANCH  11  12
ENDBRANCH  10  11
ENDBRANCH   1  10
TORSDOF 12
ENDMDL
MODEL 6
REMARK VINA RESULT:    -5.404      1.774      2.969
REMARK INTER + INTRA:         -10.450
REMARK INTER:                  -9.214
REMARK INTRA:                  -1.237
REMARK UNBOUND:                -1.255
REMARK SMILES CCCCCCCCCCCCCC(=O)[O-]
REMARK SMILES IDX 8 1 9 2 10 3 11 4 12 5 13 6 14 7 15 8 16 9 7 10 6 11 5 12
REMARK SMILES IDX 4 13 3 14 2 15 1 16
REMARK H PARENT
REMARK Flexibility Score: inf
ROOT
ATOM      1  C   UNL     1       6.614 -55.788 -28.834  1.00  0.00     0.000 C 
ENDROOT
BRANCH   1   2
ATOM      2  C   UNL     1       5.662 -56.694 -28.034  1.00  0.00     0.000 C 
BRANCH   2   3
ATOM      3  C   UNL     1       4.366 -57.008 -28.812  1.00  0.00     0.000 C 
BRANCH   3   4
ATOM      4  C   UNL     1       3.383 -55.827 -28.869  1.00  0.00     0.000 C 
BRANCH   4   5
ATOM      5  C   UNL     1       2.608 -55.631 -27.556  1.00  0.00     0.006 C 
BRANCH   5   6
ATOM      6  C   UNL     1       2.630 -54.171 -27.082  1.00  0.00     0.053 C 
BRANCH   6   7
ATOM      7  C   UNL     1       3.071 -54.059 -25.655  1.00  0.00     0.041 C 
ATOM      8  O   UNL     1       3.454 -55.082 -25.027  1.00  0.00    -0.550 OA
ATOM      9  O   UNL     1       3.089 -52.820 -25.028  1.00  0.00    -0.550 OA
ENDBRANCH   6   7
ENDBRANCH   5   6
ENDBRANCH   4   5
ENDBRANCH   3   4
ENDBRANCH   2   3
ENDBRANCH   1   2
BRANCH   1  10
ATOM     10  C   UNL     1       6.805 -56.259 -30.284  1.00  0.00     0.000 C 
BRANCH  10  11
ATOM     11  C   UNL     1       6.519 -55.152 -31.309  1.00  0.00    -0.000 C 
BRANCH  11  12
ATOM     12  C   UNL     1       7.815 -54.447 -31.731  1.00  0.00    -0.000 C 
BRANCH  12  13
ATOM     13  C   UNL     1       9.000 -55.423 -31.720  1.00  0.00    -0.000 C 
BRANCH  13  14
ATOM     14  C   UNL     1      10.162 -54.934 -30.841  1.00  0.00    -0.000 C 
BRANCH  14  15
ATOM     15  C   UNL     1       9.721 -53.888 -29.806  1.00  0.00    -0.003 C 
ATOM     16  C   UNL     1      10.058 -54.342 -28.389  1.00  0.00     0.004 C 
ENDBRANCH  14  15
ENDBRANCH  13  14
ENDBRANCH  12  13
ENDBRANCH  11  12
ENDBRANCH  10  11
ENDBRANCH   1  10
TORSDOF 12
ENDMDL
MODEL 7
REMARK VINA RESULT:    -5.352      1.281      2.382
REMARK INTER + INTRA:         -10.361
REMARK INTER:                  -9.511
REMARK INTRA:                  -0.850
REMARK UNBOUND:                -1.255
REMARK SMILES CCCCCCCCCCCCCC(=O)[O-]
REMARK SMILES IDX 8 1 9 2 10 3 11 4 12 5 13 6 14 7 15 8 16 9 7 10 6 11 5 12
REMARK SMILES IDX 4 13 3 14 2 15 1 16
REMARK H PARENT
REMARK Flexibility Score: inf
ROOT
ATOM      1  C   UNL     1       5.179 -55.309 -31.372  1.00  0.00     0.000 C 
ENDROOT
BRANCH   1   2
ATOM      2  C   UNL     1       5.683 -55.754 -29.988  1.00  0.00     0.000 C 
BRANCH   2   3
ATOM      3  C   UNL     1       4.645 -56.621 -29.242  1.00  0.00     0.000 C 
BRANCH   3   4
ATOM      4  C   UNL     1       3.423 -55.827 -28.750  1.00  0.00     0.000 C 
BRANCH   4   5
ATOM      5  C   UNL     1       3.325 -55.769 -27.217  1.00  0.00     0.006 C 
BRANCH   5   6
ATOM      6  C   UNL     1       4.546 -56.400 -26.534  1.00  0.00     0.053 C 
BRANCH   6   7
ATOM      7  C   UNL     1       4.170 -57.094 -25.261  1.00  0.00     0.041 C 
ATOM      8  O   UNL     1       4.817 -58.102 -24.873  1.00  0.00    -0.550 OA
ATOM      9  O   UNL     1       3.127 -56.605 -24.485  1.00  0.00    -0.550 OA
ENDBRANCH   6   7
ENDBRANCH   5   6
ENDBRANCH   4   5
ENDBRANCH   3   4
ENDBRANCH   2   3
ENDBRANCH   1   2
BRANCH   1  10
ATOM     10  C   UNL     1       6.325 -54.983 -32.344  1.00  0.00     0.000 C 
BRANCH  10  11
ATOM     11  C   UNL     1       7.579 -54.461 -31.627  1.00  0.00    -0.000 C 
BRANCH  11  12
ATOM     12  C   UNL     1       8.798 -55.335 -31.947  1.00  0.00    -0.000 C 
BRANCH  12  13
ATOM     13  C   UNL     1       9.789 -55.347 -30.775  1.00  0.00    -0.000 C 
BRANCH  13  14
ATOM     14  C   UNL     1       9.751 -54.049 -29.953  1.00  0.00    -0.000 C 
BRANCH  14  15
ATOM     15  C   UNL     1      10.108 -54.273 -28.476  1.00  0.00    -0.003 C 
ATOM     16  C   UNL     1      10.213 -55.762 -28.158  1.00  0.00     0.004 C 
ENDBRANCH  14  15
ENDBRANCH  13  14
ENDBRANCH  12  13
ENDBRANCH  11  12
ENDBRANCH  10  11
ENDBRANCH   1  10
TORSDOF 12
ENDMDL
MODEL 8
REMARK VINA RESULT:    -5.349      3.467      7.174
REMARK INTER + INTRA:         -10.356
REMARK INTER:                  -9.295
REMARK INTRA:                  -1.061
REMARK UNBOUND:                -1.255
REMARK SMILES CCCCCCCCCCCCCC(=O)[O-]
REMARK SMILES IDX 8 1 9 2 10 3 11 4 12 5 13 6 14 7 15 8 16 9 7 10 6 11 5 12
REMARK SMILES IDX 4 13 3 14 2 15 1 16
REMARK H PARENT
REMARK Flexibility Score: inf
ROOT
ATOM      1  C   UNL     1       6.485 -56.050 -28.574  1.00  0.00     0.000 C 
ENDROOT
BRANCH   1   2
ATOM      2  C   UNL     1       7.705 -56.152 -29.505  1.00  0.00     0.000 C 
BRANCH   2   3
ATOM      3  C   UNL     1       9.018 -55.769 -28.788  1.00  0.00     0.000 C 
BRANCH   3   4
ATOM      4  C   UNL     1      10.077 -55.166 -29.726  1.00  0.00     0.000 C 
BRANCH   4   5
ATOM      5  C   UNL     1       9.464 -54.317 -30.852  1.00  0.00     0.006 C 
BRANCH   5   6
ATOM      6  C   UNL     1      10.082 -54.635 -32.220  1.00  0.00     0.053 C 
BRANCH   6   7
ATOM      7  C   UNL     1       9.278 -55.656 -32.966  1.00  0.00     0.041 C 
ATOM      8  O   UNL     1       9.627 -56.866 -32.960  1.00  0.00    -0.550 OA
ATOM      9  O   UNL     1       8.125 -55.275 -33.639  1.00  0.00    -0.550 OA
ENDBRANCH   6   7
ENDBRANCH   5   6
ENDBRANCH   4   5
ENDBRANCH   3   4
ENDBRANCH   2   3
ENDBRANCH   1   2
BRANCH   1  10
ATOM     10  C   UNL     1       5.212 -56.645 -29.197  1.00  0.00     0.000 C 
BRANCH  10  11
ATOM     11  C   UNL     1       4.120 -55.590 -29.433  1.00  0.00    -0.000 C 
BRANCH  11  12
ATOM     12  C   UNL     1       2.974 -55.752 -28.426  1.00  0.00    -0.000 C 
BRANCH  12  13
ATOM     13  C   UNL     1       3.059 -54.690 -27.321  1.00  0.00    -0.000 C 
BRANCH  13  14
ATOM     14  C   UNL     1       3.671 -55.235 -26.020  1.00  0.00    -0.000 C 
BRANCH  14  15
ATOM     15  C   UNL     1       3.508 -56.757 -25.883  1.00  0.00    -0.003 C 
ATOM     16  C   UNL     1       4.676 -57.367 -25.114  1.00  0.00     0.004 C 
ENDBRANCH  14  15
ENDBRANCH  13  14
ENDBRANCH  12  13
ENDBRANCH  11  12
ENDBRANCH  10  11
ENDBRANCH   1  10
TORSDOF 12
ENDMDL
MODEL 9
REMARK VINA RESULT:    -5.331      1.859      3.096
REMARK INTER + INTRA:         -10.326
REMARK INTER:                  -9.364
REMARK INTRA:                  -0.962
REMARK UNBOUND:                -1.255
REMARK SMILES CCCCCCCCCCCCCC(=O)[O-]
REMARK SMILES IDX 8 1 9 2 10 3 11 4 12 5 13 6 14 7 15 8 16 9 7 10 6 11 5 12
REMARK SMILES IDX 4 13 3 14 2 15 1 16
REMARK H PARENT
REMARK Flexibility Score: inf
ROOT
ATOM      1  C   UNL     1       4.017 -56.895 -29.296  1.00  0.00     0.000 C 
ENDROOT
BRANCH   1   2
ATOM      2  C   UNL     1       3.484 -55.770 -28.392  1.00  0.00     0.000 C 
BRANCH   2   3
ATOM      3  C   UNL     1       4.247 -55.688 -27.053  1.00  0.00     0.000 C 
BRANCH   3   4
ATOM      4  C   UNL     1       3.471 -56.282 -25.866  1.00  0.00     0.000 C 
BRANCH   4   5
ATOM      5  C   UNL     1       4.343 -57.171 -24.966  1.00  0.00     0.006 C 
BRANCH   5   6
ATOM      6  C   UNL     1       5.471 -57.858 -25.747  1.00  0.00     0.053 C 
BRANCH   6   7
ATOM      7  C   UNL     1       6.635 -58.187 -24.864  1.00  0.00     0.041 C 
ATOM      8  O   UNL     1       6.457 -58.411 -23.637  1.00  0.00    -0.550 OA
ATOM      9  O   UNL     1       7.912 -58.280 -25.402  1.00  0.00    -0.550 OA
ENDBRANCH   6   7
ENDBRANCH   5   6
ENDBRANCH   4   5
ENDBRANCH   3   4
ENDBRANCH   2   3
ENDBRANCH   1   2
BRANCH   1  10
ATOM     10  C   UNL     1       4.500 -56.381 -30.662  1.00  0.00     0.000 C 
BRANCH  10  11
ATOM     11  C   UNL     1       5.804 -55.576 -30.564  1.00  0.00    -0.000 C 
BRANCH  11  12
ATOM     12  C   UNL     1       6.882 -56.366 -29.812  1.00  0.00    -0.000 C 
BRANCH  12  13
ATOM     13  C   UNL     1       8.288 -55.964 -30.281  1.00  0.00    -0.000 C 
BRANCH  13  14
ATOM     14  C   UNL     1       8.418 -54.453 -30.535  1.00  0.00    -0.000 C 
BRANCH  14  15
ATOM     15  C   UNL     1       9.590 -53.825 -29.767  1.00  0.00    -0.003 C 
ATOM     16  C   UNL     1       9.989 -54.687 -28.573  1.00  0.00     0.004 C 
ENDBRANCH  14  15
ENDBRANCH  13  14
ENDBRANCH  12  13
ENDBRANCH  11  12
ENDBRANCH  10  11
ENDBRANCH   1  10
TORSDOF 12
ENDMDL
