MODEL 1
REMARK VINA RESULT:    -4.892      0.000      0.000
REMARK INTER + INTRA:          -4.892
REMARK INTER:                  -4.892
REMARK INTRA:                   0.000
REMARK UNBOUND:                 0.000
REMARK SMILES C=C1CCC[C@]2(C)CC(=O)C(=C(C)C)C[C@H]12
REMARK SMILES IDX 13 1 12 2 11 3 15 4 16 5 2 6 1 7 3 8 4 9 5 10 6 11 8 12 9 13
REMARK SMILES IDX 10 14 7 15 14 16
REMARK H PARENT
REMARK Flexibility Score: inf
ROOT
ATOM      1  C   UNL     1     188.974 179.488 199.649  1.00  0.00     0.039 C 
ATOM      2  C   UNL     1     188.565 178.035 199.589  1.00  0.00    -0.070 C 
ATOM      3  C   UNL     1     187.257 177.653 199.661  1.00  0.00    -0.006 C 
ATOM      4  C   UNL     1     186.852 176.189 199.530  1.00  0.00     0.047 C 
ATOM      5  C   UNL     1     185.448 175.991 198.902  1.00  0.00     0.025 C 
ATOM      6  C   UNL     1     185.391 176.160 197.382  1.00  0.00    -0.073 C 
ATOM      7  C   UNL     1     186.411 176.610 196.625  1.00  0.00     0.008 C 
ATOM      8  C   UNL     1     184.056 175.877 196.740  1.00  0.00     0.031 C 
ATOM      9  C   UNL     1     182.992 176.779 197.364  1.00  0.00     0.005 C 
ATOM     10  C   UNL     1     182.973 176.654 198.899  1.00  0.00     0.008 C 
ATOM     11  C   UNL     1     184.360 176.887 199.579  1.00  0.00    -0.018 C 
ATOM     12  C   UNL     1     184.773 178.378 199.466  1.00  0.00     0.088 C 
ATOM     13  C   UNL     1     186.163 178.615 199.982  1.00  0.00     0.159 C 
ATOM     14  O   UNL     1     186.376 179.631 200.697  1.00  0.00    -0.295 OA
ATOM     15  C   UNL     1     184.198 176.513 201.075  1.00  0.00     0.012 C 
ATOM     16  C   UNL     1     189.670 177.019 199.401  1.00  0.00     0.039 C 
ENDROOT
TORSDOF 0
ENDMDL
MODEL 2
REMARK VINA RESULT:    -4.661      1.702      3.129
REMARK INTER + INTRA:          -4.661
REMARK INTER:                  -4.661
REMARK INTRA:                   0.000
REMARK UNBOUND:                 0.000
REMARK SMILES C=C1CCC[C@]2(C)CC(=O)C(=C(C)C)C[C@H]12
REMARK SMILES IDX 13 1 12 2 11 3 15 4 16 5 2 6 1 7 3 8 4 9 5 10 6 11 8 12 9 13
REMARK SMILES IDX 10 14 7 15 14 16
REMARK H PARENT
REMARK Flexibility Score: inf
ROOT
ATOM      1  C   UNL     1     189.916 177.619 200.179  1.00  0.00     0.039 C 
ATOM      2  C   UNL     1     188.711 178.527 200.096  1.00  0.00    -0.070 C 
ATOM      3  C   UNL     1     187.743 178.350 199.149  1.00  0.00    -0.006 C 
ATOM      4  C   UNL     1     186.499 179.231 199.118  1.00  0.00     0.047 C 
ATOM      5  C   UNL     1     185.245 178.507 198.562  1.00  0.00     0.025 C 
ATOM      6  C   UNL     1     184.563 177.550 199.543  1.00  0.00    -0.073 C 
ATOM      7  C   UNL     1     185.067 177.201 200.743  1.00  0.00     0.008 C 
ATOM      8  C   UNL     1     183.288 176.910 199.056  1.00  0.00     0.031 C 
ATOM      9  C   UNL     1     183.564 176.151 197.759  1.00  0.00     0.005 C 
ATOM     10  C   UNL     1     184.238 177.052 196.708  1.00  0.00     0.008 C 
ATOM     11  C   UNL     1     185.530 177.771 197.212  1.00  0.00    -0.018 C 
ATOM     12  C   UNL     1     186.675 176.745 197.413  1.00  0.00     0.088 C 
ATOM     13  C   UNL     1     187.890 177.374 198.032  1.00  0.00     0.159 C 
ATOM     14  O   UNL     1     189.025 177.069 197.577  1.00  0.00    -0.295 OA
ATOM     15  C   UNL     1     185.940 178.785 196.113  1.00  0.00     0.012 C 
ATOM     16  C   UNL     1     188.601 179.618 201.136  1.00  0.00     0.039 C 
ENDROOT
TORSDOF 0
ENDMDL
MODEL 3
REMARK VINA RESULT:    -4.586     16.519     18.163
REMARK INTER + INTRA:          -4.586
REMARK INTER:                  -4.586
REMARK INTRA:                   0.000
REMARK UNBOUND:                 0.000
REMARK SMILES C=C1CCC[C@]2(C)CC(=O)C(=C(C)C)C[C@H]12
REMARK SMILES IDX 13 1 12 2 11 3 15 4 16 5 2 6 1 7 3 8 4 9 5 10 6 11 8 12 9 13
REMARK SMILES IDX 10 14 7 15 14 16
REMARK H PARENT
REMARK Flexibility Score: inf
ROOT
ATOM      1  C   UNL     1     182.725 195.464 200.071  1.00  0.00     0.039 C 
ATOM      2  C   UNL     1     183.835 194.440 200.047  1.00  0.00    -0.070 C 
ATOM      3  C   UNL     1     184.801 194.451 199.083  1.00  0.00    -0.006 C 
ATOM      4  C   UNL     1     185.954 193.454 199.108  1.00  0.00     0.047 C 
ATOM      5  C   UNL     1     187.264 194.009 198.489  1.00  0.00     0.025 C 
ATOM      6  C   UNL     1     188.049 194.966 199.390  1.00  0.00    -0.073 C 
ATOM      7  C   UNL     1     187.599 195.452 200.563  1.00  0.00     0.008 C 
ATOM      8  C   UNL     1     189.372 195.442 198.846  1.00  0.00     0.031 C 
ATOM      9  C   UNL     1     189.150 196.125 197.497  1.00  0.00     0.005 C 
ATOM     10  C   UNL     1     188.378 195.217 196.523  1.00  0.00     0.008 C 
ATOM     11  C   UNL     1     187.030 194.666 197.090  1.00  0.00    -0.018 C 
ATOM     12  C   UNL     1     185.992 195.811 197.222  1.00  0.00     0.088 C 
ATOM     13  C   UNL     1     184.732 195.350 197.895  1.00  0.00     0.159 C 
ATOM     14  O   UNL     1     183.624 195.729 197.428  1.00  0.00    -0.295 OA
ATOM     15  C   UNL     1     186.508 193.617 196.075  1.00  0.00     0.012 C 
ATOM     16  C   UNL     1     183.855 193.424 201.167  1.00  0.00     0.039 C 
ENDROOT
TORSDOF 0
ENDMDL
MODEL 4
REMARK VINA RESULT:    -4.562      1.552      4.649
REMARK INTER + INTRA:          -4.562
REMARK INTER:                  -4.562
REMARK INTRA:                   0.000
REMARK UNBOUND:                 0.000
REMARK SMILES C=C1CCC[C@]2(C)CC(=O)C(=C(C)C)C[C@H]12
REMARK SMILES IDX 13 1 12 2 11 3 15 4 16 5 2 6 1 7 3 8 4 9 5 10 6 11 8 12 9 13
REMARK SMILES IDX 10 14 7 15 14 16
REMARK H PARENT
REMARK Flexibility Score: inf
ROOT
ATOM      1  C   UNL     1     183.235 176.673 198.374  1.00  0.00     0.039 C 
ATOM      2  C   UNL     1     184.292 177.498 197.678  1.00  0.00    -0.070 C 
ATOM      3  C   UNL     1     185.388 177.968 198.341  1.00  0.00    -0.006 C 
ATOM      4  C   UNL     1     186.481 178.743 197.612  1.00  0.00     0.047 C 
ATOM      5  C   UNL     1     187.890 178.554 198.234  1.00  0.00     0.025 C 
ATOM      6  C   UNL     1     188.575 177.229 197.889  1.00  0.00    -0.073 C 
ATOM      7  C   UNL     1     187.979 176.207 197.245  1.00  0.00     0.008 C 
ATOM      8  C   UNL     1     189.983 177.066 198.403  1.00  0.00     0.031 C 
ATOM      9  C   UNL     1     189.991 177.231 199.923  1.00  0.00     0.005 C 
ATOM     10  C   UNL     1     189.331 178.554 200.353  1.00  0.00     0.008 C 
ATOM     11  C   UNL     1     187.892 178.768 199.782  1.00  0.00    -0.018 C 
ATOM     12  C   UNL     1     186.897 177.780 200.444  1.00  0.00     0.088 C 
ATOM     13  C   UNL     1     185.532 177.858 199.821  1.00  0.00     0.159 C 
ATOM     14  O   UNL     1     184.523 177.839 200.576  1.00  0.00    -0.295 OA
ATOM     15  C   UNL     1     187.479 180.221 200.134  1.00  0.00     0.012 C 
ATOM     16  C   UNL     1     184.103 177.747 196.198  1.00  0.00     0.039 C 
ENDROOT
TORSDOF 0
ENDMDL
MODEL 5
REMARK VINA RESULT:    -4.554      2.524      4.198
REMARK INTER + INTRA:          -4.554
REMARK INTER:                  -4.554
REMARK INTRA:                   0.000
REMARK UNBOUND:                 0.000
REMARK SMILES C=C1CCC[C@]2(C)CC(=O)C(=C(C)C)C[C@H]12
REMARK SMILES IDX 13 1 12 2 11 3 15 4 16 5 2 6 1 7 3 8 4 9 5 10 6 11 8 12 9 13
REMARK SMILES IDX 10 14 7 15 14 16
REMARK H PARENT
REMARK Flexibility Score: inf
ROOT
ATOM      1  C   UNL     1     192.685 176.788 198.220  1.00  0.00     0.039 C 
ATOM      2  C   UNL     1     191.684 176.932 199.344  1.00  0.00    -0.070 C 
ATOM      3  C   UNL     1     190.619 177.781 199.252  1.00  0.00    -0.006 C 
ATOM      4  C   UNL     1     189.580 177.867 200.364  1.00  0.00     0.047 C 
ATOM      5  C   UNL     1     188.161 178.232 199.856  1.00  0.00     0.025 C 
ATOM      6  C   UNL     1     187.392 177.080 199.203  1.00  0.00    -0.073 C 
ATOM      7  C   UNL     1     187.922 175.875 198.917  1.00  0.00     0.008 C 
ATOM      8  C   UNL     1     185.976 177.388 198.789  1.00  0.00     0.031 C 
ATOM      9  C   UNL     1     185.976 178.573 197.824  1.00  0.00     0.005 C 
ATOM     10  C   UNL     1     186.719 179.785 198.415  1.00  0.00     0.008 C 
ATOM     11  C   UNL     1     188.170 179.473 198.904  1.00  0.00    -0.018 C 
ATOM     12  C   UNL     1     189.098 179.192 197.694  1.00  0.00     0.088 C 
ATOM     13  C   UNL     1     190.466 178.749 198.129  1.00  0.00     0.159 C 
ATOM     14  O   UNL     1     191.471 179.221 197.532  1.00  0.00    -0.295 OA
ATOM     15  C   UNL     1     188.675 180.732 199.654  1.00  0.00     0.012 C 
ATOM     16  C   UNL     1     191.891 176.060 200.562  1.00  0.00     0.039 C 
ENDROOT
TORSDOF 0
ENDMDL
MODEL 6
REMARK VINA RESULT:    -4.538      1.835      4.679
REMARK INTER + INTRA:          -4.538
REMARK INTER:                  -4.538
REMARK INTRA:                   0.000
REMARK UNBOUND:                 0.000
REMARK SMILES C=C1CCC[C@]2(C)CC(=O)C(=C(C)C)C[C@H]12
REMARK SMILES IDX 13 1 12 2 11 3 15 4 16 5 2 6 1 7 3 8 4 9 5 10 6 11 8 12 9 13
REMARK SMILES IDX 10 14 7 15 14 16
REMARK H PARENT
REMARK Flexibility Score: inf
ROOT
ATOM      1  C   UNL     1     183.441 177.700 200.434  1.00  0.00     0.039 C 
ATOM      2  C   UNL     1     184.707 176.876 200.382  1.00  0.00    -0.070 C 
ATOM      3  C   UNL     1     185.613 177.016 199.370  1.00  0.00    -0.006 C 
ATOM      4  C   UNL     1     186.918 176.228 199.365  1.00  0.00     0.047 C 
ATOM      5  C   UNL     1     188.085 176.974 198.666  1.00  0.00     0.025 C 
ATOM      6  C   UNL     1     188.737 178.080 199.500  1.00  0.00    -0.073 C 
ATOM      7  C   UNL     1     188.264 178.524 200.681  1.00  0.00     0.008 C 
ATOM      8  C   UNL     1     189.934 178.751 198.877  1.00  0.00     0.031 C 
ATOM      9  C   UNL     1     189.539 179.340 197.523  1.00  0.00     0.005 C 
ATOM     10  C   UNL     1     188.888 178.281 196.614  1.00  0.00     0.008 C 
ATOM     11  C   UNL     1     187.681 177.532 197.263  1.00  0.00    -0.018 C 
ATOM     12  C   UNL     1     186.471 178.491 197.415  1.00  0.00     0.088 C 
ATOM     13  C   UNL     1     185.338 177.848 198.164  1.00  0.00     0.159 C 
ATOM     14  O   UNL     1     184.163 178.019 197.743  1.00  0.00    -0.295 OA
ATOM     15  C   UNL     1     187.299 176.376 196.303  1.00  0.00     0.012 C 
ATOM     16  C   UNL     1     184.949 175.918 201.526  1.00  0.00     0.039 C 
ENDROOT
TORSDOF 0
ENDMDL
MODEL 7
REMARK VINA RESULT:    -4.520      1.951      3.453
REMARK INTER + INTRA:          -4.520
REMARK INTER:                  -4.520
REMARK INTRA:                   0.000
REMARK UNBOUND:                 0.000
REMARK SMILES C=C1CCC[C@]2(C)CC(=O)C(=C(C)C)C[C@H]12
REMARK SMILES IDX 13 1 12 2 11 3 15 4 16 5 2 6 1 7 3 8 4 9 5 10 6 11 8 12 9 13
REMARK SMILES IDX 10 14 7 15 14 16
REMARK H PARENT
REMARK Flexibility Score: inf
ROOT
ATOM      1  C   UNL     1     186.373 180.172 194.767  1.00  0.00     0.039 C 
ATOM      2  C   UNL     1     186.408 178.716 195.168  1.00  0.00    -0.070 C 
ATOM      3  C   UNL     1     186.377 178.331 196.478  1.00  0.00    -0.006 C 
ATOM      4  C   UNL     1     186.345 176.858 196.868  1.00  0.00     0.047 C 
ATOM      5  C   UNL     1     185.593 176.588 198.198  1.00  0.00     0.025 C 
ATOM      6  C   UNL     1     184.066 176.611 198.092  1.00  0.00    -0.073 C 
ATOM      7  C   UNL     1     183.382 176.996 196.997  1.00  0.00     0.008 C 
ATOM      8  C   UNL     1     183.316 176.256 199.351  1.00  0.00     0.031 C 
ATOM      9  C   UNL     1     183.734 177.204 200.475  1.00  0.00     0.005 C 
ATOM     10  C   UNL     1     185.263 177.226 200.657  1.00  0.00     0.008 C 
ATOM     11  C   UNL     1     186.062 177.534 199.350  1.00  0.00    -0.018 C 
ATOM     12  C   UNL     1     185.851 179.011 198.926  1.00  0.00     0.088 C 
ATOM     13  C   UNL     1     186.487 179.309 197.598  1.00  0.00     0.159 C 
ATOM     14  O   UNL     1     187.120 180.390 197.461  1.00  0.00    -0.295 OA
ATOM     15  C   UNL     1     187.561 177.303 199.672  1.00  0.00     0.012 C 
ATOM     16  C   UNL     1     186.436 177.697 194.052  1.00  0.00     0.039 C 
ENDROOT
TORSDOF 0
ENDMDL
MODEL 8
REMARK VINA RESULT:    -4.509     10.074     11.628
REMARK INTER + INTRA:          -4.509
REMARK INTER:                  -4.509
REMARK INTRA:                   0.000
REMARK UNBOUND:                 0.000
REMARK SMILES C=C1CCC[C@]2(C)CC(=O)C(=C(C)C)C[C@H]12
REMARK SMILES IDX 13 1 12 2 11 3 15 4 16 5 2 6 1 7 3 8 4 9 5 10 6 11 8 12 9 13
REMARK SMILES IDX 10 14 7 15 14 16
REMARK H PARENT
REMARK Flexibility Score: inf
ROOT
ATOM      1  C   UNL     1     184.328 189.722 192.254  1.00  0.00     0.039 C 
ATOM      2  C   UNL     1     185.597 189.669 193.073  1.00  0.00    -0.070 C 
ATOM      3  C   UNL     1     185.818 188.685 193.993  1.00  0.00    -0.006 C 
ATOM      4  C   UNL     1     187.130 188.604 194.764  1.00  0.00     0.047 C 
ATOM      5  C   UNL     1     187.531 187.156 195.149  1.00  0.00     0.025 C 
ATOM      6  C   UNL     1     188.130 186.327 194.010  1.00  0.00    -0.073 C 
ATOM      7  C   UNL     1     188.170 186.718 192.722  1.00  0.00     0.008 C 
ATOM      8  C   UNL     1     188.614 184.950 194.387  1.00  0.00     0.031 C 
ATOM      9  C   UNL     1     187.463 184.158 195.004  1.00  0.00     0.005 C 
ATOM     10  C   UNL     1     186.814 184.920 196.174  1.00  0.00     0.008 C 
ATOM     11  C   UNL     1     186.357 186.371 195.820  1.00  0.00    -0.018 C 
ATOM     12  C   UNL     1     185.142 186.334 194.857  1.00  0.00     0.088 C 
ATOM     13  C   UNL     1     184.762 187.707 194.382  1.00  0.00     0.159 C 
ATOM     14  O   UNL     1     183.539 188.011 194.332  1.00  0.00    -0.295 OA
ATOM     15  C   UNL     1     185.936 187.049 197.149  1.00  0.00     0.012 C 
ATOM     16  C   UNL     1     186.635 190.734 192.798  1.00  0.00     0.039 C 
ENDROOT
TORSDOF 0
ENDMDL
MODEL 9
REMARK VINA RESULT:    -4.495      8.640     10.028
REMARK INTER + INTRA:          -4.495
REMARK INTER:                  -4.495
REMARK INTRA:                   0.000
REMARK UNBOUND:                 0.000
REMARK SMILES C=C1CCC[C@]2(C)CC(=O)C(=C(C)C)C[C@H]12
REMARK SMILES IDX 13 1 12 2 11 3 15 4 16 5 2 6 1 7 3 8 4 9 5 10 6 11 8 12 9 13
REMARK SMILES IDX 10 14 7 15 14 16
REMARK H PARENT
REMARK Flexibility Score: inf
ROOT
ATOM      1  C   UNL     1     188.438 183.016 192.269  1.00  0.00     0.039 C 
ATOM      2  C   UNL     1     187.159 183.078 193.072  1.00  0.00    -0.070 C 
ATOM      3  C   UNL     1     186.938 184.059 193.995  1.00  0.00    -0.006 C 
ATOM      4  C   UNL     1     185.617 184.151 194.750  1.00  0.00     0.047 C 
ATOM      5  C   UNL     1     185.228 185.601 195.139  1.00  0.00     0.025 C 
ATOM      6  C   UNL     1     184.653 186.444 193.998  1.00  0.00    -0.073 C 
ATOM      7  C   UNL     1     184.625 186.061 192.706  1.00  0.00     0.008 C 
ATOM      8  C   UNL     1     184.180 187.824 194.376  1.00  0.00     0.031 C 
ATOM      9  C   UNL     1     185.332 188.599 195.013  1.00  0.00     0.005 C 
ATOM     10  C   UNL     1     185.957 187.823 196.186  1.00  0.00     0.008 C 
ATOM     11  C   UNL     1     186.402 186.368 195.829  1.00  0.00    -0.018 C 
ATOM     12  C   UNL     1     187.630 186.397 194.882  1.00  0.00     0.088 C 
ATOM     13  C   UNL     1     188.000 185.023 194.403  1.00  0.00     0.159 C 
ATOM     14  O   UNL     1     189.220 184.705 194.367  1.00  0.00    -0.295 OA
ATOM     15  C   UNL     1     186.799 185.678 197.160  1.00  0.00     0.012 C 
ATOM     16  C   UNL     1     186.113 182.027 192.777  1.00  0.00     0.039 C 
ENDROOT
TORSDOF 0
ENDMDL
