MODEL 1
REMARK VINA RESULT:    -2.210      0.000      0.000
REMARK INTER + INTRA:          -2.210
REMARK INTER:                  -2.210
REMARK INTRA:                   0.000
REMARK UNBOUND:                 0.000
REMARK SMILES CC(=O)[O-]
REMARK SMILES IDX 1 1 2 2 3 3 4 4
REMARK H PARENT
REMARK Flexibility Score: inf
ROOT
ATOM      1  C   UNL     1      29.940  -1.899  46.137  1.00  0.00     0.063 C 
ATOM      2  C   UNL     1      28.790  -2.823  45.919  1.00  0.00     0.038 C 
ATOM      3  O   UNL     1      27.624  -2.462  46.227  1.00  0.00    -0.550 OA
ATOM      4  O   UNL     1      28.994  -4.062  45.328  1.00  0.00    -0.550 OA
ENDROOT
TORSDOF 0
ENDMDL
MODEL 2
REMARK VINA RESULT:    -2.169      0.139      1.619
REMARK INTER + INTRA:          -2.169
REMARK INTER:                  -2.169
REMARK INTRA:                   0.000
REMARK UNBOUND:                 0.000
REMARK SMILES CC(=O)[O-]
REMARK SMILES IDX 1 1 2 2 3 3 4 4
REMARK H PARENT
REMARK Flexibility Score: inf
ROOT
ATOM      1  C   UNL     1      29.930  -1.946  46.088  1.00  0.00     0.063 C 
ATOM      2  C   UNL     1      28.815  -2.917  45.893  1.00  0.00     0.038 C 
ATOM      3  O   UNL     1      29.030  -4.019  45.322  1.00  0.00    -0.550 OA
ATOM      4  O   UNL     1      27.549  -2.632  46.386  1.00  0.00    -0.550 OA
ENDROOT
TORSDOF 0
ENDMDL
MODEL 3
REMARK VINA RESULT:    -2.161      1.404      2.064
REMARK INTER + INTRA:          -2.161
REMARK INTER:                  -2.161
REMARK INTRA:                   0.000
REMARK UNBOUND:                 0.000
REMARK SMILES CC(=O)[O-]
REMARK SMILES IDX 1 1 2 2 3 3 4 4
REMARK H PARENT
REMARK Flexibility Score: inf
ROOT
ATOM      1  C   UNL     1      29.751  -1.384  45.982  1.00  0.00     0.063 C 
ATOM      2  C   UNL     1      30.059  -2.728  45.413  1.00  0.00     0.038 C 
ATOM      3  O   UNL     1      31.240  -3.019  45.087  1.00  0.00    -0.550 OA
ATOM      4  O   UNL     1      29.056  -3.679  45.291  1.00  0.00    -0.550 OA
ENDROOT
TORSDOF 0
ENDMDL
MODEL 4
REMARK VINA RESULT:    -2.092      6.870      7.468
REMARK INTER + INTRA:          -2.092
REMARK INTER:                  -2.092
REMARK INTRA:                   0.000
REMARK UNBOUND:                 0.000
REMARK SMILES CC(=O)[O-]
REMARK SMILES IDX 1 1 2 2 3 3 4 4
REMARK H PARENT
REMARK Flexibility Score: inf
ROOT
ATOM      1  C   UNL     1      37.073  -4.062  43.738  1.00  0.00     0.063 C 
ATOM      2  C   UNL     1      35.652  -3.746  43.412  1.00  0.00     0.038 C 
ATOM      3  O   UNL     1      35.382  -2.892  42.528  1.00  0.00    -0.550 OA
ATOM      4  O   UNL     1      34.624  -4.431  44.045  1.00  0.00    -0.550 OA
ENDROOT
TORSDOF 0
ENDMDL
MODEL 5
REMARK VINA RESULT:    -2.076      1.442      2.134
REMARK INTER + INTRA:          -2.076
REMARK INTER:                  -2.076
REMARK INTRA:                   0.000
REMARK UNBOUND:                 0.000
REMARK SMILES CC(=O)[O-]
REMARK SMILES IDX 1 1 2 2 3 3 4 4
REMARK H PARENT
REMARK Flexibility Score: inf
ROOT
ATOM      1  C   UNL     1      29.017  -3.906  45.313  1.00  0.00     0.063 C 
ATOM      2  C   UNL     1      28.947  -2.578  45.987  1.00  0.00     0.038 C 
ATOM      3  O   UNL     1      29.972  -2.094  46.537  1.00  0.00    -0.550 OA
ATOM      4  O   UNL     1      27.768  -1.847  45.964  1.00  0.00    -0.550 OA
ENDROOT
TORSDOF 0
ENDMDL
MODEL 6
REMARK VINA RESULT:    -1.966      2.049      2.278
REMARK INTER + INTRA:          -1.966
REMARK INTER:                  -1.966
REMARK INTRA:                   0.000
REMARK UNBOUND:                 0.000
REMARK SMILES CC(=O)[O-]
REMARK SMILES IDX 1 1 2 2 3 3 4 4
REMARK H PARENT
REMARK Flexibility Score: inf
ROOT
ATOM      1  C   UNL     1      29.229  -3.402  45.370  1.00  0.00     0.063 C 
ATOM      2  C   UNL     1      29.924  -2.090  45.229  1.00  0.00     0.038 C 
ATOM      3  O   UNL     1      29.586  -1.116  45.951  1.00  0.00    -0.550 OA
ATOM      4  O   UNL     1      30.981  -1.954  44.339  1.00  0.00    -0.550 OA
ENDROOT
TORSDOF 0
ENDMDL
MODEL 7
REMARK VINA RESULT:    -1.956      7.648      8.129
REMARK INTER + INTRA:          -1.956
REMARK INTER:                  -1.956
REMARK INTRA:                   0.000
REMARK UNBOUND:                 0.000
REMARK SMILES CC(=O)[O-]
REMARK SMILES IDX 1 1 2 2 3 3 4 4
REMARK H PARENT
REMARK Flexibility Score: inf
ROOT
ATOM      1  C   UNL     1      35.068  -4.173  43.744  1.00  0.00     0.063 C 
ATOM      2  C   UNL     1      36.424  -3.562  43.633  1.00  0.00     0.038 C 
ATOM      3  O   UNL     1      36.545  -2.321  43.461  1.00  0.00    -0.550 OA
ATOM      4  O   UNL     1      37.557  -4.352  43.773  1.00  0.00    -0.550 OA
ENDROOT
TORSDOF 0
ENDMDL
MODEL 8
REMARK VINA RESULT:    -1.944     11.522     11.977
REMARK INTER + INTRA:          -1.944
REMARK INTER:                  -1.944
REMARK INTRA:                   0.000
REMARK UNBOUND:                 0.000
REMARK SMILES CC(=O)[O-]
REMARK SMILES IDX 1 1 2 2 3 3 4 4
REMARK H PARENT
REMARK Flexibility Score: inf
ROOT
ATOM      1  C   UNL     1      22.620 -12.723  44.191  1.00  0.00     0.063 C 
ATOM      2  C   UNL     1      21.867 -12.404  45.439  1.00  0.00     0.038 C 
ATOM      3  O   UNL     1      21.688 -11.206  45.779  1.00  0.00    -0.550 OA
ATOM      4  O   UNL     1      21.317 -13.426  46.200  1.00  0.00    -0.550 OA
ENDROOT
TORSDOF 0
ENDMDL
MODEL 9
REMARK VINA RESULT:    -1.943     10.647     11.148
REMARK INTER + INTRA:          -1.943
REMARK INTER:                  -1.943
REMARK INTRA:                   0.000
REMARK UNBOUND:                 0.000
REMARK SMILES CC(=O)[O-]
REMARK SMILES IDX 1 1 2 2 3 3 4 4
REMARK H PARENT
REMARK Flexibility Score: inf
ROOT
ATOM      1  C   UNL     1      22.727 -12.734  44.127  1.00  0.00     0.063 C 
ATOM      2  C   UNL     1      22.223 -11.536  44.859  1.00  0.00     0.038 C 
ATOM      3  O   UNL     1      21.812 -11.647  46.044  1.00  0.00    -0.550 OA
ATOM      4  O   UNL     1      22.256 -10.287  44.256  1.00  0.00    -0.550 OA
ENDROOT
TORSDOF 0
ENDMDL
