MODEL 1
REMARK VINA RESULT:    -3.776      0.000      0.000
REMARK INTER + INTRA:          -8.739
REMARK INTER:                  -6.645
REMARK INTRA:                  -2.094
REMARK UNBOUND:                -2.094
REMARK SMILES CCCCCCCCCCCCCCC(=O)[O-]
REMARK SMILES IDX 9 1 10 2 11 3 12 4 13 5 14 6 15 7 16 8 17 9 8 10 7 11 6 12
REMARK SMILES IDX 5 13 4 14 3 15 2 16 1 17
REMARK H PARENT
REMARK Flexibility Score: inf
ROOT
ATOM      1  C   UNL     1      -8.231   0.785 -41.044  1.00  0.00     0.000 C 
ENDROOT
BRANCH   1   2
ATOM      2  C   UNL     1      -9.227   1.665 -40.276  1.00  0.00     0.000 C 
BRANCH   2   3
ATOM      3  C   UNL     1     -10.630   1.044 -40.285  1.00  0.00     0.000 C 
BRANCH   3   4
ATOM      4  C   UNL     1     -10.719  -0.103 -41.303  1.00  0.00     0.000 C 
BRANCH   4   5
ATOM      5  C   UNL     1     -11.063  -1.457 -40.657  1.00  0.00     0.006 C 
BRANCH   5   6
ATOM      6  C   UNL     1     -11.962  -1.345 -39.413  1.00  0.00     0.053 C 
BRANCH   6   7
ATOM      7  C   UNL     1     -13.288  -2.018 -39.593  1.00  0.00     0.041 C 
ATOM      8  O   UNL     1     -13.452  -3.210 -39.224  1.00  0.00    -0.550 OA
ATOM      9  O   UNL     1     -14.337  -1.337 -40.198  1.00  0.00    -0.550 OA
ENDBRANCH   6   7
ENDBRANCH   5   6
ENDBRANCH   4   5
ENDBRANCH   3   4
ENDBRANCH   2   3
ENDBRANCH   1   2
BRANCH   1  10
ATOM     10  C   UNL     1      -7.276   0.067 -40.078  1.00  0.00     0.000 C 
BRANCH  10  11
ATOM     11  C   UNL     1      -7.345  -1.463 -40.204  1.00  0.00    -0.000 C 
BRANCH  11  12
ATOM     12  C   UNL     1      -7.905  -2.136 -38.938  1.00  0.00    -0.000 C 
BRANCH  12  13
ATOM     13  C   UNL     1      -7.813  -1.229 -37.700  1.00  0.00    -0.000 C 
BRANCH  13  14
ATOM     14  C   UNL     1      -9.136  -1.157 -36.918  1.00  0.00    -0.000 C 
BRANCH  14  15
ATOM     15  C   UNL     1      -9.732   0.263 -36.885  1.00  0.00    -0.000 C 
BRANCH  15  16
ATOM     16  C   UNL     1     -10.799   0.487 -35.799  1.00  0.00    -0.003 C 
ATOM     17  C   UNL     1     -10.669   1.842 -35.104  1.00  0.00     0.004 C 
ENDBRANCH  15  16
ENDBRANCH  14  15
ENDBRANCH  13  14
ENDBRANCH  12  13
ENDBRANCH  11  12
ENDBRANCH  10  11
ENDBRANCH   1  10
TORSDOF 13
ENDMDL
MODEL 2
REMARK VINA RESULT:    -3.735      4.441      6.073
REMARK INTER + INTRA:          -8.668
REMARK INTER:                  -7.758
REMARK INTRA:                  -0.910
REMARK UNBOUND:                -2.094
REMARK SMILES CCCCCCCCCCCCCCC(=O)[O-]
REMARK SMILES IDX 9 1 10 2 11 3 12 4 13 5 14 6 15 7 16 8 17 9 8 10 7 11 6 12
REMARK SMILES IDX 5 13 4 14 3 15 2 16 1 17
REMARK H PARENT
REMARK Flexibility Score: inf
ROOT
ATOM      1  C   UNL     1     -12.947   3.654 -40.579  1.00  0.00     0.000 C 
ENDROOT
BRANCH   1   2
ATOM      2  C   UNL     1     -12.537   5.128 -40.687  1.00  0.00     0.000 C 
BRANCH   2   3
ATOM      3  C   UNL     1     -13.708   5.991 -41.176  1.00  0.00     0.000 C 
BRANCH   3   4
ATOM      4  C   UNL     1     -14.673   5.168 -42.043  1.00  0.00     0.000 C 
BRANCH   4   5
ATOM      5  C   UNL     1     -16.154   5.438 -41.720  1.00  0.00     0.006 C 
BRANCH   5   6
ATOM      6  C   UNL     1     -16.658   4.720 -40.455  1.00  0.00     0.053 C 
BRANCH   6   7
ATOM      7  C   UNL     1     -17.478   3.506 -40.765  1.00  0.00     0.041 C 
ATOM      8  O   UNL     1     -18.407   3.566 -41.613  1.00  0.00    -0.550 OA
ATOM      9  O   UNL     1     -17.237   2.313 -40.095  1.00  0.00    -0.550 OA
ENDBRANCH   6   7
ENDBRANCH   5   6
ENDBRANCH   4   5
ENDBRANCH   3   4
ENDBRANCH   2   3
ENDBRANCH   1   2
BRANCH   1  10
ATOM     10  C   UNL     1     -12.168   2.793 -41.585  1.00  0.00     0.000 C 
BRANCH  10  11
ATOM     11  C   UNL     1     -10.759   2.429 -41.091  1.00  0.00    -0.000 C 
BRANCH  11  12
ATOM     12  C   UNL     1     -10.769   1.813 -39.680  1.00  0.00    -0.000 C 
BRANCH  12  13
ATOM     13  C   UNL     1     -10.514   0.298 -39.698  1.00  0.00    -0.000 C 
BRANCH  13  14
ATOM     14  C   UNL     1     -11.673  -0.491 -40.331  1.00  0.00    -0.000 C 
BRANCH  14  15
ATOM     15  C   UNL     1     -12.055  -1.744 -39.521  1.00  0.00    -0.000 C 
BRANCH  15  16
ATOM     16  C   UNL     1     -13.545  -2.128 -39.593  1.00  0.00    -0.003 C 
ATOM     17  C   UNL     1     -14.394  -1.090 -40.325  1.00  0.00     0.004 C 
ENDBRANCH  15  16
ENDBRANCH  14  15
ENDBRANCH  13  14
ENDBRANCH  12  13
ENDBRANCH  11  12
ENDBRANCH  10  11
ENDBRANCH   1  10
TORSDOF 13
ENDMDL
MODEL 3
REMARK VINA RESULT:    -3.676      5.672      7.198
REMARK INTER + INTRA:          -8.564
REMARK INTER:                  -7.638
REMARK INTRA:                  -0.926
REMARK UNBOUND:                -2.094
REMARK SMILES CCCCCCCCCCCCCCC(=O)[O-]
REMARK SMILES IDX 9 1 10 2 11 3 12 4 13 5 14 6 15 7 16 8 17 9 8 10 7 11 6 12
REMARK SMILES IDX 5 13 4 14 3 15 2 16 1 17
REMARK H PARENT
REMARK Flexibility Score: inf
ROOT
ATOM      1  C   UNL     1     -12.276   4.513 -41.614  1.00  0.00     0.000 C 
ENDROOT
BRANCH   1   2
ATOM      2  C   UNL     1     -13.754   4.698 -41.984  1.00  0.00     0.000 C 
BRANCH   2   3
ATOM      3  C   UNL     1     -14.556   5.235 -40.792  1.00  0.00     0.000 C 
BRANCH   3   4
ATOM      4  C   UNL     1     -15.928   4.551 -40.700  1.00  0.00     0.000 C 
BRANCH   4   5
ATOM      5  C   UNL     1     -16.836   4.855 -41.907  1.00  0.00     0.006 C 
BRANCH   5   6
ATOM      6  C   UNL     1     -18.200   5.458 -41.526  1.00  0.00     0.053 C 
BRANCH   6   7
ATOM      7  C   UNL     1     -18.102   6.893 -41.108  1.00  0.00     0.041 C 
ATOM      8  O   UNL     1     -18.057   7.806 -41.974  1.00  0.00    -0.550 OA
ATOM      9  O   UNL     1     -18.031   7.222 -39.760  1.00  0.00    -0.550 OA
ENDBRANCH   6   7
ENDBRANCH   5   6
ENDBRANCH   4   5
ENDBRANCH   3   4
ENDBRANCH   2   3
ENDBRANCH   1   2
BRANCH   1  10
ATOM     10  C   UNL     1     -12.115   3.454 -40.513  1.00  0.00     0.000 C 
BRANCH  10  11
ATOM     11  C   UNL     1     -12.167   2.018 -41.057  1.00  0.00    -0.000 C 
BRANCH  11  12
ATOM     12  C   UNL     1     -10.790   1.511 -41.523  1.00  0.00    -0.000 C 
BRANCH  12  13
ATOM     13  C   UNL     1     -10.566   0.028 -41.191  1.00  0.00    -0.000 C 
BRANCH  13  14
ATOM     14  C   UNL     1     -11.258  -0.400 -39.885  1.00  0.00    -0.000 C 
BRANCH  14  15
ATOM     15  C   UNL     1     -11.937  -1.778 -39.993  1.00  0.00    -0.000 C 
BRANCH  15  16
ATOM     16  C   UNL     1     -13.338  -1.858 -39.360  1.00  0.00    -0.003 C 
ATOM     17  C   UNL     1     -14.436  -1.304 -40.266  1.00  0.00     0.004 C 
ENDBRANCH  15  16
ENDBRANCH  14  15
ENDBRANCH  13  14
ENDBRANCH  12  13
ENDBRANCH  11  12
ENDBRANCH  10  11
ENDBRANCH   1  10
TORSDOF 13
ENDMDL
MODEL 4
REMARK VINA RESULT:    -3.676      5.017      7.245
REMARK INTER + INTRA:          -8.564
REMARK INTER:                  -7.525
REMARK INTRA:                  -1.039
REMARK UNBOUND:                -2.094
REMARK SMILES CCCCCCCCCCCCCCC(=O)[O-]
REMARK SMILES IDX 9 1 10 2 11 3 12 4 13 5 14 6 15 7 16 8 17 9 8 10 7 11 6 12
REMARK SMILES IDX 5 13 4 14 3 15 2 16 1 17
REMARK H PARENT
REMARK Flexibility Score: inf
ROOT
ATOM      1  C   UNL     1     -12.445   3.908 -42.178  1.00  0.00     0.000 C 
ENDROOT
BRANCH   1   2
ATOM      2  C   UNL     1     -11.174   3.050 -42.120  1.00  0.00     0.000 C 
BRANCH   2   3
ATOM      3  C   UNL     1     -11.239   2.048 -40.960  1.00  0.00     0.000 C 
BRANCH   3   4
ATOM      4  C   UNL     1     -10.224   0.913 -41.156  1.00  0.00     0.000 C 
BRANCH   4   5
ATOM      5  C   UNL     1     -10.884  -0.472 -41.290  1.00  0.00     0.006 C 
BRANCH   5   6
ATOM      6  C   UNL     1     -12.275  -0.566 -40.638  1.00  0.00     0.053 C 
BRANCH   6   7
ATOM      7  C   UNL     1     -12.319  -1.539 -39.501  1.00  0.00     0.041 C 
ATOM      8  O   UNL     1     -11.459  -1.484 -38.583  1.00  0.00    -0.550 OA
ATOM      9  O   UNL     1     -13.293  -2.530 -39.470  1.00  0.00    -0.550 OA
ENDBRANCH   6   7
ENDBRANCH   5   6
ENDBRANCH   4   5
ENDBRANCH   3   4
ENDBRANCH   2   3
ENDBRANCH   1   2
BRANCH   1  10
ATOM     10  C   UNL     1     -13.055   4.081 -40.779  1.00  0.00     0.000 C 
BRANCH  10  11
ATOM     11  C   UNL     1     -14.451   4.721 -40.815  1.00  0.00    -0.000 C 
BRANCH  11  12
ATOM     12  C   UNL     1     -14.700   5.524 -42.105  1.00  0.00    -0.000 C 
BRANCH  12  13
ATOM     13  C   UNL     1     -15.930   6.440 -41.999  1.00  0.00    -0.000 C 
BRANCH  13  14
ATOM     14  C   UNL     1     -17.195   5.806 -42.604  1.00  0.00    -0.000 C 
BRANCH  14  15
ATOM     15  C   UNL     1     -18.078   5.113 -41.549  1.00  0.00    -0.000 C 
BRANCH  15  16
ATOM     16  C   UNL     1     -18.192   3.586 -41.707  1.00  0.00    -0.003 C 
ATOM     17  C   UNL     1     -17.667   2.819 -40.494  1.00  0.00     0.004 C 
ENDBRANCH  15  16
ENDBRANCH  14  15
ENDBRANCH  13  14
ENDBRANCH  12  13
ENDBRANCH  11  12
ENDBRANCH  10  11
ENDBRANCH   1  10
TORSDOF 13
ENDMDL
MODEL 5
REMARK VINA RESULT:    -3.625      3.135      5.229
REMARK INTER + INTRA:          -8.474
REMARK INTER:                  -6.106
REMARK INTRA:                  -2.368
REMARK UNBOUND:                -2.094
REMARK SMILES CCCCCCCCCCCCCCC(=O)[O-]
REMARK SMILES IDX 9 1 10 2 11 3 12 4 13 5 14 6 15 7 16 8 17 9 8 10 7 11 6 12
REMARK SMILES IDX 5 13 4 14 3 15 2 16 1 17
REMARK H PARENT
REMARK Flexibility Score: inf
ROOT
ATOM      1  C   UNL     1      -8.886  -2.414 -37.763  1.00  0.00     0.000 C 
ENDROOT
BRANCH   1   2
ATOM      2  C   UNL     1      -8.524  -0.982 -37.348  1.00  0.00     0.000 C 
BRANCH   2   3
ATOM      3  C   UNL     1      -9.774  -0.197 -36.931  1.00  0.00     0.000 C 
BRANCH   3   4
ATOM      4  C   UNL     1     -10.076   0.927 -37.933  1.00  0.00     0.000 C 
BRANCH   4   5
ATOM      5  C   UNL     1      -8.825   1.728 -38.338  1.00  0.00     0.006 C 
BRANCH   5   6
ATOM      6  C   UNL     1      -8.956   2.448 -39.693  1.00  0.00     0.053 C 
BRANCH   6   7
ATOM      7  C   UNL     1      -7.630   2.790 -40.298  1.00  0.00     0.041 C 
ATOM      8  O   UNL     1      -6.920   3.703 -39.801  1.00  0.00    -0.550 OA
ATOM      9  O   UNL     1      -7.189   2.119 -41.433  1.00  0.00    -0.550 OA
ENDBRANCH   6   7
ENDBRANCH   5   6
ENDBRANCH   4   5
ENDBRANCH   3   4
ENDBRANCH   2   3
ENDBRANCH   1   2
BRANCH   1  10
ATOM     10  C   UNL     1      -8.647  -2.628 -39.265  1.00  0.00     0.000 C 
BRANCH  10  11
ATOM     11  C   UNL     1      -7.872  -1.470 -39.913  1.00  0.00    -0.000 C 
BRANCH  11  12
ATOM     12  C   UNL     1      -8.346  -1.170 -41.346  1.00  0.00    -0.000 C 
BRANCH  12  13
ATOM     13  C   UNL     1      -9.846  -1.445 -41.539  1.00  0.00    -0.000 C 
BRANCH  13  14
ATOM     14  C   UNL     1     -10.699  -0.168 -41.449  1.00  0.00    -0.000 C 
BRANCH  14  15
ATOM     15  C   UNL     1     -12.023  -0.388 -40.693  1.00  0.00    -0.000 C 
BRANCH  15  16
ATOM     16  C   UNL     1     -12.059  -1.649 -39.811  1.00  0.00    -0.003 C 
ATOM     17  C   UNL     1     -13.477  -2.152 -39.544  1.00  0.00     0.004 C 
ENDBRANCH  15  16
ENDBRANCH  14  15
ENDBRANCH  13  14
ENDBRANCH  12  13
ENDBRANCH  11  12
ENDBRANCH  10  11
ENDBRANCH   1  10
TORSDOF 13
ENDMDL
MODEL 6
REMARK VINA RESULT:    -3.608      3.955      5.474
REMARK INTER + INTRA:          -8.444
REMARK INTER:                  -7.075
REMARK INTRA:                  -1.368
REMARK UNBOUND:                -2.094
REMARK SMILES CCCCCCCCCCCCCCC(=O)[O-]
REMARK SMILES IDX 9 1 10 2 11 3 12 4 13 5 14 6 15 7 16 8 17 9 8 10 7 11 6 12
REMARK SMILES IDX 5 13 4 14 3 15 2 16 1 17
REMARK H PARENT
REMARK Flexibility Score: inf
ROOT
ATOM      1  C   UNL     1     -12.123   2.013 -41.085  1.00  0.00     0.000 C 
ENDROOT
BRANCH   1   2
ATOM      2  C   UNL     1     -11.552   3.254 -40.385  1.00  0.00     0.000 C 
BRANCH   2   3
ATOM      3  C   UNL     1     -12.477   4.464 -40.571  1.00  0.00     0.000 C 
BRANCH   3   4
ATOM      4  C   UNL     1     -12.850   4.650 -42.049  1.00  0.00     0.000 C 
BRANCH   4   5
ATOM      5  C   UNL     1     -14.348   4.934 -42.262  1.00  0.00     0.006 C 
BRANCH   5   6
ATOM      6  C   UNL     1     -15.010   5.699 -41.102  1.00  0.00     0.053 C 
BRANCH   6   7
ATOM      7  C   UNL     1     -16.215   4.997 -40.557  1.00  0.00     0.041 C 
ATOM      8  O   UNL     1     -16.200   3.749 -40.386  1.00  0.00    -0.550 OA
ATOM      9  O   UNL     1     -17.367   5.716 -40.265  1.00  0.00    -0.550 OA
ENDBRANCH   6   7
ENDBRANCH   5   6
ENDBRANCH   4   5
ENDBRANCH   3   4
ENDBRANCH   2   3
ENDBRANCH   1   2
BRANCH   1  10
ATOM     10  C   UNL     1     -10.998   1.055 -41.506  1.00  0.00     0.000 C 
BRANCH  10  11
ATOM     11  C   UNL     1      -9.765   1.150 -40.594  1.00  0.00    -0.000 C 
BRANCH  11  12
ATOM     12  C   UNL     1      -9.352  -0.215 -40.014  1.00  0.00    -0.000 C 
BRANCH  12  13
ATOM     13  C   UNL     1     -10.141  -1.380 -40.632  1.00  0.00    -0.000 C 
BRANCH  13  14
ATOM     14  C   UNL     1     -10.805  -2.275 -39.572  1.00  0.00    -0.000 C 
BRANCH  14  15
ATOM     15  C   UNL     1     -12.057  -1.631 -38.947  1.00  0.00    -0.000 C 
BRANCH  15  16
ATOM     16  C   UNL     1     -13.394  -2.148 -39.509  1.00  0.00    -0.003 C 
ATOM     17  C   UNL     1     -14.106  -1.124 -40.392  1.00  0.00     0.004 C 
ENDBRANCH  15  16
ENDBRANCH  14  15
ENDBRANCH  13  14
ENDBRANCH  12  13
ENDBRANCH  11  12
ENDBRANCH  10  11
ENDBRANCH   1  10
TORSDOF 13
ENDMDL
MODEL 7
REMARK VINA RESULT:    -3.596      2.679      4.934
REMARK INTER + INTRA:          -8.423
REMARK INTER:                  -6.785
REMARK INTRA:                  -1.638
REMARK UNBOUND:                -2.094
REMARK SMILES CCCCCCCCCCCCCCC(=O)[O-]
REMARK SMILES IDX 9 1 10 2 11 3 12 4 13 5 14 6 15 7 16 8 17 9 8 10 7 11 6 12
REMARK SMILES IDX 5 13 4 14 3 15 2 16 1 17
REMARK H PARENT
REMARK Flexibility Score: inf
ROOT
ATOM      1  C   UNL     1     -10.747   1.842 -35.251  1.00  0.00     0.000 C 
ENDROOT
BRANCH   1   2
ATOM      2  C   UNL     1      -9.639   2.454 -36.119  1.00  0.00     0.000 C 
BRANCH   2   3
ATOM      3  C   UNL     1     -10.152   2.757 -37.533  1.00  0.00     0.000 C 
BRANCH   3   4
ATOM      4  C   UNL     1      -9.019   2.649 -38.564  1.00  0.00     0.000 C 
BRANCH   4   5
ATOM      5  C   UNL     1      -9.485   2.079 -39.916  1.00  0.00     0.006 C 
BRANCH   5   6
ATOM      6  C   UNL     1     -11.014   2.043 -40.084  1.00  0.00     0.053 C 
BRANCH   6   7
ATOM      7  C   UNL     1     -11.488   2.852 -41.253  1.00  0.00     0.041 C 
ATOM      8  O   UNL     1     -12.637   3.368 -41.244  1.00  0.00    -0.550 OA
ATOM      9  O   UNL     1     -10.672   3.011 -42.366  1.00  0.00    -0.550 OA
ENDBRANCH   6   7
ENDBRANCH   5   6
ENDBRANCH   4   5
ENDBRANCH   3   4
ENDBRANCH   2   3
ENDBRANCH   1   2
BRANCH   1  10
ATOM     10  C   UNL     1     -10.997   0.376 -35.635  1.00  0.00     0.000 C 
BRANCH  10  11
ATOM     11  C   UNL     1      -9.697  -0.434 -35.764  1.00  0.00    -0.000 C 
BRANCH  11  12
ATOM     12  C   UNL     1      -9.532  -1.069 -37.157  1.00  0.00    -0.000 C 
BRANCH  12  13
ATOM     13  C   UNL     1     -10.758  -0.841 -38.057  1.00  0.00    -0.000 C 
BRANCH  13  14
ATOM     14  C   UNL     1     -10.858  -1.870 -39.195  1.00  0.00    -0.000 C 
BRANCH  14  15
ATOM     15  C   UNL     1     -12.026  -1.584 -40.157  1.00  0.00    -0.000 C 
BRANCH  15  16
ATOM     16  C   UNL     1     -13.421  -1.902 -39.588  1.00  0.00    -0.003 C 
ATOM     17  C   UNL     1     -14.550  -1.218 -40.357  1.00  0.00     0.004 C 
ENDBRANCH  15  16
ENDBRANCH  14  15
ENDBRANCH  13  14
ENDBRANCH  12  13
ENDBRANCH  11  12
ENDBRANCH  10  11
ENDBRANCH   1  10
TORSDOF 13
ENDMDL
MODEL 8
REMARK VINA RESULT:    -3.573      5.155      7.514
REMARK INTER + INTRA:          -8.383
REMARK INTER:                  -7.221
REMARK INTRA:                  -1.163
REMARK UNBOUND:                -2.094
REMARK SMILES CCCCCCCCCCCCCCC(=O)[O-]
REMARK SMILES IDX 9 1 10 2 11 3 12 4 13 5 14 6 15 7 16 8 17 9 8 10 7 11 6 12
REMARK SMILES IDX 5 13 4 14 3 15 2 16 1 17
REMARK H PARENT
REMARK Flexibility Score: inf
ROOT
ATOM      1  C   UNL     1     -12.519   4.052 -42.608  1.00  0.00     0.000 C 
ENDROOT
BRANCH   1   2
ATOM      2  C   UNL     1     -11.765   3.461 -41.410  1.00  0.00     0.000 C 
BRANCH   2   3
ATOM      3  C   UNL     1     -12.233   2.030 -41.116  1.00  0.00     0.000 C 
BRANCH   3   4
ATOM      4  C   UNL     1     -11.051   1.137 -40.711  1.00  0.00     0.000 C 
BRANCH   4   5
ATOM      5  C   UNL     1     -11.323  -0.362 -40.934  1.00  0.00     0.006 C 
BRANCH   5   6
ATOM      6  C   UNL     1     -11.784  -1.108 -39.669  1.00  0.00     0.053 C 
BRANCH   6   7
ATOM      7  C   UNL     1     -13.150  -1.706 -39.812  1.00  0.00     0.041 C 
ATOM      8  O   UNL     1     -14.059  -1.077 -40.415  1.00  0.00    -0.550 OA
ATOM      9  O   UNL     1     -13.429  -2.947 -39.254  1.00  0.00    -0.550 OA
ENDBRANCH   6   7
ENDBRANCH   5   6
ENDBRANCH   4   5
ENDBRANCH   3   4
ENDBRANCH   2   3
ENDBRANCH   1   2
BRANCH   1  10
ATOM     10  C   UNL     1     -13.288   5.318 -42.202  1.00  0.00     0.000 C 
BRANCH  10  11
ATOM     11  C   UNL     1     -13.905   5.213 -40.799  1.00  0.00    -0.000 C 
BRANCH  11  12
ATOM     12  C   UNL     1     -15.179   4.349 -40.776  1.00  0.00    -0.000 C 
BRANCH  12  13
ATOM     13  C   UNL     1     -16.458   5.190 -40.636  1.00  0.00    -0.000 C 
BRANCH  13  14
ATOM     14  C   UNL     1     -17.405   5.034 -41.838  1.00  0.00    -0.000 C 
BRANCH  14  15
ATOM     15  C   UNL     1     -17.335   6.227 -42.811  1.00  0.00    -0.000 C 
BRANCH  15  16
ATOM     16  C   UNL     1     -16.325   6.061 -43.961  1.00  0.00    -0.003 C 
ATOM     17  C   UNL     1     -16.409   4.694 -44.637  1.00  0.00     0.004 C 
ENDBRANCH  15  16
ENDBRANCH  14  15
ENDBRANCH  13  14
ENDBRANCH  12  13
ENDBRANCH  11  12
ENDBRANCH  10  11
ENDBRANCH   1  10
TORSDOF 13
ENDMDL
MODEL 9
REMARK VINA RESULT:    -3.522      4.151      5.717
REMARK INTER + INTRA:          -8.294
REMARK INTER:                  -7.040
REMARK INTRA:                  -1.253
REMARK UNBOUND:                -2.094
REMARK SMILES CCCCCCCCCCCCCCC(=O)[O-]
REMARK SMILES IDX 9 1 10 2 11 3 12 4 13 5 14 6 15 7 16 8 17 9 8 10 7 11 6 12
REMARK SMILES IDX 5 13 4 14 3 15 2 16 1 17
REMARK H PARENT
REMARK Flexibility Score: inf
ROOT
ATOM      1  C   UNL     1     -11.007   2.512 -41.736  1.00  0.00     0.000 C 
ENDROOT
BRANCH   1   2
ATOM      2  C   UNL     1     -12.106   3.519 -42.098  1.00  0.00     0.000 C 
BRANCH   2   3
ATOM      3  C   UNL     1     -13.042   3.764 -40.908  1.00  0.00     0.000 C 
BRANCH   3   4
ATOM      4  C   UNL     1     -13.655   5.171 -40.970  1.00  0.00     0.000 C 
BRANCH   4   5
ATOM      5  C   UNL     1     -15.125   5.169 -41.429  1.00  0.00     0.006 C 
BRANCH   5   6
ATOM      6  C   UNL     1     -16.100   4.572 -40.398  1.00  0.00     0.053 C 
BRANCH   6   7
ATOM      7  C   UNL     1     -17.423   4.207 -40.996  1.00  0.00     0.041 C 
ATOM      8  O   UNL     1     -18.039   5.026 -41.728  1.00  0.00    -0.550 OA
ATOM      9  O   UNL     1     -17.994   2.970 -40.721  1.00  0.00    -0.550 OA
ENDBRANCH   6   7
ENDBRANCH   5   6
ENDBRANCH   4   5
ENDBRANCH   3   4
ENDBRANCH   2   3
ENDBRANCH   1   2
BRANCH   1  10
ATOM     10  C   UNL     1     -11.480   1.557 -40.630  1.00  0.00     0.000 C 
BRANCH  10  11
ATOM     11  C   UNL     1     -11.593   0.101 -41.110  1.00  0.00    -0.000 C 
BRANCH  11  12
ATOM     12  C   UNL     1     -11.306  -0.915 -39.990  1.00  0.00    -0.000 C 
BRANCH  12  13
ATOM     13  C   UNL     1     -10.291  -1.988 -40.416  1.00  0.00    -0.000 C 
BRANCH  13  14
ATOM     14  C   UNL     1      -9.388  -1.526 -41.572  1.00  0.00    -0.000 C 
BRANCH  14  15
ATOM     15  C   UNL     1      -7.985  -1.101 -41.101  1.00  0.00    -0.000 C 
BRANCH  15  16
ATOM     16  C   UNL     1      -7.763   0.420 -41.029  1.00  0.00    -0.003 C 
ATOM     17  C   UNL     1      -7.835   0.967 -39.604  1.00  0.00     0.004 C 
ENDBRANCH  15  16
ENDBRANCH  14  15
ENDBRANCH  13  14
ENDBRANCH  12  13
ENDBRANCH  11  12
ENDBRANCH  10  11
ENDBRANCH   1  10
TORSDOF 13
ENDMDL
