MODEL 1
REMARK VINA RESULT:    -2.984      0.000      0.000
REMARK INTER + INTRA:          -3.071
REMARK INTER:                  -3.071
REMARK INTRA:                   0.000
REMARK UNBOUND:                 0.000
REMARK SMILES Nc1ncnc2nc[nH]c12
REMARK SMILES IDX 8 1 7 2 6 3 5 4 4 5 3 6 2 7 10 8 9 9 1 11
REMARK H PARENT 9 10 1 12 1 13
REMARK Flexibility Score: inf
ROOT
ATOM      1  C   UNL     1      37.135  25.467  21.234  1.00  0.00     0.199 A 
ATOM      2  N   UNL     1      36.897  26.174  22.372  1.00  0.00    -0.217 NA
ATOM      3  C   UNL     1      37.027  27.443  21.952  1.00  0.00     0.182 A 
ATOM      4  N   UNL     1      36.887  28.561  22.704  1.00  0.00    -0.215 NA
ATOM      5  C   UNL     1      37.059  29.774  22.094  1.00  0.00     0.226 A 
ATOM      6  N   UNL     1      37.362  29.844  20.759  1.00  0.00    -0.217 NA
ATOM      7  C   UNL     1      37.503  28.717  19.999  1.00  0.00     0.152 A 
ATOM      8  C   UNL     1      37.326  27.491  20.634  1.00  0.00     0.127 A 
ATOM      9  N   UNL     1      37.400  26.244  20.154  1.00  0.00    -0.340 N 
ATOM     10  H   UNL     1      37.611  25.930  19.181  1.00  0.00     0.168 HD
ENDROOT
BRANCH   7  11
ATOM     11  N   UNL     1      37.820  28.816  18.610  1.00  0.00    -0.382 N 
ATOM     12  H   UNL     1      38.248  29.690  18.233  1.00  0.00     0.158 HD
ATOM     13  H   UNL     1      37.632  28.028  17.952  1.00  0.00     0.158 HD
ENDBRANCH   7  11
TORSDOF 1
ENDMDL
MODEL 2
REMARK VINA RESULT:    -2.898      7.754      9.874
REMARK INTER + INTRA:          -2.982
REMARK INTER:                  -2.982
REMARK INTRA:                   0.000
REMARK UNBOUND:                 0.000
REMARK SMILES Nc1ncnc2nc[nH]c12
REMARK SMILES IDX 8 1 7 2 6 3 5 4 4 5 3 6 2 7 10 8 9 9 1 11
REMARK H PARENT 9 10 1 12 1 13
REMARK Flexibility Score: inf
ROOT
ATOM      1  C   UNL     1      36.952  30.107  10.212  1.00  0.00     0.199 A 
ATOM      2  N   UNL     1      37.080  28.831   9.756  1.00  0.00    -0.217 NA
ATOM      3  C   UNL     1      37.102  28.122  10.897  1.00  0.00     0.182 A 
ATOM      4  N   UNL     1      37.215  26.777  11.009  1.00  0.00    -0.215 NA
ATOM      5  C   UNL     1      37.219  26.233  12.265  1.00  0.00     0.226 A 
ATOM      6  N   UNL     1      37.109  27.035  13.371  1.00  0.00    -0.217 NA
ATOM      7  C   UNL     1      36.994  28.393  13.259  1.00  0.00     0.152 A 
ATOM      8  C   UNL     1      36.992  28.931  11.975  1.00  0.00     0.127 A 
ATOM      9  N   UNL     1      36.895  30.201  11.564  1.00  0.00    -0.340 N 
ATOM     10  H   UNL     1      36.798  31.067  12.138  1.00  0.00     0.168 HD
ENDROOT
BRANCH   7  11
ATOM     11  N   UNL     1      36.881  29.208  14.426  1.00  0.00    -0.382 N 
ATOM     12  H   UNL     1      37.374  30.128  14.470  1.00  0.00     0.158 HD
ATOM     13  H   UNL     1      36.311  28.908  15.247  1.00  0.00     0.158 HD
ENDBRANCH   7  11
TORSDOF 1
ENDMDL
MODEL 3
REMARK VINA RESULT:    -2.727     21.800     22.700
REMARK INTER + INTRA:          -2.807
REMARK INTER:                  -2.807
REMARK INTRA:                   0.000
REMARK UNBOUND:                 0.000
REMARK SMILES Nc1ncnc2nc[nH]c12
REMARK SMILES IDX 8 1 7 2 6 3 5 4 4 5 3 6 2 7 10 8 9 9 1 11
REMARK H PARENT 9 10 1 12 1 13
REMARK Flexibility Score: inf
ROOT
ATOM      1  C   UNL     1      55.930  13.356  19.299  1.00  0.00     0.199 A 
ATOM      2  N   UNL     1      54.875  12.878  20.014  1.00  0.00    -0.217 NA
ATOM      3  C   UNL     1      54.863  13.691  21.083  1.00  0.00     0.182 A 
ATOM      4  N   UNL     1      53.995  13.647  22.122  1.00  0.00    -0.215 NA
ATOM      5  C   UNL     1      54.142  14.566  23.125  1.00  0.00     0.226 A 
ATOM      6  N   UNL     1      55.143  15.502  23.070  1.00  0.00    -0.217 NA
ATOM      7  C   UNL     1      56.019  15.548  22.022  1.00  0.00     0.152 A 
ATOM      8  C   UNL     1      55.856  14.607  21.009  1.00  0.00     0.127 A 
ATOM      9  N   UNL     1      56.550  14.413  19.881  1.00  0.00    -0.340 N 
ATOM     10  H   UNL     1      57.374  14.943  19.523  1.00  0.00     0.168 HD
ENDROOT
BRANCH   7  11
ATOM     11  N   UNL     1      57.053  16.532  21.986  1.00  0.00    -0.382 N 
ATOM     12  H   UNL     1      57.753  16.582  22.760  1.00  0.00     0.158 HD
ATOM     13  H   UNL     1      57.130  17.212  21.199  1.00  0.00     0.158 HD
ENDBRANCH   7  11
TORSDOF 1
ENDMDL
MODEL 4
REMARK VINA RESULT:    -2.697     21.993     23.194
REMARK INTER + INTRA:          -2.776
REMARK INTER:                  -2.776
REMARK INTRA:                   0.000
REMARK UNBOUND:                 0.000
REMARK SMILES Nc1ncnc2nc[nH]c12
REMARK SMILES IDX 8 1 7 2 6 3 5 4 4 5 3 6 2 7 10 8 9 9 1 11
REMARK H PARENT 9 10 1 12 1 13
REMARK Flexibility Score: inf
ROOT
ATOM      1  C   UNL     1      55.692  13.946  18.795  1.00  0.00     0.199 A 
ATOM      2  N   UNL     1      56.733  13.997  19.670  1.00  0.00    -0.217 NA
ATOM      3  C   UNL     1      56.141  13.686  20.835  1.00  0.00     0.182 A 
ATOM      4  N   UNL     1      56.740  13.594  22.046  1.00  0.00    -0.215 NA
ATOM      5  C   UNL     1      55.966  13.262  23.125  1.00  0.00     0.226 A 
ATOM      6  N   UNL     1      54.623  13.030  22.973  1.00  0.00    -0.217 NA
ATOM      7  C   UNL     1      54.017  13.122  21.752  1.00  0.00     0.152 A 
ATOM      8  C   UNL     1      54.818  13.460  20.664  1.00  0.00     0.127 A 
ATOM      9  N   UNL     1      54.508  13.620  19.371  1.00  0.00    -0.340 N 
ATOM     10  H   UNL     1      53.580  13.521  18.906  1.00  0.00     0.168 HD
ENDROOT
BRANCH   7  11
ATOM     11  N   UNL     1      52.617  12.875  21.618  1.00  0.00    -0.382 N 
ATOM     12  H   UNL     1      52.001  13.592  21.173  1.00  0.00     0.158 HD
ATOM     13  H   UNL     1      52.186  11.987  21.956  1.00  0.00     0.158 HD
ENDBRANCH   7  11
TORSDOF 1
ENDMDL
MODEL 5
REMARK VINA RESULT:    -2.687     22.051     22.835
REMARK INTER + INTRA:          -2.766
REMARK INTER:                  -2.766
REMARK INTRA:                   0.000
REMARK UNBOUND:                 0.000
REMARK SMILES Nc1ncnc2nc[nH]c12
REMARK SMILES IDX 8 1 7 2 6 3 5 4 4 5 3 6 2 7 10 8 9 9 1 11
REMARK H PARENT 9 10 1 12 1 13
REMARK Flexibility Score: inf
ROOT
ATOM      1  C   UNL     1      56.925  15.967  22.519  1.00  0.00     0.199 A 
ATOM      2  N   UNL     1      55.806  15.484  23.124  1.00  0.00    -0.217 NA
ATOM      3  C   UNL     1      55.275  14.709  22.164  1.00  0.00     0.182 A 
ATOM      4  N   UNL     1      54.135  13.983  22.250  1.00  0.00    -0.215 NA
ATOM      5  C   UNL     1      53.753  13.250  21.159  1.00  0.00     0.226 A 
ATOM      6  N   UNL     1      54.511  13.256  20.017  1.00  0.00    -0.217 NA
ATOM      7  C   UNL     1      55.662  13.987  19.928  1.00  0.00     0.152 A 
ATOM      8  C   UNL     1      56.038  14.727  21.046  1.00  0.00     0.127 A 
ATOM      9  N   UNL     1      57.095  15.522  21.248  1.00  0.00    -0.340 N 
ATOM     10  H   UNL     1      57.873  15.754  20.592  1.00  0.00     0.168 HD
ENDROOT
BRANCH   7  11
ATOM     11  N   UNL     1      56.436  13.977  18.728  1.00  0.00    -0.382 N 
ATOM     12  H   UNL     1      57.002  14.814  18.465  1.00  0.00     0.158 HD
ATOM     13  H   UNL     1      56.452  13.145  18.098  1.00  0.00     0.158 HD
ENDBRANCH   7  11
TORSDOF 1
ENDMDL
MODEL 6
REMARK VINA RESULT:    -2.668      0.737      2.427
REMARK INTER + INTRA:          -2.746
REMARK INTER:                  -2.746
REMARK INTRA:                   0.000
REMARK UNBOUND:                 0.000
REMARK SMILES Nc1ncnc2nc[nH]c12
REMARK SMILES IDX 8 1 7 2 6 3 5 4 4 5 3 6 2 7 10 8 9 9 1 11
REMARK H PARENT 9 10 1 12 1 13
REMARK Flexibility Score: inf
ROOT
ATOM      1  C   UNL     1      37.238  25.693  21.441  1.00  0.00     0.199 A 
ATOM      2  N   UNL     1      37.233  26.053  20.128  1.00  0.00    -0.217 NA
ATOM      3  C   UNL     1      37.240  27.394  20.201  1.00  0.00     0.182 A 
ATOM      4  N   UNL     1      37.240  28.259  19.159  1.00  0.00    -0.215 NA
ATOM      5  C   UNL     1      37.249  29.599  19.433  1.00  0.00     0.226 A 
ATOM      6  N   UNL     1      37.259  30.044  20.730  1.00  0.00    -0.217 NA
ATOM      7  C   UNL     1      37.259  29.173  21.782  1.00  0.00     0.152 A 
ATOM      8  C   UNL     1      37.250  27.812  21.487  1.00  0.00     0.127 A 
ATOM      9  N   UNL     1      37.249  26.746  22.296  1.00  0.00    -0.340 N 
ATOM     10  H   UNL     1      37.254  26.719  23.339  1.00  0.00     0.168 HD
ENDROOT
BRANCH   7  11
ATOM     11  N   UNL     1      37.270  29.660  23.125  1.00  0.00    -0.382 N 
ATOM     12  H   UNL     1      37.742  29.108  23.876  1.00  0.00     0.158 HD
ATOM     13  H   UNL     1      36.814  30.562  23.380  1.00  0.00     0.158 HD
ENDBRANCH   7  11
TORSDOF 1
ENDMDL
MODEL 7
REMARK VINA RESULT:    -1.742      8.456      9.567
REMARK INTER + INTRA:          -1.793
REMARK INTER:                  -1.793
REMARK INTRA:                   0.000
REMARK UNBOUND:                 0.000
REMARK SMILES Nc1ncnc2nc[nH]c12
REMARK SMILES IDX 8 1 7 2 6 3 5 4 4 5 3 6 2 7 10 8 9 9 1 11
REMARK H PARENT 9 10 1 12 1 13
REMARK Flexibility Score: inf
ROOT
ATOM      1  C   UNL     1      37.108  25.922  11.937  1.00  0.00     0.199 A 
ATOM      2  N   UNL     1      37.010  26.737  13.022  1.00  0.00    -0.217 NA
ATOM      3  C   UNL     1      36.982  27.957  12.462  1.00  0.00     0.182 A 
ATOM      4  N   UNL     1      36.889  29.142  13.111  1.00  0.00    -0.215 NA
ATOM      5  C   UNL     1      36.875  30.288  12.363  1.00  0.00     0.226 A 
ATOM      6  N   UNL     1      36.951  30.227  10.995  1.00  0.00    -0.217 NA
ATOM      7  C   UNL     1      37.045  29.032  10.339  1.00  0.00     0.152 A 
ATOM      8  C   UNL     1      37.058  27.875  11.114  1.00  0.00     0.127 A 
ATOM      9  N   UNL     1      37.139  26.588  10.755  1.00  0.00    -0.340 N 
ATOM     10  H   UNL     1      37.210  26.181   9.797  1.00  0.00     0.168 HD
ENDROOT
BRANCH   7  11
ATOM     11  N   UNL     1      37.123  28.993   8.913  1.00  0.00    -0.382 N 
ATOM     12  H   UNL     1      38.011  28.703   8.447  1.00  0.00     0.158 HD
ATOM     13  H   UNL     1      36.307  29.250   8.316  1.00  0.00     0.158 HD
ENDBRANCH   7  11
TORSDOF 1
ENDMDL
MODEL 8
REMARK VINA RESULT:    -1.428      7.860      9.747
REMARK INTER + INTRA:          -1.470
REMARK INTER:                  -1.470
REMARK INTRA:                   0.000
REMARK UNBOUND:                 0.000
REMARK SMILES Nc1ncnc2nc[nH]c12
REMARK SMILES IDX 8 1 7 2 6 3 5 4 4 5 3 6 2 7 10 8 9 9 1 11
REMARK H PARENT 9 10 1 12 1 13
REMARK Flexibility Score: inf
ROOT
ATOM      1  C   UNL     1      37.214  29.006   9.481  1.00  0.00     0.199 A 
ATOM      2  N   UNL     1      37.025  29.962  10.431  1.00  0.00    -0.217 NA
ATOM      3  C   UNL     1      37.028  29.241  11.565  1.00  0.00     0.182 A 
ATOM      4  N   UNL     1      36.875  29.716  12.824  1.00  0.00    -0.215 NA
ATOM      5  C   UNL     1      36.907  28.822  13.859  1.00  0.00     0.226 A 
ATOM      6  N   UNL     1      37.090  27.485  13.618  1.00  0.00    -0.217 NA
ATOM      7  C   UNL     1      37.244  27.004  12.348  1.00  0.00     0.152 A 
ATOM      8  C   UNL     1      37.210  27.926  11.306  1.00  0.00     0.127 A 
ATOM      9  N   UNL     1      37.331  27.751   9.984  1.00  0.00    -0.340 N 
ATOM     10  H   UNL     1      37.480  26.864   9.455  1.00  0.00     0.168 HD
ENDROOT
BRANCH   7  11
ATOM     11  N   UNL     1      37.434  25.607  12.122  1.00  0.00    -0.382 N 
ATOM     12  H   UNL     1      37.950  25.030  12.823  1.00  0.00     0.158 HD
ATOM     13  H   UNL     1      37.067  25.140  11.264  1.00  0.00     0.158 HD
ENDBRANCH   7  11
TORSDOF 1
ENDMDL
