MODEL 1
REMARK VINA RESULT:    -5.209      0.000      0.000
REMARK INTER + INTRA:         -13.734
REMARK INTER:                 -11.300
REMARK INTRA:                  -2.435
REMARK UNBOUND:                -2.435
REMARK SMILES CCCCCCCCCCCCCCCCCCCCCC(=O)[O-]
REMARK SMILES IDX 12 1 11 2 10 3 9 4 8 5 7 6 6 7 5 8 4 9 3 10 2 11 1 12 13 13
REMARK SMILES IDX 14 14 15 15 16 16 17 17 18 18 19 19 20 20 21 21 22 22 23 23
REMARK SMILES IDX 24 24
REMARK H PARENT
REMARK Flexibility Score: inf
ROOT
ATOM      1  C   UNL     1      11.269 -24.785  20.832  1.00  0.00     0.000 C 
ENDROOT
BRANCH   1   2
ATOM      2  C   UNL     1      10.358 -25.415  21.896  1.00  0.00     0.000 C 
BRANCH   2   3
ATOM      3  C   UNL     1       9.020 -24.673  22.045  1.00  0.00     0.000 C 
BRANCH   3   4
ATOM      4  C   UNL     1       8.827 -24.178  23.486  1.00  0.00    -0.000 C 
BRANCH   4   5
ATOM      5  C   UNL     1       9.554 -25.053  24.520  1.00  0.00    -0.000 C 
BRANCH   5   6
ATOM      6  C   UNL     1       9.580 -24.415  25.921  1.00  0.00    -0.000 C 
BRANCH   6   7
ATOM      7  C   UNL     1      10.973 -24.459  26.576  1.00  0.00    -0.000 C 
BRANCH   7   8
ATOM      8  C   UNL     1      11.637 -23.086  26.792  1.00  0.00    -0.000 C 
BRANCH   8   9
ATOM      9  C   UNL     1      11.078 -21.997  25.859  1.00  0.00    -0.000 C 
BRANCH   9  10
ATOM     10  C   UNL     1      11.911 -21.828  24.574  1.00  0.00    -0.000 C 
BRANCH  10  11
ATOM     11  C   UNL     1      13.355 -22.354  24.666  1.00  0.00    -0.003 C 
ATOM     12  C   UNL     1      14.334 -21.578  23.785  1.00  0.00     0.004 C 
ENDBRANCH  10  11
ENDBRANCH   9  10
ENDBRANCH   8   9
ENDBRANCH   7   8
ENDBRANCH   6   7
ENDBRANCH   5   6
ENDBRANCH   4   5
ENDBRANCH   3   4
ENDBRANCH   2   3
ENDBRANCH   1   2
BRANCH   1  13
ATOM     13  C   UNL     1      12.237 -23.745  21.422  1.00  0.00     0.000 C 
BRANCH  13  14
ATOM     14  C   UNL     1      12.838 -22.828  20.337  1.00  0.00     0.000 C 
BRANCH  14  15
ATOM     15  C   UNL     1      14.307 -23.144  20.003  1.00  0.00     0.000 C 
BRANCH  15  16
ATOM     16  C   UNL     1      14.937 -24.157  20.972  1.00  0.00     0.000 C 
BRANCH  16  17
ATOM     17  C   UNL     1      15.237 -25.485  20.262  1.00  0.00     0.000 C 
BRANCH  17  18
ATOM     18  C   UNL     1      15.276 -26.683  21.227  1.00  0.00     0.000 C 
BRANCH  18  19
ATOM     19  C   UNL     1      16.298 -26.564  22.377  1.00  0.00     0.000 C 
BRANCH  19  20
ATOM     20  C   UNL     1      16.601 -27.877  23.119  1.00  0.00     0.006 C 
BRANCH  20  21
ATOM     21  C   UNL     1      15.652 -29.017  22.728  1.00  0.00     0.053 C 
BRANCH  21  22
ATOM     22  C   UNL     1      16.198 -30.331  23.190  1.00  0.00     0.041 C 
ATOM     23  O   UNL     1      17.028 -30.374  24.136  1.00  0.00    -0.550 OA
ATOM     24  O   UNL     1      15.749 -31.513  22.611  1.00  0.00    -0.550 OA
ENDBRANCH  21  22
ENDBRANCH  20  21
ENDBRANCH  19  20
ENDBRANCH  18  19
ENDBRANCH  17  18
ENDBRANCH  16  17
ENDBRANCH  15  16
ENDBRANCH  14  15
ENDBRANCH  13  14
ENDBRANCH   1  13
TORSDOF 20
ENDMDL
MODEL 2
REMARK VINA RESULT:    -5.000      2.660      7.073
REMARK INTER + INTRA:         -13.281
REMARK INTER:                 -11.329
REMARK INTRA:                  -1.952
REMARK UNBOUND:                -2.435
REMARK SMILES CCCCCCCCCCCCCCCCCCCCCC(=O)[O-]
REMARK SMILES IDX 12 1 11 2 10 3 9 4 8 5 7 6 6 7 5 8 4 9 3 10 2 11 1 12 13 13
REMARK SMILES IDX 14 14 15 15 16 16 17 17 18 18 19 19 20 20 21 21 22 22 23 23
REMARK SMILES IDX 24 24
REMARK H PARENT
REMARK Flexibility Score: inf
ROOT
ATOM      1  C   UNL     1      11.249 -24.437  20.632  1.00  0.00     0.000 C 
ENDROOT
BRANCH   1   2
ATOM      2  C   UNL     1      12.441 -23.635  21.174  1.00  0.00     0.000 C 
BRANCH   2   3
ATOM      3  C   UNL     1      13.187 -22.866  20.073  1.00  0.00     0.000 C 
BRANCH   3   4
ATOM      4  C   UNL     1      14.701 -23.106  20.170  1.00  0.00    -0.000 C 
BRANCH   4   5
ATOM      5  C   UNL     1      15.196 -24.200  19.210  1.00  0.00    -0.000 C 
BRANCH   5   6
ATOM      6  C   UNL     1      15.008 -25.616  19.781  1.00  0.00    -0.000 C 
BRANCH   6   7
ATOM      7  C   UNL     1      15.412 -25.726  21.264  1.00  0.00    -0.000 C 
BRANCH   7   8
ATOM      8  C   UNL     1      15.600 -27.162  21.785  1.00  0.00    -0.000 C 
BRANCH   8   9
ATOM      9  C   UNL     1      16.569 -27.245  22.978  1.00  0.00    -0.000 C 
BRANCH   9  10
ATOM     10  C   UNL     1      16.566 -28.628  23.654  1.00  0.00    -0.000 C 
BRANCH  10  11
ATOM     11  C   UNL     1      15.394 -29.542  23.253  1.00  0.00    -0.003 C 
ATOM     12  C   UNL     1      15.848 -30.864  22.634  1.00  0.00     0.004 C 
ENDBRANCH  10  11
ENDBRANCH   9  10
ENDBRANCH   8   9
ENDBRANCH   7   8
ENDBRANCH   6   7
ENDBRANCH   5   6
ENDBRANCH   4   5
ENDBRANCH   3   4
ENDBRANCH   2   3
ENDBRANCH   1   2
BRANCH   1  13
ATOM     13  C   UNL     1      10.875 -25.627  21.534  1.00  0.00     0.000 C 
BRANCH  13  14
ATOM     14  C   UNL     1       9.669 -25.312  22.442  1.00  0.00     0.000 C 
BRANCH  14  15
ATOM     15  C   UNL     1       9.731 -23.920  23.094  1.00  0.00     0.000 C 
BRANCH  15  16
ATOM     16  C   UNL     1       8.977 -23.849  24.431  1.00  0.00     0.000 C 
BRANCH  16  17
ATOM     17  C   UNL     1       9.773 -24.538  25.549  1.00  0.00     0.000 C 
BRANCH  17  18
ATOM     18  C   UNL     1      10.343 -23.543  26.577  1.00  0.00     0.000 C 
BRANCH  18  19
ATOM     19  C   UNL     1      11.860 -23.288  26.467  1.00  0.00     0.000 C 
BRANCH  19  20
ATOM     20  C   UNL     1      12.316 -22.621  25.157  1.00  0.00     0.006 C 
BRANCH  20  21
ATOM     21  C   UNL     1      13.510 -23.333  24.509  1.00  0.00     0.053 C 
BRANCH  21  22
ATOM     22  C   UNL     1      14.461 -22.333  23.931  1.00  0.00     0.041 C 
ATOM     23  O   UNL     1      14.189 -21.103  23.971  1.00  0.00    -0.550 OA
ATOM     24  O   UNL     1      15.674 -22.754  23.396  1.00  0.00    -0.550 OA
ENDBRANCH  21  22
ENDBRANCH  20  21
ENDBRANCH  19  20
ENDBRANCH  18  19
ENDBRANCH  17  18
ENDBRANCH  16  17
ENDBRANCH  15  16
ENDBRANCH  14  15
ENDBRANCH  13  14
ENDBRANCH   1  13
TORSDOF 20
ENDMDL
MODEL 3
REMARK VINA RESULT:    -4.958      1.339      2.274
REMARK INTER + INTRA:         -13.190
REMARK INTER:                 -10.450
REMARK INTRA:                  -2.741
REMARK UNBOUND:                -2.435
REMARK SMILES CCCCCCCCCCCCCCCCCCCCCC(=O)[O-]
REMARK SMILES IDX 12 1 11 2 10 3 9 4 8 5 7 6 6 7 5 8 4 9 3 10 2 11 1 12 13 13
REMARK SMILES IDX 14 14 15 15 16 16 17 17 18 18 19 19 20 20 21 21 22 22 23 23
REMARK SMILES IDX 24 24
REMARK H PARENT
REMARK Flexibility Score: inf
ROOT
ATOM      1  C   UNL     1      10.355 -25.237  21.851  1.00  0.00     0.000 C 
ENDROOT
BRANCH   1   2
ATOM      2  C   UNL     1       9.190 -24.671  22.676  1.00  0.00     0.000 C 
BRANCH   2   3
ATOM      3  C   UNL     1       9.531 -24.536  24.167  1.00  0.00     0.000 C 
BRANCH   3   4
ATOM      4  C   UNL     1       9.103 -23.162  24.703  1.00  0.00    -0.000 C 
BRANCH   4   5
ATOM      5  C   UNL     1      10.291 -22.310  25.179  1.00  0.00    -0.000 C 
BRANCH   5   6
ATOM      6  C   UNL     1      11.374 -23.146  25.883  1.00  0.00    -0.000 C 
BRANCH   6   7
ATOM      7  C   UNL     1      12.794 -22.850  25.365  1.00  0.00    -0.000 C 
BRANCH   7   8
ATOM      8  C   UNL     1      12.868 -21.860  24.188  1.00  0.00    -0.000 C 
BRANCH   8   9
ATOM      9  C   UNL     1      14.309 -21.458  23.832  1.00  0.00    -0.000 C 
BRANCH   9  10
ATOM     10  C   UNL     1      15.297 -22.636  23.920  1.00  0.00    -0.000 C 
BRANCH  10  11
ATOM     11  C   UNL     1      16.710 -22.259  24.401  1.00  0.00    -0.003 C 
ATOM     12  C   UNL     1      17.819 -22.914  23.576  1.00  0.00     0.004 C 
ENDBRANCH  10  11
ENDBRANCH   9  10
ENDBRANCH   8   9
ENDBRANCH   7   8
ENDBRANCH   6   7
ENDBRANCH   5   6
ENDBRANCH   4   5
ENDBRANCH   3   4
ENDBRANCH   2   3
ENDBRANCH   1   2
BRANCH   1  13
ATOM     13  C   UNL     1      11.584 -24.311  21.849  1.00  0.00     0.000 C 
BRANCH  13  14
ATOM     14  C   UNL     1      12.150 -24.098  20.429  1.00  0.00     0.000 C 
BRANCH  14  15
ATOM     15  C   UNL     1      13.168 -22.948  20.335  1.00  0.00     0.000 C 
BRANCH  15  16
ATOM     16  C   UNL     1      14.621 -23.420  20.494  1.00  0.00     0.000 C 
BRANCH  16  17
ATOM     17  C   UNL     1      14.887 -24.678  19.655  1.00  0.00     0.000 C 
BRANCH  17  18
ATOM     18  C   UNL     1      15.260 -25.901  20.512  1.00  0.00     0.000 C 
BRANCH  18  19
ATOM     19  C   UNL     1      15.781 -25.574  21.927  1.00  0.00     0.000 C 
BRANCH  19  20
ATOM     20  C   UNL     1      16.563 -26.708  22.613  1.00  0.00     0.006 C 
BRANCH  20  21
ATOM     21  C   UNL     1      15.791 -28.033  22.641  1.00  0.00     0.053 C 
BRANCH  21  22
ATOM     22  C   UNL     1      16.315 -28.917  23.729  1.00  0.00     0.041 C 
ATOM     23  O   UNL     1      15.529 -29.659  24.376  1.00  0.00    -0.550 OA
ATOM     24  O   UNL     1      17.680 -28.961  23.994  1.00  0.00    -0.550 OA
ENDBRANCH  21  22
ENDBRANCH  20  21
ENDBRANCH  19  20
ENDBRANCH  18  19
ENDBRANCH  17  18
ENDBRANCH  16  17
ENDBRANCH  15  16
ENDBRANCH  14  15
ENDBRANCH  13  14
ENDBRANCH   1  13
TORSDOF 20
ENDMDL
MODEL 4
REMARK VINA RESULT:    -4.956      2.799      7.265
REMARK INTER + INTRA:         -13.185
REMARK INTER:                 -11.100
REMARK INTRA:                  -2.084
REMARK UNBOUND:                -2.435
REMARK SMILES CCCCCCCCCCCCCCCCCCCCCC(=O)[O-]
REMARK SMILES IDX 12 1 11 2 10 3 9 4 8 5 7 6 6 7 5 8 4 9 3 10 2 11 1 12 13 13
REMARK SMILES IDX 14 14 15 15 16 16 17 17 18 18 19 19 20 20 21 21 22 22 23 23
REMARK SMILES IDX 24 24
REMARK H PARENT
REMARK Flexibility Score: inf
ROOT
ATOM      1  C   UNL     1      12.558 -22.934  22.159  1.00  0.00     0.000 C 
ENDROOT
BRANCH   1   2
ATOM      2  C   UNL     1      12.633 -23.324  20.675  1.00  0.00     0.000 C 
BRANCH   2   3
ATOM      3  C   UNL     1      13.978 -22.954  20.033  1.00  0.00     0.000 C 
BRANCH   3   4
ATOM      4  C   UNL     1      14.856 -24.201  19.847  1.00  0.00    -0.000 C 
BRANCH   4   5
ATOM      5  C   UNL     1      14.420 -25.376  20.736  1.00  0.00    -0.000 C 
BRANCH   5   6
ATOM      6  C   UNL     1      15.530 -26.427  20.915  1.00  0.00    -0.000 C 
BRANCH   6   7
ATOM      7  C   UNL     1      16.235 -26.331  22.281  1.00  0.00    -0.000 C 
BRANCH   7   8
ATOM      8  C   UNL     1      16.713 -27.674  22.864  1.00  0.00    -0.000 C 
BRANCH   8   9
ATOM      9  C   UNL     1      15.891 -28.124  24.084  1.00  0.00    -0.000 C 
BRANCH   9  10
ATOM     10  C   UNL     1      15.694 -29.650  24.142  1.00  0.00    -0.000 C 
BRANCH  10  11
ATOM     11  C   UNL     1      15.284 -30.299  22.807  1.00  0.00    -0.003 C 
ATOM     12  C   UNL     1      16.222 -31.425  22.373  1.00  0.00     0.004 C 
ENDBRANCH  10  11
ENDBRANCH   9  10
ENDBRANCH   8   9
ENDBRANCH   7   8
ENDBRANCH   6   7
ENDBRANCH   5   6
ENDBRANCH   4   5
ENDBRANCH   3   4
ENDBRANCH   2   3
ENDBRANCH   1   2
BRANCH   1  13
ATOM     13  C   UNL     1      13.831 -22.222  22.649  1.00  0.00     0.000 C 
BRANCH  13  14
ATOM     14  C   UNL     1      14.247 -22.680  24.062  1.00  0.00     0.000 C 
BRANCH  14  15
ATOM     15  C   UNL     1      13.141 -23.436  24.818  1.00  0.00     0.000 C 
BRANCH  15  16
ATOM     16  C   UNL     1      12.687 -22.713  26.096  1.00  0.00     0.000 C 
BRANCH  16  17
ATOM     17  C   UNL     1      11.890 -23.656  27.008  1.00  0.00     0.000 C 
BRANCH  17  18
ATOM     18  C   UNL     1      10.630 -24.224  26.329  1.00  0.00     0.000 C 
BRANCH  18  19
ATOM     19  C   UNL     1       9.711 -23.172  25.673  1.00  0.00     0.000 C 
BRANCH  19  20
ATOM     20  C   UNL     1       9.276 -23.493  24.232  1.00  0.00     0.006 C 
BRANCH  20  21
ATOM     21  C   UNL     1       9.396 -24.984  23.891  1.00  0.00     0.053 C 
BRANCH  21  22
ATOM     22  C   UNL     1       9.327 -25.186  22.410  1.00  0.00     0.041 C 
ATOM     23  O   UNL     1      10.236 -25.822  21.815  1.00  0.00    -0.550 OA
ATOM     24  O   UNL     1       8.230 -24.718  21.695  1.00  0.00    -0.550 OA
ENDBRANCH  21  22
ENDBRANCH  20  21
ENDBRANCH  19  20
ENDBRANCH  18  19
ENDBRANCH  17  18
ENDBRANCH  16  17
ENDBRANCH  15  16
ENDBRANCH  14  15
ENDBRANCH  13  14
ENDBRANCH   1  13
TORSDOF 20
ENDMDL
MODEL 5
REMARK VINA RESULT:    -4.854      2.819      7.554
REMARK INTER + INTRA:         -12.963
REMARK INTER:                 -10.864
REMARK INTRA:                  -2.099
REMARK UNBOUND:                -2.435
REMARK SMILES CCCCCCCCCCCCCCCCCCCCCC(=O)[O-]
REMARK SMILES IDX 12 1 11 2 10 3 9 4 8 5 7 6 6 7 5 8 4 9 3 10 2 11 1 12 13 13
REMARK SMILES IDX 14 14 15 15 16 16 17 17 18 18 19 19 20 20 21 21 22 22 23 23
REMARK SMILES IDX 24 24
REMARK H PARENT
REMARK Flexibility Score: inf
ROOT
ATOM      1  C   UNL     1      13.155 -22.833  20.010  1.00  0.00     0.000 C 
ENDROOT
BRANCH   1   2
ATOM      2  C   UNL     1      14.450 -23.649  20.134  1.00  0.00     0.000 C 
BRANCH   2   3
ATOM      3  C   UNL     1      15.356 -23.154  21.272  1.00  0.00     0.000 C 
BRANCH   3   4
ATOM      4  C   UNL     1      15.654 -24.287  22.265  1.00  0.00    -0.000 C 
BRANCH   4   5
ATOM      5  C   UNL     1      15.572 -25.681  21.622  1.00  0.00    -0.000 C 
BRANCH   5   6
ATOM      6  C   UNL     1      16.450 -26.718  22.344  1.00  0.00    -0.000 C 
BRANCH   6   7
ATOM      7  C   UNL     1      15.686 -28.006  22.706  1.00  0.00    -0.000 C 
BRANCH   7   8
ATOM      8  C   UNL     1      16.031 -28.605  24.082  1.00  0.00    -0.000 C 
BRANCH   8   9
ATOM      9  C   UNL     1      16.022 -30.144  24.084  1.00  0.00    -0.000 C 
BRANCH   9  10
ATOM     10  C   UNL     1      15.636 -30.741  22.718  1.00  0.00    -0.000 C 
BRANCH  10  11
ATOM     11  C   UNL     1      16.390 -32.029  22.340  1.00  0.00    -0.003 C 
ATOM     12  C   UNL     1      17.814 -32.076  22.894  1.00  0.00     0.004 C 
ENDBRANCH  10  11
ENDBRANCH   9  10
ENDBRANCH   8   9
ENDBRANCH   7   8
ENDBRANCH   6   7
ENDBRANCH   5   6
ENDBRANCH   4   5
ENDBRANCH   3   4
ENDBRANCH   2   3
ENDBRANCH   1   2
BRANCH   1  13
ATOM     13  C   UNL     1      12.320 -22.849  21.302  1.00  0.00     0.000 C 
BRANCH  13  14
ATOM     14  C   UNL     1      12.070 -24.281  21.817  1.00  0.00     0.000 C 
BRANCH  14  15
ATOM     15  C   UNL     1      10.888 -24.988  21.131  1.00  0.00     0.000 C 
BRANCH  15  16
ATOM     16  C   UNL     1       9.834 -25.497  22.125  1.00  0.00     0.000 C 
BRANCH  16  17
ATOM     17  C   UNL     1       8.729 -24.452  22.339  1.00  0.00     0.000 C 
BRANCH  17  18
ATOM     18  C   UNL     1       8.745 -23.845  23.753  1.00  0.00     0.000 C 
BRANCH  18  19
ATOM     19  C   UNL     1       9.392 -24.732  24.838  1.00  0.00     0.000 C 
BRANCH  19  20
ATOM     20  C   UNL     1      10.439 -24.027  25.717  1.00  0.00     0.006 C 
BRANCH  20  21
ATOM     21  C   UNL     1      10.709 -22.581  25.281  1.00  0.00     0.053 C 
BRANCH  21  22
ATOM     22  C   UNL     1      12.146 -22.413  24.899  1.00  0.00     0.041 C 
ATOM     23  O   UNL     1      12.550 -21.321  24.417  1.00  0.00    -0.550 OA
ATOM     24  O   UNL     1      13.052 -23.443  25.127  1.00  0.00    -0.550 OA
ENDBRANCH  21  22
ENDBRANCH  20  21
ENDBRANCH  19  20
ENDBRANCH  18  19
ENDBRANCH  17  18
ENDBRANCH  16  17
ENDBRANCH  15  16
ENDBRANCH  14  15
ENDBRANCH  13  14
ENDBRANCH   1  13
TORSDOF 20
ENDMDL
MODEL 6
REMARK VINA RESULT:    -4.841      6.298     10.115
REMARK INTER + INTRA:         -12.936
REMARK INTER:                 -10.870
REMARK INTRA:                  -2.065
REMARK UNBOUND:                -2.435
REMARK SMILES CCCCCCCCCCCCCCCCCCCCCC(=O)[O-]
REMARK SMILES IDX 12 1 11 2 10 3 9 4 8 5 7 6 6 7 5 8 4 9 3 10 2 11 1 12 13 13
REMARK SMILES IDX 14 14 15 15 16 16 17 17 18 18 19 19 20 20 21 21 22 22 23 23
REMARK SMILES IDX 24 24
REMARK H PARENT
REMARK Flexibility Score: inf
ROOT
ATOM      1  C   UNL     1      10.566 -22.917  26.781  1.00  0.00     0.000 C 
ENDROOT
BRANCH   1   2
ATOM      2  C   UNL     1       9.742 -23.925  25.965  1.00  0.00     0.000 C 
BRANCH   2   3
ATOM      3  C   UNL     1       9.344 -23.384  24.584  1.00  0.00     0.000 C 
BRANCH   3   4
ATOM      4  C   UNL     1       9.993 -24.213  23.465  1.00  0.00    -0.000 C 
BRANCH   4   5
ATOM      5  C   UNL     1      11.216 -23.521  22.842  1.00  0.00    -0.000 C 
BRANCH   5   6
ATOM      6  C   UNL     1      12.412 -23.451  23.808  1.00  0.00    -0.000 C 
BRANCH   6   7
ATOM      7  C   UNL     1      13.261 -22.179  23.624  1.00  0.00    -0.000 C 
BRANCH   7   8
ATOM      8  C   UNL     1      14.782 -22.412  23.566  1.00  0.00    -0.000 C 
BRANCH   8   9
ATOM      9  C   UNL     1      15.186 -23.481  22.535  1.00  0.00    -0.000 C 
BRANCH   9  10
ATOM     10  C   UNL     1      15.303 -22.918  21.107  1.00  0.00    -0.000 C 
BRANCH  10  11
ATOM     11  C   UNL     1      14.320 -23.526  20.090  1.00  0.00    -0.003 C 
ATOM     12  C   UNL     1      13.002 -22.757  19.995  1.00  0.00     0.004 C 
ENDBRANCH  10  11
ENDBRANCH   9  10
ENDBRANCH   8   9
ENDBRANCH   7   8
ENDBRANCH   6   7
ENDBRANCH   5   6
ENDBRANCH   4   5
ENDBRANCH   3   4
ENDBRANCH   2   3
ENDBRANCH   1   2
BRANCH   1  13
ATOM     13  C   UNL     1      10.338 -21.464  26.330  1.00  0.00     0.000 C 
BRANCH  13  14
ATOM     14  C   UNL     1      10.507 -20.462  27.491  1.00  0.00     0.000 C 
BRANCH  14  15
ATOM     15  C   UNL     1       9.404 -19.391  27.551  1.00  0.00     0.000 C 
BRANCH  15  16
ATOM     16  C   UNL     1       9.277 -18.737  28.935  1.00  0.00     0.000 C 
BRANCH  16  17
ATOM     17  C   UNL     1      10.597 -18.835  29.713  1.00  0.00     0.000 C 
BRANCH  17  18
ATOM     18  C   UNL     1      11.122 -17.464  30.176  1.00  0.00     0.000 C 
BRANCH  18  19
ATOM     19  C   UNL     1      12.098 -16.774  29.201  1.00  0.00     0.000 C 
BRANCH  19  20
ATOM     20  C   UNL     1      11.437 -15.862  28.151  1.00  0.00     0.006 C 
BRANCH  20  21
ATOM     21  C   UNL     1      10.229 -15.096  28.703  1.00  0.00     0.053 C 
BRANCH  21  22
ATOM     22  C   UNL     1       9.153 -15.005  27.667  1.00  0.00     0.041 C 
ATOM     23  O   UNL     1       8.205 -14.187  27.807  1.00  0.00    -0.550 OA
ATOM     24  O   UNL     1       9.225 -15.787  26.519  1.00  0.00    -0.550 OA
ENDBRANCH  21  22
ENDBRANCH  20  21
ENDBRANCH  19  20
ENDBRANCH  18  19
ENDBRANCH  17  18
ENDBRANCH  16  17
ENDBRANCH  15  16
ENDBRANCH  14  15
ENDBRANCH  13  14
ENDBRANCH   1  13
TORSDOF 20
ENDMDL
MODEL 7
REMARK VINA RESULT:    -4.812      4.191      5.860
REMARK INTER + INTRA:         -12.874
REMARK INTER:                 -10.822
REMARK INTRA:                  -2.052
REMARK UNBOUND:                -2.435
REMARK SMILES CCCCCCCCCCCCCCCCCCCCCC(=O)[O-]
REMARK SMILES IDX 12 1 11 2 10 3 9 4 8 5 7 6 6 7 5 8 4 9 3 10 2 11 1 12 13 13
REMARK SMILES IDX 14 14 15 15 16 16 17 17 18 18 19 19 20 20 21 21 22 22 23 23
REMARK SMILES IDX 24 24
REMARK H PARENT
REMARK Flexibility Score: inf
ROOT
ATOM      1  C   UNL     1      13.642 -22.063  23.221  1.00  0.00     0.000 C 
ENDROOT
BRANCH   1   2
ATOM      2  C   UNL     1      12.712 -21.924  24.435  1.00  0.00     0.000 C 
BRANCH   2   3
ATOM      3  C   UNL     1      12.564 -23.236  25.221  1.00  0.00     0.000 C 
BRANCH   3   4
ATOM      4  C   UNL     1      11.308 -23.204  26.105  1.00  0.00    -0.000 C 
BRANCH   4   5
ATOM      5  C   UNL     1      10.518 -21.892  25.973  1.00  0.00    -0.000 C 
BRANCH   5   6
ATOM      6  C   UNL     1      10.137 -21.291  27.337  1.00  0.00    -0.000 C 
BRANCH   6   7
ATOM      7  C   UNL     1      10.190 -19.751  27.351  1.00  0.00    -0.000 C 
BRANCH   7   8
ATOM      8  C   UNL     1       9.765 -19.096  28.678  1.00  0.00    -0.000 C 
BRANCH   8   9
ATOM      9  C   UNL     1      10.955 -18.803  29.609  1.00  0.00    -0.000 C 
BRANCH   9  10
ATOM     10  C   UNL     1      11.127 -17.301  29.903  1.00  0.00    -0.000 C 
BRANCH  10  11
ATOM     11  C   UNL     1      11.288 -16.414  28.656  1.00  0.00    -0.003 C 
ATOM     12  C   UNL     1      10.477 -15.119  28.731  1.00  0.00     0.004 C 
ENDBRANCH  10  11
ENDBRANCH   9  10
ENDBRANCH   8   9
ENDBRANCH   7   8
ENDBRANCH   6   7
ENDBRANCH   5   6
ENDBRANCH   4   5
ENDBRANCH   3   4
ENDBRANCH   2   3
ENDBRANCH   1   2
BRANCH   1  13
ATOM     13  C   UNL     1      14.707 -23.157  23.413  1.00  0.00     0.000 C 
BRANCH  13  14
ATOM     14  C   UNL     1      15.472 -23.461  22.108  1.00  0.00     0.000 C 
BRANCH  14  15
ATOM     15  C   UNL     1      14.945 -22.685  20.887  1.00  0.00     0.000 C 
BRANCH  15  16
ATOM     16  C   UNL     1      14.555 -23.601  19.717  1.00  0.00     0.000 C 
BRANCH  16  17
ATOM     17  C   UNL     1      14.637 -25.080  20.124  1.00  0.00     0.000 C 
BRANCH  17  18
ATOM     18  C   UNL     1      13.262 -25.685  20.458  1.00  0.00     0.000 C 
BRANCH  18  19
ATOM     19  C   UNL     1      12.139 -24.657  20.709  1.00  0.00     0.000 C 
BRANCH  19  20
ATOM     20  C   UNL     1      10.901 -25.209  21.439  1.00  0.00     0.006 C 
BRANCH  20  21
ATOM     21  C   UNL     1      10.445 -24.315  22.600  1.00  0.00     0.053 C 
BRANCH  21  22
ATOM     22  C   UNL     1       8.958 -24.378  22.751  1.00  0.00     0.041 C 
ATOM     23  O   UNL     1       8.275 -25.119  21.995  1.00  0.00    -0.550 OA
ATOM     24  O   UNL     1       8.331 -23.660  23.763  1.00  0.00    -0.550 OA
ENDBRANCH  21  22
ENDBRANCH  20  21
ENDBRANCH  19  20
ENDBRANCH  18  19
ENDBRANCH  17  18
ENDBRANCH  16  17
ENDBRANCH  15  16
ENDBRANCH  14  15
ENDBRANCH  13  14
ENDBRANCH   1  13
TORSDOF 20
ENDMDL
MODEL 8
REMARK VINA RESULT:    -4.756      5.782      9.474
REMARK INTER + INTRA:         -12.751
REMARK INTER:                 -10.673
REMARK INTRA:                  -2.078
REMARK UNBOUND:                -2.435
REMARK SMILES CCCCCCCCCCCCCCCCCCCCCC(=O)[O-]
REMARK SMILES IDX 12 1 11 2 10 3 9 4 8 5 7 6 6 7 5 8 4 9 3 10 2 11 1 12 13 13
REMARK SMILES IDX 14 14 15 15 16 16 17 17 18 18 19 19 20 20 21 21 22 22 23 23
REMARK SMILES IDX 24 24
REMARK H PARENT
REMARK Flexibility Score: inf
ROOT
ATOM      1  C   UNL     1       9.992 -24.545  24.600  1.00  0.00     0.000 C 
ENDROOT
BRANCH   1   2
ATOM      2  C   UNL     1       8.969 -24.053  23.566  1.00  0.00     0.000 C 
BRANCH   2   3
ATOM      3  C   UNL     1       9.079 -24.795  22.225  1.00  0.00     0.000 C 
BRANCH   3   4
ATOM      4  C   UNL     1      10.532 -25.211  21.949  1.00  0.00    -0.000 C 
BRANCH   4   5
ATOM      5  C   UNL     1      11.172 -24.419  20.798  1.00  0.00    -0.000 C 
BRANCH   5   6
ATOM      6  C   UNL     1      12.699 -24.600  20.732  1.00  0.00    -0.000 C 
BRANCH   6   7
ATOM      7  C   UNL     1      13.431 -23.353  20.201  1.00  0.00    -0.000 C 
BRANCH   7   8
ATOM      8  C   UNL     1      14.686 -22.946  20.994  1.00  0.00    -0.000 C 
BRANCH   8   9
ATOM      9  C   UNL     1      14.731 -23.563  22.403  1.00  0.00    -0.000 C 
BRANCH   9  10
ATOM     10  C   UNL     1      14.906 -22.508  23.511  1.00  0.00    -0.000 C 
BRANCH  10  11
ATOM     11  C   UNL     1      13.641 -22.230  24.343  1.00  0.00    -0.003 C 
ATOM     12  C   UNL     1      12.392 -22.026  23.486  1.00  0.00     0.004 C 
ENDBRANCH  10  11
ENDBRANCH   9  10
ENDBRANCH   8   9
ENDBRANCH   7   8
ENDBRANCH   6   7
ENDBRANCH   5   6
ENDBRANCH   4   5
ENDBRANCH   3   4
ENDBRANCH   2   3
ENDBRANCH   1   2
BRANCH   1  13
ATOM     13  C   UNL     1       9.683 -24.048  26.023  1.00  0.00     0.000 C 
BRANCH  13  14
ATOM     14  C   UNL     1      10.667 -22.953  26.484  1.00  0.00     0.000 C 
BRANCH  14  15
ATOM     15  C   UNL     1      10.117 -21.524  26.335  1.00  0.00     0.000 C 
BRANCH  15  16
ATOM     16  C   UNL     1      10.580 -20.583  27.458  1.00  0.00     0.000 C 
BRANCH  16  17
ATOM     17  C   UNL     1       9.494 -19.551  27.795  1.00  0.00     0.000 C 
BRANCH  17  18
ATOM     18  C   UNL     1       9.766 -18.805  29.113  1.00  0.00     0.000 C 
BRANCH  18  19
ATOM     19  C   UNL     1      11.214 -18.306  29.295  1.00  0.00     0.000 C 
BRANCH  19  20
ATOM     20  C   UNL     1      11.392 -16.779  29.224  1.00  0.00     0.006 C 
BRANCH  20  21
ATOM     21  C   UNL     1      11.262 -16.229  27.798  1.00  0.00     0.053 C 
BRANCH  21  22
ATOM     22  C   UNL     1       9.942 -15.547  27.621  1.00  0.00     0.041 C 
ATOM     23  O   UNL     1       9.065 -16.050  26.870  1.00  0.00    -0.550 OA
ATOM     24  O   UNL     1       9.659 -14.384  28.330  1.00  0.00    -0.550 OA
ENDBRANCH  21  22
ENDBRANCH  20  21
ENDBRANCH  19  20
ENDBRANCH  18  19
ENDBRANCH  17  18
ENDBRANCH  16  17
ENDBRANCH  15  16
ENDBRANCH  14  15
ENDBRANCH  13  14
ENDBRANCH   1  13
TORSDOF 20
ENDMDL
MODEL 9
REMARK VINA RESULT:    -4.754      4.573      6.510
REMARK INTER + INTRA:         -12.747
REMARK INTER:                 -10.933
REMARK INTRA:                  -1.814
REMARK UNBOUND:                -2.435
REMARK SMILES CCCCCCCCCCCCCCCCCCCCCC(=O)[O-]
REMARK SMILES IDX 12 1 11 2 10 3 9 4 8 5 7 6 6 7 5 8 4 9 3 10 2 11 1 12 13 13
REMARK SMILES IDX 14 14 15 15 16 16 17 17 18 18 19 19 20 20 21 21 22 22 23 23
REMARK SMILES IDX 24 24
REMARK H PARENT
REMARK Flexibility Score: inf
ROOT
ATOM      1  C   UNL     1      12.095 -23.225  26.484  1.00  0.00     0.000 C 
ENDROOT
BRANCH   1   2
ATOM      2  C   UNL     1      10.564 -23.110  26.428  1.00  0.00     0.000 C 
BRANCH   2   3
ATOM      3  C   UNL     1      10.086 -21.664  26.228  1.00  0.00     0.000 C 
BRANCH   3   4
ATOM      4  C   UNL     1      10.489 -20.785  27.421  1.00  0.00    -0.000 C 
BRANCH   4   5
ATOM      5  C   UNL     1       9.635 -19.513  27.542  1.00  0.00    -0.000 C 
BRANCH   5   6
ATOM      6  C   UNL     1       9.753 -18.850  28.926  1.00  0.00    -0.000 C 
BRANCH   6   7
ATOM      7  C   UNL     1      11.201 -18.472  29.291  1.00  0.00    -0.000 C 
BRANCH   7   8
ATOM      8  C   UNL     1      11.416 -16.992  29.660  1.00  0.00    -0.000 C 
BRANCH   8   9
ATOM      9  C   UNL     1      11.423 -16.064  28.433  1.00  0.00    -0.000 C 
BRANCH   9  10
ATOM     10  C   UNL     1      10.128 -15.240  28.300  1.00  0.00    -0.000 C 
BRANCH  10  11
ATOM     11  C   UNL     1       9.259 -15.596  27.081  1.00  0.00    -0.003 C 
ATOM     12  C   UNL     1       7.775 -15.292  27.292  1.00  0.00     0.004 C 
ENDBRANCH  10  11
ENDBRANCH   9  10
ENDBRANCH   8   9
ENDBRANCH   7   8
ENDBRANCH   6   7
ENDBRANCH   5   6
ENDBRANCH   4   5
ENDBRANCH   3   4
ENDBRANCH   2   3
ENDBRANCH   1   2
BRANCH   1  13
ATOM     13  C   UNL     1      12.740 -23.237  25.087  1.00  0.00     0.000 C 
BRANCH  13  14
ATOM     14  C   UNL     1      12.942 -21.814  24.527  1.00  0.00     0.000 C 
BRANCH  14  15
ATOM     15  C   UNL     1      14.237 -21.648  23.712  1.00  0.00     0.000 C 
BRANCH  15  16
ATOM     16  C   UNL     1      14.670 -22.941  23.004  1.00  0.00     0.000 C 
BRANCH  16  17
ATOM     17  C   UNL     1      14.510 -22.817  21.482  1.00  0.00     0.000 C 
BRANCH  17  18
ATOM     18  C   UNL     1      13.040 -22.868  21.029  1.00  0.00     0.000 C 
BRANCH  18  19
ATOM     19  C   UNL     1      12.584 -24.219  20.439  1.00  0.00     0.000 C 
BRANCH  19  20
ATOM     20  C   UNL     1      11.374 -24.861  21.139  1.00  0.00     0.006 C 
BRANCH  20  21
ATOM     21  C   UNL     1      10.860 -24.032  22.324  1.00  0.00     0.053 C 
BRANCH  21  22
ATOM     22  C   UNL     1       9.499 -24.500  22.734  1.00  0.00     0.041 C 
ATOM     23  O   UNL     1       8.857 -23.879  23.623  1.00  0.00    -0.550 OA
ATOM     24  O   UNL     1       8.916 -25.590  22.097  1.00  0.00    -0.550 OA
ENDBRANCH  21  22
ENDBRANCH  20  21
ENDBRANCH  19  20
ENDBRANCH  18  19
ENDBRANCH  17  18
ENDBRANCH  16  17
ENDBRANCH  15  16
ENDBRANCH  14  15
ENDBRANCH  13  14
ENDBRANCH   1  13
TORSDOF 20
ENDMDL
