MODEL 1
REMARK VINA RESULT:    -7.200      0.000      0.000
REMARK INTER + INTRA:         -11.790
REMARK INTER:                  -9.515
REMARK INTRA:                  -2.275
REMARK UNBOUND:                -2.275
REMARK SMILES CC[C@H](C=C[C@H](C)[C@H]1CC[C@@H]2[C@H]3CC[C@@H]4C[C@H](O)CC[C@@]4(C)[C@H]3CC[C@]21C)C(C)C
REMARK SMILES IDX 6 1 7 2 5 3 4 4 3 5 2 6 1 7 28 8 29 9 30 10 8 11 9 12 26 13
REMARK SMILES IDX 10 14 11 15 25 16 27 17 12 18 24 19 23 20 13 21 21 22 14 23
REMARK SMILES IDX 15 24 20 25 22 26 16 27 19 28 17 29 18 30
REMARK H PARENT 18 31
REMARK Flexibility Score: inf
ROOT
ATOM      1  C   UNL     1     114.326 119.629 128.884  1.00  0.00     0.012 C 
ATOM      2  C   UNL     1     113.750 120.001 127.500  1.00  0.00     0.012 C 
ENDROOT
BRANCH   1   3
ATOM      3  C   UNL     1     115.782 119.188 128.858  1.00  0.00    -0.028 C 
ATOM      4  C   UNL     1     116.809 119.947 128.433  1.00  0.00    -0.027 C 
BRANCH   4   5
ATOM      5  C   UNL     1     118.249 119.465 128.413  1.00  0.00     0.014 C 
BRANCH   5   6
ATOM      6  C   UNL     1     119.210 120.608 127.979  1.00  0.00     0.004 C 
ATOM      7  C   UNL     1     118.598 122.004 128.095  1.00  0.00     0.004 C 
ENDBRANCH   5   6
BRANCH   5   8
ATOM      8  C   UNL     1     118.598 118.724 129.750  1.00  0.00    -0.011 C 
ATOM      9  C   UNL     1     119.779 117.752 129.586  1.00  0.00     0.008 C 
ATOM     10  C   UNL     1     118.833 119.651 130.953  1.00  0.00     0.008 C 
ENDBRANCH   5   8
ENDBRANCH   4   5
ENDBRANCH   1   3
BRANCH   1  11
ATOM     11  C   UNL     1     113.900 120.564 130.077  1.00  0.00     0.002 C 
ATOM     12  C   UNL     1     114.438 119.998 131.427  1.00  0.00     0.005 C 
ATOM     13  C   UNL     1     114.292 122.086 130.137  1.00  0.00    -0.026 C 
ATOM     14  C   UNL     1     115.455 121.008 131.983  1.00  0.00     0.005 C 
ATOM     15  C   UNL     1     115.632 122.034 130.872  1.00  0.00    -0.001 C 
ATOM     16  C   UNL     1     114.473 122.874 128.797  1.00  0.00     0.007 C 
ATOM     17  C   UNL     1     113.184 122.788 130.996  1.00  0.00     0.012 C 
ATOM     18  C   UNL     1     116.237 123.419 131.264  1.00  0.00    -0.004 C 
ATOM     19  C   UNL     1     115.684 123.857 128.783  1.00  0.00     0.005 C 
ATOM     20  C   UNL     1     115.913 124.519 130.171  1.00  0.00    -0.001 C 
ATOM     21  C   UNL     1     117.757 123.207 131.504  1.00  0.00     0.004 C 
ATOM     22  C   UNL     1     116.860 125.792 130.232  1.00  0.00    -0.026 C 
ATOM     23  C   UNL     1     118.553 124.496 131.638  1.00  0.00     0.004 C 
ATOM     24  C   UNL     1     118.351 125.358 130.388  1.00  0.00    -0.002 C 
ATOM     25  C   UNL     1     116.752 126.665 128.942  1.00  0.00     0.010 C 
ATOM     26  C   UNL     1     116.384 126.658 131.445  1.00  0.00     0.012 C 
ATOM     27  C   UNL     1     119.337 126.550 130.386  1.00  0.00     0.036 C 
ATOM     28  C   UNL     1     117.699 127.876 128.952  1.00  0.00     0.032 C 
ATOM     29  C   UNL     1     119.159 127.426 129.132  1.00  0.00     0.114 C 
BRANCH  29  30
ATOM     30  O   UNL     1     120.017 128.537 129.177  1.00  0.00    -0.393 OA
ATOM     31  H   UNL     1     120.830 128.313 128.651  1.00  0.00     0.210 HD
ENDBRANCH  29  30
ENDBRANCH   1  11
TORSDOF 6
ENDMDL
MODEL 2
REMARK VINA RESULT:    -7.092      2.498      5.094
REMARK INTER + INTRA:         -11.647
REMARK INTER:                  -9.359
REMARK INTRA:                  -2.288
REMARK UNBOUND:                -2.275
REMARK SMILES CC[C@H](C=C[C@H](C)[C@H]1CC[C@@H]2[C@H]3CC[C@@H]4C[C@H](O)CC[C@@]4(C)[C@H]3CC[C@]21C)C(C)C
REMARK SMILES IDX 6 1 7 2 5 3 4 4 3 5 2 6 1 7 28 8 29 9 30 10 8 11 9 12 26 13
REMARK SMILES IDX 10 14 11 15 25 16 27 17 12 18 24 19 23 20 13 21 21 22 14 23
REMARK SMILES IDX 15 24 20 25 22 26 16 27 19 28 17 29 18 30
REMARK H PARENT 18 31
REMARK Flexibility Score: inf
ROOT
ATOM      1  C   UNL     1     113.729 122.604 128.604  1.00  0.00     0.012 C 
ATOM      2  C   UNL     1     112.855 123.727 129.206  1.00  0.00     0.012 C 
ENDROOT
BRANCH   1   3
ATOM      3  C   UNL     1     115.039 123.088 128.000  1.00  0.00    -0.028 C 
ATOM      4  C   UNL     1     115.776 124.108 128.475  1.00  0.00    -0.027 C 
BRANCH   4   5
ATOM      5  C   UNL     1     117.075 124.567 127.836  1.00  0.00     0.014 C 
BRANCH   5   6
ATOM      6  C   UNL     1     117.368 126.054 128.184  1.00  0.00     0.004 C 
ATOM      7  C   UNL     1     116.232 126.747 128.936  1.00  0.00     0.004 C 
ENDBRANCH   5   6
BRANCH   5   8
ATOM      8  C   UNL     1     118.223 123.539 128.126  1.00  0.00    -0.011 C 
ATOM      9  C   UNL     1     119.262 123.492 126.995  1.00  0.00     0.008 C 
ATOM     10  C   UNL     1     118.919 123.724 129.484  1.00  0.00     0.008 C 
ENDBRANCH   5   8
ENDBRANCH   4   5
ENDBRANCH   1   3
BRANCH   1  11
ATOM     11  C   UNL     1     113.792 121.267 129.432  1.00  0.00     0.002 C 
ATOM     12  C   UNL     1     114.150 120.069 128.501  1.00  0.00     0.005 C 
ATOM     13  C   UNL     1     114.761 121.079 130.657  1.00  0.00    -0.026 C 
ATOM     14  C   UNL     1     115.520 119.529 128.942  1.00  0.00     0.005 C 
ATOM     15  C   UNL     1     116.016 120.526 129.980  1.00  0.00    -0.001 C 
ATOM     16  C   UNL     1     115.150 122.331 131.513  1.00  0.00     0.007 C 
ATOM     17  C   UNL     1     114.085 120.013 131.589  1.00  0.00     0.012 C 
ATOM     18  C   UNL     1     117.147 120.053 130.947  1.00  0.00    -0.004 C 
ATOM     19  C   UNL     1     116.648 122.378 131.944  1.00  0.00     0.005 C 
ATOM     20  C   UNL     1     117.216 120.962 132.242  1.00  0.00    -0.001 C 
ATOM     21  C   UNL     1     118.469 120.029 130.131  1.00  0.00     0.004 C 
ATOM     22  C   UNL     1     118.593 120.870 133.026  1.00  0.00    -0.026 C 
ATOM     23  C   UNL     1     119.720 119.845 130.976  1.00  0.00     0.004 C 
ATOM     24  C   UNL     1     119.795 120.952 132.034  1.00  0.00    -0.002 C 
ATOM     25  C   UNL     1     118.755 122.026 134.063  1.00  0.00     0.010 C 
ATOM     26  C   UNL     1     118.584 119.515 133.808  1.00  0.00     0.012 C 
ATOM     27  C   UNL     1     121.172 120.936 132.739  1.00  0.00     0.036 C 
ATOM     28  C   UNL     1     120.104 121.992 134.799  1.00  0.00     0.032 C 
ATOM     29  C   UNL     1     121.272 122.048 133.800  1.00  0.00     0.114 C 
BRANCH  29  30
ATOM     30  O   UNL     1     122.503 121.979 134.474  1.00  0.00    -0.393 OA
ATOM     31  H   UNL     1     122.324 122.103 135.443  1.00  0.00     0.210 HD
ENDBRANCH  29  30
ENDBRANCH   1  11
TORSDOF 6
ENDMDL
MODEL 3
REMARK VINA RESULT:    -7.083      1.582      2.814
REMARK INTER + INTRA:         -11.634
REMARK INTER:                  -9.303
REMARK INTRA:                  -2.331
REMARK UNBOUND:                -2.275
REMARK SMILES CC[C@H](C=C[C@H](C)[C@H]1CC[C@@H]2[C@H]3CC[C@@H]4C[C@H](O)CC[C@@]4(C)[C@H]3CC[C@]21C)C(C)C
REMARK SMILES IDX 6 1 7 2 5 3 4 4 3 5 2 6 1 7 28 8 29 9 30 10 8 11 9 12 26 13
REMARK SMILES IDX 10 14 11 15 25 16 27 17 12 18 24 19 23 20 13 21 21 22 14 23
REMARK SMILES IDX 15 24 20 25 22 26 16 27 19 28 17 29 18 30
REMARK H PARENT 18 31
REMARK Flexibility Score: inf
ROOT
ATOM      1  C   UNL     1     115.917 119.438 129.335  1.00  0.00     0.012 C 
ATOM      2  C   UNL     1     116.340 118.470 128.208  1.00  0.00     0.012 C 
ENDROOT
BRANCH   1   3
ATOM      3  C   UNL     1     117.058 119.882 130.238  1.00  0.00    -0.028 C 
ATOM      4  C   UNL     1     116.917 120.292 131.513  1.00  0.00    -0.027 C 
BRANCH   4   5
ATOM      5  C   UNL     1     118.081 120.738 132.379  1.00  0.00     0.014 C 
BRANCH   5   6
ATOM      6  C   UNL     1     119.035 121.676 131.584  1.00  0.00     0.004 C 
ATOM      7  C   UNL     1     119.049 123.116 132.097  1.00  0.00     0.004 C 
ENDBRANCH   5   6
BRANCH   5   8
ATOM      8  C   UNL     1     117.566 121.269 133.761  1.00  0.00    -0.011 C 
ATOM      9  C   UNL     1     116.032 121.329 133.827  1.00  0.00     0.008 C 
ATOM     10  C   UNL     1     118.124 120.520 134.982  1.00  0.00     0.008 C 
ENDBRANCH   5   8
ENDBRANCH   4   5
ENDBRANCH   1   3
BRANCH   1  11
ATOM     11  C   UNL     1     114.874 120.545 128.931  1.00  0.00     0.002 C 
ATOM     12  C   UNL     1     113.758 120.659 130.013  1.00  0.00     0.005 C 
ATOM     13  C   UNL     1     115.287 122.040 128.674  1.00  0.00    -0.026 C 
ATOM     14  C   UNL     1     113.867 122.054 130.650  1.00  0.00     0.005 C 
ATOM     15  C   UNL     1     115.143 122.648 130.070  1.00  0.00    -0.001 C 
ATOM     16  C   UNL     1     116.723 122.346 128.129  1.00  0.00     0.007 C 
ATOM     17  C   UNL     1     114.227 122.622 127.675  1.00  0.00     0.012 C 
ATOM     18  C   UNL     1     115.315 124.198 130.150  1.00  0.00    -0.004 C 
ATOM     19  C   UNL     1     117.412 123.584 128.780  1.00  0.00     0.005 C 
ATOM     20  C   UNL     1     116.394 124.711 129.111  1.00  0.00    -0.001 C 
ATOM     21  C   UNL     1     115.652 124.549 131.625  1.00  0.00     0.004 C 
ATOM     22  C   UNL     1     116.973 126.154 129.438  1.00  0.00    -0.026 C 
ATOM     23  C   UNL     1     116.109 125.984 131.835  1.00  0.00     0.004 C 
ATOM     24  C   UNL     1     117.329 126.270 130.953  1.00  0.00    -0.002 C 
ATOM     25  C   UNL     1     118.267 126.464 128.621  1.00  0.00     0.010 C 
ATOM     26  C   UNL     1     115.878 127.190 129.023  1.00  0.00     0.012 C 
ATOM     27  C   UNL     1     117.964 127.630 131.328  1.00  0.00     0.036 C 
ATOM     28  C   UNL     1     118.879 127.833 128.958  1.00  0.00     0.032 C 
ATOM     29  C   UNL     1     119.198 127.934 130.460  1.00  0.00     0.114 C 
BRANCH  29  30
ATOM     30  O   UNL     1     119.723 129.200 130.770  1.00  0.00    -0.393 OA
ATOM     31  H   UNL     1     119.866 129.235 131.753  1.00  0.00     0.210 HD
ENDBRANCH  29  30
ENDBRANCH   1  11
TORSDOF 6
ENDMDL
MODEL 4
REMARK VINA RESULT:    -6.767      2.664      4.498
REMARK INTER + INTRA:         -11.218
REMARK INTER:                  -9.227
REMARK INTRA:                  -1.990
REMARK UNBOUND:                -2.275
REMARK SMILES CC[C@H](C=C[C@H](C)[C@H]1CC[C@@H]2[C@H]3CC[C@@H]4C[C@H](O)CC[C@@]4(C)[C@H]3CC[C@]21C)C(C)C
REMARK SMILES IDX 6 1 7 2 5 3 4 4 3 5 2 6 1 7 28 8 29 9 30 10 8 11 9 12 26 13
REMARK SMILES IDX 10 14 11 15 25 16 27 17 12 18 24 19 23 20 13 21 21 22 14 23
REMARK SMILES IDX 15 24 20 25 22 26 16 27 19 28 17 29 18 30
REMARK H PARENT 18 31
REMARK Flexibility Score: inf
ROOT
ATOM      1  C   UNL     1     114.490 121.099 132.423  1.00  0.00     0.012 C 
ATOM      2  C   UNL     1     113.472 119.938 132.460  1.00  0.00     0.012 C 
ENDROOT
BRANCH   1   3
ATOM      3  C   UNL     1     115.925 120.681 132.709  1.00  0.00    -0.028 C 
ATOM      4  C   UNL     1     116.786 121.364 133.485  1.00  0.00    -0.027 C 
BRANCH   4   5
ATOM      5  C   UNL     1     118.215 120.918 133.737  1.00  0.00     0.014 C 
BRANCH   5   6
ATOM      6  C   UNL     1     119.227 121.955 133.172  1.00  0.00     0.004 C 
ATOM      7  C   UNL     1     120.041 121.438 131.985  1.00  0.00     0.004 C 
ENDBRANCH   5   6
BRANCH   5   8
ATOM      8  C   UNL     1     118.404 120.499 135.236  1.00  0.00    -0.011 C 
ATOM      9  C   UNL     1     119.044 119.108 135.376  1.00  0.00     0.008 C 
ATOM     10  C   UNL     1     119.160 121.523 136.097  1.00  0.00     0.008 C 
ENDBRANCH   5   8
ENDBRANCH   4   5
ENDBRANCH   1   3
BRANCH   1  11
ATOM     11  C   UNL     1     114.285 122.154 131.273  1.00  0.00     0.002 C 
ATOM     12  C   UNL     1     114.255 123.598 131.861  1.00  0.00     0.005 C 
ATOM     13  C   UNL     1     115.271 122.276 130.054  1.00  0.00    -0.026 C 
ATOM     14  C   UNL     1     115.479 124.349 131.312  1.00  0.00     0.005 C 
ATOM     15  C   UNL     1     116.289 123.290 130.578  1.00  0.00    -0.001 C 
ATOM     16  C   UNL     1     116.028 120.997 129.563  1.00  0.00     0.007 C 
ATOM     17  C   UNL     1     114.428 122.859 128.867  1.00  0.00     0.012 C 
ATOM     18  C   UNL     1     117.342 123.785 129.536  1.00  0.00    -0.004 C 
ATOM     19  C   UNL     1     117.521 121.237 129.179  1.00  0.00     0.005 C 
ATOM     20  C   UNL     1     117.739 122.631 128.526  1.00  0.00    -0.001 C 
ATOM     21  C   UNL     1     118.546 124.358 130.333  1.00  0.00     0.004 C 
ATOM     22  C   UNL     1     119.109 122.881 127.763  1.00  0.00    -0.026 C 
ATOM     23  C   UNL     1     119.774 124.645 129.485  1.00  0.00     0.004 C 
ATOM     24  C   UNL     1     120.208 123.368 128.757  1.00  0.00    -0.002 C 
ATOM     25  C   UNL     1     119.637 121.586 127.068  1.00  0.00     0.010 C 
ATOM     26  C   UNL     1     118.825 123.945 126.652  1.00  0.00     0.012 C 
ATOM     27  C   UNL     1     121.590 123.566 128.090  1.00  0.00     0.036 C 
ATOM     28  C   UNL     1     120.990 121.786 126.367  1.00  0.00     0.032 C 
ATOM     29  C   UNL     1     122.050 122.291 127.360  1.00  0.00     0.114 C 
BRANCH  29  30
ATOM     30  O   UNL     1     123.276 122.508 126.708  1.00  0.00    -0.393 OA
ATOM     31  H   UNL     1     123.832 123.086 127.294  1.00  0.00     0.210 HD
ENDBRANCH  29  30
ENDBRANCH   1  11
TORSDOF 6
ENDMDL
MODEL 5
REMARK VINA RESULT:    -6.716      1.526      4.582
REMARK INTER + INTRA:         -11.149
REMARK INTER:                  -9.628
REMARK INTRA:                  -1.521
REMARK UNBOUND:                -2.275
REMARK SMILES CC[C@H](C=C[C@H](C)[C@H]1CC[C@@H]2[C@H]3CC[C@@H]4C[C@H](O)CC[C@@]4(C)[C@H]3CC[C@]21C)C(C)C
REMARK SMILES IDX 6 1 7 2 5 3 4 4 3 5 2 6 1 7 28 8 29 9 30 10 8 11 9 12 26 13
REMARK SMILES IDX 10 14 11 15 25 16 27 17 12 18 24 19 23 20 13 21 21 22 14 23
REMARK SMILES IDX 15 24 20 25 22 26 16 27 19 28 17 29 18 30
REMARK H PARENT 18 31
REMARK Flexibility Score: inf
ROOT
ATOM      1  C   UNL     1     116.409 118.354 128.203  1.00  0.00     0.012 C 
ATOM      2  C   UNL     1     116.025 116.860 128.286  1.00  0.00     0.012 C 
ENDROOT
BRANCH   1   3
ATOM      3  C   UNL     1     115.409 119.294 128.861  1.00  0.00    -0.028 C 
ATOM      4  C   UNL     1     114.670 120.211 128.209  1.00  0.00    -0.027 C 
BRANCH   4   5
ATOM      5  C   UNL     1     113.689 121.138 128.905  1.00  0.00     0.014 C 
BRANCH   5   6
ATOM      6  C   UNL     1     113.920 121.135 130.443  1.00  0.00     0.004 C 
ATOM      7  C   UNL     1     113.284 122.324 131.163  1.00  0.00     0.004 C 
ENDBRANCH   5   6
BRANCH   5   8
ATOM      8  C   UNL     1     113.665 122.539 128.202  1.00  0.00    -0.011 C 
ATOM      9  C   UNL     1     115.068 123.157 128.085  1.00  0.00     0.008 C 
ATOM     10  C   UNL     1     112.959 122.558 126.837  1.00  0.00     0.008 C 
ENDBRANCH   5   8
ENDBRANCH   4   5
ENDBRANCH   1   3
BRANCH   1  11
ATOM     11  C   UNL     1     117.931 118.684 128.429  1.00  0.00     0.002 C 
ATOM     12  C   UNL     1     118.685 118.727 127.065  1.00  0.00     0.005 C 
ATOM     13  C   UNL     1     118.412 119.994 129.154  1.00  0.00    -0.026 C 
ATOM     14  C   UNL     1     119.176 120.168 126.850  1.00  0.00     0.005 C 
ATOM     15  C   UNL     1     118.546 120.967 127.981  1.00  0.00    -0.001 C 
ATOM     16  C   UNL     1     117.495 120.634 130.248  1.00  0.00     0.007 C 
ATOM     17  C   UNL     1     119.806 119.656 129.789  1.00  0.00     0.012 C 
ATOM     18  C   UNL     1     119.183 122.350 128.325  1.00  0.00    -0.004 C 
ATOM     19  C   UNL     1     117.420 122.191 130.200  1.00  0.00     0.005 C 
ATOM     20  C   UNL     1     118.774 122.828 129.778  1.00  0.00    -0.001 C 
ATOM     21  C   UNL     1     118.768 123.341 127.203  1.00  0.00     0.004 C 
ATOM     22  C   UNL     1     118.965 124.384 130.027  1.00  0.00    -0.026 C 
ATOM     23  C   UNL     1     119.082 124.797 127.510  1.00  0.00     0.004 C 
ATOM     24  C   UNL     1     118.405 125.204 128.823  1.00  0.00    -0.002 C 
ATOM     25  C   UNL     1     118.225 124.867 131.315  1.00  0.00     0.010 C 
ATOM     26  C   UNL     1     120.497 124.630 130.227  1.00  0.00     0.012 C 
ATOM     27  C   UNL     1     118.498 126.734 129.030  1.00  0.00     0.036 C 
ATOM     28  C   UNL     1     118.349 126.381 131.551  1.00  0.00     0.032 C 
ATOM     29  C   UNL     1     117.815 127.167 130.341  1.00  0.00     0.114 C 
BRANCH  29  30
ATOM     30  O   UNL     1     117.964 128.549 130.545  1.00  0.00    -0.393 OA
ATOM     31  H   UNL     1     117.068 128.967 130.448  1.00  0.00     0.210 HD
ENDBRANCH  29  30
ENDBRANCH   1  11
TORSDOF 6
ENDMDL
MODEL 6
REMARK VINA RESULT:    -6.695      2.690      5.970
REMARK INTER + INTRA:         -11.123
REMARK INTER:                  -9.128
REMARK INTRA:                  -1.994
REMARK UNBOUND:                -2.275
REMARK SMILES CC[C@H](C=C[C@H](C)[C@H]1CC[C@@H]2[C@H]3CC[C@@H]4C[C@H](O)CC[C@@]4(C)[C@H]3CC[C@]21C)C(C)C
REMARK SMILES IDX 6 1 7 2 5 3 4 4 3 5 2 6 1 7 28 8 29 9 30 10 8 11 9 12 26 13
REMARK SMILES IDX 10 14 11 15 25 16 27 17 12 18 24 19 23 20 13 21 21 22 14 23
REMARK SMILES IDX 15 24 20 25 22 26 16 27 19 28 17 29 18 30
REMARK H PARENT 18 31
REMARK Flexibility Score: inf
ROOT
ATOM      1  C   UNL     1     115.787 123.626 131.808  1.00  0.00     0.012 C 
ATOM      2  C   UNL     1     115.725 125.148 131.557  1.00  0.00     0.012 C 
ENDROOT
BRANCH   1   3
ATOM      3  C   UNL     1     114.808 122.814 130.973  1.00  0.00    -0.028 C 
ATOM      4  C   UNL     1     114.775 122.794 129.628  1.00  0.00    -0.027 C 
BRANCH   4   5
ATOM      5  C   UNL     1     113.774 121.976 128.832  1.00  0.00     0.014 C 
BRANCH   5   6
ATOM      6  C   UNL     1     113.101 122.845 127.730  1.00  0.00     0.004 C 
ATOM      7  C   UNL     1     112.426 124.106 128.269  1.00  0.00     0.004 C 
ENDBRANCH   5   6
BRANCH   5   8
ATOM      8  C   UNL     1     114.416 120.625 128.364  1.00  0.00    -0.011 C 
ATOM      9  C   UNL     1     114.488 119.590 129.498  1.00  0.00     0.008 C 
ATOM     10  C   UNL     1     113.766 120.005 127.116  1.00  0.00     0.008 C 
ENDBRANCH   5   8
ENDBRANCH   4   5
ENDBRANCH   1   3
BRANCH   1  11
ATOM     11  C   UNL     1     117.230 123.019 131.981  1.00  0.00     0.002 C 
ATOM     12  C   UNL     1     117.148 121.605 132.632  1.00  0.00     0.005 C 
ATOM     13  C   UNL     1     118.207 122.807 130.767  1.00  0.00    -0.026 C 
ATOM     14  C   UNL     1     117.657 120.587 131.599  1.00  0.00     0.005 C 
ATOM     15  C   UNL     1     117.844 121.390 130.319  1.00  0.00    -0.001 C 
ATOM     16  C   UNL     1     118.109 123.773 129.539  1.00  0.00     0.007 C 
ATOM     17  C   UNL     1     119.658 122.876 131.357  1.00  0.00     0.012 C 
ATOM     18  C   UNL     1     118.762 120.779 129.214  1.00  0.00    -0.004 C 
ATOM     19  C   UNL     1     118.250 123.072 128.153  1.00  0.00     0.005 C 
ATOM     20  C   UNL     1     119.255 121.887 128.197  1.00  0.00    -0.001 C 
ATOM     21  C   UNL     1     117.969 119.624 128.543  1.00  0.00     0.004 C 
ATOM     22  C   UNL     1     119.775 121.311 126.812  1.00  0.00    -0.026 C 
ATOM     23  C   UNL     1     118.607 119.087 127.272  1.00  0.00     0.004 C 
ATOM     24  C   UNL     1     118.792 120.228 126.266  1.00  0.00    -0.002 C 
ATOM     25  C   UNL     1     119.905 122.425 125.725  1.00  0.00     0.010 C 
ATOM     26  C   UNL     1     121.199 120.717 127.070  1.00  0.00     0.012 C 
ATOM     27  C   UNL     1     119.204 119.672 124.882  1.00  0.00     0.036 C 
ATOM     28  C   UNL     1     120.356 121.885 124.358  1.00  0.00     0.032 C 
ATOM     29  C   UNL     1     119.387 120.802 123.853  1.00  0.00     0.114 C 
BRANCH  29  30
ATOM     30  O   UNL     1     119.822 120.285 122.621  1.00  0.00    -0.393 OA
ATOM     31  H   UNL     1     120.727 119.900 122.758  1.00  0.00     0.210 HD
ENDBRANCH  29  30
ENDBRANCH   1  11
TORSDOF 6
ENDMDL
MODEL 7
REMARK VINA RESULT:    -6.688      2.968      6.527
REMARK INTER + INTRA:         -11.113
REMARK INTER:                  -9.140
REMARK INTRA:                  -1.974
REMARK UNBOUND:                -2.275
REMARK SMILES CC[C@H](C=C[C@H](C)[C@H]1CC[C@@H]2[C@H]3CC[C@@H]4C[C@H](O)CC[C@@]4(C)[C@H]3CC[C@]21C)C(C)C
REMARK SMILES IDX 6 1 7 2 5 3 4 4 3 5 2 6 1 7 28 8 29 9 30 10 8 11 9 12 26 13
REMARK SMILES IDX 10 14 11 15 25 16 27 17 12 18 24 19 23 20 13 21 21 22 14 23
REMARK SMILES IDX 15 24 20 25 22 26 16 27 19 28 17 29 18 30
REMARK H PARENT 18 31
REMARK Flexibility Score: inf
ROOT
ATOM      1  C   UNL     1     119.525 127.282 129.892  1.00  0.00     0.012 C 
ATOM      2  C   UNL     1     119.817 128.658 130.529  1.00  0.00     0.012 C 
ENDROOT
BRANCH   1   3
ATOM      3  C   UNL     1     119.765 126.100 130.819  1.00  0.00    -0.028 C 
ATOM      4  C   UNL     1     120.126 124.867 130.418  1.00  0.00    -0.027 C 
BRANCH   4   5
ATOM      5  C   UNL     1     120.346 123.710 131.377  1.00  0.00     0.014 C 
BRANCH   5   6
ATOM      6  C   UNL     1     119.307 122.580 131.130  1.00  0.00     0.004 C 
ATOM      7  C   UNL     1     118.515 122.188 132.377  1.00  0.00     0.004 C 
ENDBRANCH   5   6
BRANCH   5   8
ATOM      8  C   UNL     1     121.856 123.285 131.386  1.00  0.00    -0.011 C 
ATOM      9  C   UNL     1     122.488 123.349 129.987  1.00  0.00     0.008 C 
ATOM     10  C   UNL     1     122.727 124.042 132.401  1.00  0.00     0.008 C 
ENDBRANCH   5   8
ENDBRANCH   4   5
ENDBRANCH   1   3
BRANCH   1  11
ATOM     11  C   UNL     1     118.243 127.207 128.982  1.00  0.00     0.002 C 
ATOM     12  C   UNL     1     118.610 126.645 127.574  1.00  0.00     0.005 C 
ATOM     13  C   UNL     1     116.969 126.377 129.386  1.00  0.00    -0.026 C 
ATOM     14  C   UNL     1     117.890 125.297 127.409  1.00  0.00     0.005 C 
ATOM     15  C   UNL     1     117.281 125.010 128.775  1.00  0.00    -0.001 C 
ATOM     16  C   UNL     1     116.635 126.195 130.904  1.00  0.00     0.007 C 
ATOM     17  C   UNL     1     115.754 127.068 128.674  1.00  0.00     0.012 C 
ATOM     18  C   UNL     1     116.123 123.965 128.840  1.00  0.00    -0.004 C 
ATOM     19  C   UNL     1     116.141 124.767 131.290  1.00  0.00     0.005 C 
ATOM     20  C   UNL     1     115.278 124.124 130.169  1.00  0.00    -0.001 C 
ATOM     21  C   UNL     1     116.761 122.559 128.671  1.00  0.00     0.004 C 
ATOM     22  C   UNL     1     114.414 122.846 130.546  1.00  0.00    -0.026 C 
ATOM     23  C   UNL     1     115.816 121.406 128.970  1.00  0.00     0.004 C 
ATOM     24  C   UNL     1     115.265 121.547 130.393  1.00  0.00    -0.002 C 
ATOM     25  C   UNL     1     113.894 122.902 132.017  1.00  0.00     0.010 C 
ATOM     26  C   UNL     1     113.174 122.835 129.593  1.00  0.00     0.012 C 
ATOM     27  C   UNL     1     114.505 120.266 130.810  1.00  0.00     0.036 C 
ATOM     28  C   UNL     1     113.100 121.651 132.425  1.00  0.00     0.032 C 
ATOM     29  C   UNL     1     113.950 120.382 132.242  1.00  0.00     0.114 C 
BRANCH  29  30
ATOM     30  O   UNL     1     113.209 119.237 132.581  1.00  0.00    -0.393 OA
ATOM     31  H   UNL     1     113.821 118.607 133.045  1.00  0.00     0.210 HD
ENDBRANCH  29  30
ENDBRANCH   1  11
TORSDOF 6
ENDMDL
MODEL 8
REMARK VINA RESULT:    -6.559      2.375      3.345
REMARK INTER + INTRA:         -10.943
REMARK INTER:                  -8.815
REMARK INTRA:                  -2.128
REMARK UNBOUND:                -2.275
REMARK SMILES CC[C@H](C=C[C@H](C)[C@H]1CC[C@@H]2[C@H]3CC[C@@H]4C[C@H](O)CC[C@@]4(C)[C@H]3CC[C@]21C)C(C)C
REMARK SMILES IDX 6 1 7 2 5 3 4 4 3 5 2 6 1 7 28 8 29 9 30 10 8 11 9 12 26 13
REMARK SMILES IDX 10 14 11 15 25 16 27 17 12 18 24 19 23 20 13 21 21 22 14 23
REMARK SMILES IDX 15 24 20 25 22 26 16 27 19 28 17 29 18 30
REMARK H PARENT 18 31
REMARK Flexibility Score: inf
ROOT
ATOM      1  C   UNL     1     113.984 120.265 128.944  1.00  0.00     0.012 C 
ATOM      2  C   UNL     1     113.672 120.472 127.445  1.00  0.00     0.012 C 
ENDROOT
BRANCH   1   3
ATOM      3  C   UNL     1     115.060 119.226 129.220  1.00  0.00    -0.028 C 
ATOM      4  C   UNL     1     115.931 118.757 128.308  1.00  0.00    -0.027 C 
BRANCH   4   5
ATOM      5  C   UNL     1     116.985 117.710 128.623  1.00  0.00     0.014 C 
BRANCH   5   6
ATOM      6  C   UNL     1     116.794 116.447 127.735  1.00  0.00     0.004 C 
ATOM      7  C   UNL     1     116.245 116.753 126.341  1.00  0.00     0.004 C 
ENDBRANCH   5   6
BRANCH   5   8
ATOM      8  C   UNL     1     118.414 118.354 128.629  1.00  0.00    -0.011 C 
ATOM      9  C   UNL     1     118.604 119.363 127.486  1.00  0.00     0.008 C 
ATOM     10  C   UNL     1     118.828 118.983 129.970  1.00  0.00     0.008 C 
ENDBRANCH   5   8
ENDBRANCH   4   5
ENDBRANCH   1   3
BRANCH   1  11
ATOM     11  C   UNL     1     114.033 121.573 129.819  1.00  0.00     0.002 C 
ATOM     12  C   UNL     1     113.608 121.258 131.286  1.00  0.00     0.005 C 
ATOM     13  C   UNL     1     115.345 122.423 129.993  1.00  0.00    -0.026 C 
ATOM     14  C   UNL     1     114.829 121.506 132.188  1.00  0.00     0.005 C 
ATOM     15  C   UNL     1     115.977 121.772 131.224  1.00  0.00    -0.001 C 
ATOM     16  C   UNL     1     116.392 122.444 128.830  1.00  0.00     0.007 C 
ATOM     17  C   UNL     1     114.878 123.891 130.287  1.00  0.00     0.012 C 
ATOM     18  C   UNL     1     117.239 122.494 131.793  1.00  0.00    -0.004 C 
ATOM     19  C   UNL     1     117.879 122.372 129.298  1.00  0.00     0.005 C 
ATOM     20  C   UNL     1     118.108 123.133 130.634  1.00  0.00    -0.001 C 
ATOM     21  C   UNL     1     118.013 121.460 132.655  1.00  0.00     0.004 C 
ATOM     22  C   UNL     1     119.606 123.457 131.049  1.00  0.00    -0.026 C 
ATOM     23  C   UNL     1     119.403 121.913 133.073  1.00  0.00     0.004 C 
ATOM     24  C   UNL     1     120.229 122.257 131.829  1.00  0.00    -0.002 C 
ATOM     25  C   UNL     1     120.511 123.737 129.808  1.00  0.00     0.010 C 
ATOM     26  C   UNL     1     119.568 124.753 131.924  1.00  0.00     0.012 C 
ATOM     27  C   UNL     1     121.713 122.478 132.206  1.00  0.00     0.036 C 
ATOM     28  C   UNL     1     121.979 124.001 130.178  1.00  0.00     0.032 C 
ATOM     29  C   UNL     1     122.564 122.816 130.968  1.00  0.00     0.114 C 
BRANCH  29  30
ATOM     30  O   UNL     1     123.894 123.076 131.337  1.00  0.00    -0.393 OA
ATOM     31  H   UNL     1     124.420 122.249 131.176  1.00  0.00     0.210 HD
ENDBRANCH  29  30
ENDBRANCH   1  11
TORSDOF 6
ENDMDL
MODEL 9
REMARK VINA RESULT:    -6.412      2.828      6.656
REMARK INTER + INTRA:         -10.749
REMARK INTER:                  -8.414
REMARK INTRA:                  -2.335
REMARK UNBOUND:                -2.275
REMARK SMILES CC[C@H](C=C[C@H](C)[C@H]1CC[C@@H]2[C@H]3CC[C@@H]4C[C@H](O)CC[C@@]4(C)[C@H]3CC[C@]21C)C(C)C
REMARK SMILES IDX 6 1 7 2 5 3 4 4 3 5 2 6 1 7 28 8 29 9 30 10 8 11 9 12 26 13
REMARK SMILES IDX 10 14 11 15 25 16 27 17 12 18 24 19 23 20 13 21 21 22 14 23
REMARK SMILES IDX 15 24 20 25 22 26 16 27 19 28 17 29 18 30
REMARK H PARENT 18 31
REMARK Flexibility Score: inf
ROOT
ATOM      1  C   UNL     1     116.602 126.268 130.159  1.00  0.00     0.012 C 
ATOM      2  C   UNL     1     115.608 126.758 129.084  1.00  0.00     0.012 C 
ENDROOT
BRANCH   1   3
ATOM      3  C   UNL     1     116.027 125.238 131.120  1.00  0.00    -0.028 C 
ATOM      4  C   UNL     1     115.282 124.178 130.757  1.00  0.00    -0.027 C 
BRANCH   4   5
ATOM      5  C   UNL     1     114.717 123.177 131.749  1.00  0.00     0.014 C 
BRANCH   5   6
ATOM      6  C   UNL     1     113.309 122.689 131.304  1.00  0.00     0.004 C 
ATOM      7  C   UNL     1     112.963 123.046 129.858  1.00  0.00     0.004 C 
ENDBRANCH   5   6
BRANCH   5   8
ATOM      8  C   UNL     1     115.776 122.066 132.071  1.00  0.00    -0.011 C 
ATOM      9  C   UNL     1     115.626 121.515 133.498  1.00  0.00     0.008 C 
ATOM     10  C   UNL     1     115.823 120.913 131.056  1.00  0.00     0.008 C 
ENDBRANCH   5   8
ENDBRANCH   4   5
ENDBRANCH   1   3
BRANCH   1  11
ATOM     11  C   UNL     1     118.076 126.018 129.665  1.00  0.00     0.002 C 
ATOM     12  C   UNL     1     119.078 126.172 130.850  1.00  0.00     0.005 C 
ATOM     13  C   UNL     1     118.520 124.672 128.984  1.00  0.00    -0.026 C 
ATOM     14  C   UNL     1     119.723 124.798 131.095  1.00  0.00     0.005 C 
ATOM     15  C   UNL     1     118.959 123.841 130.191  1.00  0.00    -0.001 C 
ATOM     16  C   UNL     1     117.467 123.859 128.158  1.00  0.00     0.007 C 
ATOM     17  C   UNL     1     119.731 125.031 128.054  1.00  0.00     0.012 C 
ATOM     18  C   UNL     1     119.635 122.474 129.856  1.00  0.00    -0.004 C 
ATOM     19  C   UNL     1     117.537 122.314 128.364  1.00  0.00     0.005 C 
ATOM     20  C   UNL     1     118.997 121.817 128.564  1.00  0.00    -0.001 C 
ATOM     21  C   UNL     1     119.529 121.585 131.125  1.00  0.00     0.004 C 
ATOM     22  C   UNL     1     119.270 120.259 128.427  1.00  0.00    -0.026 C 
ATOM     23  C   UNL     1     119.902 120.128 130.898  1.00  0.00     0.004 C 
ATOM     24  C   UNL     1     119.023 119.539 129.789  1.00  0.00    -0.002 C 
ATOM     25  C   UNL     1     118.341 119.593 127.363  1.00  0.00     0.010 C 
ATOM     26  C   UNL     1     120.750 120.095 127.949  1.00  0.00     0.012 C 
ATOM     27  C   UNL     1     119.206 118.004 129.710  1.00  0.00     0.036 C 
ATOM     28  C   UNL     1     118.547 118.074 127.248  1.00  0.00     0.032 C 
ATOM     29  C   UNL     1     118.324 117.389 128.607  1.00  0.00     0.114 C 
BRANCH  29  30
ATOM     30  O   UNL     1     118.549 116.006 128.507  1.00  0.00    -0.393 OA
ATOM     31  H   UNL     1     119.417 115.808 128.948  1.00  0.00     0.210 HD
ENDBRANCH  29  30
ENDBRANCH   1  11
TORSDOF 6
ENDMDL
