MODEL 1
REMARK VINA RESULT:    -3.327      0.000      0.000
REMARK INTER + INTRA:          -4.525
REMARK INTER:                  -4.396
REMARK INTRA:                  -0.128
REMARK UNBOUND:                -0.128
REMARK SMILES CCCCCCCO
REMARK SMILES IDX 5 1 4 2 3 3 2 4 1 5 6 6 7 7 8 8
REMARK H PARENT 8 9
REMARK Flexibility Score: inf
ROOT
ATOM      1  C   UNL     1       9.565   7.928  42.999  1.00  0.00     0.002 C 
ENDROOT
BRANCH   1   2
ATOM      2  C   UNL     1       8.864   7.843  44.364  1.00  0.00     0.000 C 
BRANCH   2   3
ATOM      3  C   UNL     1       8.081   6.531  44.546  1.00  0.00    -0.000 C 
BRANCH   3   4
ATOM      4  C   UNL     1       6.648   6.766  45.049  1.00  0.00    -0.003 C 
ATOM      5  C   UNL     1       5.884   5.464  45.292  1.00  0.00     0.004 C 
ENDBRANCH   3   4
ENDBRANCH   2   3
ENDBRANCH   1   2
BRANCH   1   6
ATOM      6  C   UNL     1       9.672   6.562  42.300  1.00  0.00     0.028 C 
BRANCH   6   7
ATOM      7  C   UNL     1      10.739   6.571  41.201  1.00  0.00     0.156 C 
BRANCH   7   8
ATOM      8  O   UNL     1      11.810   5.730  41.534  1.00  0.00    -0.396 OA
ATOM      9  H   UNL     1      11.708   5.507  42.495  1.00  0.00     0.210 HD
ENDBRANCH   7   8
ENDBRANCH   6   7
ENDBRANCH   1   6
TORSDOF 6
ENDMDL
MODEL 2
REMARK VINA RESULT:    -3.180      1.159      1.553
REMARK INTER + INTRA:          -4.331
REMARK INTER:                  -4.148
REMARK INTRA:                  -0.183
REMARK UNBOUND:                -0.128
REMARK SMILES CCCCCCCO
REMARK SMILES IDX 5 1 4 2 3 3 2 4 1 5 6 6 7 7 8 8
REMARK H PARENT 8 9
REMARK Flexibility Score: inf
ROOT
ATOM      1  C   UNL     1       8.698   6.474  42.757  1.00  0.00     0.002 C 
ENDROOT
BRANCH   1   2
ATOM      2  C   UNL     1       8.248   6.561  44.224  1.00  0.00     0.000 C 
BRANCH   2   3
ATOM      3  C   UNL     1       8.658   7.886  44.890  1.00  0.00    -0.000 C 
BRANCH   3   4
ATOM      4  C   UNL     1       7.452   8.788  45.197  1.00  0.00    -0.003 C 
ATOM      5  C   UNL     1       6.128   8.022  45.218  1.00  0.00     0.004 C 
ENDBRANCH   3   4
ENDBRANCH   2   3
ENDBRANCH   1   2
BRANCH   1   6
ATOM      6  C   UNL     1      10.072   7.122  42.518  1.00  0.00     0.028 C 
BRANCH   6   7
ATOM      7  C   UNL     1      10.808   6.470  41.343  1.00  0.00     0.156 C 
BRANCH   7   8
ATOM      8  O   UNL     1      11.995   5.859  41.773  1.00  0.00    -0.396 OA
ATOM      9  H   UNL     1      11.908   4.892  41.565  1.00  0.00     0.210 HD
ENDBRANCH   7   8
ENDBRANCH   6   7
ENDBRANCH   1   6
TORSDOF 6
ENDMDL
MODEL 3
REMARK VINA RESULT:    -3.175      2.792      4.810
REMARK INTER + INTRA:          -4.324
REMARK INTER:                  -4.166
REMARK INTRA:                  -0.158
REMARK UNBOUND:                -0.128
REMARK SMILES CCCCCCCO
REMARK SMILES IDX 5 1 4 2 3 3 2 4 1 5 6 6 7 7 8 8
REMARK H PARENT 8 9
REMARK Flexibility Score: inf
ROOT
ATOM      1  C   UNL     1       7.939   6.546  44.457  1.00  0.00     0.002 C 
ENDROOT
BRANCH   1   2
ATOM      2  C   UNL     1       8.739   7.838  44.691  1.00  0.00     0.000 C 
BRANCH   2   3
ATOM      3  C   UNL     1       9.541   8.270  43.451  1.00  0.00    -0.000 C 
BRANCH   3   4
ATOM      4  C   UNL     1       9.447   7.249  42.306  1.00  0.00    -0.003 C 
ATOM      5  C   UNL     1      10.816   6.746  41.845  1.00  0.00     0.004 C 
ENDBRANCH   3   4
ENDBRANCH   2   3
ENDBRANCH   1   2
BRANCH   1   6
ATOM      6  C   UNL     1       6.595   6.536  45.203  1.00  0.00     0.028 C 
BRANCH   6   7
ATOM      7  C   UNL     1       5.806   5.251  44.930  1.00  0.00     0.156 C 
BRANCH   7   8
ATOM      8  O   UNL     1       5.626   4.512  46.108  1.00  0.00    -0.396 OA
ATOM      9  H   UNL     1       6.228   3.727  46.046  1.00  0.00     0.210 HD
ENDBRANCH   7   8
ENDBRANCH   6   7
ENDBRANCH   1   6
TORSDOF 6
ENDMDL
MODEL 4
REMARK VINA RESULT:    -3.039     13.286     14.378
REMARK INTER + INTRA:          -4.145
REMARK INTER:                  -3.980
REMARK INTRA:                  -0.164
REMARK UNBOUND:                -0.128
REMARK SMILES CCCCCCCO
REMARK SMILES IDX 5 1 4 2 3 3 2 4 1 5 6 6 7 7 8 8
REMARK H PARENT 8 9
REMARK Flexibility Score: inf
ROOT
ATOM      1  C   UNL     1       9.366  -1.019  33.140  1.00  0.00     0.002 C 
ENDROOT
BRANCH   1   2
ATOM      2  C   UNL     1       9.098  -0.270  31.825  1.00  0.00     0.000 C 
BRANCH   2   3
ATOM      3  C   UNL     1      10.241  -0.436  30.808  1.00  0.00    -0.000 C 
BRANCH   3   4
ATOM      4  C   UNL     1      10.893   0.904  30.433  1.00  0.00    -0.003 C 
ATOM      5  C   UNL     1      10.529   2.032  31.398  1.00  0.00     0.004 C 
ENDBRANCH   3   4
ENDBRANCH   2   3
ENDBRANCH   1   2
BRANCH   1   6
ATOM      6  C   UNL     1       9.671  -2.510  32.923  1.00  0.00     0.028 C 
BRANCH   6   7
ATOM      7  C   UNL     1       8.439  -3.384  33.180  1.00  0.00     0.156 C 
BRANCH   7   8
ATOM      8  O   UNL     1       8.814  -4.668  33.602  1.00  0.00    -0.396 OA
ATOM      9  H   UNL     1       8.672  -5.274  32.830  1.00  0.00     0.210 HD
ENDBRANCH   7   8
ENDBRANCH   6   7
ENDBRANCH   1   6
TORSDOF 6
ENDMDL
MODEL 5
REMARK VINA RESULT:    -3.022     11.370     13.073
REMARK INTER + INTRA:          -4.122
REMARK INTER:                  -3.999
REMARK INTRA:                  -0.123
REMARK UNBOUND:                -0.128
REMARK SMILES CCCCCCCO
REMARK SMILES IDX 5 1 4 2 3 3 2 4 1 5 6 6 7 7 8 8
REMARK H PARENT 8 9
REMARK Flexibility Score: inf
ROOT
ATOM      1  C   UNL     1       8.941  -1.376  35.123  1.00  0.00     0.002 C 
ENDROOT
BRANCH   1   2
ATOM      2  C   UNL     1       9.863  -0.923  33.979  1.00  0.00     0.000 C 
BRANCH   2   3
ATOM      3  C   UNL     1       9.224  -1.118  32.593  1.00  0.00    -0.000 C 
BRANCH   3   4
ATOM      4  C   UNL     1       9.496   0.064  31.649  1.00  0.00    -0.003 C 
ATOM      5  C   UNL     1      10.441  -0.298  30.502  1.00  0.00     0.004 C 
ENDBRANCH   3   4
ENDBRANCH   2   3
ENDBRANCH   1   2
BRANCH   1   6
ATOM      6  C   UNL     1       7.457  -1.388  34.721  1.00  0.00     0.028 C 
BRANCH   6   7
ATOM      7  C   UNL     1       6.538  -1.349  35.946  1.00  0.00     0.156 C 
BRANCH   7   8
ATOM      8  O   UNL     1       6.264  -0.027  36.325  1.00  0.00    -0.396 OA
ATOM      9  H   UNL     1       7.061   0.510  36.081  1.00  0.00     0.210 HD
ENDBRANCH   7   8
ENDBRANCH   6   7
ENDBRANCH   1   6
TORSDOF 6
ENDMDL
MODEL 6
REMARK VINA RESULT:    -2.981     12.303     13.674
REMARK INTER + INTRA:          -4.068
REMARK INTER:                  -3.919
REMARK INTRA:                  -0.149
REMARK UNBOUND:                -0.128
REMARK SMILES CCCCCCCO
REMARK SMILES IDX 5 1 4 2 3 3 2 4 1 5 6 6 7 7 8 8
REMARK H PARENT 8 9
REMARK Flexibility Score: inf
ROOT
ATOM      1  C   UNL     1       9.232  -1.333  32.590  1.00  0.00     0.002 C 
ENDROOT
BRANCH   1   2
ATOM      2  C   UNL     1       9.234  -0.057  31.733  1.00  0.00     0.000 C 
BRANCH   2   3
ATOM      3  C   UNL     1      10.321  -0.079  30.644  1.00  0.00    -0.000 C 
BRANCH   3   4
ATOM      4  C   UNL     1      11.013   1.284  30.477  1.00  0.00    -0.003 C 
ATOM      5  C   UNL     1      10.532   2.322  31.491  1.00  0.00     0.004 C 
ENDBRANCH   3   4
ENDBRANCH   2   3
ENDBRANCH   1   2
BRANCH   1   6
ATOM      6  C   UNL     1       8.958  -1.049  34.077  1.00  0.00     0.028 C 
BRANCH   6   7
ATOM      7  C   UNL     1       7.682  -1.747  34.560  1.00  0.00     0.156 C 
BRANCH   7   8
ATOM      8  O   UNL     1       6.931  -0.900  35.389  1.00  0.00    -0.396 OA
ATOM      9  H   UNL     1       7.530  -0.155  35.652  1.00  0.00     0.210 HD
ENDBRANCH   7   8
ENDBRANCH   6   7
ENDBRANCH   1   6
TORSDOF 6
ENDMDL
MODEL 7
REMARK VINA RESULT:    -2.875     11.775     13.042
REMARK INTER + INTRA:          -3.928
REMARK INTER:                  -3.685
REMARK INTRA:                  -0.243
REMARK UNBOUND:                -0.128
REMARK SMILES CCCCCCCO
REMARK SMILES IDX 5 1 4 2 3 3 2 4 1 5 6 6 7 7 8 8
REMARK H PARENT 8 9
REMARK Flexibility Score: inf
ROOT
ATOM      1  C   UNL     1      12.217   2.548  32.382  1.00  0.00     0.002 C 
ENDROOT
BRANCH   1   2
ATOM      2  C   UNL     1      10.875   2.332  31.666  1.00  0.00     0.000 C 
BRANCH   2   3
ATOM      3  C   UNL     1      11.022   1.523  30.365  1.00  0.00    -0.000 C 
BRANCH   3   4
ATOM      4  C   UNL     1      10.536   0.073  30.516  1.00  0.00    -0.003 C 
ATOM      5  C   UNL     1       9.416  -0.073  31.546  1.00  0.00     0.004 C 
ENDBRANCH   3   4
ENDBRANCH   2   3
ENDBRANCH   1   2
BRANCH   1   6
ATOM      6  C   UNL     1      12.379   1.656  33.623  1.00  0.00     0.028 C 
BRANCH   6   7
ATOM      7  C   UNL     1      13.717   0.909  33.613  1.00  0.00     0.156 C 
BRANCH   7   8
ATOM      8  O   UNL     1      14.395   1.077  34.830  1.00  0.00    -0.396 OA
ATOM      9  H   UNL     1      14.702   2.020  34.856  1.00  0.00     0.210 HD
ENDBRANCH   7   8
ENDBRANCH   6   7
ENDBRANCH   1   6
TORSDOF 6
ENDMDL
MODEL 8
REMARK VINA RESULT:    -2.863     10.911     12.071
REMARK INTER + INTRA:          -3.912
REMARK INTER:                  -3.717
REMARK INTRA:                  -0.195
REMARK UNBOUND:                -0.128
REMARK SMILES CCCCCCCO
REMARK SMILES IDX 5 1 4 2 3 3 2 4 1 5 6 6 7 7 8 8
REMARK H PARENT 8 9
REMARK Flexibility Score: inf
ROOT
ATOM      1  C   UNL     1       9.032  -1.042  34.819  1.00  0.00     0.002 C 
ENDROOT
BRANCH   1   2
ATOM      2  C   UNL     1       7.831  -1.963  34.552  1.00  0.00     0.000 C 
BRANCH   2   3
ATOM      3  C   UNL     1       6.494  -1.329  34.975  1.00  0.00    -0.000 C 
BRANCH   3   4
ATOM      4  C   UNL     1       6.606  -0.547  36.294  1.00  0.00    -0.003 C 
ATOM      5  C   UNL     1       5.698  -1.102  37.391  1.00  0.00     0.004 C 
ENDBRANCH   3   4
ENDBRANCH   2   3
ENDBRANCH   1   2
BRANCH   1   6
ATOM      6  C   UNL     1       9.969  -0.921  33.606  1.00  0.00     0.028 C 
BRANCH   6   7
ATOM      7  C   UNL     1       9.427  -1.685  32.394  1.00  0.00     0.156 C 
BRANCH   7   8
ATOM      8  O   UNL     1       9.102  -0.806  31.350  1.00  0.00    -0.396 OA
ATOM      9  H   UNL     1       8.119  -0.680  31.380  1.00  0.00     0.210 HD
ENDBRANCH   7   8
ENDBRANCH   6   7
ENDBRANCH   1   6
TORSDOF 6
ENDMDL
MODEL 9
REMARK VINA RESULT:    -2.863     11.903     13.165
REMARK INTER + INTRA:          -3.911
REMARK INTER:                  -3.762
REMARK INTRA:                  -0.149
REMARK UNBOUND:                -0.128
REMARK SMILES CCCCCCCO
REMARK SMILES IDX 5 1 4 2 3 3 2 4 1 5 6 6 7 7 8 8
REMARK H PARENT 8 9
REMARK Flexibility Score: inf
ROOT
ATOM      1  C   UNL     1       9.183  -0.248  31.712  1.00  0.00     0.002 C 
ENDROOT
BRANCH   1   2
ATOM      2  C   UNL     1       9.249  -1.396  32.732  1.00  0.00     0.000 C 
BRANCH   2   3
ATOM      3  C   UNL     1       9.886  -0.965  34.065  1.00  0.00    -0.000 C 
BRANCH   3   4
ATOM      4  C   UNL     1       8.937  -1.157  35.259  1.00  0.00    -0.003 C 
ATOM      5  C   UNL     1       7.488  -1.398  34.833  1.00  0.00     0.004 C 
ENDBRANCH   3   4
ENDBRANCH   2   3
ENDBRANCH   1   2
BRANCH   1   6
ATOM      6  C   UNL     1      10.298  -0.327  30.656  1.00  0.00     0.028 C 
BRANCH   6   7
ATOM      7  C   UNL     1      11.358   0.758  30.872  1.00  0.00     0.156 C 
BRANCH   7   8
ATOM      8  O   UNL     1      11.399   1.643  29.784  1.00  0.00    -0.396 OA
ATOM      9  H   UNL     1      11.675   2.525  30.145  1.00  0.00     0.210 HD
ENDBRANCH   7   8
ENDBRANCH   6   7
ENDBRANCH   1   6
TORSDOF 6
ENDMDL
