MODEL 1
REMARK VINA RESULT:    -4.860      0.000      0.000
REMARK INTER + INTRA:          -5.952
REMARK INTER:                  -5.713
REMARK INTRA:                  -0.239
REMARK UNBOUND:                -0.239
REMARK SMILES CCC=Cc1oc(O)c2c(O)cccc12
REMARK SMILES IDX 7 1 6 2 5 3 15 4 14 5 13 6 12 7 10 8 9 9 8 10 4 12 3 13 2 14
REMARK SMILES IDX 1 15 11 16
REMARK H PARENT 8 11 11 17
REMARK Flexibility Score: inf
ROOT
ATOM      1  C   UNL     1      47.141  28.582  27.567  1.00  0.00     0.294 A 
ATOM      2  O   UNL     1      47.329  29.243  26.443  1.00  0.00    -0.425 OA
ATOM      3  C   UNL     1      46.248  29.952  26.177  1.00  0.00     0.138 A 
ATOM      4  C   UNL     1      45.305  29.723  27.172  1.00  0.00     0.035 A 
ATOM      5  C   UNL     1      43.984  30.152  27.320  1.00  0.00     0.013 A 
ATOM      6  C   UNL     1      43.266  29.706  28.444  1.00  0.00     0.005 A 
ATOM      7  C   UNL     1      43.866  28.837  29.379  1.00  0.00     0.047 A 
ATOM      8  C   UNL     1      45.188  28.390  29.197  1.00  0.00     0.130 A 
ATOM      9  C   UNL     1      45.882  28.853  28.068  1.00  0.00     0.108 A 
ENDROOT
BRANCH   1  10
ATOM     10  O   UNL     1      48.089  27.738  28.132  1.00  0.00    -0.480 OA
ATOM     11  H   UNL     1      48.612  27.092  27.553  1.00  0.00     0.297 HD
ENDBRANCH   1  10
BRANCH   3  12
ATOM     12  C   UNL     1      46.137  30.812  24.986  1.00  0.00     0.043 C 
ATOM     13  C   UNL     1      46.013  32.139  25.060  1.00  0.00    -0.023 C 
BRANCH  13  14
ATOM     14  C   UNL     1      45.934  32.970  23.812  1.00  0.00     0.024 C 
ATOM     15  C   UNL     1      44.493  33.119  23.333  1.00  0.00     0.008 C 
ENDBRANCH  13  14
ENDBRANCH   3  12
BRANCH   8  16
ATOM     16  O   UNL     1      45.751  27.515  30.125  1.00  0.00    -0.507 OA
ATOM     17  H   UNL     1      45.933  26.543  29.919  1.00  0.00     0.293 HD
ENDBRANCH   8  16
TORSDOF 4
ENDMDL
MODEL 2
REMARK VINA RESULT:    -4.630      1.730      2.691
REMARK INTER + INTRA:          -5.681
REMARK INTER:                  -5.478
REMARK INTRA:                  -0.203
REMARK UNBOUND:                -0.239
REMARK SMILES CCC=Cc1oc(O)c2c(O)cccc12
REMARK SMILES IDX 7 1 6 2 5 3 15 4 14 5 13 6 12 7 10 8 9 9 8 10 4 12 3 13 2 14
REMARK SMILES IDX 1 15 11 16
REMARK H PARENT 8 11 11 17
REMARK Flexibility Score: inf
ROOT
ATOM      1  C   UNL     1      43.656  29.804  27.627  1.00  0.00     0.294 A 
ATOM      2  O   UNL     1      43.871  30.513  26.537  1.00  0.00    -0.425 OA
ATOM      3  C   UNL     1      45.155  30.461  26.239  1.00  0.00     0.138 A 
ATOM      4  C   UNL     1      45.808  29.694  27.197  1.00  0.00     0.035 A 
ATOM      5  C   UNL     1      47.160  29.402  27.395  1.00  0.00     0.013 A 
ATOM      6  C   UNL     1      47.510  28.611  28.502  1.00  0.00     0.005 A 
ATOM      7  C   UNL     1      46.520  28.146  29.393  1.00  0.00     0.047 A 
ATOM      8  C   UNL     1      45.167  28.477  29.196  1.00  0.00     0.130 A 
ATOM      9  C   UNL     1      44.844  29.265  28.081  1.00  0.00     0.108 A 
ENDROOT
BRANCH   1  10
ATOM     10  O   UNL     1      42.405  29.651  28.213  1.00  0.00    -0.480 OA
ATOM     11  H   UNL     1      41.968  30.424  28.700  1.00  0.00     0.297 HD
ENDBRANCH   1  10
BRANCH   3  12
ATOM     12  C   UNL     1      45.725  31.148  25.068  1.00  0.00     0.043 C 
ATOM     13  C   UNL     1      45.668  32.473  24.907  1.00  0.00    -0.023 C 
BRANCH  13  14
ATOM     14  C   UNL     1      46.292  33.125  23.707  1.00  0.00     0.024 C 
ATOM     15  C   UNL     1      45.442  32.919  22.457  1.00  0.00     0.008 C 
ENDBRANCH  13  14
ENDBRANCH   3  12
BRANCH   8  16
ATOM     16  O   UNL     1      44.210  28.021  30.103  1.00  0.00    -0.507 OA
ATOM     17  H   UNL     1      43.829  28.604  30.834  1.00  0.00     0.293 HD
ENDBRANCH   8  16
TORSDOF 4
ENDMDL
MODEL 3
REMARK VINA RESULT:    -4.387     12.689     14.173
REMARK INTER + INTRA:          -5.396
REMARK INTER:                  -5.217
REMARK INTRA:                  -0.178
REMARK UNBOUND:                -0.239
REMARK SMILES CCC=Cc1oc(O)c2c(O)cccc12
REMARK SMILES IDX 7 1 6 2 5 3 15 4 14 5 13 6 12 7 10 8 9 9 8 10 4 12 3 13 2 14
REMARK SMILES IDX 1 15 11 16
REMARK H PARENT 8 11 11 17
REMARK Flexibility Score: inf
ROOT
ATOM      1  C   UNL     1      32.184  32.736  23.446  1.00  0.00     0.294 A 
ATOM      2  O   UNL     1      33.381  32.735  23.997  1.00  0.00    -0.425 OA
ATOM      3  C   UNL     1      33.274  32.349  25.254  1.00  0.00     0.138 A 
ATOM      4  C   UNL     1      31.935  32.106  25.537  1.00  0.00     0.035 A 
ATOM      5  C   UNL     1      31.280  31.766  26.723  1.00  0.00     0.013 A 
ATOM      6  C   UNL     1      29.882  31.623  26.689  1.00  0.00     0.005 A 
ATOM      7  C   UNL     1      29.169  31.838  25.490  1.00  0.00     0.047 A 
ATOM      8  C   UNL     1      29.842  32.212  24.313  1.00  0.00     0.130 A 
ATOM      9  C   UNL     1      31.238  32.344  24.375  1.00  0.00     0.108 A 
ENDROOT
BRANCH   1  10
ATOM     10  O   UNL     1      31.943  33.093  22.126  1.00  0.00    -0.480 OA
ATOM     11  H   UNL     1      31.072  33.539  21.864  1.00  0.00     0.297 HD
ENDBRANCH   1  10
BRANCH   3  12
ATOM     12  C   UNL     1      34.438  32.237  26.151  1.00  0.00     0.043 C 
ATOM     13  C   UNL     1      35.690  32.455  25.741  1.00  0.00    -0.023 C 
BRANCH  13  14
ATOM     14  C   UNL     1      36.837  32.356  26.705  1.00  0.00     0.024 C 
ATOM     15  C   UNL     1      37.610  31.054  26.518  1.00  0.00     0.008 C 
ENDBRANCH  13  14
ENDBRANCH   3  12
BRANCH   8  16
ATOM     16  O   UNL     1      29.112  32.438  23.147  1.00  0.00    -0.507 OA
ATOM     17  H   UNL     1      29.281  31.932  22.289  1.00  0.00     0.293 HD
ENDBRANCH   8  16
TORSDOF 4
ENDMDL
MODEL 4
REMARK VINA RESULT:    -4.334      2.497      5.843
REMARK INTER + INTRA:          -5.333
REMARK INTER:                  -5.149
REMARK INTRA:                  -0.184
REMARK UNBOUND:                -0.239
REMARK SMILES CCC=Cc1oc(O)c2c(O)cccc12
REMARK SMILES IDX 7 1 6 2 5 3 15 4 14 5 13 6 12 7 10 8 9 9 8 10 4 12 3 13 2 14
REMARK SMILES IDX 1 15 11 16
REMARK H PARENT 8 11 11 17
REMARK Flexibility Score: inf
ROOT
ATOM      1  C   UNL     1      46.860  30.292  23.876  1.00  0.00     0.294 A 
ATOM      2  O   UNL     1      46.199  29.966  24.969  1.00  0.00    -0.425 OA
ATOM      3  C   UNL     1      45.032  30.581  24.963  1.00  0.00     0.138 A 
ATOM      4  C   UNL     1      44.941  31.361  23.816  1.00  0.00     0.035 A 
ATOM      5  C   UNL     1      43.967  32.262  23.377  1.00  0.00     0.013 A 
ATOM      6  C   UNL     1      44.190  32.936  22.164  1.00  0.00     0.005 A 
ATOM      7  C   UNL     1      45.374  32.716  21.429  1.00  0.00     0.047 A 
ATOM      8  C   UNL     1      46.358  31.830  21.903  1.00  0.00     0.130 A 
ATOM      9  C   UNL     1      46.108  31.167  23.115  1.00  0.00     0.108 A 
ENDROOT
BRANCH   1  10
ATOM     10  O   UNL     1      48.128  29.815  23.571  1.00  0.00    -0.480 OA
ATOM     11  H   UNL     1      48.892  29.932  24.226  1.00  0.00     0.297 HD
ENDBRANCH   1  10
BRANCH   3  12
ATOM     12  C   UNL     1      44.048  30.423  26.048  1.00  0.00     0.043 C 
ATOM     13  C   UNL     1      44.399  30.204  27.317  1.00  0.00    -0.023 C 
BRANCH  13  14
ATOM     14  C   UNL     1      43.354  30.081  28.389  1.00  0.00     0.024 C 
ATOM     15  C   UNL     1      43.880  30.565  29.737  1.00  0.00     0.008 C 
ENDBRANCH  13  14
ENDBRANCH   3  12
BRANCH   8  16
ATOM     16  O   UNL     1      47.528  31.645  21.167  1.00  0.00    -0.507 OA
ATOM     17  H   UNL     1      48.444  31.867  21.533  1.00  0.00     0.293 HD
ENDBRANCH   8  16
TORSDOF 4
ENDMDL
MODEL 5
REMARK VINA RESULT:    -4.172     13.127     15.350
REMARK INTER + INTRA:          -5.143
REMARK INTER:                  -4.882
REMARK INTRA:                  -0.261
REMARK UNBOUND:                -0.239
REMARK SMILES CCC=Cc1oc(O)c2c(O)cccc12
REMARK SMILES IDX 7 1 6 2 5 3 15 4 14 5 13 6 12 7 10 8 9 9 8 10 4 12 3 13 2 14
REMARK SMILES IDX 1 15 11 16
REMARK H PARENT 8 11 11 17
REMARK Flexibility Score: inf
ROOT
ATOM      1  C   UNL     1      29.867  30.986  25.635  1.00  0.00     0.294 A 
ATOM      2  O   UNL     1      29.578  30.023  26.488  1.00  0.00    -0.425 OA
ATOM      3  C   UNL     1      30.654  29.745  27.200  1.00  0.00     0.138 A 
ATOM      4  C   UNL     1      31.697  30.557  26.772  1.00  0.00     0.035 A 
ATOM      5  C   UNL     1      33.047  30.604  27.129  1.00  0.00     0.013 A 
ATOM      6  C   UNL     1      33.873  31.534  26.473  1.00  0.00     0.005 A 
ATOM      7  C   UNL     1      33.347  32.377  25.472  1.00  0.00     0.047 A 
ATOM      8  C   UNL     1      31.992  32.294  25.103  1.00  0.00     0.130 A 
ATOM      9  C   UNL     1      31.190  31.359  25.776  1.00  0.00     0.108 A 
ENDROOT
BRANCH   1  10
ATOM     10  O   UNL     1      28.953  31.517  24.733  1.00  0.00    -0.480 OA
ATOM     11  H   UNL     1      28.704  32.498  24.772  1.00  0.00     0.297 HD
ENDBRANCH   1  10
BRANCH   3  12
ATOM     12  C   UNL     1      30.663  28.712  28.250  1.00  0.00     0.043 C 
ATOM     13  C   UNL     1      31.114  27.473  28.042  1.00  0.00    -0.023 C 
BRANCH  13  14
ATOM     14  C   UNL     1      31.128  26.468  29.159  1.00  0.00     0.024 C 
ATOM     15  C   UNL     1      32.407  26.572  29.984  1.00  0.00     0.008 C 
ENDBRANCH  13  14
ENDBRANCH   3  12
BRANCH   8  16
ATOM     16  O   UNL     1      31.502  33.125  24.097  1.00  0.00    -0.507 OA
ATOM     17  H   UNL     1      30.682  32.898  23.552  1.00  0.00     0.293 HD
ENDBRANCH   8  16
TORSDOF 4
ENDMDL
MODEL 6
REMARK VINA RESULT:    -4.164     12.628     14.727
REMARK INTER + INTRA:          -5.133
REMARK INTER:                  -4.921
REMARK INTRA:                  -0.213
REMARK UNBOUND:                -0.239
REMARK SMILES CCC=Cc1oc(O)c2c(O)cccc12
REMARK SMILES IDX 7 1 6 2 5 3 15 4 14 5 13 6 12 7 10 8 9 9 8 10 4 12 3 13 2 14
REMARK SMILES IDX 1 15 11 16
REMARK H PARENT 8 11 11 17
REMARK Flexibility Score: inf
ROOT
ATOM      1  C   UNL     1      32.874  31.813  26.200  1.00  0.00     0.294 A 
ATOM      2  O   UNL     1      33.172  30.984  27.181  1.00  0.00    -0.425 OA
ATOM      3  C   UNL     1      32.217  30.080  27.283  1.00  0.00     0.138 A 
ATOM      4  C   UNL     1      31.241  30.349  26.331  1.00  0.00     0.035 A 
ATOM      5  C   UNL     1      30.000  29.758  26.076  1.00  0.00     0.013 A 
ATOM      6  C   UNL     1      29.212  30.296  25.043  1.00  0.00     0.005 A 
ATOM      7  C   UNL     1      29.662  31.410  24.305  1.00  0.00     0.047 A 
ATOM      8  C   UNL     1      30.900  32.012  24.597  1.00  0.00     0.130 A 
ATOM      9  C   UNL     1      31.668  31.453  25.631  1.00  0.00     0.108 A 
ENDROOT
BRANCH   1  10
ATOM     10  O   UNL     1      33.675  32.885  25.827  1.00  0.00    -0.480 OA
ATOM     11  H   UNL     1      33.272  33.805  25.695  1.00  0.00     0.297 HD
ENDBRANCH   1  10
BRANCH   3  12
ATOM     12  C   UNL     1      32.251  29.001  28.285  1.00  0.00     0.043 C 
ATOM     13  C   UNL     1      32.985  27.896  28.134  1.00  0.00    -0.023 C 
BRANCH  13  14
ATOM     14  C   UNL     1      33.007  26.840  29.202  1.00  0.00     0.024 C 
ATOM     15  C   UNL     1      34.393  26.221  29.344  1.00  0.00     0.008 C 
ENDBRANCH  13  14
ENDBRANCH   3  12
BRANCH   8  16
ATOM     16  O   UNL     1      31.312  33.125  23.865  1.00  0.00    -0.507 OA
ATOM     17  H   UNL     1      30.770  33.975  23.811  1.00  0.00     0.293 HD
ENDBRANCH   8  16
TORSDOF 4
ENDMDL
MODEL 7
REMARK VINA RESULT:    -4.069      3.449      5.910
REMARK INTER + INTRA:          -5.022
REMARK INTER:                  -4.814
REMARK INTRA:                  -0.207
REMARK UNBOUND:                -0.239
REMARK SMILES CCC=Cc1oc(O)c2c(O)cccc12
REMARK SMILES IDX 7 1 6 2 5 3 15 4 14 5 13 6 12 7 10 8 9 9 8 10 4 12 3 13 2 14
REMARK SMILES IDX 1 15 11 16
REMARK H PARENT 8 11 11 17
REMARK Flexibility Score: inf
ROOT
ATOM      1  C   UNL     1      45.987  26.028  29.483  1.00  0.00     0.294 A 
ATOM      2  O   UNL     1      44.798  25.461  29.526  1.00  0.00    -0.425 OA
ATOM      3  C   UNL     1      43.874  26.401  29.470  1.00  0.00     0.138 A 
ATOM      4  C   UNL     1      44.498  27.641  29.406  1.00  0.00     0.035 A 
ATOM      5  C   UNL     1      43.989  28.943  29.418  1.00  0.00     0.013 A 
ATOM      6  C   UNL     1      44.903  30.010  29.379  1.00  0.00     0.005 A 
ATOM      7  C   UNL     1      46.292  29.764  29.347  1.00  0.00     0.047 A 
ATOM      8  C   UNL     1      46.787  28.447  29.368  1.00  0.00     0.130 A 
ATOM      9  C   UNL     1      45.853  27.400  29.404  1.00  0.00     0.108 A 
ENDROOT
BRANCH   1  10
ATOM     10  O   UNL     1      47.181  25.317  29.523  1.00  0.00    -0.480 OA
ATOM     11  H   UNL     1      48.069  25.804  29.518  1.00  0.00     0.297 HD
ENDBRANCH   1  10
BRANCH   3  12
ATOM     12  C   UNL     1      42.432  26.098  29.492  1.00  0.00     0.043 C 
ATOM     13  C   UNL     1      41.942  24.951  29.968  1.00  0.00    -0.023 C 
BRANCH  13  14
ATOM     14  C   UNL     1      40.460  24.706  29.994  1.00  0.00     0.024 C 
ATOM     15  C   UNL     1      39.683  26.012  30.124  1.00  0.00     0.008 C 
ENDBRANCH  13  14
ENDBRANCH   3  12
BRANCH   8  16
ATOM     16  O   UNL     1      48.165  28.231  29.357  1.00  0.00    -0.507 OA
ATOM     17  H   UNL     1      48.703  28.090  30.200  1.00  0.00     0.293 HD
ENDBRANCH   8  16
TORSDOF 4
ENDMDL
