MODEL 1
REMARK VINA RESULT:    -4.068      0.000      0.000
REMARK INTER + INTRA:          -5.403
REMARK INTER:                  -5.256
REMARK INTRA:                  -0.147
REMARK UNBOUND:                -0.147
REMARK SMILES CCCCCCC(=O)[O-]
REMARK SMILES IDX 5 1 6 2 7 3 8 4 9 5 4 6 3 7 2 8 1 9
REMARK H PARENT
REMARK Flexibility Score: inf
ROOT
ATOM      1  C   UNL     1      24.746   3.847  13.634  1.00  0.00     0.006 C 
ENDROOT
BRANCH   1   2
ATOM      2  C   UNL     1      25.810   2.745  13.627  1.00  0.00     0.053 C 
BRANCH   2   3
ATOM      3  C   UNL     1      26.199   2.401  12.225  1.00  0.00     0.041 C 
ATOM      4  O   UNL     1      25.635   1.447  11.625  1.00  0.00    -0.550 OA
ATOM      5  O   UNL     1      27.151   3.165  11.561  1.00  0.00    -0.550 OA
ENDBRANCH   2   3
ENDBRANCH   1   2
BRANCH   1   6
ATOM      6  C   UNL     1      24.035   3.918  14.991  1.00  0.00     0.000 C 
BRANCH   6   7
ATOM      7  C   UNL     1      23.139   5.158  15.078  1.00  0.00    -0.000 C 
BRANCH   7   8
ATOM      8  C   UNL     1      23.551   6.209  14.041  1.00  0.00    -0.003 C 
ATOM      9  C   UNL     1      22.389   6.554  13.113  1.00  0.00     0.004 C 
ENDBRANCH   7   8
ENDBRANCH   6   7
ENDBRANCH   1   6
TORSDOF 5
ENDMDL
MODEL 2
REMARK VINA RESULT:    -3.937      1.298      1.706
REMARK INTER + INTRA:          -5.234
REMARK INTER:                  -5.047
REMARK INTRA:                  -0.187
REMARK UNBOUND:                -0.147
REMARK SMILES CCCCCCC(=O)[O-]
REMARK SMILES IDX 5 1 6 2 7 3 8 4 9 5 4 6 3 7 2 8 1 9
REMARK H PARENT
REMARK Flexibility Score: inf
ROOT
ATOM      1  C   UNL     1      24.306   3.349  14.633  1.00  0.00     0.006 C 
ENDROOT
BRANCH   1   2
ATOM      2  C   UNL     1      25.310   3.705  13.532  1.00  0.00     0.053 C 
BRANCH   2   3
ATOM      3  C   UNL     1      26.091   2.497  13.124  1.00  0.00     0.041 C 
ATOM      4  O   UNL     1      27.005   2.051  13.866  1.00  0.00    -0.550 OA
ATOM      5  O   UNL     1      25.775   1.832  11.945  1.00  0.00    -0.550 OA
ENDBRANCH   2   3
ENDBRANCH   1   2
BRANCH   1   6
ATOM      6  C   UNL     1      23.718   4.613  15.272  1.00  0.00     0.000 C 
BRANCH   6   7
ATOM      7  C   UNL     1      23.075   5.516  14.214  1.00  0.00    -0.000 C 
BRANCH   7   8
ATOM      8  C   UNL     1      23.460   6.983  14.436  1.00  0.00    -0.003 C 
ATOM      9  C   UNL     1      23.327   7.372  15.906  1.00  0.00     0.004 C 
ENDBRANCH   7   8
ENDBRANCH   6   7
ENDBRANCH   1   6
TORSDOF 5
ENDMDL
MODEL 3
REMARK VINA RESULT:    -3.855      5.691      6.621
REMARK INTER + INTRA:          -5.128
REMARK INTER:                  -4.974
REMARK INTRA:                  -0.154
REMARK UNBOUND:                -0.147
REMARK SMILES CCCCCCC(=O)[O-]
REMARK SMILES IDX 5 1 6 2 7 3 8 4 9 5 4 6 3 7 2 8 1 9
REMARK H PARENT
REMARK Flexibility Score: inf
ROOT
ATOM      1  C   UNL     1      24.999   4.106   7.006  1.00  0.00     0.006 C 
ENDROOT
BRANCH   1   2
ATOM      2  C   UNL     1      26.267   3.246   6.993  1.00  0.00     0.053 C 
BRANCH   2   3
ATOM      3  C   UNL     1      26.556   2.717   8.361  1.00  0.00     0.041 C 
ATOM      4  O   UNL     1      26.035   1.637   8.747  1.00  0.00    -0.550 OA
ATOM      5  O   UNL     1      27.441   3.390   9.193  1.00  0.00    -0.550 OA
ENDBRANCH   2   3
ENDBRANCH   1   2
BRANCH   1   6
ATOM      6  C   UNL     1      24.912   4.977   5.747  1.00  0.00     0.000 C 
BRANCH   6   7
ATOM      7  C   UNL     1      23.754   5.977   5.848  1.00  0.00    -0.000 C 
BRANCH   7   8
ATOM      8  C   UNL     1      22.413   5.251   6.002  1.00  0.00    -0.003 C 
ATOM      9  C   UNL     1      21.626   5.791   7.193  1.00  0.00     0.004 C 
ENDBRANCH   7   8
ENDBRANCH   6   7
ENDBRANCH   1   6
TORSDOF 5
ENDMDL
MODEL 4
REMARK VINA RESULT:    -3.726     10.354     11.501
REMARK INTER + INTRA:          -4.962
REMARK INTER:                  -4.606
REMARK INTRA:                  -0.356
REMARK UNBOUND:                -0.147
REMARK SMILES CCCCCCC(=O)[O-]
REMARK SMILES IDX 5 1 6 2 7 3 8 4 9 5 4 6 3 7 2 8 1 9
REMARK H PARENT
REMARK Flexibility Score: inf
ROOT
ATOM      1  C   UNL     1      19.344  11.699  11.603  1.00  0.00     0.006 C 
ENDROOT
BRANCH   1   2
ATOM      2  C   UNL     1      18.846  12.764  10.621  1.00  0.00     0.053 C 
BRANCH   2   3
ATOM      3  C   UNL     1      17.788  13.608  11.256  1.00  0.00     0.041 C 
ATOM      4  O   UNL     1      16.662  13.735  10.706  1.00  0.00    -0.550 OA
ATOM      5  O   UNL     1      18.026  14.216  12.482  1.00  0.00    -0.550 OA
ENDBRANCH   2   3
ENDBRANCH   1   2
BRANCH   1   6
ATOM      6  C   UNL     1      18.756  10.323  11.267  1.00  0.00     0.000 C 
BRANCH   6   7
ATOM      7  C   UNL     1      18.287  10.266   9.809  1.00  0.00    -0.000 C 
BRANCH   7   8
ATOM      8  C   UNL     1      16.964   9.502   9.686  1.00  0.00    -0.003 C 
ATOM      9  C   UNL     1      15.774  10.406   9.993  1.00  0.00     0.004 C 
ENDBRANCH   7   8
ENDBRANCH   6   7
ENDBRANCH   1   6
TORSDOF 5
ENDMDL
MODEL 5
REMARK VINA RESULT:    -3.721      9.502     10.661
REMARK INTER + INTRA:          -4.955
REMARK INTER:                  -4.567
REMARK INTRA:                  -0.388
REMARK UNBOUND:                -0.147
REMARK SMILES CCCCCCC(=O)[O-]
REMARK SMILES IDX 5 1 6 2 7 3 8 4 9 5 4 6 3 7 2 8 1 9
REMARK H PARENT
REMARK Flexibility Score: inf
ROOT
ATOM      1  C   UNL     1      18.814  10.351  11.289  1.00  0.00     0.006 C 
ENDROOT
BRANCH   1   2
ATOM      2  C   UNL     1      18.565  10.269   9.780  1.00  0.00     0.053 C 
BRANCH   2   3
ATOM      3  C   UNL     1      17.270   9.577   9.499  1.00  0.00     0.041 C 
ATOM      4  O   UNL     1      16.281   9.746  10.260  1.00  0.00    -0.550 OA
ATOM      5  O   UNL     1      17.138   8.783   8.366  1.00  0.00    -0.550 OA
ENDBRANCH   2   3
ENDBRANCH   1   2
BRANCH   1   6
ATOM      6  C   UNL     1      19.289  11.752  11.693  1.00  0.00     0.000 C 
BRANCH   6   7
ATOM      7  C   UNL     1      18.797  12.809  10.697  1.00  0.00    -0.000 C 
BRANCH   7   8
ATOM      8  C   UNL     1      17.637  13.621  11.285  1.00  0.00    -0.003 C 
ATOM      9  C   UNL     1      16.316  13.268  10.607  1.00  0.00     0.004 C 
ENDBRANCH   7   8
ENDBRANCH   6   7
ENDBRANCH   1   6
TORSDOF 5
ENDMDL
MODEL 6
REMARK VINA RESULT:    -3.669      2.953      3.887
REMARK INTER + INTRA:          -4.889
REMARK INTER:                  -4.679
REMARK INTRA:                  -0.210
REMARK UNBOUND:                -0.147
REMARK SMILES CCCCCCC(=O)[O-]
REMARK SMILES IDX 5 1 6 2 7 3 8 4 9 5 4 6 3 7 2 8 1 9
REMARK H PARENT
REMARK Flexibility Score: inf
ROOT
ATOM      1  C   UNL     1      23.200   6.489  14.057  1.00  0.00     0.006 C 
ENDROOT
BRANCH   1   2
ATOM      2  C   UNL     1      23.211   5.311  15.036  1.00  0.00     0.053 C 
BRANCH   2   3
ATOM      3  C   UNL     1      24.305   4.353  14.692  1.00  0.00     0.041 C 
ATOM      4  O   UNL     1      24.166   3.122  14.919  1.00  0.00    -0.550 OA
ATOM      5  O   UNL     1      25.461   4.811  14.072  1.00  0.00    -0.550 OA
ENDBRANCH   2   3
ENDBRANCH   1   2
BRANCH   1   6
ATOM      6  C   UNL     1      23.281   7.826  14.803  1.00  0.00     0.000 C 
BRANCH   6   7
ATOM      7  C   UNL     1      23.211   7.616  16.319  1.00  0.00    -0.000 C 
BRANCH   7   8
ATOM      8  C   UNL     1      22.727   8.886  17.029  1.00  0.00    -0.003 C 
ATOM      9  C   UNL     1      21.734   8.553  18.139  1.00  0.00     0.004 C 
ENDBRANCH   7   8
ENDBRANCH   6   7
ENDBRANCH   1   6
TORSDOF 5
ENDMDL
MODEL 7
REMARK VINA RESULT:    -3.599     10.699     12.119
REMARK INTER + INTRA:          -4.798
REMARK INTER:                  -4.468
REMARK INTRA:                  -0.331
REMARK UNBOUND:                -0.147
REMARK SMILES CCCCCCC(=O)[O-]
REMARK SMILES IDX 5 1 6 2 7 3 8 4 9 5 4 6 3 7 2 8 1 9
REMARK H PARENT
REMARK Flexibility Score: inf
ROOT
ATOM      1  C   UNL     1      18.677  12.928  10.628  1.00  0.00     0.006 C 
ENDROOT
BRANCH   1   2
ATOM      2  C   UNL     1      17.725  13.622  11.607  1.00  0.00     0.053 C 
BRANCH   2   3
ATOM      3  C   UNL     1      16.369  13.779  10.996  1.00  0.00     0.041 C 
ATOM      4  O   UNL     1      15.755  14.875  11.087  1.00  0.00    -0.550 OA
ATOM      5  O   UNL     1      15.803  12.731  10.281  1.00  0.00    -0.550 OA
ENDBRANCH   2   3
ENDBRANCH   1   2
BRANCH   1   6
ATOM      6  C   UNL     1      19.303  11.678  11.261  1.00  0.00     0.000 C 
BRANCH   6   7
ATOM      7  C   UNL     1      18.413  10.449  11.046  1.00  0.00    -0.000 C 
BRANCH   7   8
ATOM      8  C   UNL     1      18.389  10.039   9.569  1.00  0.00    -0.003 C 
ATOM      9  C   UNL     1      17.007   9.539   9.157  1.00  0.00     0.004 C 
ENDBRANCH   7   8
ENDBRANCH   6   7
ENDBRANCH   1   6
TORSDOF 5
ENDMDL
MODEL 8
REMARK VINA RESULT:    -3.586      3.090      4.567
REMARK INTER + INTRA:          -4.781
REMARK INTER:                  -4.486
REMARK INTRA:                  -0.295
REMARK UNBOUND:                -0.147
REMARK SMILES CCCCCCC(=O)[O-]
REMARK SMILES IDX 5 1 6 2 7 3 8 4 9 5 4 6 3 7 2 8 1 9
REMARK H PARENT
REMARK Flexibility Score: inf
ROOT
ATOM      1  C   UNL     1      23.234   5.699  14.038  1.00  0.00     0.006 C 
ENDROOT
BRANCH   1   2
ATOM      2  C   UNL     1      23.393   7.122  14.584  1.00  0.00     0.053 C 
BRANCH   2   3
ATOM      3  C   UNL     1      24.821   7.557  14.505  1.00  0.00     0.041 C 
ATOM      4  O   UNL     1      25.200   8.327  13.583  1.00  0.00    -0.550 OA
ATOM      5  O   UNL     1      25.725   7.154  15.479  1.00  0.00    -0.550 OA
ENDBRANCH   2   3
ENDBRANCH   1   2
BRANCH   1   6
ATOM      6  C   UNL     1      23.357   4.662  15.161  1.00  0.00     0.000 C 
BRANCH   6   7
ATOM      7  C   UNL     1      24.293   3.518  14.754  1.00  0.00    -0.000 C 
BRANCH   7   8
ATOM      8  C   UNL     1      25.227   3.950  13.618  1.00  0.00    -0.003 C 
ATOM      9  C   UNL     1      25.545   2.781  12.690  1.00  0.00     0.004 C 
ENDBRANCH   7   8
ENDBRANCH   6   7
ENDBRANCH   1   6
TORSDOF 5
ENDMDL
MODEL 9
REMARK VINA RESULT:    -3.566     10.754     12.299
REMARK INTER + INTRA:          -4.755
REMARK INTER:                  -4.486
REMARK INTRA:                  -0.269
REMARK UNBOUND:                -0.147
REMARK SMILES CCCCCCC(=O)[O-]
REMARK SMILES IDX 5 1 6 2 7 3 8 4 9 5 4 6 3 7 2 8 1 9
REMARK H PARENT
REMARK Flexibility Score: inf
ROOT
ATOM      1  C   UNL     1      15.957  10.237  10.207  1.00  0.00     0.006 C 
ENDROOT
BRANCH   1   2
ATOM      2  C   UNL     1      15.250  11.137   9.189  1.00  0.00     0.053 C 
BRANCH   2   3
ATOM      3  C   UNL     1      14.949  12.473   9.790  1.00  0.00     0.041 C 
ATOM      4  O   UNL     1      15.820  13.072  10.476  1.00  0.00    -0.550 OA
ATOM      5  O   UNL     1      13.723  13.081   9.551  1.00  0.00    -0.550 OA
ENDBRANCH   2   3
ENDBRANCH   1   2
BRANCH   1   6
ATOM      6  C   UNL     1      17.377   9.890   9.743  1.00  0.00     0.000 C 
BRANCH   6   7
ATOM      7  C   UNL     1      18.415  10.299  10.794  1.00  0.00    -0.000 C 
BRANCH   7   8
ATOM      8  C   UNL     1      19.005  11.678  10.477  1.00  0.00    -0.003 C 
ATOM      9  C   UNL     1      19.627  12.311  11.719  1.00  0.00     0.004 C 
ENDBRANCH   7   8
ENDBRANCH   6   7
ENDBRANCH   1   6
TORSDOF 5
ENDMDL
