MODEL 1
REMARK VINA RESULT:    -4.704      0.000      0.000
REMARK INTER + INTRA:          -5.148
REMARK INTER:                  -5.117
REMARK INTRA:                  -0.031
REMARK UNBOUND:                -0.031
REMARK SMILES O=C([O-])c1ccc(O)cc1
REMARK SMILES IDX 4 1 5 2 10 3 6 4 9 5 7 6 2 7 1 8 3 9 8 10
REMARK H PARENT 8 11
REMARK Flexibility Score: inf
ROOT
ATOM      1  C   UNL     1     -27.716  -4.478  -4.937  1.00  0.00    -0.003 A 
ATOM      2  C   UNL     1     -27.633  -3.212  -4.331  1.00  0.00     0.014 A 
ATOM      3  C   UNL     1     -28.667  -5.400  -4.462  1.00  0.00     0.014 A 
ATOM      4  C   UNL     1     -28.483  -2.876  -3.272  1.00  0.00     0.047 A 
ATOM      5  C   UNL     1     -29.516  -5.061  -3.404  1.00  0.00     0.047 A 
ATOM      6  C   UNL     1     -29.425  -3.798  -2.805  1.00  0.00     0.115 A 
ENDROOT
BRANCH   1   7
ATOM      7  C   UNL     1     -26.817  -4.831  -6.057  1.00  0.00     0.071 C 
ATOM      8  O   UNL     1     -26.258  -5.960  -6.099  1.00  0.00    -0.545 OA
ATOM      9  O   UNL     1     -26.574  -3.921  -7.079  1.00  0.00    -0.545 OA
ENDBRANCH   1   7
BRANCH   6  10
ATOM     10  O   UNL     1     -30.265  -3.448  -1.751  1.00  0.00    -0.508 OA
ATOM     11  H   UNL     1     -30.073  -2.641  -1.168  1.00  0.00     0.293 HD
ENDBRANCH   6  10
TORSDOF 2
ENDMDL
MODEL 2
REMARK VINA RESULT:    -4.288      8.315      9.075
REMARK INTER + INTRA:          -4.695
REMARK INTER:                  -4.661
REMARK INTRA:                  -0.034
REMARK UNBOUND:                -0.031
REMARK SMILES O=C([O-])c1ccc(O)cc1
REMARK SMILES IDX 4 1 5 2 10 3 6 4 9 5 7 6 2 7 1 8 3 9 8 10
REMARK H PARENT 8 11
REMARK Flexibility Score: inf
ROOT
ATOM      1  C   UNL     1     -34.868  -9.242  -8.262  1.00  0.00    -0.003 A 
ATOM      2  C   UNL     1     -35.989  -9.539  -7.467  1.00  0.00     0.014 A 
ATOM      3  C   UNL     1     -34.080  -8.123  -7.936  1.00  0.00     0.014 A 
ATOM      4  C   UNL     1     -36.315  -8.733  -6.371  1.00  0.00     0.047 A 
ATOM      5  C   UNL     1     -34.407  -7.319  -6.840  1.00  0.00     0.047 A 
ATOM      6  C   UNL     1     -35.527  -7.622  -6.055  1.00  0.00     0.115 A 
ENDROOT
BRANCH   1   7
ATOM      7  C   UNL     1     -34.525 -10.096  -9.419  1.00  0.00     0.071 C 
ATOM      8  O   UNL     1     -34.910 -11.295  -9.468  1.00  0.00    -0.545 OA
ATOM      9  O   UNL     1     -33.772  -9.587 -10.471  1.00  0.00    -0.545 OA
ENDBRANCH   1   7
BRANCH   6  10
ATOM     10  O   UNL     1     -35.864  -6.830  -4.960  1.00  0.00    -0.508 OA
ATOM     11  H   UNL     1     -36.826  -6.735  -4.652  1.00  0.00     0.293 HD
ENDBRANCH   6  10
TORSDOF 2
ENDMDL
MODEL 3
REMARK VINA RESULT:    -4.267     14.655     15.695
REMARK INTER + INTRA:          -4.673
REMARK INTER:                  -4.637
REMARK INTRA:                  -0.036
REMARK UNBOUND:                -0.031
REMARK SMILES O=C([O-])c1ccc(O)cc1
REMARK SMILES IDX 4 1 5 2 10 3 6 4 9 5 7 6 2 7 1 8 3 9 8 10
REMARK H PARENT 8 11
REMARK Flexibility Score: inf
ROOT
ATOM      1  C   UNL     1     -37.746 -14.993  -7.555  1.00  0.00    -0.003 A 
ATOM      2  C   UNL     1     -38.968 -15.233  -6.903  1.00  0.00     0.014 A 
ATOM      3  C   UNL     1     -37.143 -16.039  -8.278  1.00  0.00     0.014 A 
ATOM      4  C   UNL     1     -39.573 -16.493  -6.972  1.00  0.00     0.047 A 
ATOM      5  C   UNL     1     -37.750 -17.296  -8.345  1.00  0.00     0.047 A 
ATOM      6  C   UNL     1     -38.967 -17.526  -7.691  1.00  0.00     0.115 A 
ENDROOT
BRANCH   1   7
ATOM      7  C   UNL     1     -37.109 -13.661  -7.482  1.00  0.00     0.071 C 
ATOM      8  O   UNL     1     -36.004 -13.446  -8.049  1.00  0.00    -0.545 OA
ATOM      9  O   UNL     1     -37.720 -12.625  -6.785  1.00  0.00    -0.545 OA
ENDBRANCH   1   7
BRANCH   6  10
ATOM     10  O   UNL     1     -39.582 -18.775  -7.751  1.00  0.00    -0.508 OA
ATOM     11  H   UNL     1     -39.501 -19.366  -8.571  1.00  0.00     0.293 HD
ENDBRANCH   6  10
TORSDOF 2
ENDMDL
MODEL 4
REMARK VINA RESULT:    -4.193      8.036      8.797
REMARK INTER + INTRA:          -4.592
REMARK INTER:                  -4.565
REMARK INTRA:                  -0.027
REMARK UNBOUND:                -0.031
REMARK SMILES O=C([O-])c1ccc(O)cc1
REMARK SMILES IDX 4 1 5 2 10 3 6 4 9 5 7 6 2 7 1 8 3 9 8 10
REMARK H PARENT 8 11
REMARK Flexibility Score: inf
ROOT
ATOM      1  C   UNL     1     -34.284  -8.095  -7.814  1.00  0.00    -0.003 A 
ATOM      2  C   UNL     1     -34.423  -9.406  -8.302  1.00  0.00     0.014 A 
ATOM      3  C   UNL     1     -35.147  -7.653  -6.794  1.00  0.00     0.014 A 
ATOM      4  C   UNL     1     -35.404 -10.257  -7.780  1.00  0.00     0.047 A 
ATOM      5  C   UNL     1     -36.126  -8.505  -6.274  1.00  0.00     0.047 A 
ATOM      6  C   UNL     1     -36.257  -9.810  -6.767  1.00  0.00     0.115 A 
ENDROOT
BRANCH   1   7
ATOM      7  C   UNL     1     -33.247  -7.198  -8.367  1.00  0.00     0.071 C 
ATOM      8  O   UNL     1     -32.055  -7.272  -7.965  1.00  0.00    -0.545 OA
ATOM      9  O   UNL     1     -33.573  -6.258  -9.338  1.00  0.00    -0.545 OA
ENDBRANCH   1   7
BRANCH   6  10
ATOM     10  O   UNL     1     -37.228 -10.669  -6.258  1.00  0.00    -0.508 OA
ATOM     11  H   UNL     1     -38.208 -10.557  -6.493  1.00  0.00     0.293 HD
ENDBRANCH   6  10
TORSDOF 2
ENDMDL
MODEL 5
REMARK VINA RESULT:    -4.179      8.048      8.736
REMARK INTER + INTRA:          -4.577
REMARK INTER:                  -4.550
REMARK INTRA:                  -0.027
REMARK UNBOUND:                -0.031
REMARK SMILES O=C([O-])c1ccc(O)cc1
REMARK SMILES IDX 4 1 5 2 10 3 6 4 9 5 7 6 2 7 1 8 3 9 8 10
REMARK H PARENT 8 11
REMARK Flexibility Score: inf
ROOT
ATOM      1  C   UNL     1     -34.265  -8.124  -7.844  1.00  0.00    -0.003 A 
ATOM      2  C   UNL     1     -35.134  -7.685  -6.830  1.00  0.00     0.014 A 
ATOM      3  C   UNL     1     -34.400  -9.435  -8.337  1.00  0.00     0.014 A 
ATOM      4  C   UNL     1     -36.117  -8.541  -6.319  1.00  0.00     0.047 A 
ATOM      5  C   UNL     1     -35.383 -10.287  -7.826  1.00  0.00     0.047 A 
ATOM      6  C   UNL     1     -36.244  -9.842  -6.814  1.00  0.00     0.115 A 
ENDROOT
BRANCH   1   7
ATOM      7  C   UNL     1     -33.227  -7.218  -8.382  1.00  0.00     0.071 C 
ATOM      8  O   UNL     1     -32.042  -7.277  -7.958  1.00  0.00    -0.545 OA
ATOM      9  O   UNL     1     -33.545  -6.288  -9.365  1.00  0.00    -0.545 OA
ENDBRANCH   1   7
BRANCH   6  10
ATOM     10  O   UNL     1     -37.227 -10.681  -6.296  1.00  0.00    -0.508 OA
ATOM     11  H   UNL     1     -36.989 -11.546  -5.823  1.00  0.00     0.293 HD
ENDBRANCH   6  10
TORSDOF 2
ENDMDL
MODEL 6
REMARK VINA RESULT:    -4.001     12.611     13.387
REMARK INTER + INTRA:          -4.384
REMARK INTER:                  -4.348
REMARK INTRA:                  -0.035
REMARK UNBOUND:                -0.031
REMARK SMILES O=C([O-])c1ccc(O)cc1
REMARK SMILES IDX 4 1 5 2 10 3 6 4 9 5 7 6 2 7 1 8 3 9 8 10
REMARK H PARENT 8 11
REMARK Flexibility Score: inf
ROOT
ATOM      1  C   UNL     1     -36.734 -13.606  -9.447  1.00  0.00    -0.003 A 
ATOM      2  C   UNL     1     -36.660 -12.214  -9.260  1.00  0.00     0.014 A 
ATOM      3  C   UNL     1     -37.252 -14.406  -8.412  1.00  0.00     0.014 A 
ATOM      4  C   UNL     1     -37.096 -11.636  -8.063  1.00  0.00     0.047 A 
ATOM      5  C   UNL     1     -37.687 -13.825  -7.217  1.00  0.00     0.047 A 
ATOM      6  C   UNL     1     -37.610 -12.438  -7.039  1.00  0.00     0.115 A 
ENDROOT
BRANCH   1   7
ATOM      7  C   UNL     1     -36.273 -14.215 -10.713  1.00  0.00     0.071 C 
ATOM      8  O   UNL     1     -36.038 -15.451 -10.782  1.00  0.00    -0.545 OA
ATOM      9  O   UNL     1     -36.092 -13.431 -11.847  1.00  0.00    -0.545 OA
ENDBRANCH   1   7
BRANCH   6  10
ATOM     10  O   UNL     1     -38.040 -11.847  -5.854  1.00  0.00    -0.508 OA
ATOM     11  H   UNL     1     -38.088 -10.839  -5.752  1.00  0.00     0.293 HD
ENDBRANCH   6  10
TORSDOF 2
ENDMDL
MODEL 7
REMARK VINA RESULT:    -3.965     13.382     14.906
REMARK INTER + INTRA:          -4.344
REMARK INTER:                  -4.308
REMARK INTRA:                  -0.036
REMARK UNBOUND:                -0.031
REMARK SMILES O=C([O-])c1ccc(O)cc1
REMARK SMILES IDX 4 1 5 2 10 3 6 4 9 5 7 6 2 7 1 8 3 9 8 10
REMARK H PARENT 8 11
REMARK Flexibility Score: inf
ROOT
ATOM      1  C   UNL     1     -29.013 -17.918  -6.812  1.00  0.00    -0.003 A 
ATOM      2  C   UNL     1     -29.466 -19.131  -6.263  1.00  0.00     0.014 A 
ATOM      3  C   UNL     1     -29.053 -17.745  -8.208  1.00  0.00     0.014 A 
ATOM      4  C   UNL     1     -29.948 -20.149  -7.093  1.00  0.00     0.047 A 
ATOM      5  C   UNL     1     -29.536 -18.764  -9.035  1.00  0.00     0.047 A 
ATOM      6  C   UNL     1     -29.984 -19.969  -8.479  1.00  0.00     0.115 A 
ENDROOT
BRANCH   1   7
ATOM      7  C   UNL     1     -28.504 -16.843  -5.933  1.00  0.00     0.071 C 
ATOM      8  O   UNL     1     -28.418 -17.020  -4.688  1.00  0.00    -0.545 OA
ATOM      9  O   UNL     1     -28.114 -15.621  -6.468  1.00  0.00    -0.545 OA
ENDBRANCH   1   7
BRANCH   6  10
ATOM     10  O   UNL     1     -30.467 -20.992  -9.292  1.00  0.00    -0.508 OA
ATOM     11  H   UNL     1     -31.366 -20.919  -9.755  1.00  0.00     0.293 HD
ENDBRANCH   6  10
TORSDOF 2
ENDMDL
MODEL 8
REMARK VINA RESULT:    -3.956      7.954      8.624
REMARK INTER + INTRA:          -4.335
REMARK INTER:                  -4.300
REMARK INTRA:                  -0.034
REMARK UNBOUND:                -0.031
REMARK SMILES O=C([O-])c1ccc(O)cc1
REMARK SMILES IDX 4 1 5 2 10 3 6 4 9 5 7 6 2 7 1 8 3 9 8 10
REMARK H PARENT 8 11
REMARK Flexibility Score: inf
ROOT
ATOM      1  C   UNL     1     -26.828 -12.435  -1.485  1.00  0.00    -0.003 A 
ATOM      2  C   UNL     1     -28.095 -11.862  -1.693  1.00  0.00     0.014 A 
ATOM      3  C   UNL     1     -26.123 -12.121  -0.309  1.00  0.00     0.014 A 
ATOM      4  C   UNL     1     -28.645 -10.993  -0.743  1.00  0.00     0.047 A 
ATOM      5  C   UNL     1     -26.675 -11.253   0.638  1.00  0.00     0.047 A 
ATOM      6  C   UNL     1     -27.938 -10.686   0.422  1.00  0.00     0.115 A 
ENDROOT
BRANCH   1   7
ATOM      7  C   UNL     1     -26.249 -13.353  -2.489  1.00  0.00     0.071 C 
ATOM      8  O   UNL     1     -25.389 -14.210  -2.154  1.00  0.00    -0.545 OA
ATOM      9  O   UNL     1     -26.647 -13.283  -3.820  1.00  0.00    -0.545 OA
ENDBRANCH   1   7
BRANCH   6  10
ATOM     10  O   UNL     1     -28.498  -9.820   1.358  1.00  0.00    -0.508 OA
ATOM     11  H   UNL     1     -27.921  -9.213   1.930  1.00  0.00     0.293 HD
ENDBRANCH   6  10
TORSDOF 2
ENDMDL
MODEL 9
REMARK VINA RESULT:    -3.926     11.713     12.542
REMARK INTER + INTRA:          -4.302
REMARK INTER:                  -4.269
REMARK INTRA:                  -0.033
REMARK UNBOUND:                -0.031
REMARK SMILES O=C([O-])c1ccc(O)cc1
REMARK SMILES IDX 4 1 5 2 10 3 6 4 9 5 7 6 2 7 1 8 3 9 8 10
REMARK H PARENT 8 11
REMARK Flexibility Score: inf
ROOT
ATOM      1  C   UNL     1     -36.519 -12.249  -9.558  1.00  0.00    -0.003 A 
ATOM      2  C   UNL     1     -37.595 -12.859  -8.888  1.00  0.00     0.014 A 
ATOM      3  C   UNL     1     -35.772 -11.261  -8.889  1.00  0.00     0.014 A 
ATOM      4  C   UNL     1     -37.917 -12.486  -7.579  1.00  0.00     0.047 A 
ATOM      5  C   UNL     1     -36.097 -10.892  -7.581  1.00  0.00     0.047 A 
ATOM      6  C   UNL     1     -37.171 -11.503  -6.922  1.00  0.00     0.115 A 
ENDROOT
BRANCH   1   7
ATOM      7  C   UNL     1     -36.180 -12.644 -10.942  1.00  0.00     0.071 C 
ATOM      8  O   UNL     1     -34.984 -12.629 -11.338  1.00  0.00    -0.545 OA
ATOM      9  O   UNL     1     -37.177 -13.038 -11.827  1.00  0.00    -0.545 OA
ENDBRANCH   1   7
BRANCH   6  10
ATOM     10  O   UNL     1     -37.504 -11.144  -5.618  1.00  0.00    -0.508 OA
ATOM     11  H   UNL     1     -37.398 -11.794  -4.847  1.00  0.00     0.293 HD
ENDBRANCH   6  10
TORSDOF 2
ENDMDL
