MODEL 1
REMARK VINA RESULT:    -2.711      0.000      0.000
REMARK INTER + INTRA:          -2.711
REMARK INTER:                  -2.711
REMARK INTRA:                   0.000
REMARK UNBOUND:                 0.000
REMARK SMILES CC(=O)[O-]
REMARK SMILES IDX 1 1 2 2 3 3 4 4
REMARK H PARENT
REMARK Flexibility Score: inf
ROOT
ATOM      1  C   UNL     1     -17.397  61.755  60.909  1.00  0.00     0.063 C 
ATOM      2  C   UNL     1     -17.793  61.685  62.345  1.00  0.00     0.038 C 
ATOM      3  O   UNL     1     -17.824  60.575  62.937  1.00  0.00    -0.550 OA
ATOM      4  O   UNL     1     -18.180  62.838  63.017  1.00  0.00    -0.550 OA
ENDROOT
TORSDOF 0
ENDMDL
MODEL 2
REMARK VINA RESULT:    -2.707      1.794      2.050
REMARK INTER + INTRA:          -2.707
REMARK INTER:                  -2.707
REMARK INTRA:                   0.000
REMARK UNBOUND:                 0.000
REMARK SMILES CC(=O)[O-]
REMARK SMILES IDX 1 1 2 2 3 3 4 4
REMARK H PARENT
REMARK Flexibility Score: inf
ROOT
ATOM      1  C   UNL     1     -17.805  61.098  62.457  1.00  0.00     0.063 C 
ATOM      2  C   UNL     1     -17.486  61.850  61.209  1.00  0.00     0.038 C 
ATOM      3  O   UNL     1     -16.950  61.258  60.237  1.00  0.00    -0.550 OA
ATOM      4  O   UNL     1     -17.731  63.215  61.136  1.00  0.00    -0.550 OA
ENDROOT
TORSDOF 0
ENDMDL
MODEL 3
REMARK VINA RESULT:    -2.683      2.055      2.734
REMARK INTER + INTRA:          -2.683
REMARK INTER:                  -2.683
REMARK INTRA:                   0.000
REMARK UNBOUND:                 0.000
REMARK SMILES CC(=O)[O-]
REMARK SMILES IDX 1 1 2 2 3 3 4 4
REMARK H PARENT
REMARK Flexibility Score: inf
ROOT
ATOM      1  C   UNL     1     -17.764  61.197  62.105  1.00  0.00     0.063 C 
ATOM      2  C   UNL     1     -17.346  61.999  60.920  1.00  0.00     0.038 C 
ATOM      3  O   UNL     1     -17.628  63.224  60.856  1.00  0.00    -0.550 OA
ATOM      4  O   UNL     1     -16.691  61.385  59.859  1.00  0.00    -0.550 OA
ENDROOT
TORSDOF 0
ENDMDL
MODEL 4
REMARK VINA RESULT:    -2.671      0.871      1.781
REMARK INTER + INTRA:          -2.671
REMARK INTER:                  -2.671
REMARK INTRA:                   0.000
REMARK UNBOUND:                 0.000
REMARK SMILES CC(=O)[O-]
REMARK SMILES IDX 1 1 2 2 3 3 4 4
REMARK H PARENT
REMARK Flexibility Score: inf
ROOT
ATOM      1  C   UNL     1     -17.003  61.621  60.310  1.00  0.00     0.063 C 
ATOM      2  C   UNL     1     -17.778  61.841  61.565  1.00  0.00     0.038 C 
ATOM      3  O   UNL     1     -18.371  62.934  61.756  1.00  0.00    -0.550 OA
ATOM      4  O   UNL     1     -17.802  60.862  62.550  1.00  0.00    -0.550 OA
ENDROOT
TORSDOF 0
ENDMDL
MODEL 5
REMARK VINA RESULT:    -2.599      1.477      1.817
REMARK INTER + INTRA:          -2.599
REMARK INTER:                  -2.599
REMARK INTRA:                   0.000
REMARK UNBOUND:                 0.000
REMARK SMILES CC(=O)[O-]
REMARK SMILES IDX 1 1 2 2 3 3 4 4
REMARK H PARENT
REMARK Flexibility Score: inf
ROOT
ATOM      1  C   UNL     1     -18.203  63.033  62.012  1.00  0.00     0.063 C 
ATOM      2  C   UNL     1     -17.737  61.629  61.822  1.00  0.00     0.038 C 
ATOM      3  O   UNL     1     -17.809  60.807  62.771  1.00  0.00    -0.550 OA
ATOM      4  O   UNL     1     -17.174  61.240  60.613  1.00  0.00    -0.550 OA
ENDROOT
TORSDOF 0
ENDMDL
MODEL 6
REMARK VINA RESULT:    -2.562      1.602      1.915
REMARK INTER + INTRA:          -2.562
REMARK INTER:                  -2.562
REMARK INTRA:                   0.000
REMARK UNBOUND:                 0.000
REMARK SMILES CC(=O)[O-]
REMARK SMILES IDX 1 1 2 2 3 3 4 4
REMARK H PARENT
REMARK Flexibility Score: inf
ROOT
ATOM      1  C   UNL     1     -17.963  63.115  61.480  1.00  0.00     0.063 C 
ATOM      2  C   UNL     1     -17.568  61.677  61.469  1.00  0.00     0.038 C 
ATOM      3  O   UNL     1     -17.062  61.170  60.434  1.00  0.00    -0.550 OA
ATOM      4  O   UNL     1     -17.808  60.880  62.581  1.00  0.00    -0.550 OA
ENDROOT
TORSDOF 0
ENDMDL
MODEL 7
REMARK VINA RESULT:    -2.082      1.553      2.530
REMARK INTER + INTRA:          -2.082
REMARK INTER:                  -2.082
REMARK INTRA:                   0.000
REMARK UNBOUND:                 0.000
REMARK SMILES CC(=O)[O-]
REMARK SMILES IDX 1 1 2 2 3 3 4 4
REMARK H PARENT
REMARK Flexibility Score: inf
ROOT
ATOM      1  C   UNL     1     -18.708  63.335  63.950  1.00  0.00     0.063 C 
ATOM      2  C   UNL     1     -18.133  62.590  62.794  1.00  0.00     0.038 C 
ATOM      3  O   UNL     1     -17.974  63.168  61.688  1.00  0.00    -0.550 OA
ATOM      4  O   UNL     1     -17.821  61.242  62.920  1.00  0.00    -0.550 OA
ENDROOT
TORSDOF 0
ENDMDL
MODEL 8
REMARK VINA RESULT:    -1.908     12.485     12.828
REMARK INTER + INTRA:          -1.908
REMARK INTER:                  -1.908
REMARK INTRA:                   0.000
REMARK UNBOUND:                 0.000
REMARK SMILES CC(=O)[O-]
REMARK SMILES IDX 1 1 2 2 3 3 4 4
REMARK H PARENT
REMARK Flexibility Score: inf
ROOT
ATOM      1  C   UNL     1      -7.308  65.731  54.569  1.00  0.00     0.063 C 
ATOM      2  C   UNL     1      -7.762  66.302  55.870  1.00  0.00     0.038 C 
ATOM      3  O   UNL     1      -8.410  65.589  56.679  1.00  0.00    -0.550 OA
ATOM      4  O   UNL     1      -7.518  67.637  56.167  1.00  0.00    -0.550 OA
ENDROOT
TORSDOF 0
ENDMDL
