MODEL 1
REMARK VINA RESULT:    -5.097      0.000      0.000
REMARK INTER + INTRA:          -7.227
REMARK INTER:                  -6.288
REMARK INTRA:                  -0.939
REMARK UNBOUND:                -0.939
REMARK SMILES C=C(CCC=C(C)C)[C@@H]1CC=C(C)CC1
REMARK SMILES IDX 3 1 2 2 1 3 9 4 13 5 12 6 11 7 14 8 10 9 15 10 4 11 5 12
REMARK SMILES IDX 6 13 7 14 8 15
REMARK H PARENT
REMARK Flexibility Score: inf
ROOT
ATOM      1  C   UNL     1     135.634 139.371 132.820  1.00  0.00     0.035 C 
ENDROOT
BRANCH   1   2
ATOM      2  C   UNL     1     136.863 140.266 132.880  1.00  0.00    -0.074 C 
ATOM      3  C   UNL     1     136.912 141.372 132.118  1.00  0.00     0.008 C 
BRANCH   2   4
ATOM      4  C   UNL     1     138.086 139.868 133.699  1.00  0.00     0.018 C 
ATOM      5  C   UNL     1     140.906 137.909 136.417  1.00  0.00     0.039 C 
ATOM      6  C   UNL     1     139.833 138.498 135.543  1.00  0.00    -0.077 C 
ATOM      7  C   UNL     1     139.572 137.925 134.349  1.00  0.00    -0.027 C 
ATOM      8  C   UNL     1     139.167 139.792 135.972  1.00  0.00     0.031 C 
ATOM      9  C   UNL     1     138.480 138.406 133.427  1.00  0.00     0.035 C 
ATOM     10  C   UNL     1     137.871 140.081 135.205  1.00  0.00     0.013 C 
ENDBRANCH   2   4
ENDBRANCH   1   2
BRANCH   1  11
ATOM     11  C   UNL     1     134.450 139.950 133.611  1.00  0.00     0.032 C 
BRANCH  11  12
ATOM     12  C   UNL     1     134.080 139.111 134.812  1.00  0.00    -0.028 C 
ATOM     13  C   UNL     1     134.186 139.556 136.082  1.00  0.00    -0.080 C 
ATOM     14  C   UNL     1     133.805 138.630 137.208  1.00  0.00     0.039 C 
ATOM     15  C   UNL     1     134.676 140.951 136.393  1.00  0.00     0.039 C 
ENDBRANCH  11  12
ENDBRANCH   1  11
TORSDOF 4
ENDMDL
MODEL 2
REMARK VINA RESULT:    -5.065      3.571      5.762
REMARK INTER + INTRA:          -7.188
REMARK INTER:                  -6.199
REMARK INTRA:                  -0.988
REMARK UNBOUND:                -0.939
REMARK SMILES C=C(CCC=C(C)C)[C@@H]1CC=C(C)CC1
REMARK SMILES IDX 3 1 2 2 1 3 9 4 13 5 12 6 11 7 14 8 10 9 15 10 4 11 5 12
REMARK SMILES IDX 6 13 7 14 8 15
REMARK H PARENT
REMARK Flexibility Score: inf
ROOT
ATOM      1  C   UNL     1     139.276 136.971 132.853  1.00  0.00     0.035 C 
ENDROOT
BRANCH   1   2
ATOM      2  C   UNL     1     140.212 135.777 132.968  1.00  0.00    -0.074 C 
ATOM      3  C   UNL     1     141.372 135.778 132.289  1.00  0.00     0.008 C 
BRANCH   2   4
ATOM      4  C   UNL     1     139.802 134.530 133.745  1.00  0.00     0.018 C 
ATOM      5  C   UNL     1     137.866 131.657 136.424  1.00  0.00     0.039 C 
ATOM      6  C   UNL     1     138.455 132.749 135.573  1.00  0.00    -0.077 C 
ATOM      7  C   UNL     1     137.831 133.097 134.428  1.00  0.00    -0.027 C 
ATOM      8  C   UNL     1     139.799 133.335 135.962  1.00  0.00     0.031 C 
ATOM      9  C   UNL     1     138.312 134.214 133.536  1.00  0.00     0.035 C 
ATOM     10  C   UNL     1     140.106 134.656 135.246  1.00  0.00     0.013 C 
ENDBRANCH   2   4
ENDBRANCH   1   2
BRANCH   1  11
ATOM     11  C   UNL     1     139.839 138.224 133.545  1.00  0.00     0.032 C 
BRANCH  11  12
ATOM     12  C   UNL     1     139.080 138.593 134.797  1.00  0.00    -0.028 C 
ATOM     13  C   UNL     1     139.594 138.457 136.038  1.00  0.00    -0.080 C 
ATOM     14  C   UNL     1     138.744 138.842 137.221  1.00  0.00     0.039 C 
ATOM     15  C   UNL     1     140.992 137.930 136.261  1.00  0.00     0.039 C 
ENDBRANCH  11  12
ENDBRANCH   1  11
TORSDOF 4
ENDMDL
MODEL 3
REMARK VINA RESULT:    -5.064      4.181      6.608
REMARK INTER + INTRA:          -7.187
REMARK INTER:                  -6.313
REMARK INTRA:                  -0.874
REMARK UNBOUND:                -0.939
REMARK SMILES C=C(CCC=C(C)C)[C@@H]1CC=C(C)CC1
REMARK SMILES IDX 3 1 2 2 1 3 9 4 13 5 12 6 11 7 14 8 10 9 15 10 4 11 5 12
REMARK SMILES IDX 6 13 7 14 8 15
REMARK H PARENT
REMARK Flexibility Score: inf
ROOT
ATOM      1  C   UNL     1     131.875 134.575 136.114  1.00  0.00     0.035 C 
ENDROOT
BRANCH   1   2
ATOM      2  C   UNL     1     132.398 135.689 135.219  1.00  0.00    -0.074 C 
ATOM      3  C   UNL     1     132.482 135.486 133.892  1.00  0.00     0.008 C 
BRANCH   2   4
ATOM      4  C   UNL     1     132.938 136.986 135.811  1.00  0.00     0.018 C 
ATOM      5  C   UNL     1     134.825 140.887 136.446  1.00  0.00     0.039 C 
ATOM      6  C   UNL     1     134.238 139.548 136.094  1.00  0.00    -0.077 C 
ATOM      7  C   UNL     1     133.022 139.498 135.510  1.00  0.00    -0.027 C 
ATOM      8  C   UNL     1     134.970 138.291 136.524  1.00  0.00     0.031 C 
ATOM      9  C   UNL     1     132.373 138.209 135.069  1.00  0.00     0.035 C 
ATOM     10  C   UNL     1     134.474 137.032 135.804  1.00  0.00     0.013 C 
ENDBRANCH   2   4
ENDBRANCH   1   2
BRANCH   1  11
ATOM     11  C   UNL     1     133.004 133.678 136.648  1.00  0.00     0.032 C 
BRANCH  11  12
ATOM     12  C   UNL     1     133.531 132.716 135.608  1.00  0.00    -0.028 C 
ATOM     13  C   UNL     1     134.832 132.655 135.254  1.00  0.00    -0.080 C 
ATOM     14  C   UNL     1     135.248 131.669 134.194  1.00  0.00     0.039 C 
ATOM     15  C   UNL     1     135.869 133.548 135.894  1.00  0.00     0.039 C 
ENDBRANCH  11  12
ENDBRANCH   1  11
TORSDOF 4
ENDMDL
MODEL 4
REMARK VINA RESULT:    -5.052      5.069      8.023
REMARK INTER + INTRA:          -7.172
REMARK INTER:                  -6.299
REMARK INTRA:                  -0.873
REMARK UNBOUND:                -0.939
REMARK SMILES C=C(CCC=C(C)C)[C@@H]1CC=C(C)CC1
REMARK SMILES IDX 3 1 2 2 1 3 9 4 13 5 12 6 11 7 14 8 10 9 15 10 4 11 5 12
REMARK SMILES IDX 6 13 7 14 8 15
REMARK H PARENT
REMARK Flexibility Score: inf
ROOT
ATOM      1  C   UNL     1     138.064 131.878 136.196  1.00  0.00     0.035 C 
ENDROOT
BRANCH   1   2
ATOM      2  C   UNL     1     136.937 132.367 135.299  1.00  0.00    -0.074 C 
ATOM      3  C   UNL     1     137.133 132.436 133.971  1.00  0.00     0.008 C 
BRANCH   2   4
ATOM      4  C   UNL     1     135.633 132.892 135.890  1.00  0.00     0.018 C 
ATOM      5  C   UNL     1     131.752 134.814 136.543  1.00  0.00     0.039 C 
ATOM      6  C   UNL     1     133.090 134.224 136.190  1.00  0.00    -0.077 C 
ATOM      7  C   UNL     1     133.135 133.053 135.520  1.00  0.00    -0.027 C 
ATOM      8  C   UNL     1     134.347 134.896 136.709  1.00  0.00     0.031 C 
ATOM      9  C   UNL     1     134.423 132.409 135.072  1.00  0.00     0.035 C 
ATOM     10  C   UNL     1     135.618 134.425 135.993  1.00  0.00     0.013 C 
ENDBRANCH   2   4
ENDBRANCH   1   2
BRANCH   1  11
ATOM     11  C   UNL     1     138.930 133.033 136.728  1.00  0.00     0.032 C 
BRANCH  11  12
ATOM     12  C   UNL     1     139.913 133.549 135.704  1.00  0.00    -0.028 C 
ATOM     13  C   UNL     1     139.975 134.846 135.331  1.00  0.00    -0.080 C 
ATOM     14  C   UNL     1     140.985 135.251 134.289  1.00  0.00     0.039 C 
ATOM     15  C   UNL     1     139.061 135.886 135.932  1.00  0.00     0.039 C 
ENDBRANCH  11  12
ENDBRANCH   1  11
TORSDOF 4
ENDMDL
MODEL 5
REMARK VINA RESULT:    -5.034      1.583      2.665
REMARK INTER + INTRA:          -7.149
REMARK INTER:                  -6.298
REMARK INTRA:                  -0.851
REMARK UNBOUND:                -0.939
REMARK SMILES C=C(CCC=C(C)C)[C@@H]1CC=C(C)CC1
REMARK SMILES IDX 3 1 2 2 1 3 9 4 13 5 12 6 11 7 14 8 10 9 15 10 4 11 5 12
REMARK SMILES IDX 6 13 7 14 8 15
REMARK H PARENT
REMARK Flexibility Score: inf
ROOT
ATOM      1  C   UNL     1     134.537 140.729 136.171  1.00  0.00     0.035 C 
ENDROOT
BRANCH   1   2
ATOM      2  C   UNL     1     135.648 140.241 135.254  1.00  0.00    -0.074 C 
ATOM      3  C   UNL     1     135.410 140.111 133.938  1.00  0.00     0.008 C 
BRANCH   2   4
ATOM      4  C   UNL     1     136.989 139.783 135.819  1.00  0.00     0.018 C 
ATOM      5  C   UNL     1     140.897 137.912 136.456  1.00  0.00     0.039 C 
ATOM      6  C   UNL     1     139.540 138.467 136.120  1.00  0.00    -0.077 C 
ATOM      7  C   UNL     1     139.454 139.536 135.301  1.00  0.00    -0.027 C 
ATOM      8  C   UNL     1     138.321 137.891 136.814  1.00  0.00     0.031 C 
ATOM      9  C   UNL     1     138.140 140.131 134.860  1.00  0.00     0.035 C 
ATOM     10  C   UNL     1     137.004 138.278 136.131  1.00  0.00     0.013 C 
ENDBRANCH   2   4
ENDBRANCH   1   2
BRANCH   1  11
ATOM     11  C   UNL     1     133.675 139.575 136.711  1.00  0.00     0.032 C 
BRANCH  11  12
ATOM     12  C   UNL     1     132.682 139.060 135.696  1.00  0.00    -0.028 C 
ATOM     13  C   UNL     1     132.673 137.784 135.255  1.00  0.00    -0.080 C 
ATOM     14  C   UNL     1     131.647 137.379 134.228  1.00  0.00     0.039 C 
ATOM     15  C   UNL     1     133.663 136.764 135.767  1.00  0.00     0.039 C 
ENDBRANCH  11  12
ENDBRANCH   1  11
TORSDOF 4
ENDMDL
MODEL 6
REMARK VINA RESULT:    -5.001      3.305      5.307
REMARK INTER + INTRA:          -7.110
REMARK INTER:                  -6.239
REMARK INTRA:                  -0.870
REMARK UNBOUND:                -0.939
REMARK SMILES C=C(CCC=C(C)C)[C@@H]1CC=C(C)CC1
REMARK SMILES IDX 3 1 2 2 1 3 9 4 13 5 12 6 11 7 14 8 10 9 15 10 4 11 5 12
REMARK SMILES IDX 6 13 7 14 8 15
REMARK H PARENT
REMARK Flexibility Score: inf
ROOT
ATOM      1  C   UNL     1     140.802 137.982 136.221  1.00  0.00     0.035 C 
ENDROOT
BRANCH   1   2
ATOM      2  C   UNL     1     140.293 136.875 135.309  1.00  0.00    -0.074 C 
ATOM      3  C   UNL     1     140.186 137.104 133.989  1.00  0.00     0.008 C 
BRANCH   2   4
ATOM      4  C   UNL     1     139.791 135.553 135.882  1.00  0.00     0.018 C 
ATOM      5  C   UNL     1     137.876 131.664 136.501  1.00  0.00     0.039 C 
ATOM      6  C   UNL     1     138.457 133.010 136.164  1.00  0.00    -0.077 C 
ATOM      7  C   UNL     1     139.588 133.071 135.431  1.00  0.00    -0.027 C 
ATOM      8  C   UNL     1     137.826 134.251 136.766  1.00  0.00     0.031 C 
ATOM      9  C   UNL     1     140.217 134.371 134.994  1.00  0.00     0.035 C 
ATOM     10  C   UNL     1     138.267 135.545 136.071  1.00  0.00     0.013 C 
ENDBRANCH   2   4
ENDBRANCH   1   2
BRANCH   1  11
ATOM     11  C   UNL     1     139.658 138.828 136.805  1.00  0.00     0.032 C 
BRANCH  11  12
ATOM     12  C   UNL     1     139.098 139.822 135.815  1.00  0.00    -0.028 C 
ATOM     13  C   UNL     1     137.793 139.862 135.470  1.00  0.00    -0.080 C 
ATOM     14  C   UNL     1     137.343 140.885 134.459  1.00  0.00     0.039 C 
ATOM     15  C   UNL     1     136.787 138.910 136.071  1.00  0.00     0.039 C 
ENDBRANCH  11  12
ENDBRANCH   1  11
TORSDOF 4
ENDMDL
MODEL 7
REMARK VINA RESULT:    -4.933      3.422      5.571
REMARK INTER + INTRA:          -7.025
REMARK INTER:                  -5.799
REMARK INTRA:                  -1.226
REMARK UNBOUND:                -0.939
REMARK SMILES C=C(CCC=C(C)C)[C@@H]1CC=C(C)CC1
REMARK SMILES IDX 3 1 2 2 1 3 9 4 13 5 12 6 11 7 14 8 10 9 15 10 4 11 5 12
REMARK SMILES IDX 6 13 7 14 8 15
REMARK H PARENT
REMARK Flexibility Score: inf
ROOT
ATOM      1  C   UNL     1     133.285 135.551 132.686  1.00  0.00     0.035 C 
ENDROOT
BRANCH   1   2
ATOM      2  C   UNL     1     132.419 136.796 132.805  1.00  0.00    -0.074 C 
ATOM      3  C   UNL     1     131.256 136.858 132.134  1.00  0.00     0.008 C 
BRANCH   2   4
ATOM      4  C   UNL     1     132.904 138.020 133.575  1.00  0.00     0.018 C 
ATOM      5  C   UNL     1     134.848 140.752 136.392  1.00  0.00     0.039 C 
ATOM      6  C   UNL     1     134.225 139.704 135.511  1.00  0.00    -0.077 C 
ATOM      7  C   UNL     1     134.954 139.175 134.505  1.00  0.00    -0.027 C 
ATOM      8  C   UNL     1     132.758 139.367 135.698  1.00  0.00     0.031 C 
ATOM      9  C   UNL     1     134.440 138.081 133.604  1.00  0.00     0.035 C 
ATOM     10  C   UNL     1     132.351 138.059 135.008  1.00  0.00     0.013 C 
ENDBRANCH   2   4
ENDBRANCH   1   2
BRANCH   1  11
ATOM     11  C   UNL     1     132.929 134.489 133.740  1.00  0.00     0.032 C 
BRANCH  11  12
ATOM     12  C   UNL     1     133.744 134.621 135.005  1.00  0.00    -0.028 C 
ATOM     13  C   UNL     1     133.189 134.750 136.229  1.00  0.00    -0.080 C 
ATOM     14  C   UNL     1     134.096 134.891 137.424  1.00  0.00     0.039 C 
ATOM     15  C   UNL     1     131.691 134.757 136.421  1.00  0.00     0.039 C 
ENDBRANCH  11  12
ENDBRANCH   1  11
TORSDOF 4
ENDMDL
MODEL 8
REMARK VINA RESULT:    -4.838      5.675      7.962
REMARK INTER + INTRA:          -6.908
REMARK INTER:                  -5.697
REMARK INTRA:                  -1.211
REMARK UNBOUND:                -0.939
REMARK SMILES C=C(CCC=C(C)C)[C@@H]1CC=C(C)CC1
REMARK SMILES IDX 3 1 2 2 1 3 9 4 13 5 12 6 11 7 14 8 10 9 15 10 4 11 5 12
REMARK SMILES IDX 6 13 7 14 8 15
REMARK H PARENT
REMARK Flexibility Score: inf
ROOT
ATOM      1  C   UNL     1     136.926 133.227 132.495  1.00  0.00     0.035 C 
ENDROOT
BRANCH   1   2
ATOM      2  C   UNL     1     135.700 132.356 132.729  1.00  0.00    -0.074 C 
ATOM      3  C   UNL     1     135.611 131.163 132.117  1.00  0.00     0.008 C 
BRANCH   2   4
ATOM      4  C   UNL     1     134.519 132.865 133.549  1.00  0.00     0.018 C 
ATOM      5  C   UNL     1     131.941 134.893 136.451  1.00  0.00     0.039 C 
ATOM      6  C   UNL     1     132.941 134.244 135.534  1.00  0.00    -0.077 C 
ATOM      7  C   UNL     1     133.417 134.943 134.482  1.00  0.00    -0.027 C 
ATOM      8  C   UNL     1     133.285 132.781 135.743  1.00  0.00     0.031 C 
ATOM      9  C   UNL     1     134.462 134.402 133.538  1.00  0.00     0.035 C 
ATOM     10  C   UNL     1     134.555 132.352 134.997  1.00  0.00     0.013 C 
ENDBRANCH   2   4
ENDBRANCH   1   2
BRANCH   1  11
ATOM     11  C   UNL     1     138.071 132.897 133.468  1.00  0.00     0.032 C 
BRANCH  11  12
ATOM     12  C   UNL     1     138.070 133.778 134.695  1.00  0.00    -0.028 C 
ATOM     13  C   UNL     1     137.973 133.292 135.951  1.00  0.00    -0.080 C 
ATOM     14  C   UNL     1     137.967 134.262 137.104  1.00  0.00     0.039 C 
ATOM     15  C   UNL     1     137.870 131.809 136.219  1.00  0.00     0.039 C 
ENDBRANCH  11  12
ENDBRANCH   1  11
TORSDOF 4
ENDMDL
MODEL 9
REMARK VINA RESULT:    -4.760      2.459      5.712
REMARK INTER + INTRA:          -6.812
REMARK INTER:                  -5.963
REMARK INTRA:                  -0.849
REMARK UNBOUND:                -0.939
REMARK SMILES C=C(CCC=C(C)C)[C@@H]1CC=C(C)CC1
REMARK SMILES IDX 3 1 2 2 1 3 9 4 13 5 12 6 11 7 14 8 10 9 15 10 4 11 5 12
REMARK SMILES IDX 6 13 7 14 8 15
REMARK H PARENT
REMARK Flexibility Score: inf
ROOT
ATOM      1  C   UNL     1     140.041 137.252 134.159  1.00  0.00     0.035 C 
ENDROOT
BRANCH   1   2
ATOM      2  C   UNL     1     139.977 138.053 135.450  1.00  0.00    -0.074 C 
ATOM      3  C   UNL     1     140.904 137.850 136.402  1.00  0.00     0.008 C 
BRANCH   2   4
ATOM      4  C   UNL     1     138.811 138.996 135.733  1.00  0.00     0.018 C 
ATOM      5  C   UNL     1     134.859 140.839 136.135  1.00  0.00     0.039 C 
ATOM      6  C   UNL     1     136.151 140.100 135.919  1.00  0.00    -0.077 C 
ATOM      7  C   UNL     1     136.531 139.166 136.817  1.00  0.00    -0.027 C 
ATOM      8  C   UNL     1     137.050 140.517 134.771  1.00  0.00     0.031 C 
ATOM      9  C   UNL     1     137.779 138.333 136.660  1.00  0.00     0.035 C 
ATOM     10  C   UNL     1     138.127 139.475 134.444  1.00  0.00     0.013 C 
ENDBRANCH   2   4
ENDBRANCH   1   2
BRANCH   1  11
ATOM     11  C   UNL     1     140.755 135.902 134.344  1.00  0.00     0.032 C 
BRANCH  11  12
ATOM     12  C   UNL     1     139.867 134.721 134.028  1.00  0.00    -0.028 C 
ATOM     13  C   UNL     1     139.218 134.013 134.977  1.00  0.00    -0.080 C 
ATOM     14  C   UNL     1     138.369 132.842 134.552  1.00  0.00     0.039 C 
ATOM     15  C   UNL     1     139.325 134.367 136.441  1.00  0.00     0.039 C 
ENDBRANCH  11  12
ENDBRANCH   1  11
TORSDOF 4
ENDMDL
