MODEL 1
REMARK VINA RESULT:    -7.056      0.000      0.000
REMARK INTER + INTRA:         -11.994
REMARK INTER:                 -10.356
REMARK INTRA:                  -1.638
REMARK UNBOUND:                -1.638
REMARK SMILES O=c1c(O[C@@H]2O[C@H](CO)[C@@H](O)[C@H](O)[C@@H]2O)c(-c2ccc(O)c(O)c2)oc2cc(O)cc(O)c12
REMARK SMILES IDX 4 1 3 2 16 3 25 4 2 5 26 6 1 7 33 8 27 9 31 10 28 11 30 12
REMARK SMILES IDX 17 13 18 14 19 15 20 16 24 17 22 18 21 19 23 21 32 23 29 25
REMARK SMILES IDX 5 27 14 28 6 29 12 30 7 31 10 32 15 33 13 35 8 37 9 38 11 40
REMARK H PARENT 21 20 23 22 32 24 29 26 15 34 13 36 9 39 11 41
REMARK Flexibility Score: inf
ROOT
ATOM      1  O   UNL     1      -0.457 -18.666  28.478  1.00  0.00    -0.454 OA
ENDROOT
BRANCH   1   2
ATOM      2  C   UNL     1      -0.733 -20.026  28.747  1.00  0.00     0.214 A 
ATOM      3  C   UNL     1      -0.316 -20.992  27.812  1.00  0.00     0.180 A 
ATOM      4  O   UNL     1      -0.415 -22.292  28.078  1.00  0.00    -0.452 OA
ATOM      5  C   UNL     1      -1.403 -20.485  29.908  1.00  0.00     0.239 A 
ATOM      6  C   UNL     1      -0.929 -22.761  29.208  1.00  0.00     0.146 A 
ATOM      7  O   UNL     1      -1.992 -19.678  30.680  1.00  0.00    -0.285 OA
ATOM      8  C   UNL     1      -1.447 -21.875  30.184  1.00  0.00     0.111 A 
ATOM      9  C   UNL     1      -0.958 -24.141  29.424  1.00  0.00     0.094 A 
ATOM     10  C   UNL     1      -1.941 -22.404  31.403  1.00  0.00     0.134 A 
ATOM     11  C   UNL     1      -1.461 -24.657  30.627  1.00  0.00     0.123 A 
ATOM     12  C   UNL     1      -1.944 -23.794  31.613  1.00  0.00     0.093 A 
BRANCH   3  13
ATOM     13  C   UNL     1       0.175 -20.614  26.476  1.00  0.00     0.025 A 
ATOM     14  C   UNL     1       1.539 -20.338  26.335  1.00  0.00     0.016 A 
ATOM     15  C   UNL     1       2.027 -19.815  25.137  1.00  0.00     0.051 A 
ATOM     16  C   UNL     1       1.159 -19.567  24.065  1.00  0.00     0.157 A 
ATOM     17  C   UNL     1      -0.698 -20.401  25.387  1.00  0.00     0.062 A 
ATOM     18  C   UNL     1      -0.201 -19.877  24.184  1.00  0.00     0.158 A 
BRANCH  16  19
ATOM     19  O   UNL     1       1.645 -18.969  22.901  1.00  0.00    -0.504 OA
ATOM     20  H   UNL     1       2.486 -19.301  22.449  1.00  0.00     0.293 HD
ENDBRANCH  16  19
BRANCH  18  21
ATOM     21  O   UNL     1      -1.083 -19.614  23.136  1.00  0.00    -0.504 OA
ATOM     22  H   UNL     1      -0.767 -19.400  22.197  1.00  0.00     0.293 HD
ENDBRANCH  18  21
ENDBRANCH   3  13
BRANCH  10  23
ATOM     23  O   UNL     1      -2.401 -21.560  32.400  1.00  0.00    -0.507 OA
ATOM     24  H   UNL     1      -2.871 -21.923  33.212  1.00  0.00     0.293 HD
ENDBRANCH  10  23
BRANCH  11  25
ATOM     25  O   UNL     1      -1.479 -26.037  30.852  1.00  0.00    -0.508 OA
ATOM     26  H   UNL     1      -2.293 -26.591  30.611  1.00  0.00     0.293 HD
ENDBRANCH  11  25
ENDBRANCH   1   2
BRANCH   1  27
ATOM     27  C   UNL     1      -1.204 -17.758  27.663  1.00  0.00     0.339 C 
ATOM     28  C   UNL     1      -1.947 -16.717  28.549  1.00  0.00     0.214 C 
ATOM     29  O   UNL     1      -0.369 -17.155  26.688  1.00  0.00    -0.332 OA
ATOM     30  C   UNL     1      -2.557 -15.581  27.711  1.00  0.00     0.180 C 
ATOM     31  C   UNL     1      -1.098 -16.302  25.822  1.00  0.00     0.179 C 
ATOM     32  C   UNL     1      -1.584 -15.086  26.631  1.00  0.00     0.177 C 
BRANCH  28  33
ATOM     33  O   UNL     1      -1.092 -16.195  29.531  1.00  0.00    -0.384 OA
ATOM     34  H   UNL     1      -0.170 -16.525  29.318  1.00  0.00     0.211 HD
ENDBRANCH  28  33
BRANCH  30  35
ATOM     35  O   UNL     1      -3.009 -14.534  28.531  1.00  0.00    -0.387 OA
ATOM     36  H   UNL     1      -2.304 -14.342  29.204  1.00  0.00     0.211 HD
ENDBRANCH  30  35
BRANCH  31  37
ATOM     37  C   UNL     1      -0.191 -15.878  24.651  1.00  0.00     0.191 C 
BRANCH  37  38
ATOM     38  O   UNL     1      -0.554 -16.572  23.486  1.00  0.00    -0.394 OA
ATOM     39  H   UNL     1       0.241 -17.091  23.188  1.00  0.00     0.210 HD
ENDBRANCH  37  38
ENDBRANCH  31  37
BRANCH  32  40
ATOM     40  O   UNL     1      -2.243 -14.147  25.820  1.00  0.00    -0.387 OA
ATOM     41  H   UNL     1      -2.511 -14.631  24.995  1.00  0.00     0.211 HD
ENDBRANCH  32  40
ENDBRANCH   1  27
TORSDOF 12
ENDMDL
MODEL 2
REMARK VINA RESULT:    -6.987      1.494      1.736
REMARK INTER + INTRA:         -11.893
REMARK INTER:                 -10.276
REMARK INTRA:                  -1.617
REMARK UNBOUND:                -1.638
REMARK SMILES O=c1c(O[C@@H]2O[C@H](CO)[C@@H](O)[C@H](O)[C@@H]2O)c(-c2ccc(O)c(O)c2)oc2cc(O)cc(O)c12
REMARK SMILES IDX 4 1 3 2 16 3 25 4 2 5 26 6 1 7 33 8 27 9 31 10 28 11 30 12
REMARK SMILES IDX 17 13 18 14 19 15 20 16 24 17 22 18 21 19 23 21 32 23 29 25
REMARK SMILES IDX 5 27 14 28 6 29 12 30 7 31 10 32 15 33 13 35 8 37 9 38 11 40
REMARK H PARENT 21 20 23 22 32 24 29 26 15 34 13 36 9 39 11 41
REMARK Flexibility Score: inf
ROOT
ATOM      1  O   UNL     1      -0.281 -20.287  28.961  1.00  0.00    -0.454 OA
ENDROOT
BRANCH   1   2
ATOM      2  C   UNL     1      -0.589 -21.648  29.183  1.00  0.00     0.214 A 
ATOM      3  C   UNL     1      -0.033 -22.611  28.320  1.00  0.00     0.180 A 
ATOM      4  O   UNL     1      -0.166 -23.911  28.566  1.00  0.00    -0.452 OA
ATOM      5  C   UNL     1      -1.425 -22.112  30.230  1.00  0.00     0.239 A 
ATOM      6  C   UNL     1      -0.843 -24.385  29.605  1.00  0.00     0.146 A 
ATOM      7  O   UNL     1      -2.126 -21.309  30.906  1.00  0.00    -0.285 OA
ATOM      8  C   UNL     1      -1.505 -23.503  30.493  1.00  0.00     0.111 A 
ATOM      9  C   UNL     1      -0.899 -25.765  29.811  1.00  0.00     0.094 A 
ATOM     10  C   UNL     1      -2.175 -24.036  31.623  1.00  0.00     0.134 A 
ATOM     11  C   UNL     1      -1.576 -26.286  30.924  1.00  0.00     0.123 A 
ATOM     12  C   UNL     1      -2.205 -25.427  31.827  1.00  0.00     0.093 A 
BRANCH   3  13
ATOM     13  C   UNL     1       0.652 -22.228  27.074  1.00  0.00     0.025 A 
ATOM     14  C   UNL     1       2.035 -22.025  27.125  1.00  0.00     0.016 A 
ATOM     15  C   UNL     1       2.707 -21.502  26.019  1.00  0.00     0.051 A 
ATOM     16  C   UNL     1       2.004 -21.179  24.850  1.00  0.00     0.157 A 
ATOM     17  C   UNL     1      -0.055 -21.939  25.886  1.00  0.00     0.062 A 
ATOM     18  C   UNL     1       0.626 -21.414  24.778  1.00  0.00     0.158 A 
BRANCH  16  19
ATOM     19  O   UNL     1       2.673 -20.581  23.780  1.00  0.00    -0.504 OA
ATOM     20  H   UNL     1       3.580 -20.907  23.476  1.00  0.00     0.293 HD
ENDBRANCH  16  19
BRANCH  18  21
ATOM     21  O   UNL     1      -0.092 -21.077  23.630  1.00  0.00    -0.504 OA
ATOM     22  H   UNL     1       0.153 -20.286  23.045  1.00  0.00     0.293 HD
ENDBRANCH  18  21
ENDBRANCH   3  13
BRANCH  10  23
ATOM     23  O   UNL     1      -2.783 -23.196  32.541  1.00  0.00    -0.507 OA
ATOM     24  H   UNL     1      -3.770 -23.004  32.496  1.00  0.00     0.293 HD
ENDBRANCH  10  23
BRANCH  11  25
ATOM     25  O   UNL     1      -1.622 -27.667  31.141  1.00  0.00    -0.508 OA
ATOM     26  H   UNL     1      -0.872 -28.267  30.819  1.00  0.00     0.293 HD
ENDBRANCH  11  25
ENDBRANCH   1   2
BRANCH   1  27
ATOM     27  C   UNL     1      -1.024 -19.325  28.206  1.00  0.00     0.339 C 
ATOM     28  C   UNL     1      -1.640 -18.251  29.148  1.00  0.00     0.214 C 
ATOM     29  O   UNL     1      -0.220 -18.763  27.181  1.00  0.00    -0.332 OA
ATOM     30  C   UNL     1      -2.234 -17.070  28.362  1.00  0.00     0.180 C 
ATOM     31  C   UNL     1      -0.952 -17.857  26.373  1.00  0.00     0.179 C 
ATOM     32  C   UNL     1      -1.307 -16.623  27.223  1.00  0.00     0.177 C 
BRANCH  28  33
ATOM     33  O   UNL     1      -0.690 -17.794  30.074  1.00  0.00    -0.384 OA
ATOM     34  H   UNL     1       0.212 -17.982  29.680  1.00  0.00     0.211 HD
ENDBRANCH  28  33
BRANCH  30  35
ATOM     35  O   UNL     1      -2.564 -16.007  29.219  1.00  0.00    -0.387 OA
ATOM     36  H   UNL     1      -3.358 -16.276  29.753  1.00  0.00     0.211 HD
ENDBRANCH  30  35
BRANCH  31  37
ATOM     37  C   UNL     1      -0.101 -17.475  25.147  1.00  0.00     0.191 C 
BRANCH  37  38
ATOM     38  O   UNL     1      -0.532 -18.194  24.020  1.00  0.00    -0.394 OA
ATOM     39  H   UNL     1      -0.548 -17.562  23.251  1.00  0.00     0.210 HD
ENDBRANCH  37  38
ENDBRANCH  31  37
BRANCH  32  40
ATOM     40  O   UNL     1      -1.959 -15.636  26.465  1.00  0.00    -0.387 OA
ATOM     41  H   UNL     1      -2.718 -15.315  27.019  1.00  0.00     0.211 HD
ENDBRANCH  32  40
ENDBRANCH   1  27
TORSDOF 12
ENDMDL
MODEL 3
REMARK VINA RESULT:    -6.960      2.998      4.444
REMARK INTER + INTRA:         -11.853
REMARK INTER:                 -10.286
REMARK INTRA:                  -1.567
REMARK UNBOUND:                -1.638
REMARK SMILES O=c1c(O[C@@H]2O[C@H](CO)[C@@H](O)[C@H](O)[C@@H]2O)c(-c2ccc(O)c(O)c2)oc2cc(O)cc(O)c12
REMARK SMILES IDX 4 1 3 2 16 3 25 4 2 5 26 6 1 7 33 8 27 9 31 10 28 11 30 12
REMARK SMILES IDX 17 13 18 14 19 15 20 16 24 17 22 18 21 19 23 21 32 23 29 25
REMARK SMILES IDX 5 27 14 28 6 29 12 30 7 31 10 32 15 33 13 35 8 37 9 38 11 40
REMARK H PARENT 21 20 23 22 32 24 29 26 15 34 13 36 9 39 11 41
REMARK Flexibility Score: inf
ROOT
ATOM      1  O   UNL     1      -0.415 -20.356  29.495  1.00  0.00    -0.454 OA
ENDROOT
BRANCH   1   2
ATOM      2  C   UNL     1      -0.784 -21.713  29.641  1.00  0.00     0.214 A 
ATOM      3  C   UNL     1      -0.469 -22.609  28.603  1.00  0.00     0.180 A 
ATOM      4  O   UNL     1      -0.657 -23.918  28.746  1.00  0.00    -0.452 OA
ATOM      5  C   UNL     1      -1.450 -22.235  30.778  1.00  0.00     0.239 A 
ATOM      6  C   UNL     1      -1.170 -24.459  29.844  1.00  0.00     0.146 A 
ATOM      7  O   UNL     1      -1.954 -21.468  31.645  1.00  0.00    -0.285 OA
ATOM      8  C   UNL     1      -1.590 -23.638  30.919  1.00  0.00     0.111 A 
ATOM      9  C   UNL     1      -1.296 -25.847  29.927  1.00  0.00     0.094 A 
ATOM     10  C   UNL     1      -2.086 -24.249  32.099  1.00  0.00     0.134 A 
ATOM     11  C   UNL     1      -1.800 -26.443  31.093  1.00  0.00     0.123 A 
ATOM     12  C   UNL     1      -2.187 -25.649  32.174  1.00  0.00     0.093 A 
BRANCH   3  13
ATOM     13  C   UNL     1       0.009 -22.136  27.292  1.00  0.00     0.025 A 
ATOM     14  C   UNL     1       1.373 -22.261  27.010  1.00  0.00     0.016 A 
ATOM     15  C   UNL     1       1.905 -21.681  25.858  1.00  0.00     0.051 A 
ATOM     16  C   UNL     1       1.079 -20.974  24.974  1.00  0.00     0.157 A 
ATOM     17  C   UNL     1      -0.835 -21.458  26.386  1.00  0.00     0.062 A 
ATOM     18  C   UNL     1      -0.294 -20.878  25.228  1.00  0.00     0.158 A 
BRANCH  16  19
ATOM     19  O   UNL     1       1.636 -20.330  23.867  1.00  0.00    -0.504 OA
ATOM     20  H   UNL     1       2.379 -19.652  23.969  1.00  0.00     0.293 HD
ENDBRANCH  16  19
BRANCH  18  21
ATOM     21  O   UNL     1      -1.126 -20.158  24.370  1.00  0.00    -0.504 OA
ATOM     22  H   UNL     1      -1.905 -19.602  24.704  1.00  0.00     0.293 HD
ENDBRANCH  18  21
ENDBRANCH   3  13
BRANCH  10  23
ATOM     23  O   UNL     1      -2.450 -23.477  33.190  1.00  0.00    -0.507 OA
ATOM     24  H   UNL     1      -2.110 -23.688  34.113  1.00  0.00     0.293 HD
ENDBRANCH  10  23
BRANCH  11  25
ATOM     25  O   UNL     1      -1.914 -27.833  31.184  1.00  0.00    -0.508 OA
ATOM     26  H   UNL     1      -1.155 -28.436  30.888  1.00  0.00     0.293 HD
ENDBRANCH  11  25
ENDBRANCH   1   2
BRANCH   1  27
ATOM     27  C   UNL     1       0.738 -19.692  30.020  1.00  0.00     0.339 C 
ATOM     28  C   UNL     1       0.314 -18.544  30.981  1.00  0.00     0.214 C 
ATOM     29  O   UNL     1       1.618 -20.623  30.628  1.00  0.00    -0.332 OA
ATOM     30  C   UNL     1       1.514 -17.970  31.753  1.00  0.00     0.180 C 
ATOM     31  C   UNL     1       2.803 -20.001  31.097  1.00  0.00     0.179 C 
ATOM     32  C   UNL     1       2.437 -19.080  32.276  1.00  0.00     0.177 C 
BRANCH  28  33
ATOM     33  O   UNL     1      -0.678 -18.978  31.871  1.00  0.00    -0.384 OA
ATOM     34  H   UNL     1      -1.206 -19.685  31.395  1.00  0.00     0.211 HD
ENDBRANCH  28  33
BRANCH  30  35
ATOM     35  O   UNL     1       1.089 -17.112  32.782  1.00  0.00    -0.387 OA
ATOM     36  H   UNL     1       0.327 -16.574  32.440  1.00  0.00     0.211 HD
ENDBRANCH  30  35
BRANCH  31  37
ATOM     37  C   UNL     1       3.810 -21.088  31.519  1.00  0.00     0.191 C 
BRANCH  37  38
ATOM     38  O   UNL     1       3.188 -22.347  31.515  1.00  0.00    -0.394 OA
ATOM     39  H   UNL     1       2.714 -22.448  32.384  1.00  0.00     0.210 HD
ENDBRANCH  37  38
ENDBRANCH  31  37
BRANCH  32  40
ATOM     40  O   UNL     1       3.575 -18.493  32.854  1.00  0.00    -0.387 OA
ATOM     41  H   UNL     1       4.345 -19.064  32.596  1.00  0.00     0.211 HD
ENDBRANCH  32  40
ENDBRANCH   1  27
TORSDOF 12
ENDMDL
MODEL 4
REMARK VINA RESULT:    -6.921      2.118      7.266
REMARK INTER + INTRA:         -11.797
REMARK INTER:                 -10.467
REMARK INTRA:                  -1.330
REMARK UNBOUND:                -1.638
REMARK SMILES O=c1c(O[C@@H]2O[C@H](CO)[C@@H](O)[C@H](O)[C@@H]2O)c(-c2ccc(O)c(O)c2)oc2cc(O)cc(O)c12
REMARK SMILES IDX 4 1 3 2 16 3 25 4 2 5 26 6 1 7 33 8 27 9 31 10 28 11 30 12
REMARK SMILES IDX 17 13 18 14 19 15 20 16 24 17 22 18 21 19 23 21 32 23 29 25
REMARK SMILES IDX 5 27 14 28 6 29 12 30 7 31 10 32 15 33 13 35 8 37 9 38 11 40
REMARK H PARENT 21 20 23 22 32 24 29 26 15 34 13 36 9 39 11 41
REMARK Flexibility Score: inf
ROOT
ATOM      1  O   UNL     1      -1.529 -21.463  27.720  1.00  0.00    -0.454 OA
ENDROOT
BRANCH   1   2
ATOM      2  C   UNL     1      -0.906 -20.327  27.153  1.00  0.00     0.214 A 
ATOM      3  C   UNL     1       0.252 -20.515  26.375  1.00  0.00     0.180 A 
ATOM      4  O   UNL     1       0.795 -19.508  25.699  1.00  0.00    -0.452 OA
ATOM      5  C   UNL     1      -1.378 -19.000  27.314  1.00  0.00     0.239 A 
ATOM      6  C   UNL     1       0.311 -18.272  25.729  1.00  0.00     0.146 A 
ATOM      7  O   UNL     1      -2.273 -18.727  28.162  1.00  0.00    -0.285 OA
ATOM      8  C   UNL     1      -0.807 -17.959  26.540  1.00  0.00     0.111 A 
ATOM      9  C   UNL     1       0.920 -17.282  24.955  1.00  0.00     0.094 A 
ATOM     10  C   UNL     1      -1.333 -16.643  26.511  1.00  0.00     0.134 A 
ATOM     11  C   UNL     1       0.401 -15.978  24.942  1.00  0.00     0.123 A 
ATOM     12  C   UNL     1      -0.721 -15.662  25.711  1.00  0.00     0.093 A 
BRANCH   3  13
ATOM     13  C   UNL     1       0.954 -21.810  26.336  1.00  0.00     0.025 A 
ATOM     14  C   UNL     1       0.647 -22.688  25.292  1.00  0.00     0.016 A 
ATOM     15  C   UNL     1       1.156 -23.988  25.298  1.00  0.00     0.051 A 
ATOM     16  C   UNL     1       1.979 -24.422  26.346  1.00  0.00     0.157 A 
ATOM     17  C   UNL     1       1.814 -22.229  27.375  1.00  0.00     0.062 A 
ATOM     18  C   UNL     1       2.323 -23.537  27.375  1.00  0.00     0.158 A 
BRANCH  16  19
ATOM     19  O   UNL     1       2.416 -25.747  26.383  1.00  0.00    -0.504 OA
ATOM     20  H   UNL     1       1.833 -26.485  26.756  1.00  0.00     0.293 HD
ENDBRANCH  16  19
BRANCH  18  21
ATOM     21  O   UNL     1       3.123 -23.960  28.437  1.00  0.00    -0.504 OA
ATOM     22  H   UNL     1       3.153 -24.924  28.747  1.00  0.00     0.293 HD
ENDBRANCH  18  21
ENDBRANCH   3  13
BRANCH  10  23
ATOM     23  O   UNL     1      -2.460 -16.320  27.248  1.00  0.00    -0.507 OA
ATOM     24  H   UNL     1      -3.329 -16.807  27.108  1.00  0.00     0.293 HD
ENDBRANCH  10  23
BRANCH  11  25
ATOM     25  O   UNL     1       1.000 -14.987  24.158  1.00  0.00    -0.508 OA
ATOM     26  H   UNL     1       1.972 -14.735  24.293  1.00  0.00     0.293 HD
ENDBRANCH  11  25
ENDBRANCH   1   2
BRANCH   1  27
ATOM     27  C   UNL     1      -1.162 -22.171  28.906  1.00  0.00     0.339 C 
ATOM     28  C   UNL     1      -1.570 -21.362  30.172  1.00  0.00     0.214 C 
ATOM     29  O   UNL     1      -1.699 -23.483  28.894  1.00  0.00    -0.332 OA
ATOM     30  C   UNL     1      -1.418 -22.193  31.457  1.00  0.00     0.180 C 
ATOM     31  C   UNL     1      -1.293 -24.232  30.027  1.00  0.00     0.179 C 
ATOM     32  C   UNL     1      -1.953 -23.621  31.278  1.00  0.00     0.177 C 
BRANCH  28  33
ATOM     33  O   UNL     1      -2.881 -20.879  30.054  1.00  0.00    -0.384 OA
ATOM     34  H   UNL     1      -3.144 -20.984  29.093  1.00  0.00     0.211 HD
ENDBRANCH  28  33
BRANCH  30  35
ATOM     35  O   UNL     1      -2.013 -21.544  32.552  1.00  0.00    -0.387 OA
ATOM     36  H   UNL     1      -2.642 -22.180  32.984  1.00  0.00     0.211 HD
ENDBRANCH  30  35
BRANCH  31  37
ATOM     37  C   UNL     1      -1.703 -25.704  29.832  1.00  0.00     0.191 C 
BRANCH  37  38
ATOM     38  O   UNL     1      -0.800 -26.547  30.499  1.00  0.00    -0.394 OA
ATOM     39  H   UNL     1      -0.003 -26.001  30.740  1.00  0.00     0.210 HD
ENDBRANCH  37  38
ENDBRANCH  31  37
BRANCH  32  40
ATOM     40  O   UNL     1      -1.668 -24.364  32.435  1.00  0.00    -0.387 OA
ATOM     41  H   UNL     1      -0.735 -24.692  32.334  1.00  0.00     0.211 HD
ENDBRANCH  32  40
ENDBRANCH   1  27
TORSDOF 12
ENDMDL
MODEL 5
REMARK VINA RESULT:    -6.598      3.453      6.430
REMARK INTER + INTRA:         -11.322
REMARK INTER:                 -10.069
REMARK INTRA:                  -1.253
REMARK UNBOUND:                -1.638
REMARK SMILES O=c1c(O[C@@H]2O[C@H](CO)[C@@H](O)[C@H](O)[C@@H]2O)c(-c2ccc(O)c(O)c2)oc2cc(O)cc(O)c12
REMARK SMILES IDX 4 1 3 2 16 3 25 4 2 5 26 6 1 7 33 8 27 9 31 10 28 11 30 12
REMARK SMILES IDX 17 13 18 14 19 15 20 16 24 17 22 18 21 19 23 21 32 23 29 25
REMARK SMILES IDX 5 27 14 28 6 29 12 30 7 31 10 32 15 33 13 35 8 37 9 38 11 40
REMARK H PARENT 21 20 23 22 32 24 29 26 15 34 13 36 9 39 11 41
REMARK Flexibility Score: inf
ROOT
ATOM      1  O   UNL     1      -1.207 -14.987  28.515  1.00  0.00    -0.454 OA
ENDROOT
BRANCH   1   2
ATOM      2  C   UNL     1      -1.089 -15.839  27.394  1.00  0.00     0.214 A 
ATOM      3  C   UNL     1      -0.450 -15.346  26.241  1.00  0.00     0.180 A 
ATOM      4  O   UNL     1      -0.179 -16.144  25.212  1.00  0.00    -0.452 OA
ATOM      5  C   UNL     1      -1.570 -17.172  27.356  1.00  0.00     0.239 A 
ATOM      6  C   UNL     1      -0.509 -17.429  25.187  1.00  0.00     0.146 A 
ATOM      7  O   UNL     1      -2.336 -17.612  28.259  1.00  0.00    -0.285 OA
ATOM      8  C   UNL     1      -1.221 -18.008  26.266  1.00  0.00     0.111 A 
ATOM      9  C   UNL     1      -0.150 -18.205  24.083  1.00  0.00     0.094 A 
ATOM     10  C   UNL     1      -1.513 -19.395  26.234  1.00  0.00     0.134 A 
ATOM     11  C   UNL     1      -0.455 -19.574  24.053  1.00  0.00     0.123 A 
ATOM     12  C   UNL     1      -1.127 -20.166  25.124  1.00  0.00     0.093 A 
BRANCH   3  13
ATOM     13  C   UNL     1      -0.123 -13.917  26.090  1.00  0.00     0.025 A 
ATOM     14  C   UNL     1       1.165 -13.501  26.442  1.00  0.00     0.016 A 
ATOM     15  C   UNL     1       1.476 -12.141  26.477  1.00  0.00     0.051 A 
ATOM     16  C   UNL     1       0.504 -11.183  26.158  1.00  0.00     0.157 A 
ATOM     17  C   UNL     1      -1.095 -12.958  25.731  1.00  0.00     0.062 A 
ATOM     18  C   UNL     1      -0.776 -11.593  25.767  1.00  0.00     0.158 A 
BRANCH  16  19
ATOM     19  O   UNL     1       0.803  -9.824  26.275  1.00  0.00    -0.504 OA
ATOM     20  H   UNL     1       1.643  -9.432  25.871  1.00  0.00     0.293 HD
ENDBRANCH  16  19
BRANCH  18  21
ATOM     21  O   UNL     1      -1.762 -10.651  25.469  1.00  0.00    -0.504 OA
ATOM     22  H   UNL     1      -2.013 -10.407  24.518  1.00  0.00     0.293 HD
ENDBRANCH  18  21
ENDBRANCH   3  13
BRANCH  10  23
ATOM     23  O   UNL     1      -2.158 -20.002  27.299  1.00  0.00    -0.507 OA
ATOM     24  H   UNL     1      -1.868 -20.906  27.634  1.00  0.00     0.293 HD
ENDBRANCH  10  23
BRANCH  11  25
ATOM     25  O   UNL     1      -0.084 -20.357  22.955  1.00  0.00    -0.508 OA
ATOM     26  H   UNL     1      -0.660 -20.387  22.122  1.00  0.00     0.293 HD
ENDBRANCH  11  25
ENDBRANCH   1   2
BRANCH   1  27
ATOM     27  C   UNL     1      -2.402 -14.519  29.147  1.00  0.00     0.339 C 
ATOM     28  C   UNL     1      -2.156 -13.141  29.825  1.00  0.00     0.214 C 
ATOM     29  O   UNL     1      -3.480 -14.496  28.226  1.00  0.00    -0.332 OA
ATOM     30  C   UNL     1      -3.468 -12.492  30.299  1.00  0.00     0.180 C 
ATOM     31  C   UNL     1      -4.694 -14.102  28.843  1.00  0.00     0.179 C 
ATOM     32  C   UNL     1      -4.578 -12.621  29.247  1.00  0.00     0.177 C 
BRANCH  28  33
ATOM     33  O   UNL     1      -1.467 -12.276  28.963  1.00  0.00    -0.384 OA
ATOM     34  H   UNL     1      -0.696 -11.901  29.482  1.00  0.00     0.211 HD
ENDBRANCH  28  33
BRANCH  30  35
ATOM     35  O   UNL     1      -3.261 -11.157  30.685  1.00  0.00    -0.387 OA
ATOM     36  H   UNL     1      -3.527 -10.572  29.927  1.00  0.00     0.211 HD
ENDBRANCH  30  35
BRANCH  31  37
ATOM     37  C   UNL     1      -5.857 -14.332  27.859  1.00  0.00     0.191 C 
BRANCH  37  38
ATOM     38  O   UNL     1      -5.356 -14.681  26.595  1.00  0.00    -0.394 OA
ATOM     39  H   UNL     1      -4.444 -14.290  26.517  1.00  0.00     0.210 HD
ENDBRANCH  37  38
ENDBRANCH  31  37
BRANCH  32  40
ATOM     40  O   UNL     1      -5.778 -12.130  29.788  1.00  0.00    -0.387 OA
ATOM     41  H   UNL     1      -5.544 -11.725  30.664  1.00  0.00     0.211 HD
ENDBRANCH  32  40
ENDBRANCH   1  27
TORSDOF 12
ENDMDL
MODEL 6
REMARK VINA RESULT:    -6.577      2.396      5.230
REMARK INTER + INTRA:         -11.292
REMARK INTER:                 -10.042
REMARK INTRA:                  -1.250
REMARK UNBOUND:                -1.638
REMARK SMILES O=c1c(O[C@@H]2O[C@H](CO)[C@@H](O)[C@H](O)[C@@H]2O)c(-c2ccc(O)c(O)c2)oc2cc(O)cc(O)c12
REMARK SMILES IDX 4 1 3 2 16 3 25 4 2 5 26 6 1 7 33 8 27 9 31 10 28 11 30 12
REMARK SMILES IDX 17 13 18 14 19 15 20 16 24 17 22 18 21 19 23 21 32 23 29 25
REMARK SMILES IDX 5 27 14 28 6 29 12 30 7 31 10 32 15 33 13 35 8 37 9 38 11 40
REMARK H PARENT 21 20 23 22 32 24 29 26 15 34 13 36 9 39 11 41
REMARK Flexibility Score: inf
ROOT
ATOM      1  O   UNL     1      -1.138 -19.263  26.588  1.00  0.00    -0.454 OA
ENDROOT
BRANCH   1   2
ATOM      2  C   UNL     1      -0.322 -20.416  26.627  1.00  0.00     0.214 A 
ATOM      3  C   UNL     1       0.221 -20.812  27.863  1.00  0.00     0.180 A 
ATOM      4  O   UNL     1       0.872 -21.965  27.989  1.00  0.00    -0.452 OA
ATOM      5  C   UNL     1      -0.017 -21.211  25.493  1.00  0.00     0.239 A 
ATOM      6  C   UNL     1       1.076 -22.795  26.974  1.00  0.00     0.146 A 
ATOM      7  O   UNL     1      -0.283 -20.808  24.326  1.00  0.00    -0.285 OA
ATOM      8  C   UNL     1       0.635 -22.456  25.671  1.00  0.00     0.111 A 
ATOM      9  C   UNL     1       1.734 -24.005  27.203  1.00  0.00     0.094 A 
ATOM     10  C   UNL     1       0.822 -23.387  24.617  1.00  0.00     0.134 A 
ATOM     11  C   UNL     1       1.926 -24.914  26.151  1.00  0.00     0.123 A 
ATOM     12  C   UNL     1       1.468 -24.609  24.868  1.00  0.00     0.093 A 
BRANCH   3  13
ATOM     13  C   UNL     1       0.161 -19.940  29.049  1.00  0.00     0.025 A 
ATOM     14  C   UNL     1       1.283 -19.158  29.342  1.00  0.00     0.016 A 
ATOM     15  C   UNL     1       1.344 -18.443  30.539  1.00  0.00     0.051 A 
ATOM     16  C   UNL     1       0.283 -18.498  31.453  1.00  0.00     0.157 A 
ATOM     17  C   UNL     1      -0.927 -19.969  29.948  1.00  0.00     0.062 A 
ATOM     18  C   UNL     1      -0.860 -19.247  31.149  1.00  0.00     0.158 A 
BRANCH  16  19
ATOM     19  O   UNL     1       0.390 -17.844  32.682  1.00  0.00    -0.504 OA
ATOM     20  H   UNL     1       1.240 -17.881  33.227  1.00  0.00     0.293 HD
ENDBRANCH  16  19
BRANCH  18  21
ATOM     21  O   UNL     1      -1.915 -19.331  32.058  1.00  0.00    -0.504 OA
ATOM     22  H   UNL     1      -2.886 -19.361  31.767  1.00  0.00     0.293 HD
ENDBRANCH  18  21
ENDBRANCH   3  13
BRANCH  10  23
ATOM     23  O   UNL     1       0.351 -23.110  23.344  1.00  0.00    -0.507 OA
ATOM     24  H   UNL     1      -0.213 -22.296  23.164  1.00  0.00     0.293 HD
ENDBRANCH  10  23
BRANCH  11  25
ATOM     25  O   UNL     1       2.573 -26.133  26.380  1.00  0.00    -0.508 OA
ATOM     26  H   UNL     1       3.308 -26.454  25.760  1.00  0.00     0.293 HD
ENDBRANCH  11  25
ENDBRANCH   1   2
BRANCH   1  27
ATOM     27  C   UNL     1      -0.731 -17.892  26.611  1.00  0.00     0.339 C 
ATOM     28  C   UNL     1      -0.014 -17.514  25.283  1.00  0.00     0.214 C 
ATOM     29  O   UNL     1      -1.831 -17.046  26.903  1.00  0.00    -0.332 OA
ATOM     30  C   UNL     1       0.218 -15.998  25.168  1.00  0.00     0.180 C 
ATOM     31  C   UNL     1      -1.442 -15.687  27.002  1.00  0.00     0.179 C 
ATOM     32  C   UNL     1      -1.018 -15.199  25.604  1.00  0.00     0.177 C 
BRANCH  28  33
ATOM     33  O   UNL     1      -0.734 -17.984  24.176  1.00  0.00    -0.384 OA
ATOM     34  H   UNL     1      -1.016 -17.179  23.650  1.00  0.00     0.211 HD
ENDBRANCH  28  33
BRANCH  30  35
ATOM     35  O   UNL     1       0.640 -15.648  23.874  1.00  0.00    -0.387 OA
ATOM     36  H   UNL     1       1.491 -15.141  23.953  1.00  0.00     0.211 HD
ENDBRANCH  30  35
BRANCH  31  37
ATOM     37  C   UNL     1      -2.620 -14.864  27.556  1.00  0.00     0.191 C 
BRANCH  37  38
ATOM     38  O   UNL     1      -3.745 -15.688  27.725  1.00  0.00    -0.394 OA
ATOM     39  H   UNL     1      -4.246 -15.349  28.515  1.00  0.00     0.210 HD
ENDBRANCH  37  38
ENDBRANCH  31  37
BRANCH  32  40
ATOM     40  O   UNL     1      -0.700 -13.830  25.602  1.00  0.00    -0.387 OA
ATOM     41  H   UNL     1      -0.232 -13.654  24.744  1.00  0.00     0.211 HD
ENDBRANCH  32  40
ENDBRANCH   1  27
TORSDOF 12
ENDMDL
MODEL 7
REMARK VINA RESULT:    -6.531      2.512      3.976
REMARK INTER + INTRA:         -11.224
REMARK INTER:                  -9.921
REMARK INTRA:                  -1.303
REMARK UNBOUND:                -1.638
REMARK SMILES O=c1c(O[C@@H]2O[C@H](CO)[C@@H](O)[C@H](O)[C@@H]2O)c(-c2ccc(O)c(O)c2)oc2cc(O)cc(O)c12
REMARK SMILES IDX 4 1 3 2 16 3 25 4 2 5 26 6 1 7 33 8 27 9 31 10 28 11 30 12
REMARK SMILES IDX 17 13 18 14 19 15 20 16 24 17 22 18 21 19 23 21 32 23 29 25
REMARK SMILES IDX 5 27 14 28 6 29 12 30 7 31 10 32 15 33 13 35 8 37 9 38 11 40
REMARK H PARENT 21 20 23 22 32 24 29 26 15 34 13 36 9 39 11 41
REMARK Flexibility Score: inf
ROOT
ATOM      1  O   UNL     1      -0.874 -20.082  29.779  1.00  0.00    -0.454 OA
ENDROOT
BRANCH   1   2
ATOM      2  C   UNL     1      -1.170 -21.461  29.877  1.00  0.00     0.214 A 
ATOM      3  C   UNL     1      -0.911 -22.283  28.764  1.00  0.00     0.180 A 
ATOM      4  O   UNL     1      -1.029 -23.605  28.845  1.00  0.00    -0.452 OA
ATOM      5  C   UNL     1      -1.710 -22.077  31.034  1.00  0.00     0.239 A 
ATOM      6  C   UNL     1      -1.419 -24.229  29.949  1.00  0.00     0.146 A 
ATOM      7  O   UNL     1      -2.166 -21.383  31.986  1.00  0.00    -0.285 OA
ATOM      8  C   UNL     1      -1.777 -23.490  31.103  1.00  0.00     0.111 A 
ATOM      9  C   UNL     1      -1.478 -25.625  29.960  1.00  0.00     0.094 A 
ATOM     10  C   UNL     1      -2.139 -24.188  32.284  1.00  0.00     0.134 A 
ATOM     11  C   UNL     1      -1.850 -26.307  31.128  1.00  0.00     0.123 A 
ATOM     12  C   UNL     1      -2.173 -25.593  32.284  1.00  0.00     0.093 A 
BRANCH   3  13
ATOM     13  C   UNL     1      -0.572 -21.716  27.447  1.00  0.00     0.025 A 
ATOM     14  C   UNL     1      -1.521 -20.898  26.825  1.00  0.00     0.016 A 
ATOM     15  C   UNL     1      -1.324 -20.472  25.511  1.00  0.00     0.051 A 
ATOM     16  C   UNL     1      -0.175 -20.856  24.806  1.00  0.00     0.157 A 
ATOM     17  C   UNL     1       0.605 -22.074  26.755  1.00  0.00     0.062 A 
ATOM     18  C   UNL     1       0.798 -21.642  25.434  1.00  0.00     0.158 A 
BRANCH  16  19
ATOM     19  O   UNL     1      -0.027 -20.491  23.466  1.00  0.00    -0.504 OA
ATOM     20  H   UNL     1      -0.229 -21.139  22.717  1.00  0.00     0.293 HD
ENDBRANCH  16  19
BRANCH  18  21
ATOM     21  O   UNL     1       1.937 -22.052  24.739  1.00  0.00    -0.504 OA
ATOM     22  H   UNL     1       2.815 -21.548  24.785  1.00  0.00     0.293 HD
ENDBRANCH  18  21
ENDBRANCH   3  13
BRANCH  10  23
ATOM     23  O   UNL     1      -2.437 -23.496  33.445  1.00  0.00    -0.507 OA
ATOM     24  H   UNL     1      -2.126 -23.828  34.343  1.00  0.00     0.293 HD
ENDBRANCH  10  23
BRANCH  11  25
ATOM     25  O   UNL     1      -1.896 -27.704  31.146  1.00  0.00    -0.508 OA
ATOM     26  H   UNL     1      -1.214 -28.239  31.672  1.00  0.00     0.293 HD
ENDBRANCH  11  25
ENDBRANCH   1   2
BRANCH   1  27
ATOM     27  C   UNL     1       0.363 -19.422  30.063  1.00  0.00     0.339 C 
ATOM     28  C   UNL     1       0.816 -18.567  28.845  1.00  0.00     0.214 C 
ATOM     29  O   UNL     1       0.266 -18.668  31.260  1.00  0.00    -0.332 OA
ATOM     30  C   UNL     1       2.003 -17.654  29.195  1.00  0.00     0.180 C 
ATOM     31  C   UNL     1       1.499 -18.058  31.603  1.00  0.00     0.179 C 
ATOM     32  C   UNL     1       1.814 -16.972  30.557  1.00  0.00     0.177 C 
BRANCH  28  33
ATOM     33  O   UNL     1      -0.252 -17.810  28.341  1.00  0.00    -0.384 OA
ATOM     34  H   UNL     1      -0.109 -16.867  28.648  1.00  0.00     0.211 HD
ENDBRANCH  28  33
BRANCH  30  35
ATOM     35  O   UNL     1       2.243 -16.722  28.171  1.00  0.00    -0.387 OA
ATOM     36  H   UNL     1       3.166 -16.372  28.282  1.00  0.00     0.211 HD
ENDBRANCH  30  35
BRANCH  31  37
ATOM     37  C   UNL     1       1.392 -17.466  33.021  1.00  0.00     0.191 C 
BRANCH  37  38
ATOM     38  O   UNL     1       0.967 -16.130  32.953  1.00  0.00    -0.394 OA
ATOM     39  H   UNL     1       1.757 -15.577  32.706  1.00  0.00     0.210 HD
ENDBRANCH  37  38
ENDBRANCH  31  37
BRANCH  32  40
ATOM     40  O   UNL     1       2.982 -16.260  30.878  1.00  0.00    -0.387 OA
ATOM     41  H   UNL     1       2.684 -15.412  31.302  1.00  0.00     0.211 HD
ENDBRANCH  32  40
ENDBRANCH   1  27
TORSDOF 12
ENDMDL
MODEL 8
REMARK VINA RESULT:    -6.485      3.367      4.854
REMARK INTER + INTRA:         -11.156
REMARK INTER:                  -9.722
REMARK INTRA:                  -1.435
REMARK UNBOUND:                -1.638
REMARK SMILES O=c1c(O[C@@H]2O[C@H](CO)[C@@H](O)[C@H](O)[C@@H]2O)c(-c2ccc(O)c(O)c2)oc2cc(O)cc(O)c12
REMARK SMILES IDX 4 1 3 2 16 3 25 4 2 5 26 6 1 7 33 8 27 9 31 10 28 11 30 12
REMARK SMILES IDX 17 13 18 14 19 15 20 16 24 17 22 18 21 19 23 21 32 23 29 25
REMARK SMILES IDX 5 27 14 28 6 29 12 30 7 31 10 32 15 33 13 35 8 37 9 38 11 40
REMARK H PARENT 21 20 23 22 32 24 29 26 15 34 13 36 9 39 11 41
REMARK Flexibility Score: inf
ROOT
ATOM      1  O   UNL     1       2.389 -21.163  28.709  1.00  0.00    -0.454 OA
ENDROOT
BRANCH   1   2
ATOM      2  C   UNL     1       2.507 -22.569  28.788  1.00  0.00     0.214 A 
ATOM      3  C   UNL     1       2.267 -23.328  27.627  1.00  0.00     0.180 A 
ATOM      4  O   UNL     1       2.505 -24.636  27.601  1.00  0.00    -0.452 OA
ATOM      5  C   UNL     1       2.861 -23.271  29.967  1.00  0.00     0.239 A 
ATOM      6  C   UNL     1       2.951 -25.311  28.654  1.00  0.00     0.146 A 
ATOM      7  O   UNL     1       2.881 -22.689  31.088  1.00  0.00    -0.285 OA
ATOM      8  C   UNL     1       3.154 -24.655  29.893  1.00  0.00     0.111 A 
ATOM      9  C   UNL     1       3.214 -26.677  28.528  1.00  0.00     0.094 A 
ATOM     10  C   UNL     1       3.681 -25.392  30.984  1.00  0.00     0.134 A 
ATOM     11  C   UNL     1       3.722 -27.401  29.617  1.00  0.00     0.123 A 
ATOM     12  C   UNL     1       3.959 -26.762  30.835  1.00  0.00     0.093 A 
BRANCH   3  13
ATOM     13  C   UNL     1       1.673 -22.728  26.420  1.00  0.00     0.025 A 
ATOM     14  C   UNL     1       2.533 -22.382  25.372  1.00  0.00     0.016 A 
ATOM     15  C   UNL     1       2.049 -21.662  24.279  1.00  0.00     0.051 A 
ATOM     16  C   UNL     1       0.701 -21.282  24.221  1.00  0.00     0.157 A 
ATOM     17  C   UNL     1       0.307 -22.381  26.349  1.00  0.00     0.062 A 
ATOM     18  C   UNL     1      -0.174 -21.657  25.247  1.00  0.00     0.158 A 
BRANCH  16  19
ATOM     19  O   UNL     1       0.247 -20.492  23.163  1.00  0.00    -0.504 OA
ATOM     20  H   UNL     1       0.693 -19.615  22.929  1.00  0.00     0.293 HD
ENDBRANCH  16  19
BRANCH  18  21
ATOM     21  O   UNL     1      -1.513 -21.267  25.215  1.00  0.00    -0.504 OA
ATOM     22  H   UNL     1      -2.265 -21.870  25.528  1.00  0.00     0.293 HD
ENDBRANCH  18  21
ENDBRANCH   3  13
BRANCH  10  23
ATOM     23  O   UNL     1       3.945 -24.767  32.192  1.00  0.00    -0.507 OA
ATOM     24  H   UNL     1       3.997 -23.764  32.257  1.00  0.00     0.293 HD
ENDBRANCH  10  23
BRANCH  11  25
ATOM     25  O   UNL     1       3.999 -28.766  29.490  1.00  0.00    -0.508 OA
ATOM     26  H   UNL     1       3.383 -29.460  29.898  1.00  0.00     0.293 HD
ENDBRANCH  11  25
ENDBRANCH   1   2
BRANCH   1  27
ATOM     27  C   UNL     1       1.457 -20.316  29.388  1.00  0.00     0.339 C 
ATOM     28  C   UNL     1       1.267 -18.982  28.609  1.00  0.00     0.214 C 
ATOM     29  O   UNL     1       0.236 -20.998  29.619  1.00  0.00    -0.332 OA
ATOM     30  C   UNL     1       0.097 -18.154  29.167  1.00  0.00     0.180 C 
ATOM     31  C   UNL     1      -0.683 -20.205  30.352  1.00  0.00     0.179 C 
ATOM     32  C   UNL     1      -1.129 -19.029  29.463  1.00  0.00     0.177 C 
BRANCH  28  33
ATOM     33  O   UNL     1       1.084 -19.225  27.240  1.00  0.00    -0.384 OA
ATOM     34  H   UNL     1       1.678 -18.584  26.749  1.00  0.00     0.211 HD
ENDBRANCH  28  33
BRANCH  30  35
ATOM     35  O   UNL     1      -0.216 -17.082  28.314  1.00  0.00    -0.387 OA
ATOM     36  H   UNL     1      -0.841 -16.477  28.795  1.00  0.00     0.211 HD
ENDBRANCH  30  35
BRANCH  31  37
ATOM     37  C   UNL     1      -1.877 -21.079  30.777  1.00  0.00     0.191 C 
BRANCH  37  38
ATOM     38  O   UNL     1      -2.655 -21.409  29.656  1.00  0.00    -0.394 OA
ATOM     39  H   UNL     1      -3.606 -21.223  29.887  1.00  0.00     0.210 HD
ENDBRANCH  37  38
ENDBRANCH  31  37
BRANCH  32  40
ATOM     40  O   UNL     1      -2.111 -18.243  30.089  1.00  0.00    -0.387 OA
ATOM     41  H   UNL     1      -2.854 -18.153  29.437  1.00  0.00     0.211 HD
ENDBRANCH  32  40
ENDBRANCH   1  27
TORSDOF 12
ENDMDL
MODEL 9
REMARK VINA RESULT:    -6.473      1.872      6.804
REMARK INTER + INTRA:         -11.138
REMARK INTER:                 -10.202
REMARK INTRA:                  -0.936
REMARK UNBOUND:                -1.638
REMARK SMILES O=c1c(O[C@@H]2O[C@H](CO)[C@@H](O)[C@H](O)[C@@H]2O)c(-c2ccc(O)c(O)c2)oc2cc(O)cc(O)c12
REMARK SMILES IDX 4 1 3 2 16 3 25 4 2 5 26 6 1 7 33 8 27 9 31 10 28 11 30 12
REMARK SMILES IDX 17 13 18 14 19 15 20 16 24 17 22 18 21 19 23 21 32 23 29 25
REMARK SMILES IDX 5 27 14 28 6 29 12 30 7 31 10 32 15 33 13 35 8 37 9 38 11 40
REMARK H PARENT 21 20 23 22 32 24 29 26 15 34 13 36 9 39 11 41
REMARK Flexibility Score: inf
ROOT
ATOM      1  O   UNL     1      -1.002 -20.347  28.157  1.00  0.00    -0.454 OA
ENDROOT
BRANCH   1   2
ATOM      2  C   UNL     1      -0.989 -19.024  27.657  1.00  0.00     0.214 A 
ATOM      3  C   UNL     1      -0.393 -18.787  26.404  1.00  0.00     0.180 A 
ATOM      4  O   UNL     1      -0.480 -17.596  25.818  1.00  0.00    -0.452 OA
ATOM      5  C   UNL     1      -1.547 -17.913  28.337  1.00  0.00     0.239 A 
ATOM      6  C   UNL     1      -1.098 -16.561  26.372  1.00  0.00     0.146 A 
ATOM      7  O   UNL     1      -1.903 -18.003  29.546  1.00  0.00    -0.285 OA
ATOM      8  C   UNL     1      -1.667 -16.672  27.664  1.00  0.00     0.111 A 
ATOM      9  C   UNL     1      -1.178 -15.357  25.668  1.00  0.00     0.094 A 
ATOM     10  C   UNL     1      -2.366 -15.564  28.207  1.00  0.00     0.134 A 
ATOM     11  C   UNL     1      -1.860 -14.261  26.218  1.00  0.00     0.123 A 
ATOM     12  C   UNL     1      -2.455 -14.366  27.477  1.00  0.00     0.093 A 
BRANCH   3  13
ATOM     13  C   UNL     1       0.414 -19.815  25.725  1.00  0.00     0.025 A 
ATOM     14  C   UNL     1       1.775 -19.556  25.532  1.00  0.00     0.016 A 
ATOM     15  C   UNL     1       2.547 -20.417  24.751  1.00  0.00     0.051 A 
ATOM     16  C   UNL     1       1.969 -21.547  24.158  1.00  0.00     0.157 A 
ATOM     17  C   UNL     1      -0.165 -20.973  25.162  1.00  0.00     0.062 A 
ATOM     18  C   UNL     1       0.617 -21.836  24.378  1.00  0.00     0.158 A 
BRANCH  16  19
ATOM     19  O   UNL     1       2.732 -22.356  23.314  1.00  0.00    -0.504 OA
ATOM     20  H   UNL     1       3.630 -22.052  22.960  1.00  0.00     0.293 HD
ENDBRANCH  16  19
BRANCH  18  21
ATOM     21  O   UNL     1       0.020 -22.944  23.777  1.00  0.00    -0.504 OA
ATOM     22  H   UNL     1       0.376 -23.359  22.923  1.00  0.00     0.293 HD
ENDBRANCH  18  21
ENDBRANCH   3  13
BRANCH  10  23
ATOM     23  O   UNL     1      -2.983 -15.660  29.443  1.00  0.00    -0.507 OA
ATOM     24  H   UNL     1      -2.499 -16.044  30.237  1.00  0.00     0.293 HD
ENDBRANCH  10  23
BRANCH  11  25
ATOM     25  O   UNL     1      -1.953 -13.059  25.510  1.00  0.00    -0.508 OA
ATOM     26  H   UNL     1      -1.124 -12.613  25.135  1.00  0.00     0.293 HD
ENDBRANCH  11  25
ENDBRANCH   1   2
BRANCH   1  27
ATOM     27  C   UNL     1      -0.647 -20.799  29.466  1.00  0.00     0.339 C 
ATOM     28  C   UNL     1      -1.896 -21.359  30.206  1.00  0.00     0.214 C 
ATOM     29  O   UNL     1       0.420 -21.731  29.402  1.00  0.00    -0.332 OA
ATOM     30  C   UNL     1      -1.515 -22.078  31.511  1.00  0.00     0.180 C 
ATOM     31  C   UNL     1       0.839 -22.144  30.692  1.00  0.00     0.179 C 
ATOM     32  C   UNL     1      -0.287 -22.981  31.326  1.00  0.00     0.177 C 
BRANCH  28  33
ATOM     33  O   UNL     1      -2.627 -22.217  29.371  1.00  0.00    -0.384 OA
ATOM     34  H   UNL     1      -2.232 -23.132  29.477  1.00  0.00     0.211 HD
ENDBRANCH  28  33
BRANCH  30  35
ATOM     35  O   UNL     1      -2.610 -22.782  32.039  1.00  0.00    -0.387 OA
ATOM     36  H   UNL     1      -2.737 -22.493  32.982  1.00  0.00     0.211 HD
ENDBRANCH  30  35
BRANCH  31  37
ATOM     37  C   UNL     1       2.143 -22.953  30.564  1.00  0.00     0.191 C 
BRANCH  37  38
ATOM     38  O   UNL     1       1.848 -24.312  30.369  1.00  0.00    -0.394 OA
ATOM     39  H   UNL     1       0.943 -24.479  30.748  1.00  0.00     0.210 HD
ENDBRANCH  37  38
ENDBRANCH  31  37
BRANCH  32  40
ATOM     40  O   UNL     1       0.088 -23.502  32.576  1.00  0.00    -0.387 OA
ATOM     41  H   UNL     1       0.498 -24.389  32.396  1.00  0.00     0.211 HD
ENDBRANCH  32  40
ENDBRANCH   1  27
TORSDOF 12
ENDMDL
