MODEL 1
REMARK VINA RESULT:    -3.040      0.000      0.000
REMARK INTER + INTRA:          -3.786
REMARK INTER:                  -3.662
REMARK INTRA:                  -0.124
REMARK UNBOUND:                -0.124
REMARK SMILES CC[C@@H](C)[C@H]([NH3+])C(=O)[O-]
REMARK SMILES IDX 3 1 4 2 5 3 6 4 7 8 8 9 9 10 2 11 1 12
REMARK H PARENT 6 5 6 6 6 7
REMARK Flexibility Score: inf
ROOT
ATOM      1  C   UNL     1      31.991   7.091   3.431  1.00  0.00     0.050 C 
ATOM      2  C   UNL     1      33.208   6.616   4.247  1.00  0.00     0.014 C 
ENDROOT
BRANCH   1   3
ATOM      3  C   UNL     1      32.051   6.593   1.952  1.00  0.00     0.230 C 
BRANCH   3   4
ATOM      4  N   UNL     1      33.220   5.732   1.719  1.00  0.00    -0.350 N 
ATOM      5  H   UNL     1      33.004   5.016   0.989  1.00  0.00     0.345 HD
ATOM      6  H   UNL     1      34.022   6.304   1.363  1.00  0.00     0.345 HD
ATOM      7  H   UNL     1      33.511   5.253   2.602  1.00  0.00     0.345 HD
ENDBRANCH   3   4
BRANCH   3   8
ATOM      8  C   UNL     1      32.082   7.752   0.989  1.00  0.00     0.099 C 
ATOM      9  O   UNL     1      31.415   8.795   1.224  1.00  0.00    -0.544 OA
ATOM     10  O   UNL     1      32.846   7.676  -0.169  1.00  0.00    -0.544 OA
ENDBRANCH   3   8
ENDBRANCH   1   3
BRANCH   1  11
ATOM     11  C   UNL     1      30.668   6.720   4.154  1.00  0.00     0.006 C 
ATOM     12  C   UNL     1      29.629   7.844   4.199  1.00  0.00     0.004 C 
ENDBRANCH   1  11
TORSDOF 4
ENDMDL
MODEL 2
REMARK VINA RESULT:    -2.961     12.144     13.180
REMARK INTER + INTRA:          -3.691
REMARK INTER:                  -3.551
REMARK INTRA:                  -0.140
REMARK UNBOUND:                -0.124
REMARK SMILES CC[C@@H](C)[C@H]([NH3+])C(=O)[O-]
REMARK SMILES IDX 3 1 4 2 5 3 6 4 7 8 8 9 9 10 2 11 1 12
REMARK H PARENT 6 5 6 6 6 7
REMARK Flexibility Score: inf
ROOT
ATOM      1  C   UNL     1      43.649   5.374   7.855  1.00  0.00     0.050 C 
ATOM      2  C   UNL     1      44.471   5.489   6.556  1.00  0.00     0.014 C 
ENDROOT
BRANCH   1   3
ATOM      3  C   UNL     1      42.927   6.714   8.207  1.00  0.00     0.230 C 
BRANCH   3   4
ATOM      4  N   UNL     1      43.043   7.693   7.116  1.00  0.00    -0.350 N 
ATOM      5  H   UNL     1      43.945   7.563   6.605  1.00  0.00     0.345 HD
ATOM      6  H   UNL     1      42.271   7.551   6.423  1.00  0.00     0.345 HD
ATOM      7  H   UNL     1      42.989   8.670   7.487  1.00  0.00     0.345 HD
ENDBRANCH   3   4
BRANCH   3   8
ATOM      8  C   UNL     1      43.479   7.310   9.477  1.00  0.00     0.099 C 
ATOM      9  O   UNL     1      43.270   8.520   9.757  1.00  0.00    -0.544 OA
ATOM     10  O   UNL     1      44.226   6.525  10.347  1.00  0.00    -0.544 OA
ENDBRANCH   3   8
ENDBRANCH   1   3
BRANCH   1  11
ATOM     11  C   UNL     1      42.690   4.154   7.790  1.00  0.00     0.006 C 
ATOM     12  C   UNL     1      41.260   4.443   8.255  1.00  0.00     0.004 C 
ENDBRANCH   1  11
TORSDOF 4
ENDMDL
MODEL 3
REMARK VINA RESULT:    -2.959      1.875      2.350
REMARK INTER + INTRA:          -3.689
REMARK INTER:                  -3.561
REMARK INTRA:                  -0.128
REMARK UNBOUND:                -0.124
REMARK SMILES CC[C@@H](C)[C@H]([NH3+])C(=O)[O-]
REMARK SMILES IDX 3 1 4 2 5 3 6 4 7 8 8 9 9 10 2 11 1 12
REMARK H PARENT 6 5 6 6 6 7
REMARK Flexibility Score: inf
ROOT
ATOM      1  C   UNL     1      30.646   5.945   1.905  1.00  0.00     0.050 C 
ATOM      2  C   UNL     1      30.602   4.909   3.045  1.00  0.00     0.014 C 
ENDROOT
BRANCH   1   3
ATOM      3  C   UNL     1      32.112   6.292   1.491  1.00  0.00     0.230 C 
BRANCH   3   4
ATOM      4  N   UNL     1      33.009   6.329   2.655  1.00  0.00    -0.350 N 
ATOM      5  H   UNL     1      33.664   5.515   2.634  1.00  0.00     0.345 HD
ATOM      6  H   UNL     1      33.594   7.198   2.631  1.00  0.00     0.345 HD
ATOM      7  H   UNL     1      32.462   6.313   3.546  1.00  0.00     0.345 HD
ENDBRANCH   3   4
BRANCH   3   8
ATOM      8  C   UNL     1      32.172   7.614   0.769  1.00  0.00     0.099 C 
ATOM      9  O   UNL     1      31.509   8.601   1.186  1.00  0.00    -0.544 OA
ATOM     10  O   UNL     1      32.961   7.752  -0.366  1.00  0.00    -0.544 OA
ENDBRANCH   3   8
ENDBRANCH   1   3
BRANCH   1  11
ATOM     11  C   UNL     1      29.760   5.487   0.715  1.00  0.00     0.006 C 
ATOM     12  C   UNL     1      28.459   6.278   0.548  1.00  0.00     0.004 C 
ENDBRANCH   1  11
TORSDOF 4
ENDMDL
MODEL 4
REMARK VINA RESULT:    -2.825     12.206     13.269
REMARK INTER + INTRA:          -3.528
REMARK INTER:                  -3.433
REMARK INTRA:                  -0.095
REMARK UNBOUND:                -0.124
REMARK SMILES CC[C@@H](C)[C@H]([NH3+])C(=O)[O-]
REMARK SMILES IDX 3 1 4 2 5 3 6 4 7 8 8 9 9 10 2 11 1 12
REMARK H PARENT 6 5 6 6 6 7
REMARK Flexibility Score: inf
ROOT
ATOM      1  C   UNL     1      43.066   9.043   8.910  1.00  0.00     0.050 C 
ATOM      2  C   UNL     1      41.527   8.985   8.872  1.00  0.00     0.014 C 
ENDROOT
BRANCH   1   3
ATOM      3  C   UNL     1      43.711   7.751   8.314  1.00  0.00     0.230 C 
BRANCH   3   4
ATOM      4  N   UNL     1      43.108   7.390   7.023  1.00  0.00    -0.350 N 
ATOM      5  H   UNL     1      42.829   8.251   6.500  1.00  0.00     0.345 HD
ATOM      6  H   UNL     1      43.806   6.881   6.430  1.00  0.00     0.345 HD
ATOM      7  H   UNL     1      42.271   6.779   7.161  1.00  0.00     0.345 HD
ENDBRANCH   3   4
BRANCH   3   8
ATOM      8  C   UNL     1      43.583   6.590   9.269  1.00  0.00     0.099 C 
ATOM      9  O   UNL     1      44.211   6.589  10.360  1.00  0.00    -0.544 OA
ATOM     10  O   UNL     1      42.769   5.511   8.947  1.00  0.00    -0.544 OA
ENDBRANCH   3   8
ENDBRANCH   1   3
BRANCH   1  11
ATOM     11  C   UNL     1      43.582  10.351   8.250  1.00  0.00     0.006 C 
ATOM     12  C   UNL     1      42.668  10.917   7.160  1.00  0.00     0.004 C 
ENDBRANCH   1  11
TORSDOF 4
ENDMDL
MODEL 5
REMARK VINA RESULT:    -2.683      2.509      3.165
REMARK INTER + INTRA:          -3.357
REMARK INTER:                  -3.241
REMARK INTRA:                  -0.116
REMARK UNBOUND:                -0.124
REMARK SMILES CC[C@@H](C)[C@H]([NH3+])C(=O)[O-]
REMARK SMILES IDX 3 1 4 2 5 3 6 4 7 8 8 9 9 10 2 11 1 12
REMARK H PARENT 6 5 6 6 6 7
REMARK Flexibility Score: inf
ROOT
ATOM      1  C   UNL     1      31.588   7.364   2.129  1.00  0.00     0.050 C 
ATOM      2  C   UNL     1      32.225   7.425   0.728  1.00  0.00     0.014 C 
ENDROOT
BRANCH   1   3
ATOM      3  C   UNL     1      30.131   6.801   2.082  1.00  0.00     0.230 C 
BRANCH   3   4
ATOM      4  N   UNL     1      29.844   6.152   0.794  1.00  0.00    -0.350 N 
ATOM      5  H   UNL     1      29.872   6.853   0.020  1.00  0.00     0.345 HD
ATOM      6  H   UNL     1      30.574   5.430   0.585  1.00  0.00     0.345 HD
ATOM      7  H   UNL     1      28.905   5.690   0.813  1.00  0.00     0.345 HD
ENDBRANCH   3   4
BRANCH   3   8
ATOM      8  C   UNL     1      29.120   7.891   2.332  1.00  0.00     0.099 C 
ATOM      9  O   UNL     1      29.156   8.564   3.396  1.00  0.00    -0.544 OA
ATOM     10  O   UNL     1      28.136   8.157   1.387  1.00  0.00    -0.544 OA
ENDBRANCH   3   8
ENDBRANCH   1   3
BRANCH   1  11
ATOM     11  C   UNL     1      32.512   6.604   3.119  1.00  0.00     0.006 C 
ATOM     12  C   UNL     1      32.354   7.020   4.585  1.00  0.00     0.004 C 
ENDBRANCH   1  11
TORSDOF 4
ENDMDL
MODEL 6
REMARK VINA RESULT:    -2.650      2.583      3.547
REMARK INTER + INTRA:          -3.316
REMARK INTER:                  -3.211
REMARK INTRA:                  -0.106
REMARK UNBOUND:                -0.124
REMARK SMILES CC[C@@H](C)[C@H]([NH3+])C(=O)[O-]
REMARK SMILES IDX 3 1 4 2 5 3 6 4 7 8 8 9 9 10 2 11 1 12
REMARK H PARENT 6 5 6 6 6 7
REMARK Flexibility Score: inf
ROOT
ATOM      1  C   UNL     1      31.488   7.006   2.076  1.00  0.00     0.050 C 
ATOM      2  C   UNL     1      32.408   6.868   3.304  1.00  0.00     0.014 C 
ENDROOT
BRANCH   1   3
ATOM      3  C   UNL     1      30.241   7.896   2.382  1.00  0.00     0.230 C 
BRANCH   3   4
ATOM      4  N   UNL     1      29.916   7.898   3.816  1.00  0.00    -0.350 N 
ATOM      5  H   UNL     1      29.039   8.441   3.988  1.00  0.00     0.345 HD
ATOM      6  H   UNL     1      29.744   6.919   4.146  1.00  0.00     0.345 HD
ATOM      7  H   UNL     1      30.698   8.312   4.373  1.00  0.00     0.345 HD
ENDBRANCH   3   4
BRANCH   3   8
ATOM      8  C   UNL     1      29.040   7.436   1.595  1.00  0.00     0.099 C 
ATOM      9  O   UNL     1      28.043   8.193   1.450  1.00  0.00    -0.544 OA
ATOM     10  O   UNL     1      29.024   6.168   1.026  1.00  0.00    -0.544 OA
ENDBRANCH   3   8
ENDBRANCH   1   3
BRANCH   1  11
ATOM     11  C   UNL     1      32.295   7.479   0.837  1.00  0.00     0.006 C 
ATOM     12  C   UNL     1      32.700   6.358  -0.125  1.00  0.00     0.004 C 
ENDBRANCH   1  11
TORSDOF 4
ENDMDL
MODEL 7
REMARK VINA RESULT:    -2.552     10.767     11.805
REMARK INTER + INTRA:          -3.198
REMARK INTER:                  -3.054
REMARK INTRA:                  -0.144
REMARK UNBOUND:                -0.124
REMARK SMILES CC[C@@H](C)[C@H]([NH3+])C(=O)[O-]
REMARK SMILES IDX 3 1 4 2 5 3 6 4 7 8 8 9 9 10 2 11 1 12
REMARK H PARENT 6 5 6 6 6 7
REMARK Flexibility Score: inf
ROOT
ATOM      1  C   UNL     1      42.713  10.038  -1.000  1.00  0.00     0.050 C 
ATOM      2  C   UNL     1      41.883  11.131  -0.301  1.00  0.00     0.014 C 
ENDROOT
BRANCH   1   3
ATOM      3  C   UNL     1      41.826   8.836  -1.458  1.00  0.00     0.230 C 
BRANCH   3   4
ATOM      4  N   UNL     1      40.418   9.030  -1.083  1.00  0.00    -0.350 N 
ATOM      5  H   UNL     1      40.028   8.153  -0.671  1.00  0.00     0.345 HD
ATOM      6  H   UNL     1      40.340   9.777  -0.352  1.00  0.00     0.345 HD
ATOM      7  H   UNL     1      39.847   9.309  -1.914  1.00  0.00     0.345 HD
ENDBRANCH   3   4
BRANCH   3   8
ATOM      8  C   UNL     1      42.327   7.539  -0.874  1.00  0.00     0.099 C 
ATOM      9  O   UNL     1      43.563   7.327  -0.757  1.00  0.00    -0.544 OA
ATOM     10  O   UNL     1      41.423   6.567  -0.463  1.00  0.00    -0.544 OA
ENDBRANCH   3   8
ENDBRANCH   1   3
BRANCH   1  11
ATOM     11  C   UNL     1      43.566  10.647  -2.146  1.00  0.00     0.006 C 
ATOM     12  C   UNL     1      43.396   9.957  -3.503  1.00  0.00     0.004 C 
ENDBRANCH   1  11
TORSDOF 4
ENDMDL
MODEL 8
REMARK VINA RESULT:    -2.521     10.430     11.453
REMARK INTER + INTRA:          -3.161
REMARK INTER:                  -3.119
REMARK INTRA:                  -0.042
REMARK UNBOUND:                -0.124
REMARK SMILES CC[C@@H](C)[C@H]([NH3+])C(=O)[O-]
REMARK SMILES IDX 3 1 4 2 5 3 6 4 7 8 8 9 9 10 2 11 1 12
REMARK H PARENT 6 5 6 6 6 7
REMARK Flexibility Score: inf
ROOT
ATOM      1  C   UNL     1      41.627  10.451  -0.579  1.00  0.00     0.050 C 
ATOM      2  C   UNL     1      40.413  11.378  -0.777  1.00  0.00     0.014 C 
ENDROOT
BRANCH   1   3
ATOM      3  C   UNL     1      41.551   9.189  -1.497  1.00  0.00     0.230 C 
BRANCH   3   4
ATOM      4  N   UNL     1      40.271   8.482  -1.340  1.00  0.00    -0.350 N 
ATOM      5  H   UNL     1      39.919   8.581  -0.361  1.00  0.00     0.345 HD
ATOM      6  H   UNL     1      39.549   8.903  -1.972  1.00  0.00     0.345 HD
ATOM      7  H   UNL     1      40.376   7.468  -1.573  1.00  0.00     0.345 HD
ENDBRANCH   3   4
BRANCH   3   8
ATOM      8  C   UNL     1      42.686   8.239  -1.210  1.00  0.00     0.099 C 
ATOM      9  O   UNL     1      42.623   7.446  -0.234  1.00  0.00    -0.544 OA
ATOM     10  O   UNL     1      43.814   8.237  -2.022  1.00  0.00    -0.544 OA
ENDBRANCH   3   8
ENDBRANCH   1   3
BRANCH   1  11
ATOM     11  C   UNL     1      42.953  11.245  -0.731  1.00  0.00     0.006 C 
ATOM     12  C   UNL     1      43.176  12.322   0.334  1.00  0.00     0.004 C 
ENDBRANCH   1  11
TORSDOF 4
ENDMDL
MODEL 9
REMARK VINA RESULT:    -2.446     10.011     10.719
REMARK INTER + INTRA:          -3.071
REMARK INTER:                  -2.934
REMARK INTRA:                  -0.137
REMARK UNBOUND:                -0.124
REMARK SMILES CC[C@@H](C)[C@H]([NH3+])C(=O)[O-]
REMARK SMILES IDX 3 1 4 2 5 3 6 4 7 8 8 9 9 10 2 11 1 12
REMARK H PARENT 6 5 6 6 6 7
REMARK Flexibility Score: inf
ROOT
ATOM      1  C   UNL     1      42.315   8.995  -1.675  1.00  0.00     0.050 C 
ATOM      2  C   UNL     1      42.925   7.782  -0.948  1.00  0.00     0.014 C 
ENDROOT
BRANCH   1   3
ATOM      3  C   UNL     1      40.756   8.921  -1.724  1.00  0.00     0.230 C 
BRANCH   3   4
ATOM      4  N   UNL     1      40.246   7.752  -0.992  1.00  0.00    -0.350 N 
ATOM      5  H   UNL     1      39.447   8.028  -0.379  1.00  0.00     0.345 HD
ATOM      6  H   UNL     1      39.886   7.036  -1.667  1.00  0.00     0.345 HD
ATOM      7  H   UNL     1      41.001   7.320  -0.411  1.00  0.00     0.345 HD
ENDBRANCH   3   4
BRANCH   3   8
ATOM      8  C   UNL     1      40.259   8.879  -3.147  1.00  0.00     0.099 C 
ATOM      9  O   UNL     1      40.249   9.923  -3.851  1.00  0.00    -0.544 OA
ATOM     10  O   UNL     1      39.804   7.683  -3.690  1.00  0.00    -0.544 OA
ENDBRANCH   3   8
ENDBRANCH   1   3
BRANCH   1  11
ATOM     11  C   UNL     1      42.852  10.322  -1.072  1.00  0.00     0.006 C 
ATOM     12  C   UNL     1      41.798  11.164  -0.347  1.00  0.00     0.004 C 
ENDBRANCH   1  11
TORSDOF 4
ENDMDL
