MODEL 1
REMARK VINA RESULT:    -4.436      0.000      0.000
REMARK INTER + INTRA:          -5.024
REMARK INTER:                  -4.955
REMARK INTRA:                  -0.069
REMARK UNBOUND:                -0.069
REMARK SMILES COc1cc2ccc(=O)oc2c(O)c1O
REMARK SMILES IDX 3 1 14 2 12 3 11 4 5 5 4 6 6 7 7 8 8 9 9 10 10 11 2 12 1 13
REMARK SMILES IDX 15 14 13 16
REMARK H PARENT 15 15 13 17
REMARK Flexibility Score: inf
ROOT
ATOM      1  C   UNL     1      -3.546  93.275 -19.260  1.00  0.00     0.165 A 
ATOM      2  C   UNL     1      -4.682  92.623 -19.764  1.00  0.00     0.204 A 
ATOM      3  C   UNL     1      -5.353  91.659 -18.988  1.00  0.00     0.205 A 
ATOM      4  C   UNL     1      -4.884  91.349 -17.700  1.00  0.00     0.184 A 
ATOM      5  C   UNL     1      -3.741  92.004 -17.193  1.00  0.00     0.025 A 
ATOM      6  C   UNL     1      -3.077  92.962 -17.970  1.00  0.00     0.062 A 
ATOM      7  C   UNL     1      -3.297  91.675 -15.908  1.00  0.00     0.020 A 
ATOM      8  C   UNL     1      -3.987  90.716 -15.168  1.00  0.00     0.094 A 
ATOM      9  C   UNL     1      -5.111  90.107 -15.734  1.00  0.00     0.336 A 
ATOM     10  O   UNL     1      -5.749  89.238 -15.083  1.00  0.00    -0.246 OA
ATOM     11  O   UNL     1      -5.512  90.438 -16.958  1.00  0.00    -0.419 OA
ENDROOT
BRANCH   1  12
ATOM     12  O   UNL     1      -2.910  94.228 -20.072  1.00  0.00    -0.493 OA
ATOM     13  C   UNL     1      -3.055  95.637 -19.928  1.00  0.00     0.278 C 
ENDBRANCH   1  12
BRANCH   2  14
ATOM     14  O   UNL     1      -5.133  92.944 -21.044  1.00  0.00    -0.502 OA
ATOM     15  H   UNL     1      -5.501  92.247 -21.679  1.00  0.00     0.293 HD
ENDBRANCH   2  14
BRANCH   3  16
ATOM     16  O   UNL     1      -6.480  91.022 -19.506  1.00  0.00    -0.502 OA
ATOM     17  H   UNL     1      -7.190  91.520 -20.031  1.00  0.00     0.293 HD
ENDBRANCH   3  16
TORSDOF 3
ENDMDL
MODEL 2
REMARK VINA RESULT:    -4.321     11.096     12.876
REMARK INTER + INTRA:          -4.895
REMARK INTER:                  -4.840
REMARK INTRA:                  -0.056
REMARK UNBOUND:                -0.069
REMARK SMILES COc1cc2ccc(=O)oc2c(O)c1O
REMARK SMILES IDX 3 1 14 2 12 3 11 4 5 5 4 6 6 7 7 8 8 9 9 10 10 11 2 12 1 13
REMARK SMILES IDX 15 14 13 16
REMARK H PARENT 15 15 13 17
REMARK Flexibility Score: inf
ROOT
ATOM      1  C   UNL     1      -3.267  82.957  -8.216  1.00  0.00     0.165 A 
ATOM      2  C   UNL     1      -4.005  83.433  -9.311  1.00  0.00     0.204 A 
ATOM      3  C   UNL     1      -4.366  84.791  -9.391  1.00  0.00     0.205 A 
ATOM      4  C   UNL     1      -3.984  85.677  -8.370  1.00  0.00     0.184 A 
ATOM      5  C   UNL     1      -3.242  85.200  -7.268  1.00  0.00     0.025 A 
ATOM      6  C   UNL     1      -2.886  83.847  -7.193  1.00  0.00     0.062 A 
ATOM      7  C   UNL     1      -2.875  86.105  -6.267  1.00  0.00     0.020 A 
ATOM      8  C   UNL     1      -3.250  87.442  -6.380  1.00  0.00     0.094 A 
ATOM      9  C   UNL     1      -3.985  87.846  -7.498  1.00  0.00     0.336 A 
ATOM     10  O   UNL     1      -4.334  89.049  -7.621  1.00  0.00    -0.246 OA
ATOM     11  O   UNL     1      -4.321  86.965  -8.437  1.00  0.00    -0.419 OA
ENDROOT
BRANCH   1  12
ATOM     12  O   UNL     1      -2.931  81.594  -8.180  1.00  0.00    -0.493 OA
ATOM     13  C   UNL     1      -2.915  80.797  -7.001  1.00  0.00     0.278 C 
ENDBRANCH   1  12
BRANCH   2  14
ATOM     14  O   UNL     1      -4.375  82.539 -10.315  1.00  0.00    -0.502 OA
ATOM     15  H   UNL     1      -4.058  81.577 -10.327  1.00  0.00     0.293 HD
ENDBRANCH   2  14
BRANCH   3  16
ATOM     16  O   UNL     1      -5.100  85.244 -10.487  1.00  0.00    -0.502 OA
ATOM     17  H   UNL     1      -5.989  85.719 -10.383  1.00  0.00     0.293 HD
ENDBRANCH   3  16
TORSDOF 3
ENDMDL
MODEL 3
REMARK VINA RESULT:    -4.267      2.639      4.341
REMARK INTER + INTRA:          -4.835
REMARK INTER:                  -4.769
REMARK INTRA:                  -0.066
REMARK UNBOUND:                -0.069
REMARK SMILES COc1cc2ccc(=O)oc2c(O)c1O
REMARK SMILES IDX 3 1 14 2 12 3 11 4 5 5 4 6 6 7 7 8 8 9 9 10 10 11 2 12 1 13
REMARK SMILES IDX 15 14 13 16
REMARK H PARENT 15 15 13 17
REMARK Flexibility Score: inf
ROOT
ATOM      1  C   UNL     1      -4.885  91.304 -16.781  1.00  0.00     0.165 A 
ATOM      2  C   UNL     1      -4.386  92.326 -15.959  1.00  0.00     0.204 A 
ATOM      3  C   UNL     1      -4.523  92.248 -14.560  1.00  0.00     0.205 A 
ATOM      4  C   UNL     1      -5.163  91.139 -13.982  1.00  0.00     0.184 A 
ATOM      5  C   UNL     1      -5.665  90.109 -14.808  1.00  0.00     0.025 A 
ATOM      6  C   UNL     1      -5.526  90.193 -16.199  1.00  0.00     0.062 A 
ATOM      7  C   UNL     1      -6.297  89.017 -14.204  1.00  0.00     0.020 A 
ATOM      8  C   UNL     1      -6.415  88.973 -12.816  1.00  0.00     0.094 A 
ATOM      9  C   UNL     1      -5.894  90.028 -12.060  1.00  0.00     0.336 A 
ATOM     10  O   UNL     1      -5.989  90.009 -10.805  1.00  0.00    -0.246 OA
ATOM     11  O   UNL     1      -5.298  91.055 -12.659  1.00  0.00    -0.419 OA
ENDROOT
BRANCH   1  12
ATOM     12  O   UNL     1      -4.724  91.427 -18.170  1.00  0.00    -0.493 OA
ATOM     13  C   UNL     1      -5.796  91.515 -19.103  1.00  0.00     0.278 C 
ENDBRANCH   1  12
BRANCH   2  14
ATOM     14  O   UNL     1      -3.754  93.420 -16.551  1.00  0.00    -0.502 OA
ATOM     15  H   UNL     1      -3.425  93.402 -17.509  1.00  0.00     0.293 HD
ENDBRANCH   2  14
BRANCH   3  16
ATOM     16  O   UNL     1      -4.021  93.275 -13.761  1.00  0.00    -0.502 OA
ATOM     17  H   UNL     1      -4.044  93.233 -12.749  1.00  0.00     0.293 HD
ENDBRANCH   3  16
TORSDOF 3
ENDMDL
MODEL 4
REMARK VINA RESULT:    -4.122     13.688     16.781
REMARK INTER + INTRA:          -4.673
REMARK INTER:                  -4.620
REMARK INTRA:                  -0.053
REMARK UNBOUND:                -0.069
REMARK SMILES COc1cc2ccc(=O)oc2c(O)c1O
REMARK SMILES IDX 3 1 14 2 12 3 11 4 5 5 4 6 6 7 7 8 8 9 9 10 10 11 2 12 1 13
REMARK SMILES IDX 15 14 13 16
REMARK H PARENT 15 15 13 17
REMARK Flexibility Score: inf
ROOT
ATOM      1  C   UNL     1     -12.199  83.105  -8.764  1.00  0.00     0.165 A 
ATOM      2  C   UNL     1     -13.485  82.543  -8.779  1.00  0.00     0.204 A 
ATOM      3  C   UNL     1     -13.726  81.298  -8.168  1.00  0.00     0.205 A 
ATOM      4  C   UNL     1     -12.674  80.613  -7.538  1.00  0.00     0.184 A 
ATOM      5  C   UNL     1     -11.380  81.178  -7.522  1.00  0.00     0.025 A 
ATOM      6  C   UNL     1     -11.146  82.417  -8.132  1.00  0.00     0.062 A 
ATOM      7  C   UNL     1     -10.351  80.474  -6.887  1.00  0.00     0.020 A 
ATOM      8  C   UNL     1     -10.627  79.244  -6.292  1.00  0.00     0.094 A 
ATOM      9  C   UNL     1     -11.932  78.745  -6.347  1.00  0.00     0.336 A 
ATOM     10  O   UNL     1     -12.203  77.636  -5.816  1.00  0.00    -0.246 OA
ATOM     11  O   UNL     1     -12.891  79.434  -6.957  1.00  0.00    -0.419 OA
ENDROOT
BRANCH   1  12
ATOM     12  O   UNL     1     -12.009  84.349  -9.387  1.00  0.00    -0.493 OA
ATOM     13  C   UNL     1     -10.993  85.281  -9.034  1.00  0.00     0.278 C 
ENDBRANCH   1  12
BRANCH   2  14
ATOM     14  O   UNL     1     -14.518  83.237  -9.410  1.00  0.00    -0.502 OA
ATOM     15  H   UNL     1     -14.399  84.176  -9.768  1.00  0.00     0.293 HD
ENDBRANCH   2  14
BRANCH   3  16
ATOM     16  O   UNL     1     -15.011  80.756  -8.195  1.00  0.00    -0.502 OA
ATOM     17  H   UNL     1     -15.280  79.973  -7.609  1.00  0.00     0.293 HD
ENDBRANCH   3  16
TORSDOF 3
ENDMDL
MODEL 5
REMARK VINA RESULT:    -4.116     14.290     15.050
REMARK INTER + INTRA:          -4.666
REMARK INTER:                  -4.607
REMARK INTRA:                  -0.059
REMARK UNBOUND:                -0.069
REMARK SMILES COc1cc2ccc(=O)oc2c(O)c1O
REMARK SMILES IDX 3 1 14 2 12 3 11 4 5 5 4 6 6 7 7 8 8 9 9 10 10 11 2 12 1 13
REMARK SMILES IDX 15 14 13 16
REMARK H PARENT 15 15 13 17
REMARK Flexibility Score: inf
ROOT
ATOM      1  C   UNL     1     -11.589  82.448  -9.050  1.00  0.00     0.165 A 
ATOM      2  C   UNL     1     -12.450  82.183 -10.126  1.00  0.00     0.204 A 
ATOM      3  C   UNL     1     -13.380  83.152 -10.552  1.00  0.00     0.205 A 
ATOM      4  C   UNL     1     -13.445  84.392  -9.896  1.00  0.00     0.184 A 
ATOM      5  C   UNL     1     -12.579  84.660  -8.813  1.00  0.00     0.025 A 
ATOM      6  C   UNL     1     -11.657  83.693  -8.394  1.00  0.00     0.062 A 
ATOM      7  C   UNL     1     -12.667  85.904  -8.179  1.00  0.00     0.020 A 
ATOM      8  C   UNL     1     -13.599  86.838  -8.627  1.00  0.00     0.094 A 
ATOM      9  C   UNL     1     -14.425  86.505  -9.705  1.00  0.00     0.336 A 
ATOM     10  O   UNL     1     -15.273  87.334 -10.126  1.00  0.00    -0.246 OA
ATOM     11  O   UNL     1     -14.321  85.315 -10.290  1.00  0.00    -0.419 OA
ENDROOT
BRANCH   1  12
ATOM     12  O   UNL     1     -10.680  81.451  -8.663  1.00  0.00    -0.493 OA
ATOM     13  C   UNL     1     -10.441  81.054  -7.317  1.00  0.00     0.278 C 
ENDBRANCH   1  12
BRANCH   2  14
ATOM     14  O   UNL     1     -12.371  80.946 -10.766  1.00  0.00    -0.502 OA
ATOM     15  H   UNL     1     -13.158  80.539 -11.257  1.00  0.00     0.293 HD
ENDBRANCH   2  14
BRANCH   3  16
ATOM     16  O   UNL     1     -14.227  82.869 -11.623  1.00  0.00    -0.502 OA
ATOM     17  H   UNL     1     -15.084  83.384 -11.784  1.00  0.00     0.293 HD
ENDBRANCH   3  16
TORSDOF 3
ENDMDL
MODEL 6
REMARK VINA RESULT:    -4.060      3.122      6.839
REMARK INTER + INTRA:          -4.603
REMARK INTER:                  -4.535
REMARK INTRA:                  -0.069
REMARK UNBOUND:                -0.069
REMARK SMILES COc1cc2ccc(=O)oc2c(O)c1O
REMARK SMILES IDX 3 1 14 2 12 3 11 4 5 5 4 6 6 7 7 8 8 9 9 10 10 11 2 12 1 13
REMARK SMILES IDX 15 14 13 16
REMARK H PARENT 15 15 13 17
REMARK Flexibility Score: inf
ROOT
ATOM      1  C   UNL     1      -5.862  89.760 -12.484  1.00  0.00     0.165 A 
ATOM      2  C   UNL     1      -5.095  90.833 -12.003  1.00  0.00     0.204 A 
ATOM      3  C   UNL     1      -4.359  91.638 -12.892  1.00  0.00     0.205 A 
ATOM      4  C   UNL     1      -4.393  91.369 -14.271  1.00  0.00     0.184 A 
ATOM      5  C   UNL     1      -5.165  90.290 -14.756  1.00  0.00     0.025 A 
ATOM      6  C   UNL     1      -5.894  89.492 -13.866  1.00  0.00     0.062 A 
ATOM      7  C   UNL     1      -5.180  90.046 -16.133  1.00  0.00     0.020 A 
ATOM      8  C   UNL     1      -4.440  90.864 -16.984  1.00  0.00     0.094 A 
ATOM      9  C   UNL     1      -3.697  91.914 -16.434  1.00  0.00     0.336 A 
ATOM     10  O   UNL     1      -3.022  92.666 -17.184  1.00  0.00    -0.246 OA
ATOM     11  O   UNL     1      -3.700  92.125 -15.121  1.00  0.00    -0.419 OA
ENDROOT
BRANCH   1  12
ATOM     12  O   UNL     1      -6.578  88.986 -11.558  1.00  0.00    -0.493 OA
ATOM     13  C   UNL     1      -7.997  88.976 -11.438  1.00  0.00     0.278 C 
ENDBRANCH   1  12
BRANCH   2  14
ATOM     14  O   UNL     1      -5.073  91.085 -10.632  1.00  0.00    -0.502 OA
ATOM     15  H   UNL     1      -4.619  90.464  -9.974  1.00  0.00     0.293 HD
ENDBRANCH   2  14
BRANCH   3  16
ATOM     16  O   UNL     1      -3.602  92.699 -12.394  1.00  0.00    -0.502 OA
ATOM     17  H   UNL     1      -2.671  92.906 -12.736  1.00  0.00     0.293 HD
ENDBRANCH   3  16
TORSDOF 3
ENDMDL
MODEL 7
REMARK VINA RESULT:    -4.058      8.775     11.482
REMARK INTER + INTRA:          -4.602
REMARK INTER:                  -4.533
REMARK INTRA:                  -0.069
REMARK UNBOUND:                -0.069
REMARK SMILES COc1cc2ccc(=O)oc2c(O)c1O
REMARK SMILES IDX 3 1 14 2 12 3 11 4 5 5 4 6 6 7 7 8 8 9 9 10 10 11 2 12 1 13
REMARK SMILES IDX 15 14 13 16
REMARK H PARENT 15 15 13 17
REMARK Flexibility Score: inf
ROOT
ATOM      1  C   UNL     1      -5.910  87.127  -9.551  1.00  0.00     0.165 A 
ATOM      2  C   UNL     1      -4.875  87.329  -8.625  1.00  0.00     0.204 A 
ATOM      3  C   UNL     1      -4.049  86.258  -8.234  1.00  0.00     0.205 A 
ATOM      4  C   UNL     1      -4.261  84.978  -8.774  1.00  0.00     0.184 A 
ATOM      5  C   UNL     1      -5.302  84.774  -9.706  1.00  0.00     0.025 A 
ATOM      6  C   UNL     1      -6.121  85.843 -10.091  1.00  0.00     0.062 A 
ATOM      7  C   UNL     1      -5.490  83.490 -10.227  1.00  0.00     0.020 A 
ATOM      8  C   UNL     1      -4.653  82.454  -9.817  1.00  0.00     0.094 A 
ATOM      9  C   UNL     1      -3.643  82.728  -8.890  1.00  0.00     0.336 A 
ATOM     10  O   UNL     1      -2.875  81.807  -8.506  1.00  0.00    -0.246 OA
ATOM     11  O   UNL     1      -3.486  83.958  -8.410  1.00  0.00    -0.419 OA
ENDROOT
BRANCH   1  12
ATOM     12  O   UNL     1      -6.706  88.226  -9.910  1.00  0.00    -0.493 OA
ATOM     13  C   UNL     1      -6.685  88.856 -11.186  1.00  0.00     0.278 C 
ENDBRANCH   1  12
BRANCH   2  14
ATOM     14  O   UNL     1      -4.679  88.606  -8.099  1.00  0.00    -0.502 OA
ATOM     15  H   UNL     1      -3.767  89.046  -8.074  1.00  0.00     0.293 HD
ENDBRANCH   2  14
BRANCH   3  16
ATOM     16  O   UNL     1      -3.026  86.479  -7.312  1.00  0.00    -0.502 OA
ATOM     17  H   UNL     1      -2.073  86.178  -7.479  1.00  0.00     0.293 HD
ENDBRANCH   3  16
TORSDOF 3
ENDMDL
MODEL 8
REMARK VINA RESULT:    -4.038     14.532     17.505
REMARK INTER + INTRA:          -4.579
REMARK INTER:                  -4.540
REMARK INTRA:                  -0.040
REMARK UNBOUND:                -0.069
REMARK SMILES COc1cc2ccc(=O)oc2c(O)c1O
REMARK SMILES IDX 3 1 14 2 12 3 11 4 5 5 4 6 6 7 7 8 8 9 9 10 10 11 2 12 1 13
REMARK SMILES IDX 15 14 13 16
REMARK H PARENT 15 15 13 17
REMARK Flexibility Score: inf
ROOT
ATOM      1  C   UNL     1     -13.401  82.852  -8.595  1.00  0.00     0.165 A 
ATOM      2  C   UNL     1     -12.086  82.373  -8.493  1.00  0.00     0.204 A 
ATOM      3  C   UNL     1     -11.835  81.085  -7.984  1.00  0.00     0.205 A 
ATOM      4  C   UNL     1     -12.906  80.273  -7.577  1.00  0.00     0.184 A 
ATOM      5  C   UNL     1     -14.230  80.754  -7.679  1.00  0.00     0.025 A 
ATOM      6  C   UNL     1     -14.474  82.037  -8.186  1.00  0.00     0.062 A 
ATOM      7  C   UNL     1     -15.277  79.924  -7.267  1.00  0.00     0.020 A 
ATOM      8  C   UNL     1     -14.990  78.654  -6.768  1.00  0.00     0.094 A 
ATOM      9  C   UNL     1     -13.656  78.243  -6.694  1.00  0.00     0.336 A 
ATOM     10  O   UNL     1     -13.374  77.100  -6.247  1.00  0.00    -0.246 OA
ATOM     11  O   UNL     1     -12.679  79.052  -7.094  1.00  0.00    -0.419 OA
ENDROOT
BRANCH   1  12
ATOM     12  O   UNL     1     -13.601  84.144  -9.109  1.00  0.00    -0.493 OA
ATOM     13  C   UNL     1     -13.801  84.443 -10.486  1.00  0.00     0.278 C 
ENDBRANCH   1  12
BRANCH   2  14
ATOM     14  O   UNL     1     -11.035  83.193  -8.902  1.00  0.00    -0.502 OA
ATOM     15  H   UNL     1     -11.072  84.202  -8.820  1.00  0.00     0.293 HD
ENDBRANCH   2  14
BRANCH   3  16
ATOM     16  O   UNL     1     -10.520  80.627  -7.890  1.00  0.00    -0.502 OA
ATOM     17  H   UNL     1     -10.255  79.871  -7.269  1.00  0.00     0.293 HD
ENDBRANCH   3  16
TORSDOF 3
ENDMDL
MODEL 9
REMARK VINA RESULT:    -4.022     14.824     16.006
REMARK INTER + INTRA:          -4.562
REMARK INTER:                  -4.510
REMARK INTRA:                  -0.052
REMARK UNBOUND:                -0.069
REMARK SMILES COc1cc2ccc(=O)oc2c(O)c1O
REMARK SMILES IDX 3 1 14 2 12 3 11 4 5 5 4 6 6 7 7 8 8 9 9 10 10 11 2 12 1 13
REMARK SMILES IDX 15 14 13 16
REMARK H PARENT 15 15 13 17
REMARK Flexibility Score: inf
ROOT
ATOM      1  C   UNL     1     -13.019  81.949 -10.398  1.00  0.00     0.165 A 
ATOM      2  C   UNL     1     -12.996  81.547  -9.053  1.00  0.00     0.204 A 
ATOM      3  C   UNL     1     -13.405  82.432  -8.038  1.00  0.00     0.205 A 
ATOM      4  C   UNL     1     -13.842  83.725  -8.372  1.00  0.00     0.184 A 
ATOM      5  C   UNL     1     -13.866  84.130  -9.724  1.00  0.00     0.025 A 
ATOM      6  C   UNL     1     -13.457  83.245 -10.730  1.00  0.00     0.062 A 
ATOM      7  C   UNL     1     -14.305  85.423 -10.027  1.00  0.00     0.020 A 
ATOM      8  C   UNL     1     -14.703  86.271  -8.996  1.00  0.00     0.094 A 
ATOM      9  C   UNL     1     -14.653  85.804  -7.679  1.00  0.00     0.336 A 
ATOM     10  O   UNL     1     -15.008  86.554  -6.732  1.00  0.00    -0.246 OA
ATOM     11  O   UNL     1     -14.231  84.570  -7.418  1.00  0.00    -0.419 OA
ENDROOT
BRANCH   1  12
ATOM     12  O   UNL     1     -12.601  81.031 -11.374  1.00  0.00    -0.493 OA
ATOM     13  C   UNL     1     -12.933  81.114 -12.756  1.00  0.00     0.278 C 
ENDBRANCH   1  12
BRANCH   2  14
ATOM     14  O   UNL     1     -12.560  80.260  -8.740  1.00  0.00    -0.502 OA
ATOM     15  H   UNL     1     -13.001  79.698  -8.022  1.00  0.00     0.293 HD
ENDBRANCH   2  14
BRANCH   3  16
ATOM     16  O   UNL     1     -13.374  82.014  -6.707  1.00  0.00    -0.502 OA
ATOM     17  H   UNL     1     -14.040  82.348  -6.020  1.00  0.00     0.293 HD
ENDBRANCH   3  16
TORSDOF 3
ENDMDL
