MODEL 1
REMARK VINA RESULT:    -3.069      0.000      0.000
REMARK INTER + INTRA:          -3.692
REMARK INTER:                  -3.697
REMARK INTRA:                   0.004
REMARK UNBOUND:                 0.004
REMARK SMILES O=c1c(O)c(-c2ccc(O)c(O)c2)oc2cc(O)cc(O)c12
REMARK SMILES IDX 5 1 3 2 2 3 1 4 22 5 20 6 19 7 17 8 16 9 15 10 14 11 6 12
REMARK SMILES IDX 7 13 8 14 9 15 13 16 11 17 10 18 12 20 4 22 21 24 18 26
REMARK H PARENT 10 19 12 21 4 23 21 25 18 27
REMARK Flexibility Score: inf
ROOT
ATOM      1  C   UNL     1     -19.036   9.337  26.428  1.00  0.00     0.180 A 
ATOM      2  C   UNL     1     -17.650   9.275  26.652  1.00  0.00     0.208 A 
ATOM      3  C   UNL     1     -16.776   9.451  25.568  1.00  0.00     0.238 A 
ATOM      4  O   UNL     1     -15.538   9.339  25.766  1.00  0.00    -0.285 OA
ATOM      5  C   UNL     1     -17.298   9.703  24.276  1.00  0.00     0.111 A 
ATOM      6  C   UNL     1     -16.503   9.937  23.113  1.00  0.00     0.134 A 
ATOM      7  C   UNL     1     -17.125  10.047  21.863  1.00  0.00     0.093 A 
ATOM      8  C   UNL     1     -18.513   9.996  21.742  1.00  0.00     0.123 A 
ATOM      9  C   UNL     1     -19.302   9.828  22.881  1.00  0.00     0.094 A 
ATOM     10  C   UNL     1     -18.709   9.679  24.137  1.00  0.00     0.146 A 
ATOM     11  O   UNL     1     -19.495   9.511  25.194  1.00  0.00    -0.452 OA
ENDROOT
BRANCH   1  12
ATOM     12  C   UNL     1     -20.019   9.186  27.524  1.00  0.00     0.025 A 
ATOM     13  C   UNL     1     -21.048  10.125  27.720  1.00  0.00     0.016 A 
ATOM     14  C   UNL     1     -21.980   9.948  28.746  1.00  0.00     0.051 A 
ATOM     15  C   UNL     1     -21.907   8.826  29.583  1.00  0.00     0.157 A 
ATOM     16  C   UNL     1     -19.964   8.053  28.352  1.00  0.00     0.062 A 
ATOM     17  C   UNL     1     -20.894   7.873  29.382  1.00  0.00     0.158 A 
BRANCH  15  18
ATOM     18  O   UNL     1     -22.836   8.655  30.607  1.00  0.00    -0.504 OA
ATOM     19  H   UNL     1     -23.072   9.409  31.242  1.00  0.00     0.293 HD
ENDBRANCH  15  18
BRANCH  17  20
ATOM     20  O   UNL     1     -20.798   6.743  30.192  1.00  0.00    -0.504 OA
ATOM     21  H   UNL     1     -21.579   6.111  30.328  1.00  0.00     0.293 HD
ENDBRANCH  17  20
ENDBRANCH   1  12
BRANCH   2  22
ATOM     22  O   UNL     1     -17.157   9.003  27.932  1.00  0.00    -0.502 OA
ATOM     23  H   UNL     1     -17.484   8.219  28.485  1.00  0.00     0.293 HD
ENDBRANCH   2  22
BRANCH   6  24
ATOM     24  O   UNL     1     -15.114  10.095  23.135  1.00  0.00    -0.507 OA
ATOM     25  H   UNL     1     -14.637  10.983  23.117  1.00  0.00     0.293 HD
ENDBRANCH   6  24
BRANCH   8  26
ATOM     26  O   UNL     1     -19.099  10.125  20.484  1.00  0.00    -0.508 OA
ATOM     27  H   UNL     1     -18.644   9.774  19.650  1.00  0.00     0.293 HD
ENDBRANCH   8  26
TORSDOF 6
ENDMDL
MODEL 2
REMARK VINA RESULT:    -1.983      1.260      1.528
REMARK INTER + INTRA:          -2.385
REMARK INTER:                  -2.757
REMARK INTRA:                   0.372
REMARK UNBOUND:                 0.004
REMARK SMILES O=c1c(O)c(-c2ccc(O)c(O)c2)oc2cc(O)cc(O)c12
REMARK SMILES IDX 5 1 3 2 2 3 1 4 22 5 20 6 19 7 17 8 16 9 15 10 14 11 6 12
REMARK SMILES IDX 7 13 8 14 9 15 13 16 11 17 10 18 12 20 4 22 21 24 18 26
REMARK H PARENT 10 19 12 21 4 23 21 25 18 27
REMARK Flexibility Score: inf
ROOT
ATOM      1  C   UNL     1     -19.138   9.680  26.897  1.00  0.00     0.180 A 
ATOM      2  C   UNL     1     -17.784   9.377  27.119  1.00  0.00     0.208 A 
ATOM      3  C   UNL     1     -16.908   9.327  26.023  1.00  0.00     0.238 A 
ATOM      4  O   UNL     1     -15.708   9.001  26.223  1.00  0.00    -0.285 OA
ATOM      5  C   UNL     1     -17.393   9.597  24.721  1.00  0.00     0.111 A 
ATOM      6  C   UNL     1     -16.587   9.613  23.543  1.00  0.00     0.134 A 
ATOM      7  C   UNL     1     -17.196   9.764  22.291  1.00  0.00     0.093 A 
ATOM      8  C   UNL     1     -18.571   9.963  22.178  1.00  0.00     0.123 A 
ATOM      9  C   UNL     1     -19.361  10.008  23.328  1.00  0.00     0.094 A 
ATOM     10  C   UNL     1     -18.787   9.825  24.589  1.00  0.00     0.146 A 
ATOM     11  O   UNL     1     -19.575   9.865  25.657  1.00  0.00    -0.452 OA
ENDROOT
BRANCH   1  12
ATOM     12  C   UNL     1     -20.116   9.776  28.004  1.00  0.00     0.025 A 
ATOM     13  C   UNL     1     -19.700   9.951  29.336  1.00  0.00     0.016 A 
ATOM     14  C   UNL     1     -20.642  10.064  30.361  1.00  0.00     0.051 A 
ATOM     15  C   UNL     1     -22.013  10.015  30.072  1.00  0.00     0.157 A 
ATOM     16  C   UNL     1     -21.491   9.749  27.717  1.00  0.00     0.062 A 
ATOM     17  C   UNL     1     -22.438   9.860  28.742  1.00  0.00     0.158 A 
BRANCH  15  18
ATOM     18  O   UNL     1     -22.950  10.125  31.098  1.00  0.00    -0.504 OA
ATOM     19  H   UNL     1     -22.695  10.476  32.014  1.00  0.00     0.293 HD
ENDBRANCH  15  18
BRANCH  17  20
ATOM     20  O   UNL     1     -23.793   9.815  28.419  1.00  0.00    -0.504 OA
ATOM     21  H   UNL     1     -24.368  10.650  28.391  1.00  0.00     0.293 HD
ENDBRANCH  17  20
ENDBRANCH   1  12
BRANCH   2  22
ATOM     22  O   UNL     1     -17.330   9.092  28.411  1.00  0.00    -0.502 OA
ATOM     23  H   UNL     1     -16.760   9.740  28.942  1.00  0.00     0.293 HD
ENDBRANCH   2  22
BRANCH   6  24
ATOM     24  O   UNL     1     -15.192   9.515  23.551  1.00  0.00    -0.507 OA
ATOM     25  H   UNL     1     -14.565  10.262  23.805  1.00  0.00     0.293 HD
ENDBRANCH   6  24
BRANCH   8  26
ATOM     26  O   UNL     1     -19.142  10.125  20.918  1.00  0.00    -0.508 OA
ATOM     27  H   UNL     1     -18.575  10.143  20.078  1.00  0.00     0.293 HD
ENDBRANCH   8  26
TORSDOF 6
ENDMDL
