MODEL 1
REMARK VINA RESULT:    -4.729      0.000      0.000
REMARK INTER + INTRA:          -4.867
REMARK INTER:                  -4.867
REMARK INTRA:                   0.000
REMARK UNBOUND:                 0.000
REMARK SMILES Cc1cccc(O)c1C
REMARK SMILES IDX 1 1 2 2 8 3 6 4 5 5 4 6 3 7 9 8 7 9
REMARK H PARENT 7 10
REMARK Flexibility Score: inf
ROOT
ATOM      1  C   UNL     1       9.479   6.260 -11.125  1.00  0.00     0.045 C 
ATOM      2  C   UNL     1       9.290   5.881  -9.679  1.00  0.00    -0.045 A 
ATOM      3  C   UNL     1       8.958   4.555  -9.298  1.00  0.00    -0.006 A 
ATOM      4  C   UNL     1       8.814   4.246  -7.927  1.00  0.00     0.118 A 
ATOM      5  C   UNL     1       8.956   5.252  -6.962  1.00  0.00     0.046 A 
ATOM      6  C   UNL     1       9.250   6.559  -7.345  1.00  0.00     0.004 A 
ATOM      7  C   UNL     1       9.417   6.873  -8.693  1.00  0.00     0.004 A 
ATOM      8  C   UNL     1       8.817   3.467 -10.336  1.00  0.00     0.048 C 
ENDROOT
BRANCH   4   9
ATOM      9  O   UNL     1       8.529   2.941  -7.523  1.00  0.00    -0.508 OA
ATOM     10  H   UNL     1       7.593   2.557  -7.585  1.00  0.00     0.293 HD
ENDBRANCH   4   9
TORSDOF 1
ENDMDL
MODEL 2
REMARK VINA RESULT:    -4.605      0.752      2.589
REMARK INTER + INTRA:          -4.740
REMARK INTER:                  -4.740
REMARK INTRA:                   0.000
REMARK UNBOUND:                 0.000
REMARK SMILES Cc1cccc(O)c1C
REMARK SMILES IDX 1 1 2 2 8 3 6 4 5 5 4 6 3 7 9 8 7 9
REMARK H PARENT 7 10
REMARK Flexibility Score: inf
ROOT
ATOM      1  C   UNL     1       9.671   7.642  -8.900  1.00  0.00     0.045 C 
ATOM      2  C   UNL     1       9.335   6.203  -9.192  1.00  0.00    -0.045 A 
ATOM      3  C   UNL     1       9.077   5.277  -8.149  1.00  0.00    -0.006 A 
ATOM      4  C   UNL     1       8.745   3.943  -8.477  1.00  0.00     0.118 A 
ATOM      5  C   UNL     1       8.714   3.536  -9.817  1.00  0.00     0.046 A 
ATOM      6  C   UNL     1       9.000   4.443 -10.835  1.00  0.00     0.004 A 
ATOM      7  C   UNL     1       9.309   5.767 -10.527  1.00  0.00     0.004 A 
ATOM      8  C   UNL     1       9.097   5.716  -6.704  1.00  0.00     0.048 C 
ENDROOT
BRANCH   4   9
ATOM      9  O   UNL     1       8.445   3.022  -7.472  1.00  0.00    -0.508 OA
ATOM     10  H   UNL     1       8.074   2.103  -7.685  1.00  0.00     0.293 HD
ENDBRANCH   4   9
TORSDOF 1
ENDMDL
MODEL 3
REMARK VINA RESULT:    -4.570      5.546      7.218
REMARK INTER + INTRA:          -4.703
REMARK INTER:                  -4.703
REMARK INTRA:                   0.000
REMARK UNBOUND:                 0.000
REMARK SMILES Cc1cccc(O)c1C
REMARK SMILES IDX 1 1 2 2 8 3 6 4 5 5 4 6 3 7 9 8 7 9
REMARK H PARENT 7 10
REMARK Flexibility Score: inf
ROOT
ATOM      1  C   UNL     1       7.393   8.153  -2.286  1.00  0.00     0.045 C 
ATOM      2  C   UNL     1       7.019   6.733  -1.951  1.00  0.00    -0.045 A 
ATOM      3  C   UNL     1       7.001   5.718  -2.942  1.00  0.00    -0.006 A 
ATOM      4  C   UNL     1       6.665   4.397  -2.571  1.00  0.00     0.118 A 
ATOM      5  C   UNL     1       6.314   4.107  -1.246  1.00  0.00     0.046 A 
ATOM      6  C   UNL     1       6.304   5.114  -0.284  1.00  0.00     0.004 A 
ATOM      7  C   UNL     1       6.653   6.418  -0.631  1.00  0.00     0.004 A 
ATOM      8  C   UNL     1       7.390   6.026  -4.369  1.00  0.00     0.048 C 
ENDROOT
BRANCH   4   9
ATOM      9  O   UNL     1       6.680   3.372  -3.518  1.00  0.00    -0.508 OA
ATOM     10  H   UNL     1       7.526   2.857  -3.732  1.00  0.00     0.293 HD
ENDBRANCH   4   9
TORSDOF 1
ENDMDL
MODEL 4
REMARK VINA RESULT:    -4.516      6.293      7.772
REMARK INTER + INTRA:          -4.648
REMARK INTER:                  -4.648
REMARK INTRA:                   0.000
REMARK UNBOUND:                 0.000
REMARK SMILES Cc1cccc(O)c1C
REMARK SMILES IDX 1 1 2 2 8 3 6 4 5 5 4 6 3 7 9 8 7 9
REMARK H PARENT 7 10
REMARK Flexibility Score: inf
ROOT
ATOM      1  C   UNL     1       6.255   3.899  -0.142  1.00  0.00     0.045 C 
ATOM      2  C   UNL     1       6.549   5.151  -0.927  1.00  0.00    -0.045 A 
ATOM      3  C   UNL     1       6.767   5.112  -2.328  1.00  0.00    -0.006 A 
ATOM      4  C   UNL     1       7.018   6.317  -3.022  1.00  0.00     0.118 A 
ATOM      5  C   UNL     1       7.091   7.528  -2.321  1.00  0.00     0.046 A 
ATOM      6  C   UNL     1       6.907   7.555  -0.940  1.00  0.00     0.004 A 
ATOM      7  C   UNL     1       6.638   6.377  -0.247  1.00  0.00     0.004 A 
ATOM      8  C   UNL     1       6.677   3.809  -3.087  1.00  0.00     0.048 C 
ENDROOT
BRANCH   4   9
ATOM      9  O   UNL     1       7.194   6.312  -4.406  1.00  0.00    -0.508 OA
ATOM     10  H   UNL     1       8.112   6.224  -4.826  1.00  0.00     0.293 HD
ENDBRANCH   4   9
TORSDOF 1
ENDMDL
MODEL 5
REMARK VINA RESULT:    -4.484      6.747      8.399
REMARK INTER + INTRA:          -4.615
REMARK INTER:                  -4.615
REMARK INTRA:                   0.000
REMARK UNBOUND:                 0.000
REMARK SMILES Cc1cccc(O)c1C
REMARK SMILES IDX 1 1 2 2 8 3 6 4 5 5 4 6 3 7 9 8 7 9
REMARK H PARENT 7 10
REMARK Flexibility Score: inf
ROOT
ATOM      1  C   UNL     1       6.475   3.801  -3.409  1.00  0.00     0.045 C 
ATOM      2  C   UNL     1       6.578   4.329  -2.002  1.00  0.00    -0.045 A 
ATOM      3  C   UNL     1       6.855   5.695  -1.741  1.00  0.00    -0.006 A 
ATOM      4  C   UNL     1       6.919   6.144  -0.403  1.00  0.00     0.118 A 
ATOM      5  C   UNL     1       6.751   5.236   0.651  1.00  0.00     0.046 A 
ATOM      6  C   UNL     1       6.510   3.890   0.388  1.00  0.00     0.004 A 
ATOM      7  C   UNL     1       6.424   3.437  -0.927  1.00  0.00     0.004 A 
ATOM      8  C   UNL     1       7.025   6.677  -2.876  1.00  0.00     0.048 C 
ENDROOT
BRANCH   4   9
ATOM      9  O   UNL     1       7.149   7.491  -0.120  1.00  0.00    -0.508 OA
ATOM     10  H   UNL     1       6.936   7.888   0.788  1.00  0.00     0.293 HD
ENDBRANCH   4   9
TORSDOF 1
ENDMDL
MODEL 6
REMARK VINA RESULT:    -4.351      1.936      2.837
REMARK INTER + INTRA:          -4.478
REMARK INTER:                  -4.478
REMARK INTRA:                   0.000
REMARK UNBOUND:                 0.000
REMARK SMILES Cc1cccc(O)c1C
REMARK SMILES IDX 1 1 2 2 8 3 6 4 5 5 4 6 3 7 9 8 7 9
REMARK H PARENT 7 10
REMARK Flexibility Score: inf
ROOT
ATOM      1  C   UNL     1       8.414   2.512  -8.937  1.00  0.00     0.045 C 
ATOM      2  C   UNL     1       8.776   3.943  -8.638  1.00  0.00    -0.045 A 
ATOM      3  C   UNL     1       9.099   4.857  -9.673  1.00  0.00    -0.006 A 
ATOM      4  C   UNL     1       9.410   6.195  -9.341  1.00  0.00     0.118 A 
ATOM      5  C   UNL     1       9.438   6.597  -7.999  1.00  0.00     0.046 A 
ATOM      6  C   UNL     1       9.151   5.686  -6.985  1.00  0.00     0.004 A 
ATOM      7  C   UNL     1       8.822   4.369  -7.299  1.00  0.00     0.004 A 
ATOM      8  C   UNL     1       9.057   4.429 -11.121  1.00  0.00     0.048 C 
ENDROOT
BRANCH   4   9
ATOM      9  O   UNL     1       9.690   7.125 -10.343  1.00  0.00    -0.508 OA
ATOM     10  H   UNL     1      10.416   7.823 -10.233  1.00  0.00     0.293 HD
ENDBRANCH   4   9
TORSDOF 1
ENDMDL
MODEL 7
REMARK VINA RESULT:    -4.271      6.031      8.195
REMARK INTER + INTRA:          -4.396
REMARK INTER:                  -4.396
REMARK INTRA:                   0.000
REMARK UNBOUND:                 0.000
REMARK SMILES Cc1cccc(O)c1C
REMARK SMILES IDX 1 1 2 2 8 3 6 4 5 5 4 6 3 7 9 8 7 9
REMARK H PARENT 7 10
REMARK Flexibility Score: inf
ROOT
ATOM      1  C   UNL     1       6.578   4.843   0.586  1.00  0.00     0.045 C 
ATOM      2  C   UNL     1       6.692   5.066  -0.900  1.00  0.00    -0.045 A 
ATOM      3  C   UNL     1       6.800   6.370  -1.447  1.00  0.00    -0.006 A 
ATOM      4  C   UNL     1       6.927   6.524  -2.846  1.00  0.00     0.118 A 
ATOM      5  C   UNL     1       6.902   5.400  -3.681  1.00  0.00     0.046 A 
ATOM      6  C   UNL     1       6.763   4.124  -3.139  1.00  0.00     0.004 A 
ATOM      7  C   UNL     1       6.659   3.956  -1.760  1.00  0.00     0.004 A 
ATOM      8  C   UNL     1       6.840   7.583  -0.547  1.00  0.00     0.048 C 
ENDROOT
BRANCH   4   9
ATOM      9  O   UNL     1       7.078   7.793  -3.406  1.00  0.00    -0.508 OA
ATOM     10  H   UNL     1       6.570   8.596  -3.051  1.00  0.00     0.293 HD
ENDBRANCH   4   9
TORSDOF 1
ENDMDL
MODEL 8
REMARK VINA RESULT:    -4.171      5.703      7.069
REMARK INTER + INTRA:          -4.293
REMARK INTER:                  -4.293
REMARK INTRA:                   0.000
REMARK UNBOUND:                 0.000
REMARK SMILES Cc1cccc(O)c1C
REMARK SMILES IDX 1 1 2 2 8 3 6 4 5 5 4 6 3 7 9 8 7 9
REMARK H PARENT 7 10
REMARK Flexibility Score: inf
ROOT
ATOM      1  C   UNL     1       7.728   6.025  -4.678  1.00  0.00     0.045 C 
ATOM      2  C   UNL     1       7.313   6.328  -3.262  1.00  0.00    -0.045 A 
ATOM      3  C   UNL     1       6.857   5.306  -2.390  1.00  0.00    -0.006 A 
ATOM      4  C   UNL     1       6.502   5.639  -1.063  1.00  0.00     0.118 A 
ATOM      5  C   UNL     1       6.560   6.971  -0.633  1.00  0.00     0.046 A 
ATOM      6  C   UNL     1       6.979   7.974  -1.505  1.00  0.00     0.004 A 
ATOM      7  C   UNL     1       7.353   7.657  -2.810  1.00  0.00     0.004 A 
ATOM      8  C   UNL     1       6.804   3.868  -2.847  1.00  0.00     0.048 C 
ENDROOT
BRANCH   4   9
ATOM      9  O   UNL     1       6.090   4.647  -0.172  1.00  0.00    -0.508 OA
ATOM     10  H   UNL     1       5.870   4.858   0.795  1.00  0.00     0.293 HD
ENDBRANCH   4   9
TORSDOF 1
ENDMDL
MODEL 9
REMARK VINA RESULT:    -4.130      5.890      7.534
REMARK INTER + INTRA:          -4.251
REMARK INTER:                  -4.251
REMARK INTRA:                   0.000
REMARK UNBOUND:                 0.000
REMARK SMILES Cc1cccc(O)c1C
REMARK SMILES IDX 1 1 2 2 8 3 6 4 5 5 4 6 3 7 9 8 7 9
REMARK H PARENT 7 10
REMARK Flexibility Score: inf
ROOT
ATOM      1  C   UNL     1       7.857   6.315  -4.702  1.00  0.00     0.045 C 
ATOM      2  C   UNL     1       7.359   6.275  -3.280  1.00  0.00    -0.045 A 
ATOM      3  C   UNL     1       7.232   7.457  -2.506  1.00  0.00    -0.006 A 
ATOM      4  C   UNL     1       6.739   7.368  -1.185  1.00  0.00     0.118 A 
ATOM      5  C   UNL     1       6.421   6.118  -0.637  1.00  0.00     0.046 A 
ATOM      6  C   UNL     1       6.578   4.958  -1.392  1.00  0.00     0.004 A 
ATOM      7  C   UNL     1       7.043   5.033  -2.704  1.00  0.00     0.004 A 
ATOM      8  C   UNL     1       7.563   8.806  -3.099  1.00  0.00     0.048 C 
ENDROOT
BRANCH   4   9
ATOM      9  O   UNL     1       6.564   8.519  -0.417  1.00  0.00    -0.508 OA
ATOM     10  H   UNL     1       6.252   8.475   0.546  1.00  0.00     0.293 HD
ENDBRANCH   4   9
TORSDOF 1
ENDMDL
