MODEL 1
REMARK VINA RESULT:    -3.738      0.000      0.000
REMARK INTER + INTRA:          -3.972
REMARK INTER:                  -3.956
REMARK INTRA:                  -0.016
REMARK UNBOUND:                -0.016
REMARK SMILES O=Cc1ccco1
REMARK SMILES IDX 5 1 6 2 7 3 3 4 4 5 2 6 1 7
REMARK H PARENT
REMARK Flexibility Score: inf
ROOT
ATOM      1  C   UNL     1     170.670 165.807 214.396  1.00  0.00     0.043 A 
ATOM      2  C   UNL     1     169.556 166.357 214.996  1.00  0.00     0.196 A 
ATOM      3  O   UNL     1     168.526 166.265 214.186  1.00  0.00    -0.462 OA
ATOM      4  C   UNL     1     168.918 165.679 213.079  1.00  0.00     0.166 A 
ATOM      5  C   UNL     1     170.261 165.367 213.156  1.00  0.00     0.054 A 
ENDROOT
BRANCH   4   6
ATOM      6  C   UNL     1     168.045 165.403 211.937  1.00  0.00     0.298 C 
ATOM      7  O   UNL     1     166.795 165.401 212.083  1.00  0.00    -0.294 OA
ENDBRANCH   4   6
TORSDOF 1
ENDMDL
MODEL 2
REMARK VINA RESULT:    -3.571     12.871     13.468
REMARK INTER + INTRA:          -3.795
REMARK INTER:                  -3.784
REMARK INTRA:                  -0.011
REMARK UNBOUND:                -0.016
REMARK SMILES O=Cc1ccco1
REMARK SMILES IDX 5 1 6 2 7 3 3 4 4 5 2 6 1 7
REMARK H PARENT
REMARK Flexibility Score: inf
ROOT
ATOM      1  C   UNL     1     173.438 177.446 215.031  1.00  0.00     0.043 A 
ATOM      2  C   UNL     1     172.503 178.023 214.196  1.00  0.00     0.196 A 
ATOM      3  O   UNL     1     173.050 178.284 213.032  1.00  0.00    -0.462 OA
ATOM      4  C   UNL     1     174.306 177.902 213.067  1.00  0.00     0.166 A 
ATOM      5  C   UNL     1     174.605 177.366 214.303  1.00  0.00     0.054 A 
ENDROOT
BRANCH   4   6
ATOM      6  C   UNL     1     175.240 178.033 211.948  1.00  0.00     0.298 C 
ATOM      7  O   UNL     1     176.440 178.349 212.158  1.00  0.00    -0.294 OA
ENDBRANCH   4   6
TORSDOF 1
ENDMDL
MODEL 3
REMARK VINA RESULT:    -3.532     12.862     13.502
REMARK INTER + INTRA:          -3.754
REMARK INTER:                  -3.742
REMARK INTRA:                  -0.012
REMARK UNBOUND:                -0.016
REMARK SMILES O=Cc1ccco1
REMARK SMILES IDX 5 1 6 2 7 3 3 4 4 5 2 6 1 7
REMARK H PARENT
REMARK Flexibility Score: inf
ROOT
ATOM      1  C   UNL     1     175.688 178.231 211.957  1.00  0.00     0.043 A 
ATOM      2  C   UNL     1     176.349 177.629 213.008  1.00  0.00     0.196 A 
ATOM      3  O   UNL     1     175.502 177.380 213.979  1.00  0.00    -0.462 OA
ATOM      4  C   UNL     1     174.312 177.794 213.610  1.00  0.00     0.166 A 
ATOM      5  C   UNL     1     174.370 178.338 212.343  1.00  0.00     0.054 A 
ENDROOT
BRANCH   4   6
ATOM      6  C   UNL     1     173.108 177.685 214.435  1.00  0.00     0.298 C 
ATOM      7  O   UNL     1     172.041 178.248 214.076  1.00  0.00    -0.294 OA
ENDBRANCH   4   6
TORSDOF 1
ENDMDL
MODEL 4
REMARK VINA RESULT:    -3.525      9.196      9.780
REMARK INTER + INTRA:          -3.747
REMARK INTER:                  -3.731
REMARK INTRA:                  -0.016
REMARK UNBOUND:                -0.016
REMARK SMILES O=Cc1ccco1
REMARK SMILES IDX 5 1 6 2 7 3 3 4 4 5 2 6 1 7
REMARK H PARENT
REMARK Flexibility Score: inf
ROOT
ATOM      1  C   UNL     1     171.332 172.196 205.870  1.00  0.00     0.043 A 
ATOM      2  C   UNL     1     172.307 171.443 205.249  1.00  0.00     0.196 A 
ATOM      3  O   UNL     1     173.087 170.896 206.153  1.00  0.00    -0.462 OA
ATOM      4  C   UNL     1     172.665 171.259 207.342  1.00  0.00     0.166 A 
ATOM      5  C   UNL     1     171.561 172.079 207.224  1.00  0.00     0.054 A 
ENDROOT
BRANCH   4   6
ATOM      6  C   UNL     1     173.287 170.845 208.601  1.00  0.00     0.298 C 
ATOM      7  O   UNL     1     174.352 170.175 208.590  1.00  0.00    -0.294 OA
ENDBRANCH   4   6
TORSDOF 1
ENDMDL
MODEL 5
REMARK VINA RESULT:    -3.492      9.189      9.598
REMARK INTER + INTRA:          -3.712
REMARK INTER:                  -3.696
REMARK INTRA:                  -0.016
REMARK UNBOUND:                -0.016
REMARK SMILES O=Cc1ccco1
REMARK SMILES IDX 5 1 6 2 7 3 3 4 4 5 2 6 1 7
REMARK H PARENT
REMARK Flexibility Score: inf
ROOT
ATOM      1  C   UNL     1     172.326 171.518 206.133  1.00  0.00     0.043 A 
ATOM      2  C   UNL     1     171.351 172.230 205.465  1.00  0.00     0.196 A 
ATOM      3  O   UNL     1     170.501 172.734 206.329  1.00  0.00    -0.462 OA
ATOM      4  C   UNL     1     170.877 172.382 207.537  1.00  0.00     0.166 A 
ATOM      5  C   UNL     1     172.022 171.615 207.474  1.00  0.00     0.054 A 
ENDROOT
BRANCH   4   6
ATOM      6  C   UNL     1     170.172 172.759 208.763  1.00  0.00     0.298 C 
ATOM      7  O   UNL     1     169.154 173.497 208.707  1.00  0.00    -0.294 OA
ENDBRANCH   4   6
TORSDOF 1
ENDMDL
MODEL 6
REMARK VINA RESULT:    -3.437      9.153      9.561
REMARK INTER + INTRA:          -3.653
REMARK INTER:                  -3.641
REMARK INTRA:                  -0.012
REMARK UNBOUND:                -0.016
REMARK SMILES O=Cc1ccco1
REMARK SMILES IDX 5 1 6 2 7 3 3 4 4 5 2 6 1 7
REMARK H PARENT
REMARK Flexibility Score: inf
ROOT
ATOM      1  C   UNL     1     171.691 171.798 205.519  1.00  0.00     0.043 A 
ATOM      2  C   UNL     1     172.589 171.308 206.446  1.00  0.00     0.196 A 
ATOM      3  O   UNL     1     172.209 171.651 207.654  1.00  0.00    -0.462 OA
ATOM      4  C   UNL     1     171.099 172.346 207.561  1.00  0.00     0.166 A 
ATOM      5  C   UNL     1     170.725 172.469 206.238  1.00  0.00     0.054 A 
ENDROOT
BRANCH   4   6
ATOM      6  C   UNL     1     170.374 172.903 208.705  1.00  0.00     0.298 C 
ATOM      7  O   UNL     1     169.214 173.366 208.555  1.00  0.00    -0.294 OA
ENDBRANCH   4   6
TORSDOF 1
ENDMDL
MODEL 7
REMARK VINA RESULT:    -3.436      9.206      9.736
REMARK INTER + INTRA:          -3.653
REMARK INTER:                  -3.641
REMARK INTRA:                  -0.012
REMARK UNBOUND:                -0.016
REMARK SMILES O=Cc1ccco1
REMARK SMILES IDX 5 1 6 2 7 3 3 4 4 5 2 6 1 7
REMARK H PARENT
REMARK Flexibility Score: inf
ROOT
ATOM      1  C   UNL     1     171.943 171.876 205.076  1.00  0.00     0.043 A 
ATOM      2  C   UNL     1     170.932 172.388 205.864  1.00  0.00     0.196 A 
ATOM      3  O   UNL     1     171.146 172.070 207.120  1.00  0.00    -0.462 OA
ATOM      4  C   UNL     1     172.255 171.371 207.189  1.00  0.00     0.166 A 
ATOM      5  C   UNL     1     172.801 171.218 205.931  1.00  0.00     0.054 A 
ENDROOT
BRANCH   4   6
ATOM      6  C   UNL     1     172.818 170.838 208.431  1.00  0.00     0.298 C 
ATOM      7  O   UNL     1     174.006 170.424 208.461  1.00  0.00    -0.294 OA
ENDBRANCH   4   6
TORSDOF 1
ENDMDL
MODEL 8
REMARK VINA RESULT:    -3.365      9.064      9.667
REMARK INTER + INTRA:          -3.577
REMARK INTER:                  -3.566
REMARK INTRA:                  -0.011
REMARK UNBOUND:                -0.016
REMARK SMILES O=Cc1ccco1
REMARK SMILES IDX 5 1 6 2 7 3 3 4 4 5 2 6 1 7
REMARK H PARENT
REMARK Flexibility Score: inf
ROOT
ATOM      1  C   UNL     1     165.113 174.939 211.724  1.00  0.00     0.043 A 
ATOM      2  C   UNL     1     165.623 175.985 212.467  1.00  0.00     0.196 A 
ATOM      3  O   UNL     1     165.995 175.549 213.648  1.00  0.00    -0.462 OA
ATOM      4  C   UNL     1     165.750 174.261 213.712  1.00  0.00     0.166 A 
ATOM      5  C   UNL     1     165.194 173.823 212.527  1.00  0.00     0.054 A 
ENDROOT
BRANCH   4   6
ATOM      6  C   UNL     1     166.032 173.424 214.880  1.00  0.00     0.298 C 
ATOM      7  O   UNL     1     167.194 172.984 215.077  1.00  0.00    -0.294 OA
ENDBRANCH   4   6
TORSDOF 1
ENDMDL
MODEL 9
REMARK VINA RESULT:    -3.329      1.829      3.456
REMARK INTER + INTRA:          -3.539
REMARK INTER:                  -3.528
REMARK INTRA:                  -0.011
REMARK UNBOUND:                -0.016
REMARK SMILES O=Cc1ccco1
REMARK SMILES IDX 5 1 6 2 7 3 3 4 4 5 2 6 1 7
REMARK H PARENT
REMARK Flexibility Score: inf
ROOT
ATOM      1  C   UNL     1     168.112 165.674 212.858  1.00  0.00     0.043 A 
ATOM      2  C   UNL     1     169.265 165.400 212.149  1.00  0.00     0.196 A 
ATOM      3  O   UNL     1     170.314 165.699 212.879  1.00  0.00    -0.462 OA
ATOM      4  C   UNL     1     169.899 166.157 214.038  1.00  0.00     0.166 A 
ATOM      5  C   UNL     1     168.520 166.162 214.080  1.00  0.00     0.054 A 
ENDROOT
BRANCH   4   6
ATOM      6  C   UNL     1     170.786 166.593 215.118  1.00  0.00     0.298 C 
ATOM      7  O   UNL     1     171.246 167.765 215.125  1.00  0.00    -0.294 OA
ENDBRANCH   4   6
TORSDOF 1
ENDMDL
