MODEL 1
REMARK VINA RESULT:    -5.575      0.000      0.000
REMARK INTER + INTRA:         -11.757
REMARK INTER:                 -10.137
REMARK INTRA:                  -1.620
REMARK UNBOUND:                -1.620
REMARK SMILES CCCCCCCCCCCCCC[C@@H](C)C(=O)[O-]
REMARK SMILES IDX 9 1 10 2 11 3 12 4 13 5 14 6 15 7 16 8 17 9 18 10 19 11 8 12
REMARK SMILES IDX 7 13 6 14 5 15 4 16 3 17 2 18 1 19
REMARK H PARENT
REMARK Flexibility Score: inf
ROOT
ATOM      1  C   UNL     1      54.334  34.030  42.797  1.00  0.00     0.000 C 
ENDROOT
BRANCH   1   2
ATOM      2  C   UNL     1      55.646  34.685  42.331  1.00  0.00     0.000 C 
BRANCH   2   3
ATOM      3  C   UNL     1      55.621  36.217  42.442  1.00  0.00     0.000 C 
BRANCH   3   4
ATOM      4  C   UNL     1      55.406  36.657  43.898  1.00  0.00     0.000 C 
BRANCH   4   5
ATOM      5  C   UNL     1      54.348  37.765  44.036  1.00  0.00     0.001 C 
BRANCH   5   6
ATOM      6  C   UNL     1      53.664  37.759  45.415  1.00  0.00     0.009 C 
BRANCH   6   7
ATOM      7  C   UNL     1      53.426  36.331  45.956  1.00  0.00     0.032 C 
ATOM      8  C   UNL     1      53.707  36.223  47.461  1.00  0.00     0.014 C 
BRANCH   7   9
ATOM      9  C   UNL     1      52.008  35.914  45.679  1.00  0.00     0.044 C 
ATOM     10  O   UNL     1      51.640  35.665  44.501  1.00  0.00    -0.550 OA
ATOM     11  O   UNL     1      51.094  35.799  46.720  1.00  0.00    -0.550 OA
ENDBRANCH   7   9
ENDBRANCH   6   7
ENDBRANCH   5   6
ENDBRANCH   4   5
ENDBRANCH   3   4
ENDBRANCH   2   3
ENDBRANCH   1   2
BRANCH   1  12
ATOM     12  C   UNL     1      54.505  32.828  43.748  1.00  0.00     0.000 C 
BRANCH  12  13
ATOM     13  C   UNL     1      55.436  31.715  43.231  1.00  0.00    -0.000 C 
BRANCH  13  14
ATOM     14  C   UNL     1      54.904  30.306  43.528  1.00  0.00    -0.000 C 
BRANCH  14  15
ATOM     15  C   UNL     1      53.966  29.827  42.410  1.00  0.00    -0.000 C 
BRANCH  15  16
ATOM     16  C   UNL     1      52.511  29.652  42.881  1.00  0.00    -0.000 C 
BRANCH  16  17
ATOM     17  C   UNL     1      51.444  30.160  41.896  1.00  0.00    -0.000 C 
BRANCH  17  18
ATOM     18  C   UNL     1      50.451  31.137  42.542  1.00  0.00    -0.003 C 
ATOM     19  C   UNL     1      50.988  32.566  42.510  1.00  0.00     0.004 C 
ENDBRANCH  17  18
ENDBRANCH  16  17
ENDBRANCH  15  16
ENDBRANCH  14  15
ENDBRANCH  13  14
ENDBRANCH  12  13
ENDBRANCH   1  12
TORSDOF 14
ENDMDL
MODEL 2
REMARK VINA RESULT:    -5.511      1.441      2.366
REMARK INTER + INTRA:         -11.641
REMARK INTER:                  -9.310
REMARK INTRA:                  -2.331
REMARK UNBOUND:                -1.620
REMARK SMILES CCCCCCCCCCCCCC[C@@H](C)C(=O)[O-]
REMARK SMILES IDX 9 1 10 2 11 3 12 4 13 5 14 6 15 7 16 8 17 9 18 10 19 11 8 12
REMARK SMILES IDX 7 13 6 14 5 15 4 16 3 17 2 18 1 19
REMARK H PARENT
REMARK Flexibility Score: inf
ROOT
ATOM      1  C   UNL     1      56.172  35.585  42.868  1.00  0.00     0.000 C 
ENDROOT
BRANCH   1   2
ATOM      2  C   UNL     1      55.486  36.960  42.794  1.00  0.00     0.000 C 
BRANCH   2   3
ATOM      3  C   UNL     1      54.379  37.019  41.731  1.00  0.00     0.000 C 
BRANCH   3   4
ATOM      4  C   UNL     1      53.058  37.511  42.343  1.00  0.00     0.000 C 
BRANCH   4   5
ATOM      5  C   UNL     1      53.147  37.718  43.864  1.00  0.00     0.001 C 
BRANCH   5   6
ATOM      6  C   UNL     1      51.901  37.198  44.605  1.00  0.00     0.009 C 
BRANCH   6   7
ATOM      7  C   UNL     1      52.206  35.972  45.494  1.00  0.00     0.032 C 
ATOM      8  C   UNL     1      53.706  35.819  45.783  1.00  0.00     0.014 C 
BRANCH   7   9
ATOM      9  C   UNL     1      51.455  36.088  46.792  1.00  0.00     0.044 C 
ATOM     10  O   UNL     1      51.866  36.866  47.693  1.00  0.00    -0.550 OA
ATOM     11  O   UNL     1      50.302  35.342  47.005  1.00  0.00    -0.550 OA
ENDBRANCH   7   9
ENDBRANCH   6   7
ENDBRANCH   5   6
ENDBRANCH   4   5
ENDBRANCH   3   4
ENDBRANCH   2   3
ENDBRANCH   1   2
BRANCH   1  12
ATOM     12  C   UNL     1      55.359  34.416  42.276  1.00  0.00     0.000 C 
BRANCH  12  13
ATOM     13  C   UNL     1      55.176  33.209  43.215  1.00  0.00    -0.000 C 
BRANCH  13  14
ATOM     14  C   UNL     1      53.752  32.638  43.183  1.00  0.00    -0.000 C 
BRANCH  14  15
ATOM     15  C   UNL     1      52.738  33.715  42.770  1.00  0.00    -0.000 C 
BRANCH  15  16
ATOM     16  C   UNL     1      51.278  33.290  43.010  1.00  0.00    -0.000 C 
BRANCH  16  17
ATOM     17  C   UNL     1      50.725  32.267  42.003  1.00  0.00    -0.000 C 
BRANCH  17  18
ATOM     18  C   UNL     1      50.658  30.843  42.572  1.00  0.00    -0.003 C 
ATOM     19  C   UNL     1      51.547  29.890  41.778  1.00  0.00     0.004 C 
ENDBRANCH  17  18
ENDBRANCH  16  17
ENDBRANCH  15  16
ENDBRANCH  14  15
ENDBRANCH  13  14
ENDBRANCH  12  13
ENDBRANCH   1  12
TORSDOF 14
ENDMDL
MODEL 3
REMARK VINA RESULT:    -5.495      1.226      2.849
REMARK INTER + INTRA:         -11.613
REMARK INTER:                  -9.946
REMARK INTRA:                  -1.667
REMARK UNBOUND:                -1.620
REMARK SMILES CCCCCCCCCCCCCC[C@@H](C)C(=O)[O-]
REMARK SMILES IDX 9 1 10 2 11 3 12 4 13 5 14 6 15 7 16 8 17 9 18 10 19 11 8 12
REMARK SMILES IDX 7 13 6 14 5 15 4 16 3 17 2 18 1 19
REMARK H PARENT
REMARK Flexibility Score: inf
ROOT
ATOM      1  C   UNL     1      53.097  34.252  42.644  1.00  0.00     0.000 C 
ENDROOT
BRANCH   1   2
ATOM      2  C   UNL     1      54.033  34.812  43.729  1.00  0.00     0.000 C 
BRANCH   2   3
ATOM      3  C   UNL     1      55.395  35.254  43.173  1.00  0.00     0.000 C 
BRANCH   3   4
ATOM      4  C   UNL     1      55.675  36.725  43.518  1.00  0.00     0.000 C 
BRANCH   4   5
ATOM      5  C   UNL     1      54.411  37.599  43.473  1.00  0.00     0.001 C 
BRANCH   5   6
ATOM      6  C   UNL     1      54.191  38.387  44.778  1.00  0.00     0.009 C 
BRANCH   6   7
ATOM      7  C   UNL     1      52.757  38.233  45.332  1.00  0.00     0.032 C 
ATOM      8  C   UNL     1      51.790  37.647  44.294  1.00  0.00     0.014 C 
BRANCH   7   9
ATOM      9  C   UNL     1      52.777  37.352  46.551  1.00  0.00     0.044 C 
ATOM     10  O   UNL     1      52.189  36.238  46.536  1.00  0.00    -0.550 OA
ATOM     11  O   UNL     1      53.445  37.758  47.700  1.00  0.00    -0.550 OA
ENDBRANCH   7   9
ENDBRANCH   6   7
ENDBRANCH   5   6
ENDBRANCH   4   5
ENDBRANCH   3   4
ENDBRANCH   2   3
ENDBRANCH   1   2
BRANCH   1  12
ATOM     12  C   UNL     1      51.831  33.548  43.173  1.00  0.00     0.000 C 
BRANCH  12  13
ATOM     13  C   UNL     1      51.042  32.748  42.119  1.00  0.00    -0.000 C 
BRANCH  13  14
ATOM     14  C   UNL     1      50.414  31.468  42.689  1.00  0.00    -0.000 C 
BRANCH  14  15
ATOM     15  C   UNL     1      51.022  30.220  42.033  1.00  0.00    -0.000 C 
BRANCH  15  16
ATOM     16  C   UNL     1      52.184  29.620  42.846  1.00  0.00    -0.000 C 
BRANCH  16  17
ATOM     17  C   UNL     1      53.589  29.951  42.314  1.00  0.00    -0.000 C 
BRANCH  17  18
ATOM     18  C   UNL     1      54.654  29.986  43.419  1.00  0.00    -0.003 C 
ATOM     19  C   UNL     1      55.247  31.385  43.567  1.00  0.00     0.004 C 
ENDBRANCH  17  18
ENDBRANCH  16  17
ENDBRANCH  15  16
ENDBRANCH  14  15
ENDBRANCH  13  14
ENDBRANCH  12  13
ENDBRANCH   1  12
TORSDOF 14
ENDMDL
MODEL 4
REMARK VINA RESULT:    -5.470      1.387      4.110
REMARK INTER + INTRA:         -11.567
REMARK INTER:                  -9.903
REMARK INTRA:                  -1.664
REMARK UNBOUND:                -1.620
REMARK SMILES CCCCCCCCCCCCCC[C@@H](C)C(=O)[O-]
REMARK SMILES IDX 9 1 10 2 11 3 12 4 13 5 14 6 15 7 16 8 17 9 18 10 19 11 8 12
REMARK SMILES IDX 7 13 6 14 5 15 4 16 3 17 2 18 1 19
REMARK H PARENT
REMARK Flexibility Score: inf
ROOT
ATOM      1  C   UNL     1      50.836  30.421  42.693  1.00  0.00     0.000 C 
ENDROOT
BRANCH   1   2
ATOM      2  C   UNL     1      50.417  31.803  42.163  1.00  0.00     0.000 C 
BRANCH   2   3
ATOM      3  C   UNL     1      51.457  32.895  42.456  1.00  0.00     0.000 C 
BRANCH   3   4
ATOM      4  C   UNL     1      51.044  33.728  43.679  1.00  0.00     0.000 C 
BRANCH   4   5
ATOM      5  C   UNL     1      51.815  35.055  43.784  1.00  0.00     0.001 C 
BRANCH   5   6
ATOM      6  C   UNL     1      52.636  35.160  45.083  1.00  0.00     0.009 C 
BRANCH   6   7
ATOM      7  C   UNL     1      52.417  36.502  45.817  1.00  0.00     0.032 C 
ATOM      8  C   UNL     1      53.203  36.582  47.133  1.00  0.00     0.014 C 
BRANCH   7   9
ATOM      9  C   UNL     1      52.822  37.641  44.922  1.00  0.00     0.044 C 
ATOM     10  O   UNL     1      54.039  37.931  44.778  1.00  0.00    -0.550 OA
ATOM     11  O   UNL     1      51.858  38.379  44.245  1.00  0.00    -0.550 OA
ENDBRANCH   7   9
ENDBRANCH   6   7
ENDBRANCH   5   6
ENDBRANCH   4   5
ENDBRANCH   3   4
ENDBRANCH   2   3
ENDBRANCH   1   2
BRANCH   1  12
ATOM     12  C   UNL     1      52.177  29.889  42.146  1.00  0.00     0.000 C 
BRANCH  12  13
ATOM     13  C   UNL     1      53.302  29.764  43.190  1.00  0.00    -0.000 C 
BRANCH  13  14
ATOM     14  C   UNL     1      54.651  30.288  42.679  1.00  0.00    -0.000 C 
BRANCH  14  15
ATOM     15  C   UNL     1      55.277  31.263  43.687  1.00  0.00    -0.000 C 
BRANCH  15  16
ATOM     16  C   UNL     1      54.824  32.719  43.476  1.00  0.00    -0.000 C 
BRANCH  16  17
ATOM     17  C   UNL     1      55.645  33.512  42.444  1.00  0.00    -0.000 C 
BRANCH  17  18
ATOM     18  C   UNL     1      55.242  34.992  42.369  1.00  0.00    -0.003 C 
ATOM     19  C   UNL     1      56.236  35.871  43.123  1.00  0.00     0.004 C 
ENDBRANCH  17  18
ENDBRANCH  16  17
ENDBRANCH  15  16
ENDBRANCH  14  15
ENDBRANCH  13  14
ENDBRANCH  12  13
ENDBRANCH   1  12
TORSDOF 14
ENDMDL
MODEL 5
REMARK VINA RESULT:    -5.458      2.188      3.337
REMARK INTER + INTRA:         -11.545
REMARK INTER:                  -9.825
REMARK INTRA:                  -1.720
REMARK UNBOUND:                -1.620
REMARK SMILES CCCCCCCCCCCCCC[C@@H](C)C(=O)[O-]
REMARK SMILES IDX 9 1 10 2 11 3 12 4 13 5 14 6 15 7 16 8 17 9 18 10 19 11 8 12
REMARK SMILES IDX 7 13 6 14 5 15 4 16 3 17 2 18 1 19
REMARK H PARENT
REMARK Flexibility Score: inf
ROOT
ATOM      1  C   UNL     1      53.844  33.747  43.265  1.00  0.00     0.000 C 
ENDROOT
BRANCH   1   2
ATOM      2  C   UNL     1      53.737  34.346  44.678  1.00  0.00     0.000 C 
BRANCH   2   3
ATOM      3  C   UNL     1      52.355  34.953  44.966  1.00  0.00     0.000 C 
BRANCH   3   4
ATOM      4  C   UNL     1      51.873  35.802  43.781  1.00  0.00     0.000 C 
BRANCH   4   5
ATOM      5  C   UNL     1      51.823  37.305  44.106  1.00  0.00     0.001 C 
BRANCH   5   6
ATOM      6  C   UNL     1      52.851  38.118  43.298  1.00  0.00     0.009 C 
BRANCH   6   7
ATOM      7  C   UNL     1      53.304  37.393  42.010  1.00  0.00     0.032 C 
ATOM      8  C   UNL     1      52.835  38.115  40.739  1.00  0.00     0.014 C 
BRANCH   7   9
ATOM      9  C   UNL     1      54.803  37.275  41.996  1.00  0.00     0.044 C 
ATOM     10  O   UNL     1      55.445  37.491  40.933  1.00  0.00    -0.550 OA
ATOM     11  O   UNL     1      55.492  36.931  43.153  1.00  0.00    -0.550 OA
ENDBRANCH   7   9
ENDBRANCH   6   7
ENDBRANCH   5   6
ENDBRANCH   4   5
ENDBRANCH   3   4
ENDBRANCH   2   3
ENDBRANCH   1   2
BRANCH   1  12
ATOM     12  C   UNL     1      55.148  32.974  42.980  1.00  0.00     0.000 C 
BRANCH  12  13
ATOM     13  C   UNL     1      55.284  31.630  43.719  1.00  0.00    -0.000 C 
BRANCH  13  14
ATOM     14  C   UNL     1      54.955  30.424  42.829  1.00  0.00    -0.000 C 
BRANCH  14  15
ATOM     15  C   UNL     1      53.638  29.765  43.263  1.00  0.00    -0.000 C 
BRANCH  15  16
ATOM     16  C   UNL     1      52.483  30.025  42.279  1.00  0.00    -0.000 C 
BRANCH  16  17
ATOM     17  C   UNL     1      51.074  29.809  42.859  1.00  0.00    -0.000 C 
BRANCH  17  18
ATOM     18  C   UNL     1      50.228  31.090  42.867  1.00  0.00    -0.003 C 
ATOM     19  C   UNL     1      50.965  32.240  42.186  1.00  0.00     0.004 C 
ENDBRANCH  17  18
ENDBRANCH  16  17
ENDBRANCH  15  16
ENDBRANCH  14  15
ENDBRANCH  13  14
ENDBRANCH  12  13
ENDBRANCH   1  12
TORSDOF 14
ENDMDL
MODEL 6
REMARK VINA RESULT:    -5.431      1.919      3.333
REMARK INTER + INTRA:         -11.497
REMARK INTER:                  -8.987
REMARK INTRA:                  -2.510
REMARK UNBOUND:                -1.620
REMARK SMILES CCCCCCCCCCCCCC[C@@H](C)C(=O)[O-]
REMARK SMILES IDX 9 1 10 2 11 3 12 4 13 5 14 6 15 7 16 8 17 9 18 10 19 11 8 12
REMARK SMILES IDX 7 13 6 14 5 15 4 16 3 17 2 18 1 19
REMARK H PARENT
REMARK Flexibility Score: inf
ROOT
ATOM      1  C   UNL     1      54.265  38.020  41.330  1.00  0.00     0.000 C 
ENDROOT
BRANCH   1   2
ATOM      2  C   UNL     1      52.811  37.698  41.714  1.00  0.00     0.000 C 
BRANCH   2   3
ATOM      3  C   UNL     1      52.554  37.806  43.225  1.00  0.00     0.000 C 
BRANCH   3   4
ATOM      4  C   UNL     1      53.390  38.939  43.842  1.00  0.00     0.000 C 
BRANCH   4   5
ATOM      5  C   UNL     1      54.082  38.524  45.150  1.00  0.00     0.001 C 
BRANCH   5   6
ATOM      6  C   UNL     1      53.723  37.089  45.580  1.00  0.00     0.009 C 
BRANCH   6   7
ATOM      7  C   UNL     1      53.153  37.023  47.015  1.00  0.00     0.032 C 
ATOM      8  C   UNL     1      53.038  38.410  47.662  1.00  0.00     0.014 C 
BRANCH   7   9
ATOM      9  C   UNL     1      51.800  36.367  46.993  1.00  0.00     0.044 C 
ATOM     10  O   UNL     1      51.371  35.838  45.934  1.00  0.00    -0.550 OA
ATOM     11  O   UNL     1      51.015  36.338  48.139  1.00  0.00    -0.550 OA
ENDBRANCH   7   9
ENDBRANCH   6   7
ENDBRANCH   5   6
ENDBRANCH   4   5
ENDBRANCH   3   4
ENDBRANCH   2   3
ENDBRANCH   1   2
BRANCH   1  12
ATOM     12  C   UNL     1      55.215  36.806  41.287  1.00  0.00     0.000 C 
BRANCH  12  13
ATOM     13  C   UNL     1      56.074  36.605  42.549  1.00  0.00    -0.000 C 
BRANCH  13  14
ATOM     14  C   UNL     1      55.843  35.242  43.217  1.00  0.00    -0.000 C 
BRANCH  14  15
ATOM     15  C   UNL     1      54.814  34.415  42.433  1.00  0.00    -0.000 C 
BRANCH  15  16
ATOM     16  C   UNL     1      53.594  34.014  43.282  1.00  0.00    -0.000 C 
BRANCH  16  17
ATOM     17  C   UNL     1      52.233  34.177  42.582  1.00  0.00    -0.000 C 
BRANCH  17  18
ATOM     18  C   UNL     1      51.122  33.341  43.233  1.00  0.00    -0.003 C 
ATOM     19  C   UNL     1      50.782  32.121  42.382  1.00  0.00     0.004 C 
ENDBRANCH  17  18
ENDBRANCH  16  17
ENDBRANCH  15  16
ENDBRANCH  14  15
ENDBRANCH  13  14
ENDBRANCH  12  13
ENDBRANCH   1  12
TORSDOF 14
ENDMDL
MODEL 7
REMARK VINA RESULT:    -5.405      3.368      5.653
REMARK INTER + INTRA:         -11.449
REMARK INTER:                  -9.039
REMARK INTRA:                  -2.411
REMARK UNBOUND:                -1.620
REMARK SMILES CCCCCCCCCCCCCC[C@@H](C)C(=O)[O-]
REMARK SMILES IDX 9 1 10 2 11 3 12 4 13 5 14 6 15 7 16 8 17 9 18 10 19 11 8 12
REMARK SMILES IDX 7 13 6 14 5 15 4 16 3 17 2 18 1 19
REMARK H PARENT
REMARK Flexibility Score: inf
ROOT
ATOM      1  C   UNL     1      51.684  36.378  47.842  1.00  0.00     0.000 C 
ENDROOT
BRANCH   1   2
ATOM      2  C   UNL     1      53.044  36.802  47.262  1.00  0.00     0.000 C 
BRANCH   2   3
ATOM      3  C   UNL     1      53.341  38.295  47.466  1.00  0.00     0.000 C 
BRANCH   3   4
ATOM      4  C   UNL     1      53.518  39.008  46.117  1.00  0.00     0.000 C 
BRANCH   4   5
ATOM      5  C   UNL     1      53.534  38.034  44.926  1.00  0.00     0.001 C 
BRANCH   5   6
ATOM      6  C   UNL     1      52.644  38.509  43.763  1.00  0.00     0.009 C 
BRANCH   6   7
ATOM      7  C   UNL     1      53.464  39.023  42.558  1.00  0.00     0.032 C 
ATOM      8  C   UNL     1      53.117  38.285  41.258  1.00  0.00     0.014 C 
BRANCH   7   9
ATOM      9  C   UNL     1      53.227  40.498  42.376  1.00  0.00     0.044 C 
ATOM     10  O   UNL     1      52.387  41.097  43.098  1.00  0.00    -0.550 OA
ATOM     11  O   UNL     1      53.933  41.209  41.414  1.00  0.00    -0.550 OA
ENDBRANCH   7   9
ENDBRANCH   6   7
ENDBRANCH   5   6
ENDBRANCH   4   5
ENDBRANCH   3   4
ENDBRANCH   2   3
ENDBRANCH   1   2
BRANCH   1  12
ATOM     12  C   UNL     1      50.841  35.463  46.930  1.00  0.00     0.000 C 
BRANCH  12  13
ATOM     13  C   UNL     1      50.669  35.963  45.484  1.00  0.00    -0.000 C 
BRANCH  13  14
ATOM     14  C   UNL     1      50.981  34.883  44.438  1.00  0.00    -0.000 C 
BRANCH  14  15
ATOM     15  C   UNL     1      52.485  34.576  44.399  1.00  0.00    -0.000 C 
BRANCH  15  16
ATOM     16  C   UNL     1      53.115  34.828  43.017  1.00  0.00    -0.000 C 
BRANCH  16  17
ATOM     17  C   UNL     1      54.605  34.464  42.906  1.00  0.00    -0.000 C 
BRANCH  17  18
ATOM     18  C   UNL     1      55.440  35.559  42.228  1.00  0.00    -0.003 C 
ATOM     19  C   UNL     1      56.319  36.287  43.241  1.00  0.00     0.004 C 
ENDBRANCH  17  18
ENDBRANCH  16  17
ENDBRANCH  15  16
ENDBRANCH  14  15
ENDBRANCH  13  14
ENDBRANCH  12  13
ENDBRANCH   1  12
TORSDOF 14
ENDMDL
MODEL 8
REMARK VINA RESULT:    -5.383      2.154      2.662
REMARK INTER + INTRA:         -11.409
REMARK INTER:                  -9.838
REMARK INTRA:                  -1.572
REMARK UNBOUND:                -1.620
REMARK SMILES CCCCCCCCCCCCCC[C@@H](C)C(=O)[O-]
REMARK SMILES IDX 9 1 10 2 11 3 12 4 13 5 14 6 15 7 16 8 17 9 18 10 19 11 8 12
REMARK SMILES IDX 7 13 6 14 5 15 4 16 3 17 2 18 1 19
REMARK H PARENT
REMARK Flexibility Score: inf
ROOT
ATOM      1  C   UNL     1      55.611  32.656  42.708  1.00  0.00     0.000 C 
ENDROOT
BRANCH   1   2
ATOM      2  C   UNL     1      55.263  34.115  43.051  1.00  0.00     0.000 C 
BRANCH   2   3
ATOM      3  C   UNL     1      55.621  35.095  41.923  1.00  0.00     0.000 C 
BRANCH   3   4
ATOM      4  C   UNL     1      55.955  36.483  42.490  1.00  0.00     0.000 C 
BRANCH   4   5
ATOM      5  C   UNL     1      55.525  36.647  43.958  1.00  0.00     0.001 C 
BRANCH   5   6
ATOM      6  C   UNL     1      54.473  37.755  44.145  1.00  0.00     0.009 C 
BRANCH   6   7
ATOM      7  C   UNL     1      53.278  37.610  43.175  1.00  0.00     0.032 C 
ATOM      8  C   UNL     1      51.995  37.169  43.893  1.00  0.00     0.014 C 
BRANCH   7   9
ATOM      9  C   UNL     1      53.034  38.918  42.473  1.00  0.00     0.044 C 
ATOM     10  O   UNL     1      53.190  39.006  41.227  1.00  0.00    -0.550 OA
ATOM     11  O   UNL     1      52.633  40.038  43.193  1.00  0.00    -0.550 OA
ENDBRANCH   7   9
ENDBRANCH   6   7
ENDBRANCH   5   6
ENDBRANCH   4   5
ENDBRANCH   3   4
ENDBRANCH   2   3
ENDBRANCH   1   2
BRANCH   1  12
ATOM     12  C   UNL     1      54.989  31.598  43.643  1.00  0.00     0.000 C 
BRANCH  12  13
ATOM     13  C   UNL     1      54.773  30.213  43.007  1.00  0.00    -0.000 C 
BRANCH  13  14
ATOM     14  C   UNL     1      53.333  29.703  43.161  1.00  0.00    -0.000 C 
BRANCH  14  15
ATOM     15  C   UNL     1      52.661  29.539  41.790  1.00  0.00    -0.000 C 
BRANCH  15  16
ATOM     16  C   UNL     1      51.170  29.922  41.803  1.00  0.00    -0.000 C 
BRANCH  16  17
ATOM     17  C   UNL     1      50.796  31.047  42.784  1.00  0.00    -0.000 C 
BRANCH  17  18
ATOM     18  C   UNL     1      50.771  32.433  42.123  1.00  0.00    -0.003 C 
ATOM     19  C   UNL     1      51.773  33.375  42.783  1.00  0.00     0.004 C 
ENDBRANCH  17  18
ENDBRANCH  16  17
ENDBRANCH  15  16
ENDBRANCH  14  15
ENDBRANCH  13  14
ENDBRANCH  12  13
ENDBRANCH   1  12
TORSDOF 14
ENDMDL
MODEL 9
REMARK VINA RESULT:    -5.378      6.568      9.420
REMARK INTER + INTRA:         -11.400
REMARK INTER:                  -9.607
REMARK INTRA:                  -1.793
REMARK UNBOUND:                -1.620
REMARK SMILES CCCCCCCCCCCCCC[C@@H](C)C(=O)[O-]
REMARK SMILES IDX 9 1 10 2 11 3 12 4 13 5 14 6 15 7 16 8 17 9 18 10 19 11 8 12
REMARK SMILES IDX 7 13 6 14 5 15 4 16 3 17 2 18 1 19
REMARK H PARENT
REMARK Flexibility Score: inf
ROOT
ATOM      1  C   UNL     1      60.236  37.868  37.446  1.00  0.00     0.000 C 
ENDROOT
BRANCH   1   2
ATOM      2  C   UNL     1      59.388  38.365  38.629  1.00  0.00     0.000 C 
BRANCH   2   3
ATOM      3  C   UNL     1      57.945  38.705  38.228  1.00  0.00     0.000 C 
BRANCH   3   4
ATOM      4  C   UNL     1      57.127  37.426  37.991  1.00  0.00     0.000 C 
BRANCH   4   5
ATOM      5  C   UNL     1      55.837  37.380  38.825  1.00  0.00     0.001 C 
BRANCH   5   6
ATOM      6  C   UNL     1      56.048  37.874  40.268  1.00  0.00     0.009 C 
BRANCH   6   7
ATOM      7  C   UNL     1      55.286  37.020  41.307  1.00  0.00     0.032 C 
ATOM      8  C   UNL     1      56.165  36.637  42.505  1.00  0.00     0.014 C 
BRANCH   7   9
ATOM      9  C   UNL     1      54.078  37.774  41.792  1.00  0.00     0.044 C 
ATOM     10  O   UNL     1      53.167  37.172  42.420  1.00  0.00    -0.550 OA
ATOM     11  O   UNL     1      53.959  39.138  41.555  1.00  0.00    -0.550 OA
ENDBRANCH   7   9
ENDBRANCH   6   7
ENDBRANCH   5   6
ENDBRANCH   4   5
ENDBRANCH   3   4
ENDBRANCH   2   3
ENDBRANCH   1   2
BRANCH   1  12
ATOM     12  C   UNL     1      61.283  38.873  36.923  1.00  0.00     0.000 C 
BRANCH  12  13
ATOM     13  C   UNL     1      60.747  40.291  36.652  1.00  0.00    -0.000 C 
BRANCH  13  14
ATOM     14  C   UNL     1      60.254  40.477  35.210  1.00  0.00    -0.000 C 
BRANCH  14  15
ATOM     15  C   UNL     1      58.720  40.495  35.153  1.00  0.00    -0.000 C 
BRANCH  15  16
ATOM     16  C   UNL     1      58.148  39.568  34.065  1.00  0.00    -0.000 C 
BRANCH  16  17
ATOM     17  C   UNL     1      58.160  38.070  34.415  1.00  0.00    -0.000 C 
BRANCH  17  18
ATOM     18  C   UNL     1      56.851  37.358  34.045  1.00  0.00    -0.003 C 
ATOM     19  C   UNL     1      55.641  38.114  34.589  1.00  0.00     0.004 C 
ENDBRANCH  17  18
ENDBRANCH  16  17
ENDBRANCH  15  16
ENDBRANCH  14  15
ENDBRANCH  13  14
ENDBRANCH  12  13
ENDBRANCH   1  12
TORSDOF 14
ENDMDL
