MODEL 1
REMARK VINA RESULT:    -6.358      0.000      0.000
REMARK INTER + INTRA:         -11.392
REMARK INTER:                 -10.818
REMARK INTRA:                  -0.573
REMARK UNBOUND:                -0.573
REMARK SMILES CCCCCCCCCCCCCC(=O)[O-]
REMARK SMILES IDX 8 1 9 2 10 3 11 4 12 5 13 6 14 7 15 8 16 9 7 10 6 11 5 12
REMARK SMILES IDX 4 13 3 14 2 15 1 16
REMARK H PARENT
REMARK Flexibility Score: inf
ROOT
ATOM      1  C   UNL     1      30.690  -8.557  21.932  1.00  0.00     0.000 C 
ENDROOT
BRANCH   1   2
ATOM      2  C   UNL     1      32.169  -8.837  21.626  1.00  0.00     0.000 C 
BRANCH   2   3
ATOM      3  C   UNL     1      32.345  -9.352  20.193  1.00  0.00     0.000 C 
BRANCH   3   4
ATOM      4  C   UNL     1      33.832  -9.468  19.828  1.00  0.00     0.000 C 
BRANCH   4   5
ATOM      5  C   UNL     1      34.770  -9.141  21.003  1.00  0.00     0.006 C 
BRANCH   5   6
ATOM      6  C   UNL     1      36.032 -10.019  21.060  1.00  0.00     0.053 C 
BRANCH   6   7
ATOM      7  C   UNL     1      37.083  -9.459  21.969  1.00  0.00     0.041 C 
ATOM      8  O   UNL     1      38.295  -9.750  21.790  1.00  0.00    -0.550 OA
ATOM      9  O   UNL     1      36.723  -8.644  23.035  1.00  0.00    -0.550 OA
ENDBRANCH   6   7
ENDBRANCH   5   6
ENDBRANCH   4   5
ENDBRANCH   3   4
ENDBRANCH   2   3
ENDBRANCH   1   2
BRANCH   1  10
ATOM     10  C   UNL     1      29.737  -9.313  20.992  1.00  0.00     0.000 C 
BRANCH  10  11
ATOM     11  C   UNL     1      28.666 -10.111  21.752  1.00  0.00    -0.000 C 
BRANCH  11  12
ATOM     12  C   UNL     1      28.156 -11.286  20.910  1.00  0.00    -0.000 C 
BRANCH  12  13
ATOM     13  C   UNL     1      26.929 -10.878  20.081  1.00  0.00    -0.000 C 
BRANCH  13  14
ATOM     14  C   UNL     1      26.095 -12.083  19.611  1.00  0.00    -0.000 C 
BRANCH  14  15
ATOM     15  C   UNL     1      26.399 -12.563  18.182  1.00  0.00    -0.003 C 
ATOM     16  C   UNL     1      27.384 -13.732  18.139  1.00  0.00     0.004 C 
ENDBRANCH  14  15
ENDBRANCH  13  14
ENDBRANCH  12  13
ENDBRANCH  11  12
ENDBRANCH  10  11
ENDBRANCH   1  10
TORSDOF 12
ENDMDL
MODEL 2
REMARK VINA RESULT:    -6.271      1.292      1.549
REMARK INTER + INTRA:         -11.244
REMARK INTER:                 -10.576
REMARK INTRA:                  -0.668
REMARK UNBOUND:                -0.573
REMARK SMILES CCCCCCCCCCCCCC(=O)[O-]
REMARK SMILES IDX 8 1 9 2 10 3 11 4 12 5 13 6 14 7 15 8 16 9 7 10 6 11 5 12
REMARK SMILES IDX 4 13 3 14 2 15 1 16
REMARK H PARENT
REMARK Flexibility Score: inf
ROOT
ATOM      1  C   UNL     1      31.378  -8.975  22.048  1.00  0.00     0.000 C 
ENDROOT
BRANCH   1   2
ATOM      2  C   UNL     1      31.885  -9.205  20.617  1.00  0.00     0.000 C 
BRANCH   2   3
ATOM      3  C   UNL     1      33.274  -8.586  20.421  1.00  0.00     0.000 C 
BRANCH   3   4
ATOM      4  C   UNL     1      33.495  -7.409  21.382  1.00  0.00     0.000 C 
BRANCH   4   5
ATOM      5  C   UNL     1      34.948  -7.298  21.876  1.00  0.00     0.006 C 
BRANCH   5   6
ATOM      6  C   UNL     1      35.459  -8.554  22.604  1.00  0.00     0.053 C 
BRANCH   6   7
ATOM      7  C   UNL     1      36.583  -9.224  21.874  1.00  0.00     0.041 C 
ATOM      8  O   UNL     1      36.343  -9.950  20.872  1.00  0.00    -0.550 OA
ATOM      9  O   UNL     1      37.891  -9.078  22.317  1.00  0.00    -0.550 OA
ENDBRANCH   6   7
ENDBRANCH   5   6
ENDBRANCH   4   5
ENDBRANCH   3   4
ENDBRANCH   2   3
ENDBRANCH   1   2
BRANCH   1  10
ATOM     10  C   UNL     1      29.853  -9.134  22.170  1.00  0.00     0.000 C 
BRANCH  10  11
ATOM     11  C   UNL     1      29.251  -9.958  21.021  1.00  0.00    -0.000 C 
BRANCH  11  12
ATOM     12  C   UNL     1      28.068 -10.801  21.512  1.00  0.00    -0.000 C 
BRANCH  12  13
ATOM     13  C   UNL     1      27.346 -11.476  20.337  1.00  0.00    -0.000 C 
BRANCH  13  14
ATOM     14  C   UNL     1      27.936 -12.852  19.980  1.00  0.00    -0.000 C 
BRANCH  14  15
ATOM     15  C   UNL     1      27.231 -13.576  18.820  1.00  0.00    -0.003 C 
ATOM     16  C   UNL     1      26.292 -12.667  18.028  1.00  0.00     0.004 C 
ENDBRANCH  14  15
ENDBRANCH  13  14
ENDBRANCH  12  13
ENDBRANCH  11  12
ENDBRANCH  10  11
ENDBRANCH   1  10
TORSDOF 12
ENDMDL
MODEL 3
REMARK VINA RESULT:    -6.091      1.638      2.261
REMARK INTER + INTRA:         -10.937
REMARK INTER:                 -10.603
REMARK INTRA:                  -0.334
REMARK UNBOUND:                -0.573
REMARK SMILES CCCCCCCCCCCCCC(=O)[O-]
REMARK SMILES IDX 8 1 9 2 10 3 11 4 12 5 13 6 14 7 15 8 16 9 7 10 6 11 5 12
REMARK SMILES IDX 4 13 3 14 2 15 1 16
REMARK H PARENT
REMARK Flexibility Score: inf
ROOT
ATOM      1  C   UNL     1      32.234  -8.631  21.718  1.00  0.00     0.000 C 
ENDROOT
BRANCH   1   2
ATOM      2  C   UNL     1      33.483  -8.414  20.851  1.00  0.00     0.000 C 
BRANCH   2   3
ATOM      3  C   UNL     1      34.760  -8.726  21.640  1.00  0.00     0.000 C 
BRANCH   3   4
ATOM      4  C   UNL     1      35.675  -9.677  20.855  1.00  0.00     0.000 C 
BRANCH   4   5
ATOM      5  C   UNL     1      36.635 -10.472  21.757  1.00  0.00     0.006 C 
BRANCH   5   6
ATOM      6  C   UNL     1      38.123 -10.177  21.502  1.00  0.00     0.053 C 
BRANCH   6   7
ATOM      7  C   UNL     1      38.842 -11.335  20.881  1.00  0.00     0.041 C 
ATOM      8  O   UNL     1      39.658 -11.143  19.940  1.00  0.00    -0.550 OA
ATOM      9  O   UNL     1      38.587 -12.630  21.314  1.00  0.00    -0.550 OA
ENDBRANCH   6   7
ENDBRANCH   5   6
ENDBRANCH   4   5
ENDBRANCH   3   4
ENDBRANCH   2   3
ENDBRANCH   1   2
BRANCH   1  10
ATOM     10  C   UNL     1      31.057  -9.223  20.925  1.00  0.00     0.000 C 
BRANCH  10  11
ATOM     11  C   UNL     1      29.748  -9.236  21.730  1.00  0.00    -0.000 C 
BRANCH  11  12
ATOM     12  C   UNL     1      28.587  -9.768  20.882  1.00  0.00    -0.000 C 
BRANCH  12  13
ATOM     13  C   UNL     1      28.108 -11.133  21.397  1.00  0.00    -0.000 C 
BRANCH  13  14
ATOM     14  C   UNL     1      27.963 -12.179  20.278  1.00  0.00    -0.000 C 
BRANCH  14  15
ATOM     15  C   UNL     1      26.709 -12.019  19.401  1.00  0.00    -0.003 C 
ATOM     16  C   UNL     1      26.614 -13.068  18.294  1.00  0.00     0.004 C 
ENDBRANCH  14  15
ENDBRANCH  13  14
ENDBRANCH  12  13
ENDBRANCH  11  12
ENDBRANCH  10  11
ENDBRANCH   1  10
TORSDOF 12
ENDMDL
MODEL 4
REMARK VINA RESULT:    -6.080      5.982      7.465
REMARK INTER + INTRA:         -10.918
REMARK INTER:                 -10.000
REMARK INTRA:                  -0.917
REMARK UNBOUND:                -0.573
REMARK SMILES CCCCCCCCCCCCCC(=O)[O-]
REMARK SMILES IDX 8 1 9 2 10 3 11 4 12 5 13 6 14 7 15 8 16 9 7 10 6 11 5 12
REMARK SMILES IDX 4 13 3 14 2 15 1 16
REMARK H PARENT
REMARK Flexibility Score: inf
ROOT
ATOM      1  C   UNL     1      27.625  -8.097  20.161  1.00  0.00     0.000 C 
ENDROOT
BRANCH   1   2
ATOM      2  C   UNL     1      26.162  -7.629  20.189  1.00  0.00     0.000 C 
BRANCH   2   3
ATOM      3  C   UNL     1      25.899  -6.582  19.101  1.00  0.00     0.000 C 
BRANCH   3   4
ATOM      4  C   UNL     1      27.210  -6.131  18.441  1.00  0.00     0.000 C 
BRANCH   4   5
ATOM      5  C   UNL     1      27.562  -4.662  18.737  1.00  0.00     0.006 C 
BRANCH   5   6
ATOM      6  C   UNL     1      26.707  -4.026  19.846  1.00  0.00     0.053 C 
BRANCH   6   7
ATOM      7  C   UNL     1      26.718  -2.529  19.794  1.00  0.00     0.041 C 
ATOM      8  O   UNL     1      26.615  -1.857  20.855  1.00  0.00    -0.550 OA
ATOM      9  O   UNL     1      26.807  -1.872  18.573  1.00  0.00    -0.550 OA
ENDBRANCH   6   7
ENDBRANCH   5   6
ENDBRANCH   4   5
ENDBRANCH   3   4
ENDBRANCH   2   3
ENDBRANCH   1   2
BRANCH   1  10
ATOM     10  C   UNL     1      28.138  -8.523  21.546  1.00  0.00     0.000 C 
BRANCH  10  11
ATOM     11  C   UNL     1      28.840  -9.889  21.522  1.00  0.00    -0.000 C 
BRANCH  11  12
ATOM     12  C   UNL     1      27.822 -11.032  21.618  1.00  0.00    -0.000 C 
BRANCH  12  13
ATOM     13  C   UNL     1      27.786 -11.849  20.319  1.00  0.00    -0.000 C 
BRANCH  13  14
ATOM     14  C   UNL     1      26.501 -11.621  19.502  1.00  0.00    -0.000 C 
BRANCH  14  15
ATOM     15  C   UNL     1      26.267 -12.636  18.370  1.00  0.00    -0.003 C 
ATOM     16  C   UNL     1      27.352 -13.709  18.293  1.00  0.00     0.004 C 
ENDBRANCH  14  15
ENDBRANCH  13  14
ENDBRANCH  12  13
ENDBRANCH  11  12
ENDBRANCH  10  11
ENDBRANCH   1  10
TORSDOF 12
ENDMDL
MODEL 5
REMARK VINA RESULT:    -6.080      0.915      1.134
REMARK INTER + INTRA:         -10.918
REMARK INTER:                 -10.497
REMARK INTRA:                  -0.420
REMARK UNBOUND:                -0.573
REMARK SMILES CCCCCCCCCCCCCC(=O)[O-]
REMARK SMILES IDX 8 1 9 2 10 3 11 4 12 5 13 6 14 7 15 8 16 9 7 10 6 11 5 12
REMARK SMILES IDX 4 13 3 14 2 15 1 16
REMARK H PARENT
REMARK Flexibility Score: inf
ROOT
ATOM      1  C   UNL     1      31.193  -8.886  22.055  1.00  0.00     0.000 C 
ENDROOT
BRANCH   1   2
ATOM      2  C   UNL     1      32.433  -8.434  21.270  1.00  0.00     0.000 C 
BRANCH   2   3
ATOM      3  C   UNL     1      33.687  -9.174  21.751  1.00  0.00     0.000 C 
BRANCH   3   4
ATOM      4  C   UNL     1      34.562  -9.606  20.565  1.00  0.00     0.000 C 
BRANCH   4   5
ATOM      5  C   UNL     1      36.002  -9.962  20.975  1.00  0.00     0.006 C 
BRANCH   5   6
ATOM      6  C   UNL     1      36.661  -8.928  21.904  1.00  0.00     0.053 C 
BRANCH   6   7
ATOM      7  C   UNL     1      37.987  -9.388  22.428  1.00  0.00     0.041 C 
ATOM      8  O   UNL     1      38.320 -10.599  22.330  1.00  0.00    -0.550 OA
ATOM      9  O   UNL     1      38.841  -8.490  23.056  1.00  0.00    -0.550 OA
ENDBRANCH   6   7
ENDBRANCH   5   6
ENDBRANCH   4   5
ENDBRANCH   3   4
ENDBRANCH   2   3
ENDBRANCH   1   2
BRANCH   1  10
ATOM     10  C   UNL     1      30.013  -9.253  21.140  1.00  0.00     0.000 C 
BRANCH  10  11
ATOM     11  C   UNL     1      28.855  -9.914  21.904  1.00  0.00    -0.000 C 
BRANCH  11  12
ATOM     12  C   UNL     1      28.311 -11.125  21.136  1.00  0.00    -0.000 C 
BRANCH  12  13
ATOM     13  C   UNL     1      26.891 -10.857  20.619  1.00  0.00    -0.000 C 
BRANCH  13  14
ATOM     14  C   UNL     1      26.485 -11.793  19.466  1.00  0.00    -0.000 C 
BRANCH  14  15
ATOM     15  C   UNL     1      27.255 -13.124  19.414  1.00  0.00    -0.003 C 
ATOM     16  C   UNL     1      27.319 -13.724  18.009  1.00  0.00     0.004 C 
ENDBRANCH  14  15
ENDBRANCH  13  14
ENDBRANCH  12  13
ENDBRANCH  11  12
ENDBRANCH  10  11
ENDBRANCH   1  10
TORSDOF 12
ENDMDL
MODEL 6
REMARK VINA RESULT:    -5.974      5.011      6.398
REMARK INTER + INTRA:         -10.739
REMARK INTER:                  -9.347
REMARK INTRA:                  -1.391
REMARK UNBOUND:                -0.573
REMARK SMILES CCCCCCCCCCCCCC(=O)[O-]
REMARK SMILES IDX 8 1 9 2 10 3 11 4 12 5 13 6 14 7 15 8 16 9 7 10 6 11 5 12
REMARK SMILES IDX 4 13 3 14 2 15 1 16
REMARK H PARENT
REMARK Flexibility Score: inf
ROOT
ATOM      1  C   UNL     1      30.230  -8.331  21.826  1.00  0.00     0.000 C 
ENDROOT
BRANCH   1   2
ATOM      2  C   UNL     1      29.255  -7.736  22.852  1.00  0.00     0.000 C 
BRANCH   2   3
ATOM      3  C   UNL     1      28.516  -6.525  22.269  1.00  0.00     0.000 C 
BRANCH   3   4
ATOM      4  C   UNL     1      27.005  -6.785  22.192  1.00  0.00     0.000 C 
BRANCH   4   5
ATOM      5  C   UNL     1      26.519  -7.100  20.766  1.00  0.00     0.006 C 
BRANCH   5   6
ATOM      6  C   UNL     1      27.555  -6.795  19.670  1.00  0.00     0.053 C 
BRANCH   6   7
ATOM      7  C   UNL     1      27.311  -5.478  18.999  1.00  0.00     0.041 C 
ATOM      8  O   UNL     1      27.859  -5.220  17.894  1.00  0.00    -0.550 OA
ATOM      9  O   UNL     1      26.509  -4.520  19.606  1.00  0.00    -0.550 OA
ENDBRANCH   6   7
ENDBRANCH   5   6
ENDBRANCH   4   5
ENDBRANCH   3   4
ENDBRANCH   2   3
ENDBRANCH   1   2
BRANCH   1  10
ATOM     10  C   UNL     1      29.699  -9.624  21.185  1.00  0.00     0.000 C 
BRANCH  10  11
ATOM     11  C   UNL     1      28.712 -10.373  22.093  1.00  0.00    -0.000 C 
BRANCH  11  12
ATOM     12  C   UNL     1      27.372 -10.596  21.382  1.00  0.00    -0.000 C 
BRANCH  12  13
ATOM     13  C   UNL     1      27.533 -11.548  20.188  1.00  0.00    -0.000 C 
BRANCH  13  14
ATOM     14  C   UNL     1      26.252 -11.673  19.343  1.00  0.00    -0.000 C 
BRANCH  14  15
ATOM     15  C   UNL     1      26.352 -12.651  18.159  1.00  0.00    -0.003 C 
ATOM     16  C   UNL     1      27.409 -13.735  18.365  1.00  0.00     0.004 C 
ENDBRANCH  14  15
ENDBRANCH  13  14
ENDBRANCH  12  13
ENDBRANCH  11  12
ENDBRANCH  10  11
ENDBRANCH   1  10
TORSDOF 12
ENDMDL
MODEL 7
REMARK VINA RESULT:    -5.902      4.338      8.553
REMARK INTER + INTRA:         -10.615
REMARK INTER:                 -10.032
REMARK INTRA:                  -0.583
REMARK UNBOUND:                -0.573
REMARK SMILES CCCCCCCCCCCCCC(=O)[O-]
REMARK SMILES IDX 8 1 9 2 10 3 11 4 12 5 13 6 14 7 15 8 16 9 7 10 6 11 5 12
REMARK SMILES IDX 4 13 3 14 2 15 1 16
REMARK H PARENT
REMARK Flexibility Score: inf
ROOT
ATOM      1  C   UNL     1      32.551  -8.869  21.447  1.00  0.00     0.000 C 
ENDROOT
BRANCH   1   2
ATOM      2  C   UNL     1      31.165  -8.863  22.109  1.00  0.00     0.000 C 
BRANCH   2   3
ATOM      3  C   UNL     1      30.090  -9.358  21.135  1.00  0.00     0.000 C 
BRANCH   3   4
ATOM      4  C   UNL     1      28.697  -9.308  21.779  1.00  0.00     0.000 C 
BRANCH   4   5
ATOM      5  C   UNL     1      28.049 -10.696  21.925  1.00  0.00     0.006 C 
BRANCH   5   6
ATOM      6  C   UNL     1      28.126 -11.559  20.653  1.00  0.00     0.053 C 
BRANCH   6   7
ATOM      7  C   UNL     1      26.838 -11.574  19.888  1.00  0.00     0.041 C 
ATOM      8  O   UNL     1      25.916 -10.768  20.186  1.00  0.00    -0.550 OA
ATOM      9  O   UNL     1      26.640 -12.497  18.870  1.00  0.00    -0.550 OA
ENDBRANCH   6   7
ENDBRANCH   5   6
ENDBRANCH   4   5
ENDBRANCH   3   4
ENDBRANCH   2   3
ENDBRANCH   1   2
BRANCH   1  10
ATOM     10  C   UNL     1      32.493  -9.222  19.952  1.00  0.00     0.000 C 
BRANCH  10  11
ATOM     11  C   UNL     1      33.796  -9.858  19.443  1.00  0.00    -0.000 C 
BRANCH  11  12
ATOM     12  C   UNL     1      34.881  -9.828  20.525  1.00  0.00    -0.000 C 
BRANCH  12  13
ATOM     13  C   UNL     1      35.988 -10.849  20.225  1.00  0.00    -0.000 C 
BRANCH  13  14
ATOM     14  C   UNL     1      37.258 -10.622  21.064  1.00  0.00    -0.000 C 
BRANCH  14  15
ATOM     15  C   UNL     1      38.298 -11.753  20.981  1.00  0.00    -0.003 C 
ATOM     16  C   UNL     1      39.666 -11.274  20.493  1.00  0.00     0.004 C 
ENDBRANCH  14  15
ENDBRANCH  13  14
ENDBRANCH  12  13
ENDBRANCH  11  12
ENDBRANCH  10  11
ENDBRANCH   1  10
TORSDOF 12
ENDMDL
MODEL 8
REMARK VINA RESULT:    -5.876      5.706      7.978
REMARK INTER + INTRA:         -10.572
REMARK INTER:                  -9.180
REMARK INTRA:                  -1.391
REMARK UNBOUND:                -0.573
REMARK SMILES CCCCCCCCCCCCCC(=O)[O-]
REMARK SMILES IDX 8 1 9 2 10 3 11 4 12 5 13 6 14 7 15 8 16 9 7 10 6 11 5 12
REMARK SMILES IDX 4 13 3 14 2 15 1 16
REMARK H PARENT
REMARK Flexibility Score: inf
ROOT
ATOM      1  C   UNL     1      26.551  -9.467  19.390  1.00  0.00     0.000 C 
ENDROOT
BRANCH   1   2
ATOM      2  C   UNL     1      25.572  -8.334  19.733  1.00  0.00     0.000 C 
BRANCH   2   3
ATOM      3  C   UNL     1      25.851  -7.091  18.879  1.00  0.00     0.000 C 
BRANCH   3   4
ATOM      4  C   UNL     1      27.358  -6.895  18.665  1.00  0.00     0.000 C 
BRANCH   4   5
ATOM      5  C   UNL     1      27.722  -5.473  18.203  1.00  0.00     0.006 C 
BRANCH   5   6
ATOM      6  C   UNL     1      28.016  -4.497  19.355  1.00  0.00     0.053 C 
BRANCH   6   7
ATOM      7  C   UNL     1      26.977  -3.425  19.479  1.00  0.00     0.041 C 
ATOM      8  O   UNL     1      26.279  -3.337  20.525  1.00  0.00    -0.550 OA
ATOM      9  O   UNL     1      26.752  -2.542  18.430  1.00  0.00    -0.550 OA
ENDBRANCH   6   7
ENDBRANCH   5   6
ENDBRANCH   4   5
ENDBRANCH   3   4
ENDBRANCH   2   3
ENDBRANCH   1   2
BRANCH   1  10
ATOM     10  C   UNL     1      26.463 -10.645  20.375  1.00  0.00     0.000 C 
BRANCH  10  11
ATOM     11  C   UNL     1      27.845 -11.175  20.788  1.00  0.00    -0.000 C 
BRANCH  11  12
ATOM     12  C   UNL     1      28.415 -10.368  21.961  1.00  0.00    -0.000 C 
BRANCH  12  13
ATOM     13  C   UNL     1      29.591  -9.491  21.508  1.00  0.00    -0.000 C 
BRANCH  13  14
ATOM     14  C   UNL     1      29.603  -8.108  22.182  1.00  0.00    -0.000 C 
BRANCH  14  15
ATOM     15  C   UNL     1      28.226  -7.431  22.293  1.00  0.00    -0.003 C 
ATOM     16  C   UNL     1      27.999  -6.754  23.645  1.00  0.00     0.004 C 
ENDBRANCH  14  15
ENDBRANCH  13  14
ENDBRANCH  12  13
ENDBRANCH  11  12
ENDBRANCH  10  11
ENDBRANCH   1  10
TORSDOF 12
ENDMDL
MODEL 9
REMARK VINA RESULT:    -5.859      1.594      2.096
REMARK INTER + INTRA:         -10.542
REMARK INTER:                 -10.100
REMARK INTRA:                  -0.442
REMARK UNBOUND:                -0.573
REMARK SMILES CCCCCCCCCCCCCC(=O)[O-]
REMARK SMILES IDX 8 1 9 2 10 3 11 4 12 5 13 6 14 7 15 8 16 9 7 10 6 11 5 12
REMARK SMILES IDX 4 13 3 14 2 15 1 16
REMARK H PARENT
REMARK Flexibility Score: inf
ROOT
ATOM      1  C   UNL     1      31.855  -8.964  21.802  1.00  0.00     0.000 C 
ENDROOT
BRANCH   1   2
ATOM      2  C   UNL     1      33.159  -8.291  21.350  1.00  0.00     0.000 C 
BRANCH   2   3
ATOM      3  C   UNL     1      34.111  -9.309  20.713  1.00  0.00     0.000 C 
BRANCH   3   4
ATOM      4  C   UNL     1      35.559  -9.068  21.164  1.00  0.00     0.000 C 
BRANCH   4   5
ATOM      5  C   UNL     1      35.658  -8.389  22.541  1.00  0.00     0.006 C 
BRANCH   5   6
ATOM      6  C   UNL     1      37.098  -8.083  22.987  1.00  0.00     0.053 C 
BRANCH   6   7
ATOM      7  C   UNL     1      37.202  -6.803  23.758  1.00  0.00     0.041 C 
ATOM      8  O   UNL     1      38.296  -6.179  23.804  1.00  0.00    -0.550 OA
ATOM      9  O   UNL     1      36.104  -6.314  24.454  1.00  0.00    -0.550 OA
ENDBRANCH   6   7
ENDBRANCH   5   6
ENDBRANCH   4   5
ENDBRANCH   3   4
ENDBRANCH   2   3
ENDBRANCH   1   2
BRANCH   1  10
ATOM     10  C   UNL     1      30.872  -9.191  20.642  1.00  0.00     0.000 C 
BRANCH  10  11
ATOM     11  C   UNL     1      29.406  -9.003  21.063  1.00  0.00    -0.000 C 
BRANCH  11  12
ATOM     12  C   UNL     1      28.856 -10.274  21.721  1.00  0.00    -0.000 C 
BRANCH  12  13
ATOM     13  C   UNL     1      27.602 -10.776  20.990  1.00  0.00    -0.000 C 
BRANCH  13  14
ATOM     14  C   UNL     1      27.830 -12.108  20.253  1.00  0.00    -0.000 C 
BRANCH  14  15
ATOM     15  C   UNL     1      26.745 -12.470  19.224  1.00  0.00    -0.003 C 
ATOM     16  C   UNL     1      27.151 -13.622  18.305  1.00  0.00     0.004 C 
ENDBRANCH  14  15
ENDBRANCH  13  14
ENDBRANCH  12  13
ENDBRANCH  11  12
ENDBRANCH  10  11
ENDBRANCH   1  10
TORSDOF 12
ENDMDL
