MODEL 1
REMARK VINA RESULT:    -4.594      0.000      0.000
REMARK INTER + INTRA:          -6.383
REMARK INTER:                  -5.937
REMARK INTRA:                  -0.446
REMARK UNBOUND:                -0.446
REMARK SMILES CCO[C@@H]1O[C@H](CO)[C@@H](O)[C@H](O)[C@@H]1O
REMARK SMILES IDX 4 1 13 2 11 3 9 4 6 5 5 6 3 7 2 8 1 9 14 10 12 12 7 14 8 15
REMARK SMILES IDX 10 17
REMARK H PARENT 14 11 12 13 8 16 10 18
REMARK Flexibility Score: inf
ROOT
ATOM      1  C   UNL     1      13.370  -5.235  38.238  1.00  0.00     0.281 C 
ATOM      2  C   UNL     1      13.969  -4.142  37.304  1.00  0.00     0.202 C 
ATOM      3  C   UNL     1      12.977  -3.735  36.175  1.00  0.00     0.179 C 
ATOM      4  C   UNL     1      11.520  -3.885  36.648  1.00  0.00     0.177 C 
ATOM      5  C   UNL     1      11.239  -5.316  37.210  1.00  0.00     0.178 C 
ATOM      6  O   UNL     1      12.416  -6.043  37.562  1.00  0.00    -0.341 OA
ENDROOT
BRANCH   1   7
ATOM      7  O   UNL     1      14.392  -6.036  38.824  1.00  0.00    -0.350 OA
BRANCH   7   8
ATOM      8  C   UNL     1      14.038  -7.410  38.929  1.00  0.00     0.160 C 
ATOM      9  C   UNL     1      15.229  -8.287  38.558  1.00  0.00     0.035 C 
ENDBRANCH   7   8
ENDBRANCH   1   7
BRANCH   2  10
ATOM     10  O   UNL     1      15.225  -4.525  36.783  1.00  0.00    -0.385 OA
ATOM     11  H   UNL     1      15.659  -3.701  36.440  1.00  0.00     0.211 HD
ENDBRANCH   2  10
BRANCH   3  12
ATOM     12  O   UNL     1      13.174  -4.431  34.960  1.00  0.00    -0.387 OA
ATOM     13  H   UNL     1      13.160  -3.767  34.218  1.00  0.00     0.211 HD
ENDBRANCH   3  12
BRANCH   5  14
ATOM     14  C   UNL     1      10.408  -6.177  36.232  1.00  0.00     0.191 C 
BRANCH  14  15
ATOM     15  O   UNL     1      11.200  -6.734  35.214  1.00  0.00    -0.394 OA
ATOM     16  H   UNL     1      10.780  -7.595  34.962  1.00  0.00     0.210 HD
ENDBRANCH  14  15
ENDBRANCH   5  14
BRANCH   4  17
ATOM     17  O   UNL     1      11.261  -2.937  37.659  1.00  0.00    -0.387 OA
ATOM     18  H   UNL     1      10.409  -3.202  38.100  1.00  0.00     0.211 HD
ENDBRANCH   4  17
TORSDOF 7
ENDMDL
MODEL 2
REMARK VINA RESULT:    -4.387      2.918      5.608
REMARK INTER + INTRA:          -6.115
REMARK INTER:                  -5.739
REMARK INTRA:                  -0.377
REMARK UNBOUND:                -0.446
REMARK SMILES CCO[C@@H]1O[C@H](CO)[C@@H](O)[C@H](O)[C@@H]1O
REMARK SMILES IDX 4 1 13 2 11 3 9 4 6 5 5 6 3 7 2 8 1 9 14 10 12 12 7 14 8 15
REMARK SMILES IDX 10 17
REMARK H PARENT 14 11 12 13 8 16 10 18
REMARK Flexibility Score: inf
ROOT
ATOM      1  C   UNL     1       8.785  -5.382  35.345  1.00  0.00     0.281 C 
ATOM      2  C   UNL     1       9.806  -5.449  34.172  1.00  0.00     0.202 C 
ATOM      3  C   UNL     1      11.166  -4.790  34.547  1.00  0.00     0.179 C 
ATOM      4  C   UNL     1      11.442  -4.925  36.055  1.00  0.00     0.177 C 
ATOM      5  C   UNL     1      10.252  -4.382  36.911  1.00  0.00     0.178 C 
ATOM      6  O   UNL     1       9.025  -4.266  36.191  1.00  0.00    -0.341 OA
ENDROOT
BRANCH   1   7
ATOM      7  O   UNL     1       7.443  -5.379  34.867  1.00  0.00    -0.350 OA
BRANCH   7   8
ATOM      8  C   UNL     1       6.528  -4.757  35.762  1.00  0.00     0.160 C 
ATOM      9  C   UNL     1       5.223  -5.544  35.808  1.00  0.00     0.035 C 
ENDBRANCH   7   8
ENDBRANCH   1   7
BRANCH   2  10
ATOM     10  O   UNL     1       9.275  -4.911  32.979  1.00  0.00    -0.385 OA
ATOM     11  H   UNL     1       8.334  -4.657  33.171  1.00  0.00     0.211 HD
ENDBRANCH   2  10
BRANCH   3  12
ATOM     12  O   UNL     1      11.277  -3.438  34.146  1.00  0.00    -0.387 OA
ATOM     13  H   UNL     1      10.488  -2.944  34.502  1.00  0.00     0.211 HD
ENDBRANCH   3  12
BRANCH   5  14
ATOM     14  C   UNL     1      10.570  -3.015  37.557  1.00  0.00     0.191 C 
BRANCH  14  15
ATOM     15  O   UNL     1      11.779  -2.476  37.087  1.00  0.00    -0.394 OA
ATOM     16  H   UNL     1      11.760  -2.549  36.099  1.00  0.00     0.210 HD
ENDBRANCH  14  15
ENDBRANCH   5  14
BRANCH   4  17
ATOM     17  O   UNL     1      11.648  -6.284  36.367  1.00  0.00    -0.387 OA
ATOM     18  H   UNL     1      10.775  -6.748  36.253  1.00  0.00     0.211 HD
ENDBRANCH   4  17
TORSDOF 7
ENDMDL
MODEL 3
REMARK VINA RESULT:    -4.234      1.609      1.985
REMARK INTER + INTRA:          -5.917
REMARK INTER:                  -5.535
REMARK INTRA:                  -0.382
REMARK UNBOUND:                -0.446
REMARK SMILES CCO[C@@H]1O[C@H](CO)[C@@H](O)[C@H](O)[C@@H]1O
REMARK SMILES IDX 4 1 13 2 11 3 9 4 6 5 5 6 3 7 2 8 1 9 14 10 12 12 7 14 8 15
REMARK SMILES IDX 10 17
REMARK H PARENT 14 11 12 13 8 16 10 18
REMARK Flexibility Score: inf
ROOT
ATOM      1  C   UNL     1      11.995  -5.731  37.870  1.00  0.00     0.281 C 
ATOM      2  C   UNL     1      13.293  -4.872  37.913  1.00  0.00     0.202 C 
ATOM      3  C   UNL     1      13.313  -3.792  36.791  1.00  0.00     0.179 C 
ATOM      4  C   UNL     1      11.884  -3.337  36.444  1.00  0.00     0.177 C 
ATOM      5  C   UNL     1      10.960  -4.550  36.099  1.00  0.00     0.178 C 
ATOM      6  O   UNL     1      11.456  -5.807  36.557  1.00  0.00    -0.341 OA
ENDROOT
BRANCH   1   7
ATOM      7  O   UNL     1      12.215  -7.032  38.406  1.00  0.00    -0.350 OA
BRANCH   7   8
ATOM      8  C   UNL     1      11.597  -8.065  37.647  1.00  0.00     0.160 C 
ATOM      9  C   UNL     1      11.924  -9.426  38.251  1.00  0.00     0.035 C 
ENDBRANCH   7   8
ENDBRANCH   1   7
BRANCH   2  10
ATOM     10  O   UNL     1      14.456  -5.672  37.890  1.00  0.00    -0.385 OA
ATOM     11  H   UNL     1      15.184  -5.113  37.510  1.00  0.00     0.211 HD
ENDBRANCH   2  10
BRANCH   3  12
ATOM     12  O   UNL     1      13.999  -4.195  35.621  1.00  0.00    -0.387 OA
ATOM     13  H   UNL     1      13.452  -3.925  34.834  1.00  0.00     0.211 HD
ENDBRANCH   3  12
BRANCH   5  14
ATOM     14  C   UNL     1      10.679  -4.659  34.583  1.00  0.00     0.191 C 
BRANCH  14  15
ATOM     15  O   UNL     1      11.434  -3.739  33.837  1.00  0.00    -0.394 OA
ATOM     16  H   UNL     1      12.372  -3.821  34.146  1.00  0.00     0.210 HD
ENDBRANCH  14  15
ENDBRANCH   5  14
BRANCH   4  17
ATOM     17  O   UNL     1      11.338  -2.645  37.545  1.00  0.00    -0.387 OA
ATOM     18  H   UNL     1      11.540  -3.182  38.359  1.00  0.00     0.211 HD
ENDBRANCH   4  17
TORSDOF 7
ENDMDL
MODEL 4
REMARK VINA RESULT:    -4.220      2.212      4.219
REMARK INTER + INTRA:          -5.899
REMARK INTER:                  -5.727
REMARK INTRA:                  -0.171
REMARK UNBOUND:                -0.446
REMARK SMILES CCO[C@@H]1O[C@H](CO)[C@@H](O)[C@H](O)[C@@H]1O
REMARK SMILES IDX 4 1 13 2 11 3 9 4 6 5 5 6 3 7 2 8 1 9 14 10 12 12 7 14 8 15
REMARK SMILES IDX 10 17
REMARK H PARENT 14 11 12 13 8 16 10 18
REMARK Flexibility Score: inf
ROOT
ATOM      1  C   UNL     1      11.030  -5.705  35.595  1.00  0.00     0.281 C 
ATOM      2  C   UNL     1      11.056  -6.205  37.070  1.00  0.00     0.202 C 
ATOM      3  C   UNL     1      11.494  -5.082  38.055  1.00  0.00     0.179 C 
ATOM      4  C   UNL     1      11.075  -3.697  37.529  1.00  0.00     0.177 C 
ATOM      5  C   UNL     1      11.588  -3.455  36.072  1.00  0.00     0.178 C 
ATOM      6  O   UNL     1      11.955  -4.647  35.379  1.00  0.00    -0.341 OA
ENDROOT
BRANCH   1   7
ATOM      7  O   UNL     1      11.257  -6.774  34.680  1.00  0.00    -0.350 OA
BRANCH   7   8
ATOM      8  C   UNL     1      10.055  -7.348  34.179  1.00  0.00     0.160 C 
ATOM      9  C   UNL     1      10.361  -8.659  33.463  1.00  0.00     0.035 C 
ENDBRANCH   7   8
ENDBRANCH   1   7
BRANCH   2  10
ATOM     10  O   UNL     1      11.843  -7.368  37.218  1.00  0.00    -0.385 OA
ATOM     11  H   UNL     1      12.699  -7.200  36.745  1.00  0.00     0.211 HD
ENDBRANCH   2  10
BRANCH   3  12
ATOM     12  O   UNL     1      12.875  -5.095  38.361  1.00  0.00    -0.387 OA
ATOM     13  H   UNL     1      13.346  -4.533  37.687  1.00  0.00     0.211 HD
ENDBRANCH   3  12
BRANCH   5  14
ATOM     14  C   UNL     1      12.783  -2.477  36.026  1.00  0.00     0.191 C 
BRANCH  14  15
ATOM     15  O   UNL     1      12.610  -1.389  36.898  1.00  0.00    -0.394 OA
ATOM     16  H   UNL     1      11.793  -0.912  36.603  1.00  0.00     0.210 HD
ENDBRANCH  14  15
ENDBRANCH   5  14
BRANCH   4  17
ATOM     17  O   UNL     1       9.669  -3.604  37.541  1.00  0.00    -0.387 OA
ATOM     18  H   UNL     1       9.435  -2.753  38.002  1.00  0.00     0.211 HD
ENDBRANCH   4  17
TORSDOF 7
ENDMDL
MODEL 5
REMARK VINA RESULT:    -4.186      3.693      5.551
REMARK INTER + INTRA:          -5.855
REMARK INTER:                  -5.435
REMARK INTRA:                  -0.420
REMARK UNBOUND:                -0.446
REMARK SMILES CCO[C@@H]1O[C@H](CO)[C@@H](O)[C@H](O)[C@@H]1O
REMARK SMILES IDX 4 1 13 2 11 3 9 4 6 5 5 6 3 7 2 8 1 9 14 10 12 12 7 14 8 15
REMARK SMILES IDX 10 17
REMARK H PARENT 14 11 12 13 8 16 10 18
REMARK Flexibility Score: inf
ROOT
ATOM      1  C   UNL     1       8.979  -3.765  36.912  1.00  0.00     0.281 C 
ATOM      2  C   UNL     1       7.772  -3.945  35.944  1.00  0.00     0.202 C 
ATOM      3  C   UNL     1       8.186  -4.668  34.628  1.00  0.00     0.179 C 
ATOM      4  C   UNL     1       9.353  -5.639  34.882  1.00  0.00     0.177 C 
ATOM      5  C   UNL     1      10.555  -4.927  35.581  1.00  0.00     0.178 C 
ATOM      6  O   UNL     1      10.213  -3.692  36.210  1.00  0.00    -0.341 OA
ENDROOT
BRANCH   1   7
ATOM      7  O   UNL     1       8.805  -2.630  37.755  1.00  0.00    -0.350 OA
BRANCH   7   8
ATOM      8  C   UNL     1      10.025  -1.967  38.063  1.00  0.00     0.160 C 
ATOM      9  C   UNL     1       9.742  -0.681  38.832  1.00  0.00     0.035 C 
ENDBRANCH   7   8
ENDBRANCH   1   7
BRANCH   2  10
ATOM     10  O   UNL     1       7.118  -2.721  35.685  1.00  0.00    -0.385 OA
ATOM     11  H   UNL     1       7.761  -2.148  35.191  1.00  0.00     0.211 HD
ENDBRANCH   2  10
BRANCH   3  12
ATOM     12  O   UNL     1       8.499  -3.789  33.565  1.00  0.00    -0.387 OA
ATOM     13  H   UNL     1       7.940  -2.971  33.666  1.00  0.00     0.211 HD
ENDBRANCH   3  12
BRANCH   5  14
ATOM     14  C   UNL     1      11.730  -4.671  34.611  1.00  0.00     0.191 C 
BRANCH  14  15
ATOM     15  O   UNL     1      11.520  -3.534  33.814  1.00  0.00    -0.394 OA
ATOM     16  H   UNL     1      10.559  -3.304  33.891  1.00  0.00     0.210 HD
ENDBRANCH  14  15
ENDBRANCH   5  14
BRANCH   4  17
ATOM     17  O   UNL     1       8.906  -6.696  35.701  1.00  0.00    -0.387 OA
ATOM     18  H   UNL     1       9.474  -6.692  36.520  1.00  0.00     0.211 HD
ENDBRANCH   4  17
TORSDOF 7
ENDMDL
MODEL 6
REMARK VINA RESULT:    -4.111     13.372     15.172
REMARK INTER + INTRA:          -5.758
REMARK INTER:                  -5.382
REMARK INTRA:                  -0.376
REMARK UNBOUND:                -0.446
REMARK SMILES CCO[C@@H]1O[C@H](CO)[C@@H](O)[C@H](O)[C@@H]1O
REMARK SMILES IDX 4 1 13 2 11 3 9 4 6 5 5 6 3 7 2 8 1 9 14 10 12 12 7 14 8 15
REMARK SMILES IDX 10 17
REMARK H PARENT 14 11 12 13 8 16 10 18
REMARK Flexibility Score: inf
ROOT
ATOM      1  C   UNL     1      19.948   2.948  27.826  1.00  0.00     0.281 C 
ATOM      2  C   UNL     1      20.108   2.455  26.358  1.00  0.00     0.202 C 
ATOM      3  C   UNL     1      19.683   3.545  25.330  1.00  0.00     0.179 C 
ATOM      4  C   UNL     1      19.937   4.955  25.891  1.00  0.00     0.177 C 
ATOM      5  C   UNL     1      19.265   5.150  27.288  1.00  0.00     0.178 C 
ATOM      6  O   UNL     1      18.926   3.929  27.945  1.00  0.00    -0.341 OA
ENDROOT
BRANCH   1   7
ATOM      7  O   UNL     1      19.716   1.861  28.717  1.00  0.00    -0.350 OA
BRANCH   7   8
ATOM      8  C   UNL     1      20.913   1.317  29.263  1.00  0.00     0.160 C 
ATOM      9  C   UNL     1      20.990  -0.177  28.967  1.00  0.00     0.035 C 
ENDBRANCH   7   8
ENDBRANCH   1   7
BRANCH   2  10
ATOM     10  O   UNL     1      19.434   1.234  26.135  1.00  0.00    -0.385 OA
ATOM     11  H   UNL     1      19.999   0.701  25.517  1.00  0.00     0.211 HD
ENDBRANCH   2  10
BRANCH   3  12
ATOM     12  O   UNL     1      18.344   3.424  24.888  1.00  0.00    -0.387 OA
ATOM     13  H   UNL     1      18.205   2.489  24.575  1.00  0.00     0.211 HD
ENDBRANCH   3  12
BRANCH   5  14
ATOM     14  C   UNL     1      17.998   6.031  27.212  1.00  0.00     0.191 C 
BRANCH  14  15
ATOM     15  O   UNL     1      17.155   5.654  26.154  1.00  0.00    -0.394 OA
ATOM     16  H   UNL     1      17.157   4.664  26.125  1.00  0.00     0.210 HD
ENDBRANCH  14  15
ENDBRANCH   5  14
BRANCH   4  17
ATOM     17  O   UNL     1      21.326   5.159  26.018  1.00  0.00    -0.387 OA
ATOM     18  H   UNL     1      21.606   5.749  25.267  1.00  0.00     0.211 HD
ENDBRANCH   4  17
TORSDOF 7
ENDMDL
MODEL 7
REMARK VINA RESULT:    -4.097      2.793      4.641
REMARK INTER + INTRA:          -5.741
REMARK INTER:                  -5.330
REMARK INTRA:                  -0.411
REMARK UNBOUND:                -0.446
REMARK SMILES CCO[C@@H]1O[C@H](CO)[C@@H](O)[C@H](O)[C@@H]1O
REMARK SMILES IDX 4 1 13 2 11 3 9 4 6 5 5 6 3 7 2 8 1 9 14 10 12 12 7 14 8 15
REMARK SMILES IDX 10 17
REMARK H PARENT 14 11 12 13 8 16 10 18
REMARK Flexibility Score: inf
ROOT
ATOM      1  C   UNL     1      10.532  -4.253  35.481  1.00  0.00     0.281 C 
ATOM      2  C   UNL     1      10.821  -5.689  34.953  1.00  0.00     0.202 C 
ATOM      3  C   UNL     1       9.523  -6.405  34.477  1.00  0.00     0.179 C 
ATOM      4  C   UNL     1       8.500  -5.386  33.945  1.00  0.00     0.177 C 
ATOM      5  C   UNL     1       8.217  -4.254  34.985  1.00  0.00     0.178 C 
ATOM      6  O   UNL     1       9.214  -4.136  36.000  1.00  0.00    -0.341 OA
ENDROOT
BRANCH   1   7
ATOM      7  O   UNL     1      11.497  -3.850  36.448  1.00  0.00    -0.350 OA
BRANCH   7   8
ATOM      8  C   UNL     1      12.568  -3.095  35.892  1.00  0.00     0.160 C 
ATOM      9  C   UNL     1      13.905  -3.661  36.360  1.00  0.00     0.035 C 
ENDBRANCH   7   8
ENDBRANCH   1   7
BRANCH   2  10
ATOM     10  O   UNL     1      11.530  -6.464  35.896  1.00  0.00    -0.385 OA
ATOM     11  H   UNL     1      11.650  -5.899  36.704  1.00  0.00     0.211 HD
ENDBRANCH   2  10
BRANCH   3  12
ATOM     12  O   UNL     1       8.930  -7.230  35.461  1.00  0.00    -0.387 OA
ATOM     13  H   UNL     1       9.601  -7.911  35.739  1.00  0.00     0.211 HD
ENDBRANCH   3  12
BRANCH   5  14
ATOM     14  C   UNL     1       6.841  -4.417  35.670  1.00  0.00     0.191 C 
BRANCH  14  15
ATOM     15  O   UNL     1       6.308  -5.703  35.486  1.00  0.00    -0.394 OA
ATOM     16  H   UNL     1       5.322  -5.615  35.536  1.00  0.00     0.210 HD
ENDBRANCH  14  15
ENDBRANCH   5  14
BRANCH   4  17
ATOM     17  O   UNL     1       8.998  -4.805  32.761  1.00  0.00    -0.387 OA
ATOM     18  H   UNL     1       8.910  -3.818  32.858  1.00  0.00     0.211 HD
ENDBRANCH   4  17
TORSDOF 7
ENDMDL
MODEL 8
REMARK VINA RESULT:    -4.087     15.430     16.695
REMARK INTER + INTRA:          -5.727
REMARK INTER:                  -5.551
REMARK INTRA:                  -0.176
REMARK UNBOUND:                -0.446
REMARK SMILES CCO[C@@H]1O[C@H](CO)[C@@H](O)[C@H](O)[C@@H]1O
REMARK SMILES IDX 4 1 13 2 11 3 9 4 6 5 5 6 3 7 2 8 1 9 14 10 12 12 7 14 8 15
REMARK SMILES IDX 10 17
REMARK H PARENT 14 11 12 13 8 16 10 18
REMARK Flexibility Score: inf
ROOT
ATOM      1  C   UNL     1      15.755 -11.972  21.524  1.00  0.00     0.281 C 
ATOM      2  C   UNL     1      14.616 -12.433  22.480  1.00  0.00     0.202 C 
ATOM      3  C   UNL     1      13.693 -11.249  22.896  1.00  0.00     0.179 C 
ATOM      4  C   UNL     1      13.628 -10.188  21.783  1.00  0.00     0.177 C 
ATOM      5  C   UNL     1      15.054  -9.718  21.350  1.00  0.00     0.178 C 
ATOM      6  O   UNL     1      16.101 -10.609  21.733  1.00  0.00    -0.341 OA
ENDROOT
BRANCH   1   7
ATOM      7  O   UNL     1      16.901 -12.811  21.638  1.00  0.00    -0.350 OA
BRANCH   7   8
ATOM      8  C   UNL     1      18.130 -12.107  21.502  1.00  0.00     0.160 C 
ATOM      9  C   UNL     1      19.302 -13.043  21.771  1.00  0.00     0.035 C 
ENDBRANCH   7   8
ENDBRANCH   1   7
BRANCH   2  10
ATOM     10  O   UNL     1      15.118 -13.125  23.603  1.00  0.00    -0.385 OA
ATOM     11  H   UNL     1      15.917 -13.630  23.298  1.00  0.00     0.211 HD
ENDBRANCH   2  10
BRANCH   3  12
ATOM     12  O   UNL     1      14.051 -10.650  24.127  1.00  0.00    -0.387 OA
ATOM     13  H   UNL     1      14.126  -9.668  23.982  1.00  0.00     0.211 HD
ENDBRANCH   3  12
BRANCH   5  14
ATOM     14  C   UNL     1      15.394  -8.308  21.885  1.00  0.00     0.191 C 
BRANCH  14  15
ATOM     15  O   UNL     1      16.777  -8.061  21.883  1.00  0.00    -0.394 OA
ATOM     16  H   UNL     1      17.168  -8.616  22.605  1.00  0.00     0.210 HD
ENDBRANCH  14  15
ENDBRANCH   5  14
BRANCH   4  17
ATOM     17  O   UNL     1      12.966 -10.732  20.664  1.00  0.00    -0.387 OA
ATOM     18  H   UNL     1      12.804  -9.984  20.026  1.00  0.00     0.211 HD
ENDBRANCH   4  17
TORSDOF 7
ENDMDL
MODEL 9
REMARK VINA RESULT:    -4.005      2.168      4.940
REMARK INTER + INTRA:          -5.622
REMARK INTER:                  -5.137
REMARK INTRA:                  -0.485
REMARK UNBOUND:                -0.446
REMARK SMILES CCO[C@@H]1O[C@H](CO)[C@@H](O)[C@H](O)[C@@H]1O
REMARK SMILES IDX 4 1 13 2 11 3 9 4 6 5 5 6 3 7 2 8 1 9 14 10 12 12 7 14 8 15
REMARK SMILES IDX 10 17
REMARK H PARENT 14 11 12 13 8 16 10 18
REMARK Flexibility Score: inf
ROOT
ATOM      1  C   UNL     1       9.618  -4.528  37.649  1.00  0.00     0.281 C 
ATOM      2  C   UNL     1       9.988  -6.040  37.593  1.00  0.00     0.202 C 
ATOM      3  C   UNL     1      11.432  -6.264  37.056  1.00  0.00     0.179 C 
ATOM      4  C   UNL     1      12.342  -5.077  37.420  1.00  0.00     0.177 C 
ATOM      5  C   UNL     1      11.729  -3.717  36.952  1.00  0.00     0.178 C 
ATOM      6  O   UNL     1      10.330  -3.773  36.678  1.00  0.00    -0.341 OA
ENDROOT
BRANCH   1   7
ATOM      7  O   UNL     1       8.213  -4.331  37.517  1.00  0.00    -0.350 OA
BRANCH   7   8
ATOM      8  C   UNL     1       7.873  -3.334  36.561  1.00  0.00     0.160 C 
ATOM      9  C   UNL     1       6.946  -3.920  35.501  1.00  0.00     0.035 C 
ENDBRANCH   7   8
ENDBRANCH   1   7
BRANCH   2  10
ATOM     10  O   UNL     1       9.037  -6.788  36.866  1.00  0.00    -0.385 OA
ATOM     11  H   UNL     1       9.259  -7.746  37.001  1.00  0.00     0.211 HD
ENDBRANCH   2  10
BRANCH   3  12
ATOM     12  O   UNL     1      11.493  -6.524  35.667  1.00  0.00    -0.387 OA
ATOM     13  H   UNL     1      12.417  -6.825  35.449  1.00  0.00     0.211 HD
ENDBRANCH   3  12
BRANCH   5  14
ATOM     14  C   UNL     1      12.448  -3.147  35.708  1.00  0.00     0.191 C 
BRANCH  14  15
ATOM     15  O   UNL     1      12.104  -3.840  34.536  1.00  0.00    -0.394 OA
ATOM     16  H   UNL     1      11.468  -4.553  34.800  1.00  0.00     0.210 HD
ENDBRANCH  14  15
ENDBRANCH   5  14
BRANCH   4  17
ATOM     17  O   UNL     1      12.521  -5.042  38.817  1.00  0.00    -0.387 OA
ATOM     18  H   UNL     1      13.412  -4.632  38.989  1.00  0.00     0.211 HD
ENDBRANCH   4  17
TORSDOF 7
ENDMDL
