MODEL 1
REMARK VINA RESULT:    -3.650      0.000      0.000
REMARK INTER + INTRA:         -12.029
REMARK INTER:                  -8.345
REMARK INTRA:                  -3.684
REMARK UNBOUND:                -3.684
REMARK SMILES CCCCCCCCCCCCCCCCCCCCCCCC(=O)[O-]
REMARK SMILES IDX 13 1 14 2 15 3 16 4 17 5 18 6 19 7 20 8 21 9 22 10 23 11
REMARK SMILES IDX 24 12 25 13 26 14 12 15 11 16 10 17 9 18 8 19 7 20 6 21 5 22
REMARK SMILES IDX 4 23 3 24 2 25 1 26
REMARK H PARENT
REMARK Flexibility Score: inf
ROOT
ATOM      1  C   UNL     1      -5.263  -1.260   0.825  1.00  0.00     0.000 C 
ENDROOT
BRANCH   1   2
ATOM      2  C   UNL     1      -6.417  -2.100   0.239  1.00  0.00     0.000 C 
BRANCH   2   3
ATOM      3  C   UNL     1      -7.657  -2.232   1.146  1.00  0.00     0.000 C 
BRANCH   3   4
ATOM      4  C   UNL     1      -8.951  -1.624   0.574  1.00  0.00     0.000 C 
BRANCH   4   5
ATOM      5  C   UNL     1      -8.771  -1.082  -0.853  1.00  0.00     0.000 C 
BRANCH   5   6
ATOM      6  C   UNL     1      -9.833  -1.615  -1.829  1.00  0.00     0.000 C 
BRANCH   6   7
ATOM      7  C   UNL     1      -9.568  -3.070  -2.258  1.00  0.00     0.000 C 
BRANCH   7   8
ATOM      8  C   UNL     1      -9.022  -3.170  -3.691  1.00  0.00     0.000 C 
BRANCH   8   9
ATOM      9  C   UNL     1      -7.740  -4.011  -3.776  1.00  0.00     0.000 C 
BRANCH   9  10
ATOM     10  C   UNL     1      -7.054  -4.107  -2.404  1.00  0.00     0.006 C 
BRANCH  10  11
ATOM     11  C   UNL     1      -5.612  -4.622  -2.510  1.00  0.00     0.053 C 
BRANCH  11  12
ATOM     12  C   UNL     1      -5.564  -6.106  -2.714  1.00  0.00     0.041 C 
ATOM     13  O   UNL     1      -6.280  -6.866  -2.009  1.00  0.00    -0.550 OA
ATOM     14  O   UNL     1      -4.753  -6.646  -3.704  1.00  0.00    -0.550 OA
ENDBRANCH  11  12
ENDBRANCH  10  11
ENDBRANCH   9  10
ENDBRANCH   8   9
ENDBRANCH   7   8
ENDBRANCH   6   7
ENDBRANCH   5   6
ENDBRANCH   4   5
ENDBRANCH   3   4
ENDBRANCH   2   3
ENDBRANCH   1   2
BRANCH   1  15
ATOM     15  C   UNL     1      -5.293   0.233   0.452  1.00  0.00     0.000 C 
BRANCH  15  16
ATOM     16  C   UNL     1      -6.295   1.038   1.292  1.00  0.00     0.000 C 
BRANCH  16  17
ATOM     17  C   UNL     1      -7.159   1.942   0.400  1.00  0.00     0.000 C 
BRANCH  17  18
ATOM     18  C   UNL     1      -6.554   2.153  -1.000  1.00  0.00    -0.000 C 
BRANCH  18  19
ATOM     19  C   UNL     1      -6.477   3.621  -1.464  1.00  0.00    -0.000 C 
BRANCH  19  20
ATOM     20  C   UNL     1      -6.966   4.656  -0.436  1.00  0.00    -0.000 C 
BRANCH  20  21
ATOM     21  C   UNL     1      -5.813   5.394   0.261  1.00  0.00    -0.000 C 
BRANCH  21  22
ATOM     22  C   UNL     1      -5.839   5.146   1.776  1.00  0.00    -0.000 C 
BRANCH  22  23
ATOM     23  C   UNL     1      -4.584   4.416   2.278  1.00  0.00    -0.000 C 
BRANCH  23  24
ATOM     24  C   UNL     1      -3.481   4.334   1.209  1.00  0.00    -0.000 C 
BRANCH  24  25
ATOM     25  C   UNL     1      -3.091   2.886   0.875  1.00  0.00    -0.003 C 
ATOM     26  C   UNL     1      -2.966   2.641  -0.629  1.00  0.00     0.004 C 
ENDBRANCH  24  25
ENDBRANCH  23  24
ENDBRANCH  22  23
ENDBRANCH  21  22
ENDBRANCH  20  21
ENDBRANCH  19  20
ENDBRANCH  18  19
ENDBRANCH  17  18
ENDBRANCH  16  17
ENDBRANCH  15  16
ENDBRANCH   1  15
TORSDOF 22
ENDMDL
MODEL 2
REMARK VINA RESULT:    -3.645      5.469      9.343
REMARK INTER + INTRA:         -12.018
REMARK INTER:                  -9.780
REMARK INTRA:                  -2.238
REMARK UNBOUND:                -3.684
REMARK SMILES CCCCCCCCCCCCCCCCCCCCCCCC(=O)[O-]
REMARK SMILES IDX 13 1 14 2 15 3 16 4 17 5 18 6 19 7 20 8 21 9 22 10 23 11
REMARK SMILES IDX 24 12 25 13 26 14 12 15 11 16 10 17 9 18 8 19 7 20 6 21 5 22
REMARK SMILES IDX 4 23 3 24 2 25 1 26
REMARK H PARENT
REMARK Flexibility Score: inf
ROOT
ATOM      1  C   UNL     1      -5.235  -1.347   0.746  1.00  0.00     0.000 C 
ENDROOT
BRANCH   1   2
ATOM      2  C   UNL     1      -5.034   0.180   0.644  1.00  0.00     0.000 C 
BRANCH   2   3
ATOM      3  C   UNL     1      -6.204   0.953   0.005  1.00  0.00     0.000 C 
BRANCH   3   4
ATOM      4  C   UNL     1      -5.809   2.251  -0.723  1.00  0.00     0.000 C 
BRANCH   4   5
ATOM      5  C   UNL     1      -4.297   2.525  -0.667  1.00  0.00     0.000 C 
BRANCH   5   6
ATOM      6  C   UNL     1      -3.948   3.755   0.188  1.00  0.00     0.000 C 
BRANCH   6   7
ATOM      7  C   UNL     1      -3.365   3.377   1.562  1.00  0.00     0.000 C 
BRANCH   7   8
ATOM      8  C   UNL     1      -4.227   3.888   2.726  1.00  0.00     0.000 C 
BRANCH   8   9
ATOM      9  C   UNL     1      -5.555   3.127   2.855  1.00  0.00     0.000 C 
BRANCH   9  10
ATOM     10  C   UNL     1      -6.328   3.577   4.105  1.00  0.00     0.006 C 
BRANCH  10  11
ATOM     11  C   UNL     1      -5.624   4.724   4.842  1.00  0.00     0.053 C 
BRANCH  11  12
ATOM     12  C   UNL     1      -5.845   4.651   6.323  1.00  0.00     0.041 C 
ATOM     13  O   UNL     1      -7.006   4.493   6.783  1.00  0.00    -0.550 OA
ATOM     14  O   UNL     1      -4.763   4.729   7.192  1.00  0.00    -0.550 OA
ENDBRANCH  11  12
ENDBRANCH  10  11
ENDBRANCH   9  10
ENDBRANCH   8   9
ENDBRANCH   7   8
ENDBRANCH   6   7
ENDBRANCH   5   6
ENDBRANCH   4   5
ENDBRANCH   3   4
ENDBRANCH   2   3
ENDBRANCH   1   2
BRANCH   1  15
ATOM     15  C   UNL     1      -6.551  -1.869   0.143  1.00  0.00     0.000 C 
BRANCH  15  16
ATOM     16  C   UNL     1      -7.442  -2.574   1.176  1.00  0.00     0.000 C 
BRANCH  16  17
ATOM     17  C   UNL     1      -6.788  -2.561   2.566  1.00  0.00     0.000 C 
BRANCH  17  18
ATOM     18  C   UNL     1      -7.155  -3.795   3.410  1.00  0.00    -0.000 C 
BRANCH  18  19
ATOM     19  C   UNL     1      -6.258  -4.034   4.641  1.00  0.00    -0.000 C 
BRANCH  19  20
ATOM     20  C   UNL     1      -5.574  -5.412   4.691  1.00  0.00    -0.000 C 
BRANCH  20  21
ATOM     21  C   UNL     1      -4.041  -5.316   4.709  1.00  0.00    -0.000 C 
BRANCH  21  22
ATOM     22  C   UNL     1      -3.579  -3.872   4.465  1.00  0.00    -0.000 C 
BRANCH  22  23
ATOM     23  C   UNL     1      -2.733  -3.317   5.622  1.00  0.00    -0.000 C 
BRANCH  23  24
ATOM     24  C   UNL     1      -3.406  -3.512   6.991  1.00  0.00    -0.000 C 
BRANCH  24  25
ATOM     25  C   UNL     1      -3.869  -2.185   7.612  1.00  0.00    -0.003 C 
ATOM     26  C   UNL     1      -4.713  -2.388   8.872  1.00  0.00     0.004 C 
ENDBRANCH  24  25
ENDBRANCH  23  24
ENDBRANCH  22  23
ENDBRANCH  21  22
ENDBRANCH  20  21
ENDBRANCH  19  20
ENDBRANCH  18  19
ENDBRANCH  17  18
ENDBRANCH  16  17
ENDBRANCH  15  16
ENDBRANCH   1  15
TORSDOF 22
ENDMDL
MODEL 3
REMARK VINA RESULT:    -3.580      4.362      6.150
REMARK INTER + INTRA:         -11.868
REMARK INTER:                  -8.833
REMARK INTRA:                  -3.036
REMARK UNBOUND:                -3.684
REMARK SMILES CCCCCCCCCCCCCCCCCCCCCCCC(=O)[O-]
REMARK SMILES IDX 13 1 14 2 15 3 16 4 17 5 18 6 19 7 20 8 21 9 22 10 23 11
REMARK SMILES IDX 24 12 25 13 26 14 12 15 11 16 10 17 9 18 8 19 7 20 6 21 5 22
REMARK SMILES IDX 4 23 3 24 2 25 1 26
REMARK H PARENT
REMARK Flexibility Score: inf
ROOT
ATOM      1  C   UNL     1      -5.501  -1.548   0.708  1.00  0.00     0.000 C 
ENDROOT
BRANCH   1   2
ATOM      2  C   UNL     1      -6.880  -1.912   0.121  1.00  0.00     0.000 C 
BRANCH   2   3
ATOM      3  C   UNL     1      -7.844  -2.615   1.099  1.00  0.00     0.000 C 
BRANCH   3   4
ATOM      4  C   UNL     1      -7.496  -2.449   2.589  1.00  0.00     0.000 C 
BRANCH   4   5
ATOM      5  C   UNL     1      -7.280  -3.794   3.302  1.00  0.00     0.000 C 
BRANCH   5   6
ATOM      6  C   UNL     1      -6.005  -3.813   4.161  1.00  0.00     0.000 C 
BRANCH   6   7
ATOM      7  C   UNL     1      -5.611  -5.233   4.608  1.00  0.00     0.000 C 
BRANCH   7   8
ATOM      8  C   UNL     1      -4.089  -5.411   4.727  1.00  0.00     0.000 C 
BRANCH   8   9
ATOM      9  C   UNL     1      -3.325  -4.094   4.523  1.00  0.00     0.000 C 
BRANCH   9  10
ATOM     10  C   UNL     1      -2.367  -3.828   5.695  1.00  0.00     0.006 C 
BRANCH  10  11
ATOM     11  C   UNL     1      -2.841  -2.668   6.581  1.00  0.00     0.053 C 
BRANCH  11  12
ATOM     12  C   UNL     1      -4.016  -3.057   7.426  1.00  0.00     0.041 C 
ATOM     13  O   UNL     1      -5.126  -2.482   7.271  1.00  0.00    -0.550 OA
ATOM     14  O   UNL     1      -3.893  -4.076   8.362  1.00  0.00    -0.550 OA
ENDBRANCH  11  12
ENDBRANCH  10  11
ENDBRANCH   9  10
ENDBRANCH   8   9
ENDBRANCH   7   8
ENDBRANCH   6   7
ENDBRANCH   5   6
ENDBRANCH   4   5
ENDBRANCH   3   4
ENDBRANCH   2   3
ENDBRANCH   1   2
BRANCH   1  15
ATOM     15  C   UNL     1      -5.195  -0.040   0.759  1.00  0.00     0.000 C 
BRANCH  15  16
ATOM     16  C   UNL     1      -6.260   0.808   0.049  1.00  0.00     0.000 C 
BRANCH  16  17
ATOM     17  C   UNL     1      -6.849   1.859   1.002  1.00  0.00     0.000 C 
BRANCH  17  18
ATOM     18  C   UNL     1      -7.705   1.237   2.121  1.00  0.00    -0.000 C 
BRANCH  18  19
ATOM     19  C   UNL     1      -7.707   2.016   3.452  1.00  0.00    -0.000 C 
BRANCH  19  20
ATOM     20  C   UNL     1      -7.365   3.512   3.331  1.00  0.00    -0.000 C 
BRANCH  20  21
ATOM     21  C   UNL     1      -6.232   3.943   4.274  1.00  0.00    -0.000 C 
BRANCH  21  22
ATOM     22  C   UNL     1      -5.106   4.640   3.496  1.00  0.00    -0.000 C 
BRANCH  22  23
ATOM     23  C   UNL     1      -4.117   3.647   2.867  1.00  0.00    -0.000 C 
BRANCH  23  24
ATOM     24  C   UNL     1      -3.779   3.994   1.407  1.00  0.00    -0.000 C 
BRANCH  24  25
ATOM     25  C   UNL     1      -3.060   2.846   0.681  1.00  0.00    -0.003 C 
ATOM     26  C   UNL     1      -3.312   2.855  -0.828  1.00  0.00     0.004 C 
ENDBRANCH  24  25
ENDBRANCH  23  24
ENDBRANCH  22  23
ENDBRANCH  21  22
ENDBRANCH  20  21
ENDBRANCH  19  20
ENDBRANCH  18  19
ENDBRANCH  17  18
ENDBRANCH  16  17
ENDBRANCH  15  16
ENDBRANCH   1  15
TORSDOF 22
ENDMDL
MODEL 4
REMARK VINA RESULT:    -3.519      4.711      9.694
REMARK INTER + INTRA:         -11.729
REMARK INTER:                 -10.258
REMARK INTRA:                  -1.471
REMARK UNBOUND:                -3.684
REMARK SMILES CCCCCCCCCCCCCCCCCCCCCCCC(=O)[O-]
REMARK SMILES IDX 13 1 14 2 15 3 16 4 17 5 18 6 19 7 20 8 21 9 22 10 23 11
REMARK SMILES IDX 24 12 25 13 26 14 12 15 11 16 10 17 9 18 8 19 7 20 6 21 5 22
REMARK SMILES IDX 4 23 3 24 2 25 1 26
REMARK H PARENT
REMARK Flexibility Score: inf
ROOT
ATOM      1  C   UNL     1      -5.501  -1.557   0.872  1.00  0.00     0.000 C 
ENDROOT
BRANCH   1   2
ATOM      2  C   UNL     1      -5.672  -0.040   0.648  1.00  0.00     0.000 C 
BRANCH   2   3
ATOM      3  C   UNL     1      -7.073   0.399   0.176  1.00  0.00     0.000 C 
BRANCH   3   4
ATOM      4  C   UNL     1      -7.087   1.564  -0.830  1.00  0.00     0.000 C 
BRANCH   4   5
ATOM      5  C   UNL     1      -6.240   2.760  -0.365  1.00  0.00     0.000 C 
BRANCH   5   6
ATOM      6  C   UNL     1      -5.390   3.362  -1.496  1.00  0.00     0.000 C 
BRANCH   6   7
ATOM      7  C   UNL     1      -3.937   3.636  -1.066  1.00  0.00     0.000 C 
BRANCH   7   8
ATOM      8  C   UNL     1      -3.353   2.498  -0.214  1.00  0.00     0.000 C 
BRANCH   8   9
ATOM      9  C   UNL     1      -2.953   2.961   1.194  1.00  0.00     0.000 C 
BRANCH   9  10
ATOM     10  C   UNL     1      -3.746   4.211   1.607  1.00  0.00     0.006 C 
BRANCH  10  11
ATOM     11  C   UNL     1      -4.629   3.959   2.837  1.00  0.00     0.053 C 
BRANCH  11  12
ATOM     12  C   UNL     1      -4.550   5.089   3.818  1.00  0.00     0.041 C 
ATOM     13  O   UNL     1      -4.186   4.875   5.005  1.00  0.00    -0.550 OA
ATOM     14  O   UNL     1      -4.850   6.385   3.413  1.00  0.00    -0.550 OA
ENDBRANCH  11  12
ENDBRANCH  10  11
ENDBRANCH   9  10
ENDBRANCH   8   9
ENDBRANCH   7   8
ENDBRANCH   6   7
ENDBRANCH   5   6
ENDBRANCH   4   5
ENDBRANCH   3   4
ENDBRANCH   2   3
ENDBRANCH   1   2
BRANCH   1  15
ATOM     15  C   UNL     1      -5.647  -2.420  -0.395  1.00  0.00     0.000 C 
BRANCH  15  16
ATOM     16  C   UNL     1      -7.043  -3.047  -0.531  1.00  0.00     0.000 C 
BRANCH  16  17
ATOM     17  C   UNL     1      -7.152  -3.866  -1.826  1.00  0.00     0.000 C 
BRANCH  17  18
ATOM     18  C   UNL     1      -5.788  -4.372  -2.330  1.00  0.00    -0.000 C 
BRANCH  18  19
ATOM     19  C   UNL     1      -5.827  -5.715  -3.085  1.00  0.00    -0.000 C 
BRANCH  19  20
ATOM     20  C   UNL     1      -5.220  -6.908  -2.324  1.00  0.00    -0.000 C 
BRANCH  20  21
ATOM     21  C   UNL     1      -4.022  -7.533  -3.055  1.00  0.00    -0.000 C 
BRANCH  21  22
ATOM     22  C   UNL     1      -3.082  -8.236  -2.064  1.00  0.00    -0.000 C 
BRANCH  22  23
ATOM     23  C   UNL     1      -1.620  -7.787  -2.214  1.00  0.00    -0.000 C 
BRANCH  23  24
ATOM     24  C   UNL     1      -0.714  -8.350  -1.106  1.00  0.00    -0.000 C 
BRANCH  24  25
ATOM     25  C   UNL     1       0.519  -7.469  -0.850  1.00  0.00    -0.003 C 
ATOM     26  C   UNL     1       0.885  -7.386   0.632  1.00  0.00     0.004 C 
ENDBRANCH  24  25
ENDBRANCH  23  24
ENDBRANCH  22  23
ENDBRANCH  21  22
ENDBRANCH  20  21
ENDBRANCH  19  20
ENDBRANCH  18  19
ENDBRANCH  17  18
ENDBRANCH  16  17
ENDBRANCH  15  16
ENDBRANCH   1  15
TORSDOF 22
ENDMDL
MODEL 5
REMARK VINA RESULT:    -3.499      4.117      5.585
REMARK INTER + INTRA:         -11.683
REMARK INTER:                  -8.800
REMARK INTRA:                  -2.884
REMARK UNBOUND:                -3.684
REMARK SMILES CCCCCCCCCCCCCCCCCCCCCCCC(=O)[O-]
REMARK SMILES IDX 13 1 14 2 15 3 16 4 17 5 18 6 19 7 20 8 21 9 22 10 23 11
REMARK SMILES IDX 24 12 25 13 26 14 12 15 11 16 10 17 9 18 8 19 7 20 6 21 5 22
REMARK SMILES IDX 4 23 3 24 2 25 1 26
REMARK H PARENT
REMARK Flexibility Score: inf
ROOT
ATOM      1  C   UNL     1      -5.990  -2.111  -0.321  1.00  0.00     0.000 C 
ENDROOT
BRANCH   1   2
ATOM      2  C   UNL     1      -7.336  -2.839  -0.121  1.00  0.00     0.000 C 
BRANCH   2   3
ATOM      3  C   UNL     1      -8.272  -2.209   0.929  1.00  0.00     0.000 C 
BRANCH   3   4
ATOM      4  C   UNL     1      -8.727  -3.158   2.052  1.00  0.00     0.000 C 
BRANCH   4   5
ATOM      5  C   UNL     1      -8.070  -2.834   3.405  1.00  0.00     0.000 C 
BRANCH   5   6
ATOM      6  C   UNL     1      -6.632  -3.367   3.510  1.00  0.00     0.000 C 
BRANCH   6   7
ATOM      7  C   UNL     1      -6.297  -3.900   4.915  1.00  0.00     0.000 C 
BRANCH   7   8
ATOM      8  C   UNL     1      -4.932  -4.603   4.966  1.00  0.00     0.000 C 
BRANCH   8   9
ATOM      9  C   UNL     1      -3.806  -3.749   4.365  1.00  0.00     0.000 C 
BRANCH   9  10
ATOM     10  C   UNL     1      -2.443  -4.439   4.532  1.00  0.00     0.006 C 
BRANCH  10  11
ATOM     11  C   UNL     1      -2.583  -5.927   4.878  1.00  0.00     0.053 C 
BRANCH  11  12
ATOM     12  C   UNL     1      -1.671  -6.326   5.998  1.00  0.00     0.041 C 
ATOM     13  O   UNL     1      -2.109  -6.402   7.176  1.00  0.00    -0.550 OA
ATOM     14  O   UNL     1      -0.344  -6.644   5.735  1.00  0.00    -0.550 OA
ENDBRANCH  11  12
ENDBRANCH  10  11
ENDBRANCH   9  10
ENDBRANCH   8   9
ENDBRANCH   7   8
ENDBRANCH   6   7
ENDBRANCH   5   6
ENDBRANCH   4   5
ENDBRANCH   3   4
ENDBRANCH   2   3
ENDBRANCH   1   2
BRANCH   1  15
ATOM     15  C   UNL     1      -5.400  -1.478   0.952  1.00  0.00     0.000 C 
BRANCH  15  16
ATOM     16  C   UNL     1      -5.169   0.034   0.813  1.00  0.00     0.000 C 
BRANCH  16  17
ATOM     17  C   UNL     1      -6.220   0.668  -0.111  1.00  0.00     0.000 C 
BRANCH  17  18
ATOM     18  C   UNL     1      -7.010   1.801   0.570  1.00  0.00    -0.000 C 
BRANCH  18  19
ATOM     19  C   UNL     1      -7.126   1.686   2.103  1.00  0.00    -0.000 C 
BRANCH  19  20
ATOM     20  C   UNL     1      -6.762   2.963   2.882  1.00  0.00    -0.000 C 
BRANCH  20  21
ATOM     21  C   UNL     1      -5.246   3.182   2.993  1.00  0.00    -0.000 C 
BRANCH  21  22
ATOM     22  C   UNL     1      -4.846   4.551   2.424  1.00  0.00    -0.000 C 
BRANCH  22  23
ATOM     23  C   UNL     1      -3.938   4.437   1.189  1.00  0.00    -0.000 C 
BRANCH  23  24
ATOM     24  C   UNL     1      -3.241   3.069   1.093  1.00  0.00    -0.000 C 
BRANCH  24  25
ATOM     25  C   UNL     1      -3.048   2.608  -0.360  1.00  0.00    -0.003 C 
ATOM     26  C   UNL     1      -3.923   3.385  -1.345  1.00  0.00     0.004 C 
ENDBRANCH  24  25
ENDBRANCH  23  24
ENDBRANCH  22  23
ENDBRANCH  21  22
ENDBRANCH  20  21
ENDBRANCH  19  20
ENDBRANCH  18  19
ENDBRANCH  17  18
ENDBRANCH  16  17
ENDBRANCH  15  16
ENDBRANCH   1  15
TORSDOF 22
ENDMDL
MODEL 6
REMARK VINA RESULT:    -3.498      5.049      8.478
REMARK INTER + INTRA:         -11.681
REMARK INTER:                  -9.226
REMARK INTRA:                  -2.455
REMARK UNBOUND:                -3.684
REMARK SMILES CCCCCCCCCCCCCCCCCCCCCCCC(=O)[O-]
REMARK SMILES IDX 13 1 14 2 15 3 16 4 17 5 18 6 19 7 20 8 21 9 22 10 23 11
REMARK SMILES IDX 24 12 25 13 26 14 12 15 11 16 10 17 9 18 8 19 7 20 6 21 5 22
REMARK SMILES IDX 4 23 3 24 2 25 1 26
REMARK H PARENT
REMARK Flexibility Score: inf
ROOT
ATOM      1  C   UNL     1      -8.013  -4.664  -0.545  1.00  0.00     0.000 C 
ENDROOT
BRANCH   1   2
ATOM      2  C   UNL     1      -7.196  -3.382  -0.813  1.00  0.00     0.000 C 
BRANCH   2   3
ATOM      3  C   UNL     1      -7.973  -2.062  -0.639  1.00  0.00     0.000 C 
BRANCH   3   4
ATOM      4  C   UNL     1      -7.376  -1.084   0.389  1.00  0.00     0.000 C 
BRANCH   4   5
ATOM      5  C   UNL     1      -5.864  -1.281   0.588  1.00  0.00     0.000 C 
BRANCH   5   6
ATOM      6  C   UNL     1      -5.085   0.044   0.574  1.00  0.00     0.000 C 
BRANCH   6   7
ATOM      7  C   UNL     1      -5.850   1.175  -0.139  1.00  0.00     0.000 C 
BRANCH   7   8
ATOM      8  C   UNL     1      -4.958   2.390  -0.438  1.00  0.00     0.000 C 
BRANCH   8   9
ATOM      9  C   UNL     1      -3.508   2.184   0.023  1.00  0.00     0.000 C 
BRANCH   9  10
ATOM     10  C   UNL     1      -3.160   3.129   1.183  1.00  0.00     0.006 C 
BRANCH  10  11
ATOM     11  C   UNL     1      -4.298   4.111   1.494  1.00  0.00     0.053 C 
BRANCH  11  12
ATOM     12  C   UNL     1      -4.755   4.000   2.916  1.00  0.00     0.041 C 
ATOM     13  O   UNL     1      -5.900   3.545   3.180  1.00  0.00    -0.550 OA
ATOM     14  O   UNL     1      -3.906   4.372   3.952  1.00  0.00    -0.550 OA
ENDBRANCH  11  12
ENDBRANCH  10  11
ENDBRANCH   9  10
ENDBRANCH   8   9
ENDBRANCH   7   8
ENDBRANCH   6   7
ENDBRANCH   5   6
ENDBRANCH   4   5
ENDBRANCH   3   4
ENDBRANCH   2   3
ENDBRANCH   1   2
BRANCH   1  15
ATOM     15  C   UNL     1      -8.904  -4.615   0.709  1.00  0.00     0.000 C 
BRANCH  15  16
ATOM     16  C   UNL     1      -8.224  -5.216   1.947  1.00  0.00     0.000 C 
BRANCH  16  17
ATOM     17  C   UNL     1      -8.254  -4.228   3.124  1.00  0.00     0.000 C 
BRANCH  17  18
ATOM     18  C   UNL     1      -6.942  -3.436   3.273  1.00  0.00    -0.000 C 
BRANCH  18  19
ATOM     19  C   UNL     1      -6.146  -3.728   4.560  1.00  0.00    -0.000 C 
BRANCH  19  20
ATOM     20  C   UNL     1      -5.630  -5.172   4.695  1.00  0.00    -0.000 C 
BRANCH  20  21
ATOM     21  C   UNL     1      -4.104  -5.275   4.551  1.00  0.00    -0.000 C 
BRANCH  21  22
ATOM     22  C   UNL     1      -3.465  -3.881   4.472  1.00  0.00    -0.000 C 
BRANCH  22  23
ATOM     23  C   UNL     1      -2.375  -3.668   5.534  1.00  0.00    -0.000 C 
BRANCH  23  24
ATOM     24  C   UNL     1      -2.843  -2.764   6.687  1.00  0.00    -0.000 C 
BRANCH  24  25
ATOM     25  C   UNL     1      -2.644  -3.416   8.064  1.00  0.00    -0.003 C 
ATOM     26  C   UNL     1      -3.398  -4.739   8.203  1.00  0.00     0.004 C 
ENDBRANCH  24  25
ENDBRANCH  23  24
ENDBRANCH  22  23
ENDBRANCH  21  22
ENDBRANCH  20  21
ENDBRANCH  19  20
ENDBRANCH  18  19
ENDBRANCH  17  18
ENDBRANCH  16  17
ENDBRANCH  15  16
ENDBRANCH   1  15
TORSDOF 22
ENDMDL
MODEL 7
REMARK VINA RESULT:    -3.402      3.947      8.214
REMARK INTER + INTRA:         -11.461
REMARK INTER:                  -8.141
REMARK INTRA:                  -3.321
REMARK UNBOUND:                -3.684
REMARK SMILES CCCCCCCCCCCCCCCCCCCCCCCC(=O)[O-]
REMARK SMILES IDX 13 1 14 2 15 3 16 4 17 5 18 6 19 7 20 8 21 9 22 10 23 11
REMARK SMILES IDX 24 12 25 13 26 14 12 15 11 16 10 17 9 18 8 19 7 20 6 21 5 22
REMARK SMILES IDX 4 23 3 24 2 25 1 26
REMARK H PARENT
REMARK Flexibility Score: inf
ROOT
ATOM      1  C   UNL     1      -5.675  -0.523   1.128  1.00  0.00     0.000 C 
ENDROOT
BRANCH   1   2
ATOM      2  C   UNL     1      -5.086   0.682   0.364  1.00  0.00     0.000 C 
BRANCH   2   3
ATOM      3  C   UNL     1      -6.116   1.547  -0.389  1.00  0.00     0.000 C 
BRANCH   3   4
ATOM      4  C   UNL     1      -5.552   2.835  -1.016  1.00  0.00     0.000 C 
BRANCH   4   5
ATOM      5  C   UNL     1      -4.041   2.996  -0.783  1.00  0.00     0.000 C 
BRANCH   5   6
ATOM      6  C   UNL     1      -3.711   4.121   0.213  1.00  0.00     0.000 C 
BRANCH   6   7
ATOM      7  C   UNL     1      -3.239   3.586   1.577  1.00  0.00     0.000 C 
BRANCH   7   8
ATOM      8  C   UNL     1      -4.351   3.618   2.638  1.00  0.00     0.000 C 
BRANCH   8   9
ATOM      9  C   UNL     1      -5.435   4.660   2.324  1.00  0.00     0.000 C 
BRANCH   9  10
ATOM     10  C   UNL     1      -6.838   4.047   2.447  1.00  0.00     0.006 C 
BRANCH  10  11
ATOM     11  C   UNL     1      -6.805   2.629   3.032  1.00  0.00     0.053 C 
BRANCH  11  12
ATOM     12  C   UNL     1      -8.177   2.033   3.124  1.00  0.00     0.041 C 
ATOM     13  O   UNL     1      -8.892   2.241   4.140  1.00  0.00    -0.550 OA
ATOM     14  O   UNL     1      -8.678   1.273   2.073  1.00  0.00    -0.550 OA
ENDBRANCH  11  12
ENDBRANCH  10  11
ENDBRANCH   9  10
ENDBRANCH   8   9
ENDBRANCH   7   8
ENDBRANCH   6   7
ENDBRANCH   5   6
ENDBRANCH   4   5
ENDBRANCH   3   4
ENDBRANCH   2   3
ENDBRANCH   1   2
BRANCH   1  15
ATOM     15  C   UNL     1      -5.453  -1.889   0.455  1.00  0.00     0.000 C 
BRANCH  15  16
ATOM     16  C   UNL     1      -6.722  -2.436  -0.216  1.00  0.00     0.000 C 
BRANCH  16  17
ATOM     17  C   UNL     1      -7.983  -1.821   0.410  1.00  0.00     0.000 C 
BRANCH  17  18
ATOM     18  C   UNL     1      -8.604  -2.713   1.500  1.00  0.00    -0.000 C 
BRANCH  18  19
ATOM     19  C   UNL     1      -8.683  -2.073   2.901  1.00  0.00    -0.000 C 
BRANCH  19  20
ATOM     20  C   UNL     1      -8.055  -2.905   4.034  1.00  0.00    -0.000 C 
BRANCH  20  21
ATOM     21  C   UNL     1      -6.683  -3.483   3.657  1.00  0.00    -0.000 C 
BRANCH  21  22
ATOM     22  C   UNL     1      -6.539  -4.927   4.161  1.00  0.00    -0.000 C 
BRANCH  22  23
ATOM     23  C   UNL     1      -5.168  -5.198   4.800  1.00  0.00    -0.000 C 
BRANCH  23  24
ATOM     24  C   UNL     1      -4.384  -3.905   5.085  1.00  0.00    -0.000 C 
BRANCH  24  25
ATOM     25  C   UNL     1      -2.990  -3.909   4.439  1.00  0.00    -0.003 C 
ATOM     26  C   UNL     1      -1.936  -4.587   5.316  1.00  0.00     0.004 C 
ENDBRANCH  24  25
ENDBRANCH  23  24
ENDBRANCH  22  23
ENDBRANCH  21  22
ENDBRANCH  20  21
ENDBRANCH  19  20
ENDBRANCH  18  19
ENDBRANCH  17  18
ENDBRANCH  16  17
ENDBRANCH  15  16
ENDBRANCH   1  15
TORSDOF 22
ENDMDL
MODEL 8
REMARK VINA RESULT:    -3.399      3.882      8.133
REMARK INTER + INTRA:         -11.455
REMARK INTER:                  -7.668
REMARK INTRA:                  -3.786
REMARK UNBOUND:                -3.684
REMARK SMILES CCCCCCCCCCCCCCCCCCCCCCCC(=O)[O-]
REMARK SMILES IDX 13 1 14 2 15 3 16 4 17 5 18 6 19 7 20 8 21 9 22 10 23 11
REMARK SMILES IDX 24 12 25 13 26 14 12 15 11 16 10 17 9 18 8 19 7 20 6 21 5 22
REMARK SMILES IDX 4 23 3 24 2 25 1 26
REMARK H PARENT
REMARK Flexibility Score: inf
ROOT
ATOM      1  C   UNL     1      -4.654   2.407  -0.395  1.00  0.00     0.000 C 
ENDROOT
BRANCH   1   2
ATOM      2  C   UNL     1      -6.021   2.557  -1.095  1.00  0.00     0.000 C 
BRANCH   2   3
ATOM      3  C   UNL     1      -6.561   3.999  -1.174  1.00  0.00     0.000 C 
BRANCH   3   4
ATOM      4  C   UNL     1      -8.072   4.145  -0.917  1.00  0.00     0.000 C 
BRANCH   4   5
ATOM      5  C   UNL     1      -8.747   2.806  -0.574  1.00  0.00     0.000 C 
BRANCH   5   6
ATOM      6  C   UNL     1      -9.376   2.800   0.830  1.00  0.00     0.000 C 
BRANCH   6   7
ATOM      7  C   UNL     1      -8.895   1.618   1.691  1.00  0.00     0.000 C 
BRANCH   7   8
ATOM      8  C   UNL     1      -8.338   2.070   3.050  1.00  0.00     0.000 C 
BRANCH   8   9
ATOM      9  C   UNL     1      -6.884   2.556   2.958  1.00  0.00     0.000 C 
BRANCH   9  10
ATOM     10  C   UNL     1      -6.801   4.080   3.138  1.00  0.00     0.006 C 
BRANCH  10  11
ATOM     11  C   UNL     1      -5.637   4.697   2.351  1.00  0.00     0.053 C 
BRANCH  11  12
ATOM     12  C   UNL     1      -4.370   4.707   3.150  1.00  0.00     0.041 C 
ATOM     13  O   UNL     1      -3.482   3.838   2.941  1.00  0.00    -0.550 OA
ATOM     14  O   UNL     1      -4.156   5.695   4.103  1.00  0.00    -0.550 OA
ENDBRANCH  11  12
ENDBRANCH  10  11
ENDBRANCH   9  10
ENDBRANCH   8   9
ENDBRANCH   7   8
ENDBRANCH   6   7
ENDBRANCH   5   6
ENDBRANCH   4   5
ENDBRANCH   3   4
ENDBRANCH   2   3
ENDBRANCH   1   2
BRANCH   1  15
ATOM     15  C   UNL     1      -4.545   1.208   0.564  1.00  0.00     0.000 C 
BRANCH  15  16
ATOM     16  C   UNL     1      -5.680   0.191   0.379  1.00  0.00     0.000 C 
BRANCH  16  17
ATOM     17  C   UNL     1      -5.181  -1.241   0.627  1.00  0.00     0.000 C 
BRANCH  17  18
ATOM     18  C   UNL     1      -6.329  -2.251   0.808  1.00  0.00    -0.000 C 
BRANCH  18  19
ATOM     19  C   UNL     1      -7.588  -1.692   1.501  1.00  0.00    -0.000 C 
BRANCH  19  20
ATOM     20  C   UNL     1      -8.910  -1.949   0.756  1.00  0.00    -0.000 C 
BRANCH  20  21
ATOM     21  C   UNL     1      -8.789  -1.742  -0.761  1.00  0.00    -0.000 C 
BRANCH  21  22
ATOM     22  C   UNL     1      -9.136  -3.032  -1.519  1.00  0.00    -0.000 C 
BRANCH  22  23
ATOM     23  C   UNL     1      -8.015  -3.478  -2.472  1.00  0.00    -0.000 C 
BRANCH  23  24
ATOM     24  C   UNL     1      -7.138  -4.590  -1.871  1.00  0.00    -0.000 C 
BRANCH  24  25
ATOM     25  C   UNL     1      -5.716  -4.595  -2.452  1.00  0.00    -0.003 C 
ATOM     26  C   UNL     1      -5.344  -5.936  -3.087  1.00  0.00     0.004 C 
ENDBRANCH  24  25
ENDBRANCH  23  24
ENDBRANCH  22  23
ENDBRANCH  21  22
ENDBRANCH  20  21
ENDBRANCH  19  20
ENDBRANCH  18  19
ENDBRANCH  17  18
ENDBRANCH  16  17
ENDBRANCH  15  16
ENDBRANCH   1  15
TORSDOF 22
ENDMDL
MODEL 9
REMARK VINA RESULT:    -3.361      5.347      8.620
REMARK INTER + INTRA:         -11.368
REMARK INTER:                  -6.674
REMARK INTRA:                  -4.693
REMARK UNBOUND:                -3.684
REMARK SMILES CCCCCCCCCCCCCCCCCCCCCCCC(=O)[O-]
REMARK SMILES IDX 13 1 14 2 15 3 16 4 17 5 18 6 19 7 20 8 21 9 22 10 23 11
REMARK SMILES IDX 24 12 25 13 26 14 12 15 11 16 10 17 9 18 8 19 7 20 6 21 5 22
REMARK SMILES IDX 4 23 3 24 2 25 1 26
REMARK H PARENT
REMARK Flexibility Score: inf
ROOT
ATOM      1  C   UNL     1      -3.395   2.656   0.769  1.00  0.00     0.000 C 
ENDROOT
BRANCH   1   2
ATOM      2  C   UNL     1      -3.105   2.635  -0.746  1.00  0.00     0.000 C 
BRANCH   2   3
ATOM      3  C   UNL     1      -3.868   3.689  -1.574  1.00  0.00     0.000 C 
BRANCH   3   4
ATOM      4  C   UNL     1      -3.046   4.366  -2.686  1.00  0.00     0.000 C 
BRANCH   4   5
ATOM      5  C   UNL     1      -3.904   4.768  -3.897  1.00  0.00     0.000 C 
BRANCH   5   6
ATOM      6  C   UNL     1      -5.300   5.271  -3.495  1.00  0.00     0.000 C 
BRANCH   6   7
ATOM      7  C   UNL     1      -5.397   6.807  -3.483  1.00  0.00     0.000 C 
BRANCH   7   8
ATOM      8  C   UNL     1      -5.433   7.383  -2.058  1.00  0.00     0.000 C 
BRANCH   8   9
ATOM      9  C   UNL     1      -4.068   7.918  -1.603  1.00  0.00     0.000 C 
BRANCH   9  10
ATOM     10  C   UNL     1      -3.566   7.160  -0.364  1.00  0.00     0.006 C 
BRANCH  10  11
ATOM     11  C   UNL     1      -3.914   7.885   0.943  1.00  0.00     0.053 C 
BRANCH  11  12
ATOM     12  C   UNL     1      -2.920   7.590   2.025  1.00  0.00     0.041 C 
ATOM     13  O   UNL     1      -1.702   7.438   1.742  1.00  0.00    -0.550 OA
ATOM     14  O   UNL     1      -3.334   7.514   3.349  1.00  0.00    -0.550 OA
ENDBRANCH  11  12
ENDBRANCH  10  11
ENDBRANCH   9  10
ENDBRANCH   8   9
ENDBRANCH   7   8
ENDBRANCH   6   7
ENDBRANCH   5   6
ENDBRANCH   4   5
ENDBRANCH   3   4
ENDBRANCH   2   3
ENDBRANCH   1   2
BRANCH   1  15
ATOM     15  C   UNL     1      -3.434   4.059   1.403  1.00  0.00     0.000 C 
BRANCH  15  16
ATOM     16  C   UNL     1      -4.294   4.116   2.673  1.00  0.00     0.000 C 
BRANCH  16  17
ATOM     17  C   UNL     1      -5.299   2.954   2.709  1.00  0.00     0.000 C 
BRANCH  17  18
ATOM     18  C   UNL     1      -6.727   3.411   3.058  1.00  0.00    -0.000 C 
BRANCH  18  19
ATOM     19  C   UNL     1      -7.090   4.835   2.593  1.00  0.00    -0.000 C 
BRANCH  19  20
ATOM     20  C   UNL     1      -7.829   4.911   1.244  1.00  0.00    -0.000 C 
BRANCH  20  21
ATOM     21  C   UNL     1      -6.889   4.748   0.041  1.00  0.00    -0.000 C 
BRANCH  21  22
ATOM     22  C   UNL     1      -7.483   3.779  -0.992  1.00  0.00    -0.000 C 
BRANCH  22  23
ATOM     23  C   UNL     1      -7.795   2.397  -0.397  1.00  0.00    -0.000 C 
BRANCH  23  24
ATOM     24  C   UNL     1      -6.609   1.424  -0.511  1.00  0.00    -0.000 C 
BRANCH  24  25
ATOM     25  C   UNL     1      -6.539   0.442   0.668  1.00  0.00    -0.003 C 
ATOM     26  C   UNL     1      -5.282  -0.429   0.635  1.00  0.00     0.004 C 
ENDBRANCH  24  25
ENDBRANCH  23  24
ENDBRANCH  22  23
ENDBRANCH  21  22
ENDBRANCH  20  21
ENDBRANCH  19  20
ENDBRANCH  18  19
ENDBRANCH  17  18
ENDBRANCH  16  17
ENDBRANCH  15  16
ENDBRANCH   1  15
TORSDOF 22
ENDMDL
