MODEL 1
REMARK VINA RESULT:    -6.679      0.000      0.000
REMARK INTER + INTRA:          -8.273
REMARK INTER:                  -8.046
REMARK INTRA:                  -0.227
REMARK UNBOUND:                -0.227
REMARK SMILES O=c1c(O)c(-c2ccc(O)c(O)c2)oc2cc(O)cc(O)c12
REMARK SMILES IDX 5 1 3 2 2 3 1 4 22 5 20 6 19 7 17 8 16 9 15 10 14 11 6 12
REMARK SMILES IDX 7 13 8 14 9 15 13 16 11 17 10 18 12 20 4 22 21 24 18 26
REMARK H PARENT 10 19 12 21 4 23 21 25 18 27
REMARK Flexibility Score: inf
ROOT
ATOM      1  C   UNL     1     343.181 168.134 183.302  1.00  0.00     0.180 A 
ATOM      2  C   UNL     1     341.902 168.706 183.443  1.00  0.00     0.208 A 
ATOM      3  C   UNL     1     341.791 170.102 183.536  1.00  0.00     0.238 A 
ATOM      4  O   UNL     1     340.652 170.626 183.674  1.00  0.00    -0.285 OA
ATOM      5  C   UNL     1     342.952 170.901 183.467  1.00  0.00     0.111 A 
ATOM      6  C   UNL     1     342.926 172.313 183.548  1.00  0.00     0.134 A 
ATOM      7  C   UNL     1     344.124 173.038 183.461  1.00  0.00     0.093 A 
ATOM      8  C   UNL     1     345.346 172.376 183.294  1.00  0.00     0.123 A 
ATOM      9  C   UNL     1     345.375 170.982 183.213  1.00  0.00     0.094 A 
ATOM     10  C   UNL     1     344.193 170.243 183.300  1.00  0.00     0.146 A 
ATOM     11  O   UNL     1     344.252 168.918 183.224  1.00  0.00    -0.452 OA
ENDROOT
BRANCH   1  12
ATOM     12  C   UNL     1     343.381 166.669 183.216  1.00  0.00     0.025 A 
ATOM     13  C   UNL     1     343.920 165.980 184.315  1.00  0.00     0.016 A 
ATOM     14  C   UNL     1     344.098 164.595 184.263  1.00  0.00     0.051 A 
ATOM     15  C   UNL     1     343.725 163.878 183.120  1.00  0.00     0.157 A 
ATOM     16  C   UNL     1     342.988 165.941 182.079  1.00  0.00     0.062 A 
ATOM     17  C   UNL     1     343.165 164.551 182.027  1.00  0.00     0.158 A 
BRANCH  15  18
ATOM     18  O   UNL     1     343.903 162.496 183.064  1.00  0.00    -0.504 OA
ATOM     19  H   UNL     1     344.616 162.031 183.612  1.00  0.00     0.293 HD
ENDBRANCH  15  18
BRANCH  17  20
ATOM     20  O   UNL     1     342.782 163.832 180.896  1.00  0.00    -0.504 OA
ATOM     21  H   UNL     1     342.513 162.857 180.954  1.00  0.00     0.293 HD
ENDBRANCH  17  20
ENDBRANCH   1  12
BRANCH   2  22
ATOM     22  O   UNL     1     340.763 167.896 183.459  1.00  0.00    -0.502 OA
ATOM     23  H   UNL     1     340.602 167.172 182.770  1.00  0.00     0.293 HD
ENDBRANCH   2  22
BRANCH   6  24
ATOM     24  O   UNL     1     341.723 173.001 183.714  1.00  0.00    -0.507 OA
ATOM     25  H   UNL     1     341.696 174.007 183.834  1.00  0.00     0.293 HD
ENDBRANCH   6  24
BRANCH   8  26
ATOM     26  O   UNL     1     346.536 173.094 183.206  1.00  0.00    -0.508 OA
ATOM     27  H   UNL     1     347.371 172.797 183.698  1.00  0.00     0.293 HD
ENDBRANCH   8  26
TORSDOF 6
ENDMDL
MODEL 2
REMARK VINA RESULT:    -6.622      1.523      3.134
REMARK INTER + INTRA:          -8.204
REMARK INTER:                  -8.615
REMARK INTRA:                   0.410
REMARK UNBOUND:                -0.227
REMARK SMILES O=c1c(O)c(-c2ccc(O)c(O)c2)oc2cc(O)cc(O)c12
REMARK SMILES IDX 5 1 3 2 2 3 1 4 22 5 20 6 19 7 17 8 16 9 15 10 14 11 6 12
REMARK SMILES IDX 7 13 8 14 9 15 13 16 11 17 10 18 12 20 4 22 21 24 18 26
REMARK H PARENT 10 19 12 21 4 23 21 25 18 27
REMARK Flexibility Score: inf
ROOT
ATOM      1  C   UNL     1     343.855 168.181 183.474  1.00  0.00     0.180 A 
ATOM      2  C   UNL     1     345.017 168.975 183.500  1.00  0.00     0.208 A 
ATOM      3  C   UNL     1     344.888 170.370 183.413  1.00  0.00     0.238 A 
ATOM      4  O   UNL     1     345.923 171.091 183.425  1.00  0.00    -0.285 OA
ATOM      5  C   UNL     1     343.605 170.947 183.323  1.00  0.00     0.111 A 
ATOM      6  C   UNL     1     343.388 172.343 183.237  1.00  0.00     0.134 A 
ATOM      7  C   UNL     1     342.078 172.841 183.158  1.00  0.00     0.093 A 
ATOM      8  C   UNL     1     340.984 171.969 183.166  1.00  0.00     0.123 A 
ATOM      9  C   UNL     1     341.194 170.591 183.251  1.00  0.00     0.094 A 
ATOM     10  C   UNL     1     342.490 170.076 183.328  1.00  0.00     0.146 A 
ATOM     11  O   UNL     1     342.660 168.761 183.404  1.00  0.00    -0.452 OA
ENDROOT
BRANCH   1  12
ATOM     12  C   UNL     1     343.910 166.703 183.542  1.00  0.00     0.025 A 
ATOM     13  C   UNL     1     342.726 165.976 183.744  1.00  0.00     0.016 A 
ATOM     14  C   UNL     1     342.752 164.580 183.791  1.00  0.00     0.051 A 
ATOM     15  C   UNL     1     343.959 163.890 183.619  1.00  0.00     0.157 A 
ATOM     16  C   UNL     1     345.116 166.005 183.350  1.00  0.00     0.062 A 
ATOM     17  C   UNL     1     345.142 164.604 183.395  1.00  0.00     0.158 A 
BRANCH  15  18
ATOM     18  O   UNL     1     343.989 162.497 183.667  1.00  0.00    -0.504 OA
ATOM     19  H   UNL     1     344.847 161.980 183.523  1.00  0.00     0.293 HD
ENDBRANCH  15  18
BRANCH  17  20
ATOM     20  O   UNL     1     346.340 163.914 183.211  1.00  0.00    -0.504 OA
ATOM     21  H   UNL     1     347.193 164.394 182.953  1.00  0.00     0.293 HD
ENDBRANCH  17  20
ENDBRANCH   1  12
BRANCH   2  22
ATOM     22  O   UNL     1     346.275 168.381 183.641  1.00  0.00    -0.502 OA
ATOM     23  H   UNL     1     346.475 167.696 184.359  1.00  0.00     0.293 HD
ENDBRANCH   2  22
BRANCH   6  24
ATOM     24  O   UNL     1     344.459 173.237 183.227  1.00  0.00    -0.507 OA
ATOM     25  H   UNL     1     344.878 173.559 182.362  1.00  0.00     0.293 HD
ENDBRANCH   6  24
BRANCH   8  26
ATOM     26  O   UNL     1     339.683 172.461 183.090  1.00  0.00    -0.508 OA
ATOM     27  H   UNL     1     339.026 172.118 182.399  1.00  0.00     0.293 HD
ENDBRANCH   8  26
TORSDOF 6
ENDMDL
MODEL 3
REMARK VINA RESULT:    -6.567      1.497      7.030
REMARK INTER + INTRA:          -8.138
REMARK INTER:                  -7.849
REMARK INTRA:                  -0.289
REMARK UNBOUND:                -0.227
REMARK SMILES O=c1c(O)c(-c2ccc(O)c(O)c2)oc2cc(O)cc(O)c12
REMARK SMILES IDX 5 1 3 2 2 3 1 4 22 5 20 6 19 7 17 8 16 9 15 10 14 11 6 12
REMARK SMILES IDX 7 13 8 14 9 15 13 16 11 17 10 18 12 20 4 22 21 24 18 26
REMARK H PARENT 10 19 12 21 4 23 21 25 18 27
REMARK Flexibility Score: inf
ROOT
ATOM      1  C   UNL     1     343.688 169.017 182.586  1.00  0.00     0.180 A 
ATOM      2  C   UNL     1     343.631 168.554 181.257  1.00  0.00     0.208 A 
ATOM      3  C   UNL     1     343.505 167.175 181.025  1.00  0.00     0.238 A 
ATOM      4  O   UNL     1     343.464 166.747 179.839  1.00  0.00    -0.285 OA
ATOM      5  C   UNL     1     343.417 166.289 182.118  1.00  0.00     0.111 A 
ATOM      6  C   UNL     1     343.284 164.887 181.970  1.00  0.00     0.134 A 
ATOM      7  C   UNL     1     343.194 164.072 183.109  1.00  0.00     0.093 A 
ATOM      8  C   UNL     1     343.233 164.633 184.390  1.00  0.00     0.123 A 
ATOM      9  C   UNL     1     343.364 166.015 184.540  1.00  0.00     0.094 A 
ATOM     10  C   UNL     1     343.458 166.843 183.419  1.00  0.00     0.146 A 
ATOM     11  O   UNL     1     343.587 168.154 183.592  1.00  0.00    -0.452 OA
ENDROOT
BRANCH   1  12
ATOM     12  C   UNL     1     343.839 170.453 182.912  1.00  0.00     0.025 A 
ATOM     13  C   UNL     1     345.104 171.055 182.809  1.00  0.00     0.016 A 
ATOM     14  C   UNL     1     345.266 172.414 183.091  1.00  0.00     0.051 A 
ATOM     15  C   UNL     1     344.163 173.194 183.463  1.00  0.00     0.157 A 
ATOM     16  C   UNL     1     342.732 171.246 183.265  1.00  0.00     0.062 A 
ATOM     17  C   UNL     1     342.894 172.610 183.546  1.00  0.00     0.158 A 
BRANCH  15  18
ATOM     18  O   UNL     1     344.322 174.550 183.747  1.00  0.00    -0.504 OA
ATOM     19  H   UNL     1     344.926 175.141 183.190  1.00  0.00     0.293 HD
ENDBRANCH  15  18
BRANCH  17  20
ATOM     20  O   UNL     1     341.796 173.391 183.903  1.00  0.00    -0.504 OA
ATOM     21  H   UNL     1     341.089 173.051 184.544  1.00  0.00     0.293 HD
ENDBRANCH  17  20
ENDBRANCH   1  12
BRANCH   2  22
ATOM     22  O   UNL     1     343.670 169.457 180.192  1.00  0.00    -0.502 OA
ATOM     23  H   UNL     1     344.491 170.011 179.980  1.00  0.00     0.293 HD
ENDBRANCH   2  22
BRANCH   6  24
ATOM     24  O   UNL     1     343.242 164.300 180.705  1.00  0.00    -0.507 OA
ATOM     25  H   UNL     1     343.987 163.700 180.370  1.00  0.00     0.293 HD
ENDBRANCH   6  24
BRANCH   8  26
ATOM     26  O   UNL     1     343.141 163.825 185.521  1.00  0.00    -0.508 OA
ATOM     27  H   UNL     1     343.248 162.819 185.464  1.00  0.00     0.293 HD
ENDBRANCH   8  26
TORSDOF 6
ENDMDL
MODEL 4
REMARK VINA RESULT:    -6.436      1.817      2.649
REMARK INTER + INTRA:          -7.980
REMARK INTER:                  -7.734
REMARK INTRA:                  -0.246
REMARK UNBOUND:                -0.227
REMARK SMILES O=c1c(O)c(-c2ccc(O)c(O)c2)oc2cc(O)cc(O)c12
REMARK SMILES IDX 5 1 3 2 2 3 1 4 22 5 20 6 19 7 17 8 16 9 15 10 14 11 6 12
REMARK SMILES IDX 7 13 8 14 9 15 13 16 11 17 10 18 12 20 4 22 21 24 18 26
REMARK H PARENT 10 19 12 21 4 23 21 25 18 27
REMARK Flexibility Score: inf
ROOT
ATOM      1  C   UNL     1     341.762 167.585 182.762  1.00  0.00     0.180 A 
ATOM      2  C   UNL     1     340.525 167.747 182.111  1.00  0.00     0.208 A 
ATOM      3  C   UNL     1     339.992 169.039 181.977  1.00  0.00     0.238 A 
ATOM      4  O   UNL     1     338.879 169.195 181.405  1.00  0.00    -0.285 OA
ATOM      5  C   UNL     1     340.713 170.144 182.475  1.00  0.00     0.111 A 
ATOM      6  C   UNL     1     340.249 171.478 182.376  1.00  0.00     0.134 A 
ATOM      7  C   UNL     1     341.029 172.526 182.889  1.00  0.00     0.093 A 
ATOM      8  C   UNL     1     342.262 172.264 183.497  1.00  0.00     0.123 A 
ATOM      9  C   UNL     1     342.723 170.949 183.596  1.00  0.00     0.094 A 
ATOM     10  C   UNL     1     341.959 169.893 183.093  1.00  0.00     0.146 A 
ATOM     11  O   UNL     1     342.421 168.652 183.205  1.00  0.00    -0.452 OA
ENDROOT
BRANCH   1  12
ATOM     12  C   UNL     1     342.379 166.253 182.959  1.00  0.00     0.025 A 
ATOM     13  C   UNL     1     342.970 165.598 181.866  1.00  0.00     0.016 A 
ATOM     14  C   UNL     1     343.577 164.350 182.033  1.00  0.00     0.051 A 
ATOM     15  C   UNL     1     343.616 163.748 183.297  1.00  0.00     0.157 A 
ATOM     16  C   UNL     1     342.440 165.654 184.230  1.00  0.00     0.062 A 
ATOM     17  C   UNL     1     343.050 164.403 184.398  1.00  0.00     0.158 A 
BRANCH  15  18
ATOM     18  O   UNL     1     344.218 162.502 183.467  1.00  0.00    -0.504 OA
ATOM     19  H   UNL     1     343.964 161.890 184.232  1.00  0.00     0.293 HD
ENDBRANCH  15  18
BRANCH  17  20
ATOM     20  O   UNL     1     343.102 163.807 185.657  1.00  0.00    -0.504 OA
ATOM     21  H   UNL     1     343.120 162.800 185.766  1.00  0.00     0.293 HD
ENDBRANCH  17  20
ENDBRANCH   1  12
BRANCH   2  22
ATOM     22  O   UNL     1     339.854 166.640 181.582  1.00  0.00    -0.502 OA
ATOM     23  H   UNL     1     340.173 166.160 180.749  1.00  0.00     0.293 HD
ENDBRANCH   2  22
BRANCH   6  24
ATOM     24  O   UNL     1     339.024 171.770 181.776  1.00  0.00    -0.507 OA
ATOM     25  H   UNL     1     338.950 172.421 181.002  1.00  0.00     0.293 HD
ENDBRANCH   6  24
BRANCH   8  26
ATOM     26  O   UNL     1     343.038 173.303 184.005  1.00  0.00    -0.508 OA
ATOM     27  H   UNL     1     343.383 173.289 184.957  1.00  0.00     0.293 HD
ENDBRANCH   8  26
TORSDOF 6
ENDMDL
MODEL 5
REMARK VINA RESULT:    -6.290      3.789      5.656
REMARK INTER + INTRA:          -7.804
REMARK INTER:                  -7.474
REMARK INTRA:                  -0.329
REMARK UNBOUND:                -0.227
REMARK SMILES O=c1c(O)c(-c2ccc(O)c(O)c2)oc2cc(O)cc(O)c12
REMARK SMILES IDX 5 1 3 2 2 3 1 4 22 5 20 6 19 7 17 8 16 9 15 10 14 11 6 12
REMARK SMILES IDX 7 13 8 14 9 15 13 16 11 17 10 18 12 20 4 22 21 24 18 26
REMARK H PARENT 10 19 12 21 4 23 21 25 18 27
REMARK Flexibility Score: inf
ROOT
ATOM      1  C   UNL     1     341.599 166.532 181.357  1.00  0.00     0.180 A 
ATOM      2  C   UNL     1     340.405 166.835 182.039  1.00  0.00     0.208 A 
ATOM      3  C   UNL     1     339.311 167.323 181.306  1.00  0.00     0.238 A 
ATOM      4  O   UNL     1     338.239 167.608 181.907  1.00  0.00    -0.285 OA
ATOM      5  C   UNL     1     339.422 167.479 179.909  1.00  0.00     0.111 A 
ATOM      6  C   UNL     1     338.366 167.960 179.098  1.00  0.00     0.134 A 
ATOM      7  C   UNL     1     338.553 168.079 177.712  1.00  0.00     0.093 A 
ATOM      8  C   UNL     1     339.772 167.726 177.124  1.00  0.00     0.123 A 
ATOM      9  C   UNL     1     340.816 167.251 177.921  1.00  0.00     0.094 A 
ATOM     10  C   UNL     1     340.651 167.128 179.303  1.00  0.00     0.146 A 
ATOM     11  O   UNL     1     341.662 166.677 180.037  1.00  0.00    -0.452 OA
ENDROOT
BRANCH   1  12
ATOM     12  C   UNL     1     342.801 166.031 182.062  1.00  0.00     0.025 A 
ATOM     13  C   UNL     1     342.983 164.648 182.220  1.00  0.00     0.016 A 
ATOM     14  C   UNL     1     344.120 164.153 182.864  1.00  0.00     0.051 A 
ATOM     15  C   UNL     1     345.099 165.032 183.343  1.00  0.00     0.157 A 
ATOM     16  C   UNL     1     343.798 166.909 182.527  1.00  0.00     0.062 A 
ATOM     17  C   UNL     1     344.939 166.412 183.171  1.00  0.00     0.158 A 
BRANCH  15  18
ATOM     18  O   UNL     1     346.234 164.541 183.987  1.00  0.00    -0.504 OA
ATOM     19  H   UNL     1     346.185 163.750 184.618  1.00  0.00     0.293 HD
ENDBRANCH  15  18
BRANCH  17  20
ATOM     20  O   UNL     1     345.922 167.284 183.637  1.00  0.00    -0.504 OA
ATOM     21  H   UNL     1     346.870 167.253 183.282  1.00  0.00     0.293 HD
ENDBRANCH  17  20
ENDBRANCH   1  12
BRANCH   2  22
ATOM     22  O   UNL     1     340.304 166.623 183.416  1.00  0.00    -0.502 OA
ATOM     23  H   UNL     1     341.114 166.454 184.000  1.00  0.00     0.293 HD
ENDBRANCH   2  22
BRANCH   6  24
ATOM     24  O   UNL     1     337.139 168.320 179.655  1.00  0.00    -0.507 OA
ATOM     25  H   UNL     1     336.707 169.216 179.460  1.00  0.00     0.293 HD
ENDBRANCH   6  24
BRANCH   8  26
ATOM     26  O   UNL     1     339.958 167.842 175.749  1.00  0.00    -0.508 OA
ATOM     27  H   UNL     1     340.783 167.471 175.292  1.00  0.00     0.293 HD
ENDBRANCH   8  26
TORSDOF 6
ENDMDL
MODEL 6
REMARK VINA RESULT:    -6.283      3.726      6.361
REMARK INTER + INTRA:          -7.796
REMARK INTER:                  -7.478
REMARK INTRA:                  -0.318
REMARK UNBOUND:                -0.227
REMARK SMILES O=c1c(O)c(-c2ccc(O)c(O)c2)oc2cc(O)cc(O)c12
REMARK SMILES IDX 5 1 3 2 2 3 1 4 22 5 20 6 19 7 17 8 16 9 15 10 14 11 6 12
REMARK SMILES IDX 7 13 8 14 9 15 13 16 11 17 10 18 12 20 4 22 21 24 18 26
REMARK H PARENT 10 19 12 21 4 23 21 25 18 27
REMARK Flexibility Score: inf
ROOT
ATOM      1  C   UNL     1     344.476 167.274 180.848  1.00  0.00     0.180 A 
ATOM      2  C   UNL     1     344.138 168.324 181.723  1.00  0.00     0.208 A 
ATOM      3  C   UNL     1     343.712 168.012 183.023  1.00  0.00     0.238 A 
ATOM      4  O   UNL     1     343.397 168.944 183.813  1.00  0.00    -0.285 OA
ATOM      5  C   UNL     1     343.651 166.664 183.433  1.00  0.00     0.111 A 
ATOM      6  C   UNL     1     343.237 166.266 184.726  1.00  0.00     0.134 A 
ATOM      7  C   UNL     1     343.212 164.903 185.060  1.00  0.00     0.093 A 
ATOM      8  C   UNL     1     343.593 163.934 184.126  1.00  0.00     0.123 A 
ATOM      9  C   UNL     1     344.002 164.323 182.848  1.00  0.00     0.094 A 
ATOM     10  C   UNL     1     344.032 165.675 182.497  1.00  0.00     0.146 A 
ATOM     11  O   UNL     1     344.421 166.016 181.273  1.00  0.00    -0.452 OA
ENDROOT
BRANCH   1  12
ATOM     12  C   UNL     1     344.915 167.522 179.455  1.00  0.00     0.025 A 
ATOM     13  C   UNL     1     343.952 167.704 178.449  1.00  0.00     0.016 A 
ATOM     14  C   UNL     1     344.345 167.960 177.133  1.00  0.00     0.051 A 
ATOM     15  C   UNL     1     345.704 168.054 176.807  1.00  0.00     0.157 A 
ATOM     16  C   UNL     1     346.278 167.638 179.126  1.00  0.00     0.062 A 
ATOM     17  C   UNL     1     346.672 167.896 177.806  1.00  0.00     0.158 A 
BRANCH  15  18
ATOM     18  O   UNL     1     346.098 168.307 175.494  1.00  0.00    -0.504 OA
ATOM     19  H   UNL     1     347.048 168.138 175.184  1.00  0.00     0.293 HD
ENDBRANCH  15  18
BRANCH  17  20
ATOM     20  O   UNL     1     348.023 168.003 177.481  1.00  0.00    -0.504 OA
ATOM     21  H   UNL     1     348.398 168.836 177.041  1.00  0.00     0.293 HD
ENDBRANCH  17  20
ENDBRANCH   1  12
BRANCH   2  22
ATOM     22  O   UNL     1     344.255 169.654 181.309  1.00  0.00    -0.502 OA
ATOM     23  H   UNL     1     345.057 170.227 181.544  1.00  0.00     0.293 HD
ENDBRANCH   2  22
BRANCH   6  24
ATOM     24  O   UNL     1     342.852 167.209 185.679  1.00  0.00    -0.507 OA
ATOM     25  H   UNL     1     342.780 168.195 185.455  1.00  0.00     0.293 HD
ENDBRANCH   6  24
BRANCH   8  26
ATOM     26  O   UNL     1     343.569 162.581 184.456  1.00  0.00    -0.508 OA
ATOM     27  H   UNL     1     343.030 162.237 185.242  1.00  0.00     0.293 HD
ENDBRANCH   8  26
TORSDOF 6
ENDMDL
MODEL 7
REMARK VINA RESULT:    -6.227      2.016      3.111
REMARK INTER + INTRA:          -7.728
REMARK INTER:                  -7.669
REMARK INTRA:                  -0.060
REMARK UNBOUND:                -0.227
REMARK SMILES O=c1c(O)c(-c2ccc(O)c(O)c2)oc2cc(O)cc(O)c12
REMARK SMILES IDX 5 1 3 2 2 3 1 4 22 5 20 6 19 7 17 8 16 9 15 10 14 11 6 12
REMARK SMILES IDX 7 13 8 14 9 15 13 16 11 17 10 18 12 20 4 22 21 24 18 26
REMARK H PARENT 10 19 12 21 4 23 21 25 18 27
REMARK Flexibility Score: inf
ROOT
ATOM      1  C   UNL     1     344.167 167.967 182.253  1.00  0.00     0.180 A 
ATOM      2  C   UNL     1     344.809 168.380 181.071  1.00  0.00     0.208 A 
ATOM      3  C   UNL     1     344.777 169.740 180.721  1.00  0.00     0.238 A 
ATOM      4  O   UNL     1     345.340 170.121 179.658  1.00  0.00    -0.285 OA
ATOM      5  C   UNL     1     344.125 170.662 181.566  1.00  0.00     0.111 A 
ATOM      6  C   UNL     1     344.052 172.048 181.289  1.00  0.00     0.134 A 
ATOM      7  C   UNL     1     343.392 172.903 182.185  1.00  0.00     0.093 A 
ATOM      8  C   UNL     1     342.807 172.397 183.351  1.00  0.00     0.123 A 
ATOM      9  C   UNL     1     342.877 171.030 183.628  1.00  0.00     0.094 A 
ATOM     10  C   UNL     1     343.528 170.163 182.747  1.00  0.00     0.146 A 
ATOM     11  O   UNL     1     343.576 168.866 183.034  1.00  0.00    -0.452 OA
ENDROOT
BRANCH   1  12
ATOM     12  C   UNL     1     344.141 166.549 182.679  1.00  0.00     0.025 A 
ATOM     13  C   UNL     1     342.906 165.906 182.864  1.00  0.00     0.016 A 
ATOM     14  C   UNL     1     342.858 164.562 183.245  1.00  0.00     0.051 A 
ATOM     15  C   UNL     1     344.042 163.839 183.430  1.00  0.00     0.157 A 
ATOM     16  C   UNL     1     345.327 165.811 182.846  1.00  0.00     0.062 A 
ATOM     17  C   UNL     1     345.279 164.463 183.226  1.00  0.00     0.158 A 
BRANCH  15  18
ATOM     18  O   UNL     1     343.998 162.498 183.812  1.00  0.00    -0.504 OA
ATOM     19  H   UNL     1     343.216 161.903 183.567  1.00  0.00     0.293 HD
ENDBRANCH  15  18
BRANCH  17  20
ATOM     20  O   UNL     1     346.456 163.736 183.398  1.00  0.00    -0.504 OA
ATOM     21  H   UNL     1     347.357 164.194 183.465  1.00  0.00     0.293 HD
ENDBRANCH  17  20
ENDBRANCH   1  12
BRANCH   2  22
ATOM     22  O   UNL     1     345.491 167.455 180.276  1.00  0.00    -0.502 OA
ATOM     23  H   UNL     1     345.025 166.674 179.831  1.00  0.00     0.293 HD
ENDBRANCH   2  22
BRANCH   6  24
ATOM     24  O   UNL     1     344.626 172.581 180.135  1.00  0.00    -0.507 OA
ATOM     25  H   UNL     1     344.381 173.503 179.794  1.00  0.00     0.293 HD
ENDBRANCH   6  24
BRANCH   8  26
ATOM     26  O   UNL     1     342.153 173.245 184.243  1.00  0.00    -0.508 OA
ATOM     27  H   UNL     1     341.266 173.676 184.010  1.00  0.00     0.293 HD
ENDBRANCH   8  26
TORSDOF 6
ENDMDL
MODEL 8
REMARK VINA RESULT:    -6.218      3.505      5.171
REMARK INTER + INTRA:          -7.718
REMARK INTER:                  -7.416
REMARK INTRA:                  -0.301
REMARK UNBOUND:                -0.227
REMARK SMILES O=c1c(O)c(-c2ccc(O)c(O)c2)oc2cc(O)cc(O)c12
REMARK SMILES IDX 5 1 3 2 2 3 1 4 22 5 20 6 19 7 17 8 16 9 15 10 14 11 6 12
REMARK SMILES IDX 7 13 8 14 9 15 13 16 11 17 10 18 12 20 4 22 21 24 18 26
REMARK H PARENT 10 19 12 21 4 23 21 25 18 27
REMARK Flexibility Score: inf
ROOT
ATOM      1  C   UNL     1     343.776 167.644 181.458  1.00  0.00     0.180 A 
ATOM      2  C   UNL     1     344.257 166.595 180.653  1.00  0.00     0.208 A 
ATOM      3  C   UNL     1     345.065 166.904 179.547  1.00  0.00     0.238 A 
ATOM      4  O   UNL     1     345.493 165.974 178.811  1.00  0.00    -0.285 OA
ATOM      5  C   UNL     1     345.394 168.250 179.279  1.00  0.00     0.111 A 
ATOM      6  C   UNL     1     346.206 168.645 178.189  1.00  0.00     0.134 A 
ATOM      7  C   UNL     1     346.495 170.005 177.994  1.00  0.00     0.093 A 
ATOM      8  C   UNL     1     345.990 170.973 178.869  1.00  0.00     0.123 A 
ATOM      9  C   UNL     1     345.189 170.586 179.946  1.00  0.00     0.094 A 
ATOM     10  C   UNL     1     344.887 169.237 180.155  1.00  0.00     0.146 A 
ATOM     11  O   UNL     1     344.119 168.899 181.185  1.00  0.00    -0.452 OA
ENDROOT
BRANCH   1  12
ATOM     12  C   UNL     1     342.904 167.399 182.630  1.00  0.00     0.025 A 
ATOM     13  C   UNL     1     341.531 167.175 182.434  1.00  0.00     0.016 A 
ATOM     14  C   UNL     1     340.694 166.921 183.524  1.00  0.00     0.051 A 
ATOM     15  C   UNL     1     341.219 166.871 184.821  1.00  0.00     0.157 A 
ATOM     16  C   UNL     1     343.429 167.326 183.933  1.00  0.00     0.062 A 
ATOM     17  C   UNL     1     342.590 167.070 185.025  1.00  0.00     0.158 A 
BRANCH  15  18
ATOM     18  O   UNL     1     340.385 166.619 185.910  1.00  0.00    -0.504 OA
ATOM     19  H   UNL     1     339.400 166.851 185.888  1.00  0.00     0.293 HD
ENDBRANCH  15  18
BRANCH  17  20
ATOM     20  O   UNL     1     343.111 167.005 186.317  1.00  0.00    -0.504 OA
ATOM     21  H   UNL     1     342.709 166.398 187.021  1.00  0.00     0.293 HD
ENDBRANCH  17  20
ENDBRANCH   1  12
BRANCH   2  22
ATOM     22  O   UNL     1     343.958 165.267 180.968  1.00  0.00    -0.502 OA
ATOM     23  H   UNL     1     343.007 164.935 181.074  1.00  0.00     0.293 HD
ENDBRANCH   2  22
BRANCH   6  24
ATOM     24  O   UNL     1     346.724 167.703 177.300  1.00  0.00    -0.507 OA
ATOM     25  H   UNL     1     346.400 166.743 177.292  1.00  0.00     0.293 HD
ENDBRANCH   6  24
BRANCH   8  26
ATOM     26  O   UNL     1     346.278 172.322 178.678  1.00  0.00    -0.508 OA
ATOM     27  H   UNL     1     346.002 172.808 177.833  1.00  0.00     0.293 HD
ENDBRANCH   8  26
TORSDOF 6
ENDMDL
MODEL 9
REMARK VINA RESULT:    -6.122      2.980      5.025
REMARK INTER + INTRA:          -7.602
REMARK INTER:                  -7.507
REMARK INTRA:                  -0.095
REMARK UNBOUND:                -0.227
REMARK SMILES O=c1c(O)c(-c2ccc(O)c(O)c2)oc2cc(O)cc(O)c12
REMARK SMILES IDX 5 1 3 2 2 3 1 4 22 5 20 6 19 7 17 8 16 9 15 10 14 11 6 12
REMARK SMILES IDX 7 13 8 14 9 15 13 16 11 17 10 18 12 20 4 22 21 24 18 26
REMARK H PARENT 10 19 12 21 4 23 21 25 18 27
REMARK Flexibility Score: inf
ROOT
ATOM      1  C   UNL     1     341.803 167.302 182.370  1.00  0.00     0.180 A 
ATOM      2  C   UNL     1     341.746 168.630 182.834  1.00  0.00     0.208 A 
ATOM      3  C   UNL     1     340.638 169.421 182.492  1.00  0.00     0.238 A 
ATOM      4  O   UNL     1     340.580 170.616 182.893  1.00  0.00    -0.285 OA
ATOM      5  C   UNL     1     339.600 168.868 181.713  1.00  0.00     0.111 A 
ATOM      6  C   UNL     1     338.448 169.595 181.329  1.00  0.00     0.134 A 
ATOM      7  C   UNL     1     337.455 168.970 180.560  1.00  0.00     0.093 A 
ATOM      8  C   UNL     1     337.592 167.633 180.169  1.00  0.00     0.123 A 
ATOM      9  C   UNL     1     338.727 166.913 180.546  1.00  0.00     0.094 A 
ATOM     10  C   UNL     1     339.728 167.518 181.310  1.00  0.00     0.146 A 
ATOM     11  O   UNL     1     340.799 166.809 181.651  1.00  0.00    -0.452 OA
ENDROOT
BRANCH   1  12
ATOM     12  C   UNL     1     342.947 166.412 182.673  1.00  0.00     0.025 A 
ATOM     13  C   UNL     1     344.241 166.794 182.283  1.00  0.00     0.016 A 
ATOM     14  C   UNL     1     345.338 165.980 182.577  1.00  0.00     0.051 A 
ATOM     15  C   UNL     1     345.159 164.781 183.280  1.00  0.00     0.157 A 
ATOM     16  C   UNL     1     342.776 165.218 183.397  1.00  0.00     0.062 A 
ATOM     17  C   UNL     1     343.876 164.402 183.694  1.00  0.00     0.158 A 
BRANCH  15  18
ATOM     18  O   UNL     1     346.251 163.965 183.573  1.00  0.00    -0.504 OA
ATOM     19  H   UNL     1     346.133 163.054 184.000  1.00  0.00     0.293 HD
ENDBRANCH  15  18
BRANCH  17  20
ATOM     20  O   UNL     1     343.703 163.215 184.404  1.00  0.00    -0.504 OA
ATOM     21  H   UNL     1     344.020 162.326 184.036  1.00  0.00     0.293 HD
ENDBRANCH  17  20
ENDBRANCH   1  12
BRANCH   2  22
ATOM     22  O   UNL     1     342.763 169.139 183.647  1.00  0.00    -0.502 OA
ATOM     23  H   UNL     1     343.338 169.924 183.367  1.00  0.00     0.293 HD
ENDBRANCH   2  22
BRANCH   6  24
ATOM     24  O   UNL     1     338.283 170.929 181.703  1.00  0.00    -0.507 OA
ATOM     25  H   UNL     1     338.298 171.216 182.676  1.00  0.00     0.293 HD
ENDBRANCH   6  24
BRANCH   8  26
ATOM     26  O   UNL     1     336.606 167.011 179.407  1.00  0.00    -0.508 OA
ATOM     27  H   UNL     1     336.499 167.206 178.419  1.00  0.00     0.293 HD
ENDBRANCH   8  26
TORSDOF 6
ENDMDL
