MODEL 1
REMARK VINA RESULT:    -3.054      0.000      0.000
REMARK INTER + INTRA:          -4.918
REMARK INTER:                  -4.125
REMARK INTRA:                  -0.793
REMARK UNBOUND:                -0.793
REMARK SMILES C=CC(C)=CCC=C(C)CCC=C(C)C
REMARK SMILES IDX 8 1 7 2 9 3 10 4 11 5 12 6 14 7 13 8 15 9 6 10 5 11 3 12
REMARK SMILES IDX 4 13 2 14 1 15
REMARK H PARENT
REMARK Flexibility Score: inf
ROOT
ATOM      1  C   UNL     1     -15.147  -1.952  17.634  1.00  0.00    -0.077 C 
ATOM      2  C   UNL     1     -15.485  -1.998  18.944  1.00  0.00    -0.024 C 
ATOM      3  C   UNL     1     -16.085  -1.261  16.679  1.00  0.00     0.039 C 
ENDROOT
BRANCH   1   4
ATOM      4  C   UNL     1     -13.880  -2.586  17.087  1.00  0.00     0.034 C 
BRANCH   4   5
ATOM      5  C   UNL     1     -14.075  -3.121  15.661  1.00  0.00     0.032 C 
BRANCH   5   6
ATOM      6  C   UNL     1     -14.014  -4.629  15.612  1.00  0.00    -0.028 C 
ATOM      7  C   UNL     1     -14.890  -6.925  15.317  1.00  0.00     0.039 C 
ATOM      8  C   UNL     1     -15.060  -5.427  15.301  1.00  0.00    -0.080 C 
ATOM      9  C   UNL     1     -16.396  -4.871  14.876  1.00  0.00     0.039 C 
ENDBRANCH   5   6
ENDBRANCH   4   5
ENDBRANCH   1   4
BRANCH   2  10
ATOM     10  C   UNL     1     -14.632  -2.610  20.027  1.00  0.00     0.055 C 
BRANCH  10  11
ATOM     11  C   UNL     1     -14.805  -1.879  21.333  1.00  0.00    -0.020 C 
ATOM     12  C   UNL     1     -13.836  -1.768  22.263  1.00  0.00    -0.055 C 
ATOM     13  C   UNL     1     -12.474  -2.396  22.070  1.00  0.00     0.044 C 
BRANCH  12  14
ATOM     14  C   UNL     1     -14.165  -1.065  23.530  1.00  0.00    -0.005 C 
ATOM     15  C   UNL     1     -15.232  -0.279  23.683  1.00  0.00     0.009 C 
ENDBRANCH  12  14
ENDBRANCH  10  11
ENDBRANCH   2  10
TORSDOF 6
ENDMDL
MODEL 2
REMARK VINA RESULT:    -1.721      1.756      3.649
REMARK INTER + INTRA:          -3.118
REMARK INTER:                  -2.128
REMARK INTRA:                  -0.990
REMARK UNBOUND:                -0.793
REMARK SMILES C=CC(C)=CCC=C(C)CCC=C(C)C
REMARK SMILES IDX 8 1 7 2 9 3 10 4 11 5 12 6 14 7 13 8 15 9 6 10 5 11 3 12
REMARK SMILES IDX 4 13 2 14 1 15
REMARK H PARENT
REMARK Flexibility Score: inf
ROOT
ATOM      1  C   UNL     1     -14.074  -2.741  17.203  1.00  0.00    -0.077 C 
ATOM      2  C   UNL     1     -14.007  -2.467  18.527  1.00  0.00    -0.024 C 
ATOM      3  C   UNL     1     -12.794  -2.744  16.408  1.00  0.00     0.039 C 
ENDROOT
BRANCH   1   4
ATOM      4  C   UNL     1     -15.383  -3.018  16.485  1.00  0.00     0.034 C 
BRANCH   4   5
ATOM      5  C   UNL     1     -15.870  -1.800  15.687  1.00  0.00     0.032 C 
BRANCH   5   6
ATOM      6  C   UNL     1     -16.979  -1.065  16.401  1.00  0.00    -0.028 C 
ATOM      7  C   UNL     1     -17.981   0.678  17.844  1.00  0.00     0.039 C 
ATOM      8  C   UNL     1     -16.802   0.048  17.148  1.00  0.00    -0.080 C 
ATOM      9  C   UNL     1     -15.461   0.729  17.268  1.00  0.00     0.039 C 
ENDBRANCH   5   6
ENDBRANCH   4   5
ENDBRANCH   1   4
BRANCH   2  10
ATOM     10  C   UNL     1     -15.189  -2.471  19.464  1.00  0.00     0.055 C 
BRANCH  10  11
ATOM     11  C   UNL     1     -14.900  -1.672  20.707  1.00  0.00    -0.020 C 
ATOM     12  C   UNL     1     -13.920  -1.974  21.581  1.00  0.00    -0.055 C 
ATOM     13  C   UNL     1     -13.023  -3.176  21.385  1.00  0.00     0.044 C 
BRANCH  12  14
ATOM     14  C   UNL     1     -13.785  -1.128  22.795  1.00  0.00    -0.005 C 
ATOM     15  C   UNL     1     -14.821  -0.715  23.527  1.00  0.00     0.009 C 
ENDBRANCH  12  14
ENDBRANCH  10  11
ENDBRANCH   2  10
TORSDOF 6
ENDMDL
MODEL 3
REMARK VINA RESULT:    -1.685      0.729      6.843
REMARK INTER + INTRA:          -3.070
REMARK INTER:                  -3.838
REMARK INTRA:                   0.768
REMARK UNBOUND:                -0.793
REMARK SMILES C=CC(C)=CCC=C(C)CCC=C(C)C
REMARK SMILES IDX 8 1 7 2 9 3 10 4 11 5 12 6 14 7 13 8 15 9 6 10 5 11 3 12
REMARK SMILES IDX 4 13 2 14 1 15
REMARK H PARENT
REMARK Flexibility Score: inf
ROOT
ATOM      1  C   UNL     1     -15.043  -1.739  17.541  1.00  0.00    -0.077 C 
ATOM      2  C   UNL     1     -14.703  -2.349  16.382  1.00  0.00    -0.024 C 
ATOM      3  C   UNL     1     -16.294  -0.900  17.566  1.00  0.00     0.039 C 
ENDROOT
BRANCH   1   4
ATOM      4  C   UNL     1     -14.206  -1.846  18.804  1.00  0.00     0.034 C 
BRANCH   4   5
ATOM      5  C   UNL     1     -14.909  -2.675  19.889  1.00  0.00     0.032 C 
BRANCH   5   6
ATOM      6  C   UNL     1     -15.091  -1.891  21.167  1.00  0.00    -0.028 C 
ATOM      7  C   UNL     1     -14.471  -1.013  23.396  1.00  0.00     0.039 C 
ATOM      8  C   UNL     1     -14.165  -1.799  22.147  1.00  0.00    -0.080 C 
ATOM      9  C   UNL     1     -12.793  -2.412  22.014  1.00  0.00     0.039 C 
ENDBRANCH   5   6
ENDBRANCH   4   5
ENDBRANCH   1   4
BRANCH   2  10
ATOM     10  C   UNL     1     -13.510  -3.257  16.209  1.00  0.00     0.055 C 
BRANCH  10  11
ATOM     11  C   UNL     1     -13.934  -4.632  15.763  1.00  0.00    -0.020 C 
ATOM     12  C   UNL     1     -15.171  -4.928  15.318  1.00  0.00    -0.055 C 
ATOM     13  C   UNL     1     -16.260  -3.880  15.245  1.00  0.00     0.044 C 
BRANCH  12  14
ATOM     14  C   UNL     1     -15.465  -6.340  14.964  1.00  0.00    -0.005 C 
ATOM     15  C   UNL     1     -14.737  -7.374  15.389  1.00  0.00     0.009 C 
ENDBRANCH  12  14
ENDBRANCH  10  11
ENDBRANCH   2  10
TORSDOF 6
ENDMDL
MODEL 4
REMARK VINA RESULT:    -1.206      0.833      1.352
REMARK INTER + INTRA:          -2.423
REMARK INTER:                  -3.732
REMARK INTRA:                   1.309
REMARK UNBOUND:                -0.793
REMARK SMILES C=CC(C)=CCC=C(C)CCC=C(C)C
REMARK SMILES IDX 8 1 7 2 9 3 10 4 11 5 12 6 14 7 13 8 15 9 6 10 5 11 3 12
REMARK SMILES IDX 4 13 2 14 1 15
REMARK H PARENT
REMARK Flexibility Score: inf
ROOT
ATOM      1  C   UNL     1     -15.938  -1.285  17.201  1.00  0.00    -0.077 C 
ATOM      2  C   UNL     1     -15.393  -1.327  18.440  1.00  0.00    -0.024 C 
ATOM      3  C   UNL     1     -16.850  -0.136  16.862  1.00  0.00     0.039 C 
ENDROOT
BRANCH   1   4
ATOM      4  C   UNL     1     -15.687  -2.357  16.155  1.00  0.00     0.034 C 
BRANCH   4   5
ATOM      5  C   UNL     1     -14.233  -2.851  16.176  1.00  0.00     0.032 C 
BRANCH   5   6
ATOM      6  C   UNL     1     -14.141  -4.341  15.948  1.00  0.00    -0.028 C 
ATOM      7  C   UNL     1     -14.933  -6.581  15.253  1.00  0.00     0.039 C 
ATOM      8  C   UNL     1     -15.123  -5.093  15.402  1.00  0.00    -0.080 C 
ATOM      9  C   UNL     1     -16.400  -4.486  14.875  1.00  0.00     0.039 C 
ENDBRANCH   5   6
ENDBRANCH   4   5
ENDBRANCH   1   4
BRANCH   2  10
ATOM     10  C   UNL     1     -14.426  -2.383  18.915  1.00  0.00     0.055 C 
BRANCH  10  11
ATOM     11  C   UNL     1     -13.717  -1.945  20.170  1.00  0.00    -0.020 C 
ATOM     12  C   UNL     1     -14.196  -2.150  21.413  1.00  0.00    -0.055 C 
ATOM     13  C   UNL     1     -15.522  -2.838  21.648  1.00  0.00     0.044 C 
BRANCH  12  14
ATOM     14  C   UNL     1     -13.415  -1.614  22.558  1.00  0.00    -0.005 C 
ATOM     15  C   UNL     1     -13.960  -0.945  23.574  1.00  0.00     0.009 C 
ENDBRANCH  12  14
ENDBRANCH  10  11
ENDBRANCH   2  10
TORSDOF 6
ENDMDL
MODEL 5
REMARK VINA RESULT:    -1.036      1.209      6.011
REMARK INTER + INTRA:          -2.193
REMARK INTER:                  -2.210
REMARK INTRA:                   0.017
REMARK UNBOUND:                -0.793
REMARK SMILES C=CC(C)=CCC=C(C)CCC=C(C)C
REMARK SMILES IDX 8 1 7 2 9 3 10 4 11 5 12 6 14 7 13 8 15 9 6 10 5 11 3 12
REMARK SMILES IDX 4 13 2 14 1 15
REMARK H PARENT
REMARK Flexibility Score: inf
ROOT
ATOM      1  C   UNL     1     -16.390  -0.595  17.207  1.00  0.00    -0.077 C 
ATOM      2  C   UNL     1     -17.038  -1.226  16.199  1.00  0.00    -0.024 C 
ATOM      3  C   UNL     1     -16.954   0.706  17.715  1.00  0.00     0.039 C 
ENDROOT
BRANCH   1   4
ATOM      4  C   UNL     1     -15.110  -1.130  17.825  1.00  0.00     0.034 C 
BRANCH   4   5
ATOM      5  C   UNL     1     -15.386  -1.956  19.090  1.00  0.00     0.032 C 
BRANCH   5   6
ATOM      6  C   UNL     1     -14.112  -2.311  19.819  1.00  0.00    -0.028 C 
ATOM      7  C   UNL     1     -12.601  -2.534  21.767  1.00  0.00     0.039 C 
ATOM      8  C   UNL     1     -13.931  -2.178  21.152  1.00  0.00    -0.080 C 
ATOM      9  C   UNL     1     -15.041  -1.734  22.072  1.00  0.00     0.039 C 
ENDBRANCH   5   6
ENDBRANCH   4   5
ENDBRANCH   1   4
BRANCH   2  10
ATOM     10  C   UNL     1     -16.626  -2.554  15.615  1.00  0.00     0.055 C 
BRANCH  10  11
ATOM     11  C   UNL     1     -15.147  -2.785  15.779  1.00  0.00    -0.020 C 
ATOM     12  C   UNL     1     -14.563  -3.996  15.684  1.00  0.00    -0.055 C 
ATOM     13  C   UNL     1     -15.368  -5.247  15.416  1.00  0.00     0.044 C 
BRANCH  12  14
ATOM     14  C   UNL     1     -13.099  -4.084  15.924  1.00  0.00    -0.005 C 
ATOM     15  C   UNL     1     -12.338  -3.034  16.237  1.00  0.00     0.009 C 
ENDBRANCH  12  14
ENDBRANCH  10  11
ENDBRANCH   2  10
TORSDOF 6
ENDMDL
