MODEL 1
REMARK VINA RESULT:    -4.721      0.000      0.000
REMARK INTER + INTRA:          -7.047
REMARK INTER:                  -6.376
REMARK INTRA:                  -0.671
REMARK UNBOUND:                -0.671
REMARK SMILES COc1ccc(-c2cc(=O)c3c(OC)c(OC)c(OC)cc3o2)cc1OC
REMARK SMILES IDX 7 1 8 2 9 3 10 4 11 5 12 6 15 7 18 8 21 9 22 10 23 11 6 12
REMARK SMILES IDX 3 13 25 14 4 15 24 16 5 17 2 18 1 19 26 20 27 21 13 22 14 23
REMARK SMILES IDX 19 24 20 25 16 26 17 27
REMARK H PARENT
REMARK Flexibility Score: inf
ROOT
ATOM      1  C   UNL     1       2.422  -0.576  -7.259  1.00  0.00     0.138 A 
ATOM      2  C   UNL     1       2.505  -0.980  -8.602  1.00  0.00     0.100 A 
ATOM      3  C   UNL     1       1.595  -1.916  -9.094  1.00  0.00     0.197 A 
ATOM      4  O   UNL     1       1.703  -2.297 -10.290  1.00  0.00    -0.289 OA
ATOM      5  C   UNL     1       0.596  -2.435  -8.241  1.00  0.00     0.111 A 
ATOM      6  C   UNL     1      -0.386  -3.364  -8.667  1.00  0.00     0.179 A 
ATOM      7  C   UNL     1      -1.278  -3.930  -7.720  1.00  0.00     0.204 A 
ATOM      8  C   UNL     1      -1.262  -3.478  -6.392  1.00  0.00     0.168 A 
ATOM      9  C   UNL     1      -0.331  -2.507  -5.992  1.00  0.00     0.098 A 
ATOM     10  C   UNL     1       0.601  -2.001  -6.897  1.00  0.00     0.146 A 
ATOM     11  O   UNL     1       1.490  -1.108  -6.474  1.00  0.00    -0.456 OA
ENDROOT
BRANCH   1  12
ATOM     12  C   UNL     1       3.364   0.416  -6.680  1.00  0.00     0.021 A 
ATOM     13  C   UNL     1       5.195   2.252  -5.564  1.00  0.00     0.160 A 
ATOM     14  C   UNL     1       3.829   2.570  -5.613  1.00  0.00     0.161 A 
ATOM     15  C   UNL     1       5.638   1.015  -6.064  1.00  0.00     0.051 A 
ATOM     16  C   UNL     1       2.918   1.648  -6.167  1.00  0.00     0.062 A 
ATOM     17  C   UNL     1       4.731   0.106  -6.610  1.00  0.00     0.016 A 
BRANCH  13  18
ATOM     18  O   UNL     1       6.079   3.192  -5.008  1.00  0.00    -0.493 OA
ATOM     19  C   UNL     1       6.778   4.181  -5.755  1.00  0.00     0.278 C 
ENDBRANCH  13  18
BRANCH  14  20
ATOM     20  O   UNL     1       3.416   3.808  -5.098  1.00  0.00    -0.493 OA
ATOM     21  C   UNL     1       2.953   4.900  -5.888  1.00  0.00     0.278 C 
ENDBRANCH  14  20
ENDBRANCH   1  12
BRANCH   6  22
ATOM     22  O   UNL     1      -0.499  -3.695 -10.019  1.00  0.00    -0.492 OA
ATOM     23  C   UNL     1      -1.551  -3.164 -10.819  1.00  0.00     0.278 C 
ENDBRANCH   6  22
BRANCH   8  24
ATOM     24  O   UNL     1      -2.190  -4.029  -5.492  1.00  0.00    -0.493 OA
ATOM     25  C   UNL     1      -3.353  -3.360  -5.018  1.00  0.00     0.278 C 
ENDBRANCH   8  24
BRANCH   7  26
ATOM     26  O   UNL     1      -2.202  -4.944  -8.035  1.00  0.00    -0.490 OA
ATOM     27  C   UNL     1      -1.927  -6.340  -8.085  1.00  0.00     0.278 C 
ENDBRANCH   7  26
TORSDOF 6
ENDMDL
MODEL 2
REMARK VINA RESULT:    -4.713      3.516      8.858
REMARK INTER + INTRA:          -7.037
REMARK INTER:                  -6.411
REMARK INTRA:                  -0.625
REMARK UNBOUND:                -0.671
REMARK SMILES COc1ccc(-c2cc(=O)c3c(OC)c(OC)c(OC)cc3o2)cc1OC
REMARK SMILES IDX 7 1 8 2 9 3 10 4 11 5 12 6 15 7 18 8 21 9 22 10 23 11 6 12
REMARK SMILES IDX 3 13 25 14 4 15 24 16 5 17 2 18 1 19 26 20 27 21 13 22 14 23
REMARK SMILES IDX 19 24 20 25 16 26 17 27
REMARK H PARENT
REMARK Flexibility Score: inf
ROOT
ATOM      1  C   UNL     1      -2.224   0.710  -7.083  1.00  0.00     0.138 A 
ATOM      2  C   UNL     1      -2.307   1.126  -8.421  1.00  0.00     0.100 A 
ATOM      3  C   UNL     1      -1.400   2.070  -8.903  1.00  0.00     0.197 A 
ATOM      4  O   UNL     1      -1.508   2.463 -10.096  1.00  0.00    -0.289 OA
ATOM      5  C   UNL     1      -0.404   2.585  -8.045  1.00  0.00     0.111 A 
ATOM      6  C   UNL     1       0.576   3.521  -8.460  1.00  0.00     0.179 A 
ATOM      7  C   UNL     1       1.465   4.081  -7.507  1.00  0.00     0.204 A 
ATOM      8  C   UNL     1       1.449   3.616  -6.183  1.00  0.00     0.168 A 
ATOM      9  C   UNL     1       0.521   2.638  -5.794  1.00  0.00     0.098 A 
ATOM     10  C   UNL     1      -0.408   2.137  -6.705  1.00  0.00     0.146 A 
ATOM     11  O   UNL     1      -1.294   1.237  -6.292  1.00  0.00    -0.456 OA
ENDROOT
BRANCH   1  12
ATOM     12  C   UNL     1      -3.162  -0.292  -6.515  1.00  0.00     0.021 A 
ATOM     13  C   UNL     1      -4.989  -2.146  -5.421  1.00  0.00     0.160 A 
ATOM     14  C   UNL     1      -3.616  -2.439  -5.430  1.00  0.00     0.161 A 
ATOM     15  C   UNL     1      -5.440  -0.924  -5.950  1.00  0.00     0.051 A 
ATOM     16  C   UNL     1      -2.707  -1.508  -5.972  1.00  0.00     0.062 A 
ATOM     17  C   UNL     1      -4.536  -0.007  -6.485  1.00  0.00     0.016 A 
BRANCH  13  18
ATOM     18  O   UNL     1      -5.870  -3.094  -4.875  1.00  0.00    -0.493 OA
ATOM     19  C   UNL     1      -6.510  -4.123  -5.622  1.00  0.00     0.278 C 
ENDBRANCH  13  18
BRANCH  14  20
ATOM     20  O   UNL     1      -3.194  -3.663  -4.887  1.00  0.00    -0.493 OA
ATOM     21  C   UNL     1      -2.331  -4.585  -5.544  1.00  0.00     0.278 C 
ENDBRANCH  14  20
ENDBRANCH   1  12
BRANCH   6  22
ATOM     22  O   UNL     1       0.688   3.866  -9.809  1.00  0.00    -0.492 OA
ATOM     23  C   UNL     1       1.745   3.349 -10.612  1.00  0.00     0.278 C 
ENDBRANCH   6  22
BRANCH   8  24
ATOM     24  O   UNL     1       2.374   4.161  -5.277  1.00  0.00    -0.493 OA
ATOM     25  C   UNL     1       3.661   3.616  -5.008  1.00  0.00     0.278 C 
ENDBRANCH   8  24
BRANCH   7  26
ATOM     26  O   UNL     1       2.385   5.102  -7.811  1.00  0.00    -0.490 OA
ATOM     27  C   UNL     1       2.092   6.491  -7.910  1.00  0.00     0.278 C 
ENDBRANCH   7  26
TORSDOF 6
ENDMDL
MODEL 3
REMARK VINA RESULT:    -4.599      1.989      3.210
REMARK INTER + INTRA:          -6.883
REMARK INTER:                  -6.182
REMARK INTRA:                  -0.701
REMARK UNBOUND:                -0.671
REMARK SMILES COc1ccc(-c2cc(=O)c3c(OC)c(OC)c(OC)cc3o2)cc1OC
REMARK SMILES IDX 7 1 8 2 9 3 10 4 11 5 12 6 15 7 18 8 21 9 22 10 23 11 6 12
REMARK SMILES IDX 3 13 25 14 4 15 24 16 5 17 2 18 1 19 26 20 27 21 13 22 14 23
REMARK SMILES IDX 19 24 20 25 16 26 17 27
REMARK H PARENT
REMARK Flexibility Score: inf
ROOT
ATOM      1  C   UNL     1       0.592   0.974  -5.929  1.00  0.00     0.138 A 
ATOM      2  C   UNL     1       1.291  -0.077  -6.545  1.00  0.00     0.100 A 
ATOM      3  C   UNL     1       0.645  -1.294  -6.764  1.00  0.00     0.197 A 
ATOM      4  O   UNL     1       1.294  -2.241  -7.284  1.00  0.00    -0.289 OA
ATOM      5  C   UNL     1      -0.704  -1.450  -6.377  1.00  0.00     0.111 A 
ATOM      6  C   UNL     1      -1.444  -2.640  -6.591  1.00  0.00     0.179 A 
ATOM      7  C   UNL     1      -2.755  -2.759  -6.063  1.00  0.00     0.204 A 
ATOM      8  C   UNL     1      -3.356  -1.656  -5.438  1.00  0.00     0.168 A 
ATOM      9  C   UNL     1      -2.641  -0.458  -5.290  1.00  0.00     0.098 A 
ATOM     10  C   UNL     1      -1.325  -0.355  -5.736  1.00  0.00     0.146 A 
ATOM     11  O   UNL     1      -0.668   0.784  -5.548  1.00  0.00    -0.456 OA
ENDROOT
BRANCH   1  12
ATOM     12  C   UNL     1       1.227   2.291  -5.670  1.00  0.00     0.021 A 
ATOM     13  C   UNL     1       2.385   4.825  -5.211  1.00  0.00     0.160 A 
ATOM     14  C   UNL     1       3.192   3.676  -5.205  1.00  0.00     0.161 A 
ATOM     15  C   UNL     1       1.006   4.702  -5.455  1.00  0.00     0.051 A 
ATOM     16  C   UNL     1       2.610   2.414  -5.440  1.00  0.00     0.062 A 
ATOM     17  C   UNL     1       0.437   3.450  -5.687  1.00  0.00     0.016 A 
BRANCH  13  18
ATOM     18  O   UNL     1       2.993   6.068  -4.973  1.00  0.00    -0.493 OA
ATOM     19  C   UNL     1       3.158   7.087  -5.953  1.00  0.00     0.278 C 
ENDBRANCH  13  18
BRANCH  14  20
ATOM     20  O   UNL     1       4.566   3.831  -4.968  1.00  0.00    -0.493 OA
ATOM     21  C   UNL     1       5.573   3.777  -5.974  1.00  0.00     0.278 C 
ENDBRANCH  14  20
ENDBRANCH   1  12
BRANCH   6  22
ATOM     22  O   UNL     1      -0.897  -3.678  -7.348  1.00  0.00    -0.492 OA
ATOM     23  C   UNL     1      -1.301  -3.894  -8.697  1.00  0.00     0.278 C 
ENDBRANCH   6  22
BRANCH   8  24
ATOM     24  O   UNL     1      -4.673  -1.797  -4.967  1.00  0.00    -0.493 OA
ATOM     25  C   UNL     1      -5.804  -1.130  -5.517  1.00  0.00     0.278 C 
ENDBRANCH   8  24
BRANCH   7  26
ATOM     26  O   UNL     1      -3.511  -3.944  -6.127  1.00  0.00    -0.490 OA
ATOM     27  C   UNL     1      -3.361  -5.079  -5.281  1.00  0.00     0.278 C 
ENDBRANCH   7  26
TORSDOF 6
ENDMDL
MODEL 4
REMARK VINA RESULT:    -4.583      1.643      2.164
REMARK INTER + INTRA:          -6.862
REMARK INTER:                  -6.228
REMARK INTRA:                  -0.635
REMARK UNBOUND:                -0.671
REMARK SMILES COc1ccc(-c2cc(=O)c3c(OC)c(OC)c(OC)cc3o2)cc1OC
REMARK SMILES IDX 7 1 8 2 9 3 10 4 11 5 12 6 15 7 18 8 21 9 22 10 23 11 6 12
REMARK SMILES IDX 3 13 25 14 4 15 24 16 5 17 2 18 1 19 26 20 27 21 13 22 14 23
REMARK SMILES IDX 19 24 20 25 16 26 17 27
REMARK H PARENT
REMARK Flexibility Score: inf
ROOT
ATOM      1  C   UNL     1       1.113  -1.935  -7.870  1.00  0.00     0.138 A 
ATOM      2  C   UNL     1       0.811  -2.060  -9.236  1.00  0.00     0.100 A 
ATOM      3  C   UNL     1      -0.105  -3.026  -9.651  1.00  0.00     0.197 A 
ATOM      4  O   UNL     1      -0.339  -3.151 -10.882  1.00  0.00    -0.289 OA
ATOM      5  C   UNL     1      -0.726  -3.858  -8.693  1.00  0.00     0.111 A 
ATOM      6  C   UNL     1      -1.690  -4.842  -9.024  1.00  0.00     0.179 A 
ATOM      7  C   UNL     1      -2.176  -5.719  -8.020  1.00  0.00     0.204 A 
ATOM      8  C   UNL     1      -1.790  -5.529  -6.684  1.00  0.00     0.168 A 
ATOM      9  C   UNL     1      -0.887  -4.507  -6.353  1.00  0.00     0.098 A 
ATOM     10  C   UNL     1      -0.344  -3.690  -7.343  1.00  0.00     0.146 A 
ATOM     11  O   UNL     1       0.535  -2.755  -6.997  1.00  0.00    -0.456 OA
ENDROOT
BRANCH   1  12
ATOM     12  C   UNL     1       2.080  -0.925  -7.370  1.00  0.00     0.021 A 
ATOM     13  C   UNL     1       3.970   0.954  -6.438  1.00  0.00     0.160 A 
ATOM     14  C   UNL     1       2.679   0.928  -5.886  1.00  0.00     0.161 A 
ATOM     15  C   UNL     1       4.312   0.036  -7.445  1.00  0.00     0.051 A 
ATOM     16  C   UNL     1       1.741  -0.016  -6.351  1.00  0.00     0.062 A 
ATOM     17  C   UNL     1       3.379  -0.896  -7.901  1.00  0.00     0.016 A 
BRANCH  13  18
ATOM     18  O   UNL     1       4.882   1.907  -5.955  1.00  0.00    -0.493 OA
ATOM     19  C   UNL     1       6.230   1.623  -5.597  1.00  0.00     0.278 C 
ENDBRANCH  13  18
BRANCH  14  20
ATOM     20  O   UNL     1       2.369   1.851  -4.875  1.00  0.00    -0.493 OA
ATOM     21  C   UNL     1       1.328   2.820  -4.956  1.00  0.00     0.278 C 
ENDBRANCH  14  20
ENDBRANCH   1  12
BRANCH   6  22
ATOM     22  O   UNL     1      -2.187  -4.927 -10.327  1.00  0.00    -0.492 OA
ATOM     23  C   UNL     1      -3.423  -4.315 -10.681  1.00  0.00     0.278 C 
ENDBRANCH   6  22
BRANCH   8  24
ATOM     24  O   UNL     1      -2.326  -6.388  -5.710  1.00  0.00    -0.493 OA
ATOM     25  C   UNL     1      -3.435  -6.073  -4.875  1.00  0.00     0.278 C 
ENDBRANCH   8  24
BRANCH   7  26
ATOM     26  O   UNL     1      -3.041  -6.796  -8.284  1.00  0.00    -0.490 OA
ATOM     27  C   UNL     1      -2.665  -8.059  -8.823  1.00  0.00     0.278 C 
ENDBRANCH   7  26
TORSDOF 6
ENDMDL
MODEL 5
REMARK VINA RESULT:    -4.521      2.221      8.832
REMARK INTER + INTRA:          -6.778
REMARK INTER:                  -6.084
REMARK INTRA:                  -0.694
REMARK UNBOUND:                -0.671
REMARK SMILES COc1ccc(-c2cc(=O)c3c(OC)c(OC)c(OC)cc3o2)cc1OC
REMARK SMILES IDX 7 1 8 2 9 3 10 4 11 5 12 6 15 7 18 8 21 9 22 10 23 11 6 12
REMARK SMILES IDX 3 13 25 14 4 15 24 16 5 17 2 18 1 19 26 20 27 21 13 22 14 23
REMARK SMILES IDX 19 24 20 25 16 26 17 27
REMARK H PARENT
REMARK Flexibility Score: inf
ROOT
ATOM      1  C   UNL     1      -0.999  -3.079  -6.831  1.00  0.00     0.138 A 
ATOM      2  C   UNL     1      -1.706  -2.043  -6.199  1.00  0.00     0.100 A 
ATOM      3  C   UNL     1      -1.130  -0.776  -6.108  1.00  0.00     0.197 A 
ATOM      4  O   UNL     1      -1.760   0.135  -5.507  1.00  0.00    -0.289 OA
ATOM      5  C   UNL     1       0.148  -0.547  -6.662  1.00  0.00     0.111 A 
ATOM      6  C   UNL     1       0.792   0.716  -6.642  1.00  0.00     0.179 A 
ATOM      7  C   UNL     1       2.126   0.835  -7.110  1.00  0.00     0.204 A 
ATOM      8  C   UNL     1       2.757  -0.270  -7.701  1.00  0.00     0.168 A 
ATOM      9  C   UNL     1       2.087  -1.501  -7.780  1.00  0.00     0.098 A 
ATOM     10  C   UNL     1       0.806  -1.649  -7.253  1.00  0.00     0.146 A 
ATOM     11  O   UNL     1       0.216  -2.838  -7.314  1.00  0.00    -0.456 OA
ENDROOT
BRANCH   1  12
ATOM     12  C   UNL     1      -1.561  -4.448  -6.958  1.00  0.00     0.021 A 
ATOM     13  C   UNL     1      -2.607  -7.064  -7.136  1.00  0.00     0.160 A 
ATOM     14  C   UNL     1      -2.249  -6.373  -8.304  1.00  0.00     0.161 A 
ATOM     15  C   UNL     1      -2.432  -6.448  -5.885  1.00  0.00     0.051 A 
ATOM     16  C   UNL     1      -1.722  -5.069  -8.210  1.00  0.00     0.062 A 
ATOM     17  C   UNL     1      -1.909  -5.157  -5.798  1.00  0.00     0.016 A 
BRANCH  13  18
ATOM     18  O   UNL     1      -3.131  -8.361  -7.262  1.00  0.00    -0.493 OA
ATOM     19  C   UNL     1      -4.465  -8.728  -6.928  1.00  0.00     0.278 C 
ENDBRANCH  13  18
BRANCH  14  20
ATOM     20  O   UNL     1      -2.427  -7.017  -9.538  1.00  0.00    -0.493 OA
ATOM     21  C   UNL     1      -3.087  -6.444 -10.663  1.00  0.00     0.278 C 
ENDBRANCH  14  20
ENDBRANCH   1  12
BRANCH   6  22
ATOM     22  O   UNL     1       0.104   1.846  -6.195  1.00  0.00    -0.492 OA
ATOM     23  C   UNL     1      -0.386   2.818  -7.114  1.00  0.00     0.278 C 
ENDBRANCH   6  22
BRANCH   8  24
ATOM     24  O   UNL     1       4.062  -0.104  -8.194  1.00  0.00    -0.493 OA
ATOM     25  C   UNL     1       5.242  -0.521  -7.518  1.00  0.00     0.278 C 
ENDBRANCH   8  24
BRANCH   7  26
ATOM     26  O   UNL     1       2.877   2.021  -7.016  1.00  0.00    -0.490 OA
ATOM     27  C   UNL     1       3.547   2.498  -5.854  1.00  0.00     0.278 C 
ENDBRANCH   7  26
TORSDOF 6
ENDMDL
MODEL 6
REMARK VINA RESULT:    -4.513      2.591      8.455
REMARK INTER + INTRA:          -6.767
REMARK INTER:                  -6.082
REMARK INTRA:                  -0.685
REMARK UNBOUND:                -0.671
REMARK SMILES COc1ccc(-c2cc(=O)c3c(OC)c(OC)c(OC)cc3o2)cc1OC
REMARK SMILES IDX 7 1 8 2 9 3 10 4 11 5 12 6 15 7 18 8 21 9 22 10 23 11 6 12
REMARK SMILES IDX 3 13 25 14 4 15 24 16 5 17 2 18 1 19 26 20 27 21 13 22 14 23
REMARK SMILES IDX 19 24 20 25 16 26 17 27
REMARK H PARENT
REMARK Flexibility Score: inf
ROOT
ATOM      1  C   UNL     1      -0.494  -0.942  -6.055  1.00  0.00     0.138 A 
ATOM      2  C   UNL     1      -1.193   0.146  -6.603  1.00  0.00     0.100 A 
ATOM      3  C   UNL     1      -0.543   1.370  -6.758  1.00  0.00     0.197 A 
ATOM      4  O   UNL     1      -1.192   2.348  -7.216  1.00  0.00    -0.289 OA
ATOM      5  C   UNL     1       0.810   1.498  -6.375  1.00  0.00     0.111 A 
ATOM      6  C   UNL     1       1.554   2.694  -6.527  1.00  0.00     0.179 A 
ATOM      7  C   UNL     1       2.871   2.777  -6.006  1.00  0.00     0.204 A 
ATOM      8  C   UNL     1       3.472   1.637  -5.451  1.00  0.00     0.168 A 
ATOM      9  C   UNL     1       2.753   0.435  -5.365  1.00  0.00     0.098 A 
ATOM     10  C   UNL     1       1.432   0.365  -5.804  1.00  0.00     0.146 A 
ATOM     11  O   UNL     1       0.770  -0.781  -5.676  1.00  0.00    -0.456 OA
ENDROOT
BRANCH   1  12
ATOM     12  C   UNL     1      -1.133  -2.269  -5.866  1.00  0.00     0.021 A 
ATOM     13  C   UNL     1      -2.291  -4.822  -5.524  1.00  0.00     0.160 A 
ATOM     14  C   UNL     1      -3.106  -3.719  -5.823  1.00  0.00     0.161 A 
ATOM     15  C   UNL     1      -0.902  -4.645  -5.407  1.00  0.00     0.051 A 
ATOM     16  C   UNL     1      -2.523  -2.448  -5.998  1.00  0.00     0.062 A 
ATOM     17  C   UNL     1      -0.330  -3.385  -5.582  1.00  0.00     0.016 A 
BRANCH  13  18
ATOM     18  O   UNL     1      -2.901  -6.075  -5.354  1.00  0.00    -0.493 OA
ATOM     19  C   UNL     1      -2.859  -7.129  -6.310  1.00  0.00     0.278 C 
ENDBRANCH  13  18
BRANCH  14  20
ATOM     20  O   UNL     1      -4.489  -3.927  -5.943  1.00  0.00    -0.493 OA
ATOM     21  C   UNL     1      -5.487  -3.015  -5.495  1.00  0.00     0.278 C 
ENDBRANCH  14  20
ENDBRANCH   1  12
BRANCH   6  22
ATOM     22  O   UNL     1       1.006   3.777  -7.218  1.00  0.00    -0.492 OA
ATOM     23  C   UNL     1       1.419   4.084  -8.546  1.00  0.00     0.278 C 
ENDBRANCH   6  22
BRANCH   8  24
ATOM     24  O   UNL     1       4.794   1.744  -4.985  1.00  0.00    -0.493 OA
ATOM     25  C   UNL     1       5.933   1.214  -5.654  1.00  0.00     0.278 C 
ENDBRANCH   8  24
BRANCH   7  26
ATOM     26  O   UNL     1       3.633   3.960  -6.008  1.00  0.00    -0.490 OA
ATOM     27  C   UNL     1       3.515   5.033  -5.080  1.00  0.00     0.278 C 
ENDBRANCH   7  26
TORSDOF 6
ENDMDL
MODEL 7
REMARK VINA RESULT:    -4.413      2.822      8.604
REMARK INTER + INTRA:          -6.632
REMARK INTER:                  -5.969
REMARK INTRA:                  -0.663
REMARK UNBOUND:                -0.671
REMARK SMILES COc1ccc(-c2cc(=O)c3c(OC)c(OC)c(OC)cc3o2)cc1OC
REMARK SMILES IDX 7 1 8 2 9 3 10 4 11 5 12 6 15 7 18 8 21 9 22 10 23 11 6 12
REMARK SMILES IDX 3 13 25 14 4 15 24 16 5 17 2 18 1 19 26 20 27 21 13 22 14 23
REMARK SMILES IDX 19 24 20 25 16 26 17 27
REMARK H PARENT
REMARK Flexibility Score: inf
ROOT
ATOM      1  C   UNL     1      -0.802   0.342  -6.034  1.00  0.00     0.138 A 
ATOM      2  C   UNL     1      -1.126   1.508  -6.747  1.00  0.00     0.100 A 
ATOM      3  C   UNL     1      -0.136   2.460  -6.991  1.00  0.00     0.197 A 
ATOM      4  O   UNL     1      -0.448   3.517  -7.601  1.00  0.00    -0.289 OA
ATOM      5  C   UNL     1       1.180   2.235  -6.530  1.00  0.00     0.111 A 
ATOM      6  C   UNL     1       2.251   3.133  -6.761  1.00  0.00     0.179 A 
ATOM      7  C   UNL     1       3.514   2.894  -6.160  1.00  0.00     0.204 A 
ATOM      8  C   UNL     1       3.728   1.709  -5.439  1.00  0.00     0.168 A 
ATOM      9  C   UNL     1       2.681   0.791  -5.272  1.00  0.00     0.098 A 
ATOM     10  C   UNL     1       1.415   1.053  -5.793  1.00  0.00     0.146 A 
ATOM     11  O   UNL     1       0.438   0.175  -5.585  1.00  0.00    -0.456 OA
ENDROOT
BRANCH   1  12
ATOM     12  C   UNL     1      -1.814  -0.705  -5.744  1.00  0.00     0.021 A 
ATOM     13  C   UNL     1      -3.780  -2.649  -5.171  1.00  0.00     0.160 A 
ATOM     14  C   UNL     1      -2.423  -3.009  -5.178  1.00  0.00     0.161 A 
ATOM     15  C   UNL     1      -4.147  -1.320  -5.440  1.00  0.00     0.051 A 
ATOM     16  C   UNL     1      -1.445  -2.033  -5.460  1.00  0.00     0.062 A 
ATOM     17  C   UNL     1      -3.174  -0.359  -5.717  1.00  0.00     0.016 A 
BRANCH  13  18
ATOM     18  O   UNL     1      -4.731  -3.643  -4.888  1.00  0.00    -0.493 OA
ATOM     19  C   UNL     1      -5.955  -3.811  -5.595  1.00  0.00     0.278 C 
ENDBRANCH  13  18
BRANCH  14  20
ATOM     20  O   UNL     1      -2.087  -4.342  -4.897  1.00  0.00    -0.493 OA
ATOM     21  C   UNL     1      -1.530  -5.252  -5.840  1.00  0.00     0.278 C 
ENDBRANCH  14  20
ENDBRANCH   1  12
BRANCH   6  22
ATOM     22  O   UNL     1       2.075   4.231  -7.606  1.00  0.00    -0.492 OA
ATOM     23  C   UNL     1       2.575   4.218  -8.940  1.00  0.00     0.278 C 
ENDBRANCH   6  22
BRANCH   8  24
ATOM     24  O   UNL     1       5.004   1.485  -4.896  1.00  0.00    -0.493 OA
ATOM     25  C   UNL     1       6.004   0.663  -5.489  1.00  0.00     0.278 C 
ENDBRANCH   8  24
BRANCH   7  26
ATOM     26  O   UNL     1       4.593   3.794  -6.240  1.00  0.00    -0.490 OA
ATOM     27  C   UNL     1       4.869   4.853  -5.331  1.00  0.00     0.278 C 
ENDBRANCH   7  26
TORSDOF 6
ENDMDL
MODEL 8
REMARK VINA RESULT:    -4.406      1.848      2.443
REMARK INTER + INTRA:          -6.622
REMARK INTER:                  -5.916
REMARK INTRA:                  -0.707
REMARK UNBOUND:                -0.671
REMARK SMILES COc1ccc(-c2cc(=O)c3c(OC)c(OC)c(OC)cc3o2)cc1OC
REMARK SMILES IDX 7 1 8 2 9 3 10 4 11 5 12 6 15 7 18 8 21 9 22 10 23 11 6 12
REMARK SMILES IDX 3 13 25 14 4 15 24 16 5 17 2 18 1 19 26 20 27 21 13 22 14 23
REMARK SMILES IDX 19 24 20 25 16 26 17 27
REMARK H PARENT
REMARK Flexibility Score: inf
ROOT
ATOM      1  C   UNL     1       0.775  -0.472  -6.441  1.00  0.00     0.138 A 
ATOM      2  C   UNL     1       1.067  -1.628  -7.183  1.00  0.00     0.100 A 
ATOM      3  C   UNL     1       0.080  -2.598  -7.360  1.00  0.00     0.197 A 
ATOM      4  O   UNL     1       0.367  -3.646  -7.996  1.00  0.00    -0.289 OA
ATOM      5  C   UNL     1      -1.202  -2.400  -6.801  1.00  0.00     0.111 A 
ATOM      6  C   UNL     1      -2.270  -3.319  -6.959  1.00  0.00     0.179 A 
ATOM      7  C   UNL     1      -3.489  -3.107  -6.265  1.00  0.00     0.204 A 
ATOM      8  C   UNL     1      -3.673  -1.929  -5.525  1.00  0.00     0.168 A 
ATOM      9  C   UNL     1      -2.634  -0.991  -5.429  1.00  0.00     0.098 A 
ATOM     10  C   UNL     1      -1.405  -1.226  -6.043  1.00  0.00     0.146 A 
ATOM     11  O   UNL     1      -0.432  -0.331  -5.902  1.00  0.00    -0.456 OA
ENDROOT
BRANCH   1  12
ATOM     12  C   UNL     1       1.785   0.594  -6.220  1.00  0.00     0.021 A 
ATOM     13  C   UNL     1       3.754   2.573  -5.797  1.00  0.00     0.160 A 
ATOM     14  C   UNL     1       2.420   2.826  -5.439  1.00  0.00     0.161 A 
ATOM     15  C   UNL     1       4.098   1.330  -6.355  1.00  0.00     0.051 A 
ATOM     16  C   UNL     1       1.442   1.833  -5.648  1.00  0.00     0.062 A 
ATOM     17  C   UNL     1       3.125   0.351  -6.559  1.00  0.00     0.016 A 
BRANCH  13  18
ATOM     18  O   UNL     1       4.705   3.583  -5.578  1.00  0.00    -0.493 OA
ATOM     19  C   UNL     1       5.243   4.418  -6.598  1.00  0.00     0.278 C 
ENDBRANCH  13  18
BRANCH  14  20
ATOM     20  O   UNL     1       2.108   4.073  -4.875  1.00  0.00    -0.493 OA
ATOM     21  C   UNL     1       0.843   4.718  -4.988  1.00  0.00     0.278 C 
ENDBRANCH  14  20
ENDBRANCH   1  12
BRANCH   6  22
ATOM     22  O   UNL     1      -2.135  -4.409  -7.821  1.00  0.00    -0.492 OA
ATOM     23  C   UNL     1      -2.750  -4.409  -9.106  1.00  0.00     0.278 C 
ENDBRANCH   6  22
BRANCH   8  24
ATOM     24  O   UNL     1      -4.910  -1.732  -4.888  1.00  0.00    -0.493 OA
ATOM     25  C   UNL     1      -5.897  -0.797  -5.308  1.00  0.00     0.278 C 
ENDBRANCH   8  24
BRANCH   7  26
ATOM     26  O   UNL     1      -4.554  -4.026  -6.272  1.00  0.00    -0.490 OA
ATOM     27  C   UNL     1      -4.642  -5.210  -5.485  1.00  0.00     0.278 C 
ENDBRANCH   7  26
TORSDOF 6
ENDMDL
MODEL 9
REMARK VINA RESULT:    -4.340      1.799      4.002
REMARK INTER + INTRA:          -6.533
REMARK INTER:                  -5.870
REMARK INTRA:                  -0.663
REMARK UNBOUND:                -0.671
REMARK SMILES COc1ccc(-c2cc(=O)c3c(OC)c(OC)c(OC)cc3o2)cc1OC
REMARK SMILES IDX 7 1 8 2 9 3 10 4 11 5 12 6 15 7 18 8 21 9 22 10 23 11 6 12
REMARK SMILES IDX 3 13 25 14 4 15 24 16 5 17 2 18 1 19 26 20 27 21 13 22 14 23
REMARK SMILES IDX 19 24 20 25 16 26 17 27
REMARK H PARENT
REMARK Flexibility Score: inf
ROOT
ATOM      1  C   UNL     1       1.005   1.294  -6.180  1.00  0.00     0.138 A 
ATOM      2  C   UNL     1       0.039   0.734  -5.329  1.00  0.00     0.100 A 
ATOM      3  C   UNL     1      -0.493  -0.521  -5.627  1.00  0.00     0.197 A 
ATOM      4  O   UNL     1      -1.385  -0.997  -4.876  1.00  0.00    -0.289 OA
ATOM      5  C   UNL     1      -0.045  -1.216  -6.772  1.00  0.00     0.111 A 
ATOM      6  C   UNL     1      -0.508  -2.507  -7.131  1.00  0.00     0.179 A 
ATOM      7  C   UNL     1      -0.100  -3.084  -8.361  1.00  0.00     0.204 A 
ATOM      8  C   UNL     1       0.851  -2.429  -9.157  1.00  0.00     0.168 A 
ATOM      9  C   UNL     1       1.357  -1.181  -8.761  1.00  0.00     0.098 A 
ATOM     10  C   UNL     1       0.906  -0.569  -7.593  1.00  0.00     0.146 A 
ATOM     11  O   UNL     1       1.382   0.628  -7.267  1.00  0.00    -0.456 OA
ENDROOT
BRANCH   1  12
ATOM     12  C   UNL     1       1.605   2.626  -5.913  1.00  0.00     0.021 A 
ATOM     13  C   UNL     1       2.689   5.187  -5.423  1.00  0.00     0.160 A 
ATOM     14  C   UNL     1       3.537   4.125  -5.774  1.00  0.00     0.161 A 
ATOM     15  C   UNL     1       1.304   4.967  -5.327  1.00  0.00     0.051 A 
ATOM     16  C   UNL     1       2.991   2.850  -6.023  1.00  0.00     0.062 A 
ATOM     17  C   UNL     1       0.770   3.702  -5.575  1.00  0.00     0.016 A 
BRANCH  13  18
ATOM     18  O   UNL     1       3.263   6.446  -5.179  1.00  0.00    -0.493 OA
ATOM     19  C   UNL     1       3.348   7.492  -6.140  1.00  0.00     0.278 C 
ENDBRANCH  13  18
BRANCH  14  20
ATOM     20  O   UNL     1       4.914   4.377  -5.871  1.00  0.00    -0.493 OA
ATOM     21  C   UNL     1       5.925   3.375  -5.838  1.00  0.00     0.278 C 
ENDBRANCH  14  20
ENDBRANCH   1  12
BRANCH   6  22
ATOM     22  O   UNL     1      -1.334  -3.222  -6.262  1.00  0.00    -0.492 OA
ATOM     23  C   UNL     1      -0.822  -4.296  -5.480  1.00  0.00     0.278 C 
ENDBRANCH   6  22
BRANCH   8  24
ATOM     24  O   UNL     1       1.265  -3.052 -10.346  1.00  0.00    -0.493 OA
ATOM     25  C   UNL     1       1.437  -2.385 -11.592  1.00  0.00     0.278 C 
ENDBRANCH   8  24
BRANCH   7  26
ATOM     26  O   UNL     1      -0.604  -4.305  -8.848  1.00  0.00    -0.490 OA
ATOM     27  C   UNL     1      -1.870  -4.501  -9.468  1.00  0.00     0.278 C 
ENDBRANCH   7  26
TORSDOF 6
ENDMDL
