MODEL 1
REMARK VINA RESULT:    -4.053      0.000      0.000
REMARK INTER + INTRA:          -7.206
REMARK INTER:                  -6.186
REMARK INTRA:                  -1.020
REMARK UNBOUND:                -1.020
REMARK SMILES O=C([O-])CCCCCCCCC(=O)[O-]
REMARK SMILES IDX 7 1 6 2 5 3 4 4 2 5 1 6 3 7 8 8 9 9 10 10 11 11 12 12 13 13
REMARK SMILES IDX 14 14
REMARK H PARENT
REMARK Flexibility Score: inf
ROOT
ATOM      1  C   UNL     1      16.602 -30.276  21.797  1.00  0.00     0.000 C 
ENDROOT
BRANCH   1   2
ATOM      2  C   UNL     1      16.621 -31.763  21.407  1.00  0.00     0.000 C 
BRANCH   2   3
ATOM      3  C   UNL     1      16.352 -32.693  22.600  1.00  0.00     0.006 C 
BRANCH   3   4
ATOM      4  C   UNL     1      15.312 -33.760  22.240  1.00  0.00     0.053 C 
BRANCH   4   5
ATOM      5  C   UNL     1      15.907 -34.785  21.328  1.00  0.00     0.041 C 
ATOM      6  O   UNL     1      15.291 -35.142  20.289  1.00  0.00    -0.550 OA
ATOM      7  O   UNL     1      17.117 -35.384  21.650  1.00  0.00    -0.550 OA
ENDBRANCH   4   5
ENDBRANCH   3   4
ENDBRANCH   2   3
ENDBRANCH   1   2
BRANCH   1   8
ATOM      8  C   UNL     1      15.939 -30.032  23.164  1.00  0.00     0.000 C 
BRANCH   8   9
ATOM      9  C   UNL     1      14.702 -29.125  23.065  1.00  0.00     0.000 C 
BRANCH   9  10
ATOM     10  C   UNL     1      13.493 -29.686  23.833  1.00  0.00     0.006 C 
BRANCH  10  11
ATOM     11  C   UNL     1      13.034 -31.043  23.281  1.00  0.00     0.053 C 
BRANCH  11  12
ATOM     12  C   UNL     1      12.411 -30.908  21.927  1.00  0.00     0.041 C 
ATOM     13  O   UNL     1      11.274 -30.380  21.800  1.00  0.00    -0.550 OA
ATOM     14  O   UNL     1      13.072 -31.395  20.806  1.00  0.00    -0.550 OA
ENDBRANCH  11  12
ENDBRANCH  10  11
ENDBRANCH   9  10
ENDBRANCH   8   9
ENDBRANCH   1   8
TORSDOF 9
ENDMDL
MODEL 2
REMARK VINA RESULT:    -4.046      1.708      2.474
REMARK INTER + INTRA:          -7.195
REMARK INTER:                  -6.687
REMARK INTRA:                  -0.508
REMARK UNBOUND:                -1.020
REMARK SMILES O=C([O-])CCCCCCCCC(=O)[O-]
REMARK SMILES IDX 7 1 6 2 5 3 4 4 2 5 1 6 3 7 8 8 9 9 10 10 11 11 12 12 13 13
REMARK SMILES IDX 14 14
REMARK H PARENT
REMARK Flexibility Score: inf
ROOT
ATOM      1  C   UNL     1      14.205 -32.365  21.442  1.00  0.00     0.000 C 
ENDROOT
BRANCH   1   2
ATOM      2  C   UNL     1      15.126 -33.596  21.433  1.00  0.00     0.000 C 
BRANCH   2   3
ATOM      3  C   UNL     1      15.077 -34.365  20.103  1.00  0.00     0.006 C 
BRANCH   3   4
ATOM      4  C   UNL     1      16.440 -34.339  19.405  1.00  0.00     0.053 C 
BRANCH   4   5
ATOM      5  C   UNL     1      17.287 -35.484  19.864  1.00  0.00     0.041 C 
ATOM      6  O   UNL     1      18.350 -35.269  20.504  1.00  0.00    -0.550 OA
ATOM      7  O   UNL     1      16.928 -36.786  19.542  1.00  0.00    -0.550 OA
ENDBRANCH   4   5
ENDBRANCH   3   4
ENDBRANCH   2   3
ENDBRANCH   1   2
BRANCH   1   8
ATOM      8  C   UNL     1      14.975 -31.052  21.663  1.00  0.00     0.000 C 
BRANCH   8   9
ATOM      9  C   UNL     1      15.071 -30.668  23.147  1.00  0.00     0.000 C 
BRANCH   9  10
ATOM     10  C   UNL     1      13.709 -30.718  23.863  1.00  0.00     0.006 C 
BRANCH  10  11
ATOM     11  C   UNL     1      13.086 -29.324  24.020  1.00  0.00     0.053 C 
BRANCH  11  12
ATOM     12  C   UNL     1      11.901 -29.143  23.123  1.00  0.00     0.041 C 
ATOM     13  O   UNL     1      11.195 -28.103  23.205  1.00  0.00    -0.550 OA
ATOM     14  O   UNL     1      11.556 -30.139  22.218  1.00  0.00    -0.550 OA
ENDBRANCH  11  12
ENDBRANCH  10  11
ENDBRANCH   9  10
ENDBRANCH   8   9
ENDBRANCH   1   8
TORSDOF 9
ENDMDL
MODEL 3
REMARK VINA RESULT:    -4.029      2.106      6.326
REMARK INTER + INTRA:          -7.170
REMARK INTER:                  -6.734
REMARK INTRA:                  -0.436
REMARK UNBOUND:                -1.020
REMARK SMILES O=C([O-])CCCCCCCCC(=O)[O-]
REMARK SMILES IDX 7 1 6 2 5 3 4 4 2 5 1 6 3 7 8 8 9 9 10 10 11 11 12 12 13 13
REMARK SMILES IDX 14 14
REMARK H PARENT
REMARK Flexibility Score: inf
ROOT
ATOM      1  C   UNL     1      13.490 -32.130  20.459  1.00  0.00     0.000 C 
ENDROOT
BRANCH   1   2
ATOM      2  C   UNL     1      13.860 -31.041  21.479  1.00  0.00     0.000 C 
BRANCH   2   3
ATOM      3  C   UNL     1      12.687 -30.665  22.398  1.00  0.00     0.006 C 
BRANCH   3   4
ATOM      4  C   UNL     1      13.192 -30.060  23.711  1.00  0.00     0.053 C 
BRANCH   4   5
ATOM      5  C   UNL     1      12.592 -28.708  23.932  1.00  0.00     0.041 C 
ATOM      6  O   UNL     1      13.285 -27.781  24.429  1.00  0.00    -0.550 OA
ATOM      7  O   UNL     1      11.255 -28.484  23.635  1.00  0.00    -0.550 OA
ENDBRANCH   4   5
ENDBRANCH   3   4
ENDBRANCH   2   3
ENDBRANCH   1   2
BRANCH   1   8
ATOM      8  C   UNL     1      14.465 -33.320  20.485  1.00  0.00     0.000 C 
BRANCH   8   9
ATOM      9  C   UNL     1      15.591 -33.137  21.514  1.00  0.00     0.000 C 
BRANCH   9  10
ATOM     10  C   UNL     1      16.073 -34.471  22.110  1.00  0.00     0.006 C 
BRANCH  10  11
ATOM     11  C   UNL     1      17.375 -34.959  21.459  1.00  0.00     0.053 C 
BRANCH  11  12
ATOM     12  C   UNL     1      17.153 -36.185  20.629  1.00  0.00     0.041 C 
ATOM     13  O   UNL     1      16.329 -36.167  19.677  1.00  0.00    -0.550 OA
ATOM     14  O   UNL     1      17.834 -37.358  20.928  1.00  0.00    -0.550 OA
ENDBRANCH  11  12
ENDBRANCH  10  11
ENDBRANCH   9  10
ENDBRANCH   8   9
ENDBRANCH   1   8
TORSDOF 9
ENDMDL
MODEL 4
REMARK VINA RESULT:    -4.017      2.423      3.290
REMARK INTER + INTRA:          -7.151
REMARK INTER:                  -6.703
REMARK INTRA:                  -0.449
REMARK UNBOUND:                -1.020
REMARK SMILES O=C([O-])CCCCCCCCC(=O)[O-]
REMARK SMILES IDX 7 1 6 2 5 3 4 4 2 5 1 6 3 7 8 8 9 9 10 10 11 11 12 12 13 13
REMARK SMILES IDX 14 14
REMARK H PARENT
REMARK Flexibility Score: inf
ROOT
ATOM      1  C   UNL     1      14.626 -33.626  20.204  1.00  0.00     0.000 C 
ENDROOT
BRANCH   1   2
ATOM      2  C   UNL     1      15.458 -34.807  20.731  1.00  0.00     0.000 C 
BRANCH   2   3
ATOM      3  C   UNL     1      16.445 -35.350  19.687  1.00  0.00     0.006 C 
BRANCH   3   4
ATOM      4  C   UNL     1      17.346 -34.232  19.151  1.00  0.00     0.053 C 
BRANCH   4   5
ATOM      5  C   UNL     1      18.160 -33.639  20.257  1.00  0.00     0.041 C 
ATOM      6  O   UNL     1      18.136 -32.397  20.465  1.00  0.00    -0.550 OA
ATOM      7  O   UNL     1      18.984 -34.449  21.025  1.00  0.00    -0.550 OA
ENDBRANCH   4   5
ENDBRANCH   3   4
ENDBRANCH   2   3
ENDBRANCH   1   2
BRANCH   1   8
ATOM      8  C   UNL     1      14.344 -32.571  21.288  1.00  0.00     0.000 C 
BRANCH   8   9
ATOM      9  C   UNL     1      13.275 -31.555  20.857  1.00  0.00     0.000 C 
BRANCH   9  10
ATOM     10  C   UNL     1      12.504 -30.962  22.049  1.00  0.00     0.006 C 
BRANCH  10  11
ATOM     11  C   UNL     1      13.399 -30.774  23.281  1.00  0.00     0.053 C 
BRANCH  11  12
ATOM     12  C   UNL     1      13.445 -29.343  23.720  1.00  0.00     0.041 C 
ATOM     13  O   UNL     1      12.511 -28.862  24.416  1.00  0.00    -0.550 OA
ATOM     14  O   UNL     1      14.503 -28.531  23.333  1.00  0.00    -0.550 OA
ENDBRANCH  11  12
ENDBRANCH  10  11
ENDBRANCH   9  10
ENDBRANCH   8   9
ENDBRANCH   1   8
TORSDOF 9
ENDMDL
MODEL 5
REMARK VINA RESULT:    -3.998      2.165      3.245
REMARK INTER + INTRA:          -7.122
REMARK INTER:                  -6.453
REMARK INTRA:                  -0.668
REMARK UNBOUND:                -1.020
REMARK SMILES O=C([O-])CCCCCCCCC(=O)[O-]
REMARK SMILES IDX 7 1 6 2 5 3 4 4 2 5 1 6 3 7 8 8 9 9 10 10 11 11 12 12 13 13
REMARK SMILES IDX 14 14
REMARK H PARENT
REMARK Flexibility Score: inf
ROOT
ATOM      1  C   UNL     1      14.823 -33.076  22.171  1.00  0.00     0.000 C 
ENDROOT
BRANCH   1   2
ATOM      2  C   UNL     1      15.505 -34.398  21.784  1.00  0.00     0.000 C 
BRANCH   2   3
ATOM      3  C   UNL     1      15.285 -34.771  20.310  1.00  0.00     0.006 C 
BRANCH   3   4
ATOM      4  C   UNL     1      16.364 -35.745  19.825  1.00  0.00     0.053 C 
BRANCH   4   5
ATOM      5  C   UNL     1      17.659 -35.029  19.610  1.00  0.00     0.041 C 
ATOM      6  O   UNL     1      18.637 -35.246  20.374  1.00  0.00    -0.550 OA
ATOM      7  O   UNL     1      17.772 -34.084  18.599  1.00  0.00    -0.550 OA
ENDBRANCH   4   5
ENDBRANCH   3   4
ENDBRANCH   2   3
ENDBRANCH   1   2
BRANCH   1   8
ATOM      8  C   UNL     1      14.052 -32.443  20.999  1.00  0.00     0.000 C 
BRANCH   8   9
ATOM      9  C   UNL     1      13.136 -31.294  21.448  1.00  0.00     0.000 C 
BRANCH   9  10
ATOM     10  C   UNL     1      13.251 -30.997  22.953  1.00  0.00     0.006 C 
BRANCH  10  11
ATOM     11  C   UNL     1      13.689 -29.551  23.226  1.00  0.00     0.053 C 
BRANCH  11  12
ATOM     12  C   UNL     1      15.099 -29.307  22.787  1.00  0.00     0.041 C 
ATOM     13  O   UNL     1      15.344 -28.490  21.860  1.00  0.00    -0.550 OA
ATOM     14  O   UNL     1      16.142 -30.007  23.381  1.00  0.00    -0.550 OA
ENDBRANCH  11  12
ENDBRANCH  10  11
ENDBRANCH   9  10
ENDBRANCH   8   9
ENDBRANCH   1   8
TORSDOF 9
ENDMDL
MODEL 6
REMARK VINA RESULT:    -3.982      1.472      4.807
REMARK INTER + INTRA:          -7.097
REMARK INTER:                  -6.137
REMARK INTRA:                  -0.960
REMARK UNBOUND:                -1.020
REMARK SMILES O=C([O-])CCCCCCCCC(=O)[O-]
REMARK SMILES IDX 7 1 6 2 5 3 4 4 2 5 1 6 3 7 8 8 9 9 10 10 11 11 12 12 13 13
REMARK SMILES IDX 14 14
REMARK H PARENT
REMARK Flexibility Score: inf
ROOT
ATOM      1  C   UNL     1      15.572 -30.719  23.386  1.00  0.00     0.000 C 
ENDROOT
BRANCH   1   2
ATOM      2  C   UNL     1      15.378 -30.101  21.992  1.00  0.00     0.000 C 
BRANCH   2   3
ATOM      3  C   UNL     1      14.227 -30.751  21.209  1.00  0.00     0.006 C 
BRANCH   3   4
ATOM      4  C   UNL     1      13.159 -31.300  22.160  1.00  0.00     0.053 C 
BRANCH   4   5
ATOM      5  C   UNL     1      11.998 -30.360  22.244  1.00  0.00     0.041 C 
ATOM      6  O   UNL     1      10.978 -30.548  21.530  1.00  0.00    -0.550 OA
ATOM      7  O   UNL     1      12.063 -29.248  23.073  1.00  0.00    -0.550 OA
ENDBRANCH   4   5
ENDBRANCH   3   4
ENDBRANCH   2   3
ENDBRANCH   1   2
BRANCH   1   8
ATOM      8  C   UNL     1      16.616 -31.849  23.392  1.00  0.00     0.000 C 
BRANCH   8   9
ATOM      9  C   UNL     1      16.031 -33.190  23.863  1.00  0.00     0.000 C 
BRANCH   9  10
ATOM     10  C   UNL     1      15.416 -34.006  22.712  1.00  0.00     0.006 C 
BRANCH  10  11
ATOM     11  C   UNL     1      16.271 -33.945  21.438  1.00  0.00     0.053 C 
BRANCH  11  12
ATOM     12  C   UNL     1      15.571 -34.569  20.271  1.00  0.00     0.041 C 
ATOM     13  O   UNL     1      14.573 -34.003  19.751  1.00  0.00    -0.550 OA
ATOM     14  O   UNL     1      16.001 -35.794  19.777  1.00  0.00    -0.550 OA
ENDBRANCH  11  12
ENDBRANCH  10  11
ENDBRANCH   9  10
ENDBRANCH   8   9
ENDBRANCH   1   8
TORSDOF 9
ENDMDL
MODEL 7
REMARK VINA RESULT:    -3.959      2.162      4.023
REMARK INTER + INTRA:          -7.062
REMARK INTER:                  -6.078
REMARK INTRA:                  -0.984
REMARK UNBOUND:                -1.020
REMARK SMILES O=C([O-])CCCCCCCCC(=O)[O-]
REMARK SMILES IDX 7 1 6 2 5 3 4 4 2 5 1 6 3 7 8 8 9 9 10 10 11 11 12 12 13 13
REMARK SMILES IDX 14 14
REMARK H PARENT
REMARK Flexibility Score: inf
ROOT
ATOM      1  C   UNL     1      14.066 -30.036  23.492  1.00  0.00     0.000 C 
ENDROOT
BRANCH   1   2
ATOM      2  C   UNL     1      15.008 -29.330  22.504  1.00  0.00     0.000 C 
BRANCH   2   3
ATOM      3  C   UNL     1      16.489 -29.484  22.882  1.00  0.00     0.006 C 
BRANCH   3   4
ATOM      4  C   UNL     1      17.338 -29.815  21.650  1.00  0.00     0.053 C 
BRANCH   4   5
ATOM      5  C   UNL     1      17.736 -31.257  21.659  1.00  0.00     0.041 C 
ATOM      6  O   UNL     1      17.883 -31.880  20.574  1.00  0.00    -0.550 OA
ATOM      7  O   UNL     1      17.894 -31.927  22.864  1.00  0.00    -0.550 OA
ENDBRANCH   4   5
ENDBRANCH   3   4
ENDBRANCH   2   3
ENDBRANCH   1   2
BRANCH   1   8
ATOM      8  C   UNL     1      13.158 -31.072  22.806  1.00  0.00     0.000 C 
BRANCH   8   9
ATOM      9  C   UNL     1      13.366 -31.122  21.284  1.00  0.00     0.000 C 
BRANCH   9  10
ATOM     10  C   UNL     1      13.888 -32.486  20.800  1.00  0.00     0.006 C 
BRANCH  10  11
ATOM     11  C   UNL     1      14.703 -33.211  21.881  1.00  0.00     0.053 C 
BRANCH  11  12
ATOM     12  C   UNL     1      15.469 -34.365  21.315  1.00  0.00     0.041 C 
ATOM     13  O   UNL     1      15.169 -34.836  20.186  1.00  0.00    -0.550 OA
ATOM     14  O   UNL     1      16.496 -34.944  22.050  1.00  0.00    -0.550 OA
ENDBRANCH  11  12
ENDBRANCH  10  11
ENDBRANCH   9  10
ENDBRANCH   8   9
ENDBRANCH   1   8
TORSDOF 9
ENDMDL
MODEL 8
REMARK VINA RESULT:    -3.921      2.019      2.900
REMARK INTER + INTRA:          -7.004
REMARK INTER:                  -6.145
REMARK INTRA:                  -0.859
REMARK UNBOUND:                -1.020
REMARK SMILES O=C([O-])CCCCCCCCC(=O)[O-]
REMARK SMILES IDX 7 1 6 2 5 3 4 4 2 5 1 6 3 7 8 8 9 9 10 10 11 11 12 12 13 13
REMARK SMILES IDX 14 14
REMARK H PARENT
REMARK Flexibility Score: inf
ROOT
ATOM      1  C   UNL     1      17.941 -33.006  21.012  1.00  0.00     0.000 C 
ENDROOT
BRANCH   1   2
ATOM      2  C   UNL     1      17.984 -33.701  19.642  1.00  0.00     0.000 C 
BRANCH   2   3
ATOM      3  C   UNL     1      16.682 -34.451  19.316  1.00  0.00     0.006 C 
BRANCH   3   4
ATOM      4  C   UNL     1      16.364 -35.490  20.395  1.00  0.00     0.053 C 
BRANCH   4   5
ATOM      5  C   UNL     1      17.307 -36.647  20.304  1.00  0.00     0.041 C 
ATOM      6  O   UNL     1      17.932 -37.037  21.326  1.00  0.00    -0.550 OA
ATOM      7  O   UNL     1      17.535 -37.263  19.082  1.00  0.00    -0.550 OA
ENDBRANCH   4   5
ENDBRANCH   3   4
ENDBRANCH   2   3
ENDBRANCH   1   2
BRANCH   1   8
ATOM      8  C   UNL     1      17.772 -31.481  20.897  1.00  0.00     0.000 C 
BRANCH   8   9
ATOM      9  C   UNL     1      16.501 -30.976  21.597  1.00  0.00     0.000 C 
BRANCH   9  10
ATOM     10  C   UNL     1      15.582 -32.120  22.060  1.00  0.00     0.006 C 
BRANCH  10  11
ATOM     11  C   UNL     1      14.180 -32.023  21.442  1.00  0.00     0.053 C 
BRANCH  11  12
ATOM     12  C   UNL     1      13.214 -31.351  22.366  1.00  0.00     0.041 C 
ATOM     13  O   UNL     1      12.173 -30.805  21.910  1.00  0.00    -0.550 OA
ATOM     14  O   UNL     1      13.477 -31.297  23.729  1.00  0.00    -0.550 OA
ENDBRANCH  11  12
ENDBRANCH  10  11
ENDBRANCH   9  10
ENDBRANCH   8   9
ENDBRANCH   1   8
TORSDOF 9
ENDMDL
MODEL 9
REMARK VINA RESULT:    -3.890      1.945      6.000
REMARK INTER + INTRA:          -6.957
REMARK INTER:                  -6.592
REMARK INTRA:                  -0.364
REMARK UNBOUND:                -1.020
REMARK SMILES O=C([O-])CCCCCCCCC(=O)[O-]
REMARK SMILES IDX 7 1 6 2 5 3 4 4 2 5 1 6 3 7 8 8 9 9 10 10 11 11 12 12 13 13
REMARK SMILES IDX 14 14
REMARK H PARENT
REMARK Flexibility Score: inf
ROOT
ATOM      1  C   UNL     1      15.672 -30.979  21.888  1.00  0.00     0.000 C 
ENDROOT
BRANCH   1   2
ATOM      2  C   UNL     1      15.340 -30.599  23.340  1.00  0.00     0.000 C 
BRANCH   2   3
ATOM      3  C   UNL     1      13.857 -30.808  23.684  1.00  0.00     0.006 C 
BRANCH   3   4
ATOM      4  C   UNL     1      12.961 -29.931  22.804  1.00  0.00     0.053 C 
BRANCH   4   5
ATOM      5  C   UNL     1      12.269 -28.893  23.630  1.00  0.00     0.041 C 
ATOM      6  O   UNL     1      12.783 -28.497  24.710  1.00  0.00    -0.550 OA
ATOM      7  O   UNL     1      11.034 -28.400  23.235  1.00  0.00    -0.550 OA
ENDBRANCH   4   5
ENDBRANCH   3   4
ENDBRANCH   2   3
ENDBRANCH   1   2
BRANCH   1   8
ATOM      8  C   UNL     1      16.506 -32.268  21.790  1.00  0.00     0.000 C 
BRANCH   8   9
ATOM      9  C   UNL     1      17.707 -32.122  20.843  1.00  0.00     0.000 C 
BRANCH   9  10
ATOM     10  C   UNL     1      18.185 -33.472  20.278  1.00  0.00     0.006 C 
BRANCH  10  11
ATOM     11  C   UNL     1      17.278 -33.982  19.151  1.00  0.00     0.053 C 
BRANCH  11  12
ATOM     12  C   UNL     1      16.569 -35.243  19.538  1.00  0.00     0.041 C 
ATOM     13  O   UNL     1      15.441 -35.192  20.096  1.00  0.00    -0.550 OA
ATOM     14  O   UNL     1      17.169 -36.475  19.312  1.00  0.00    -0.550 OA
ENDBRANCH  11  12
ENDBRANCH  10  11
ENDBRANCH   9  10
ENDBRANCH   8   9
ENDBRANCH   1   8
TORSDOF 9
ENDMDL
