MODEL 1
REMARK VINA RESULT:    -5.064      0.000      0.000
REMARK INTER + INTRA:          -6.238
REMARK INTER:                  -5.952
REMARK INTRA:                  -0.286
REMARK UNBOUND:                -0.286
REMARK SMILES O=c1c(O)c(-c2ccc(O)cc2)oc2cc(O)cc(O)c12
REMARK SMILES IDX 5 1 3 2 2 3 1 4 21 5 19 6 18 7 16 8 15 9 14 10 13 11 6 12
REMARK SMILES IDX 7 13 8 14 9 15 12 16 11 17 10 18 4 20 20 22 17 24
REMARK H PARENT 10 19 4 21 20 23 17 25
REMARK Flexibility Score: inf
ROOT
ATOM      1  C   UNL     1     139.410 170.596 176.620  1.00  0.00     0.180 A 
ATOM      2  C   UNL     1     138.902 171.211 177.778  1.00  0.00     0.208 A 
ATOM      3  C   UNL     1     137.859 170.586 178.480  1.00  0.00     0.238 A 
ATOM      4  O   UNL     1     137.372 171.170 179.484  1.00  0.00    -0.285 OA
ATOM      5  C   UNL     1     137.348 169.347 178.027  1.00  0.00     0.111 A 
ATOM      6  C   UNL     1     136.319 168.605 178.682  1.00  0.00     0.134 A 
ATOM      7  C   UNL     1     135.801 167.456 178.073  1.00  0.00     0.093 A 
ATOM      8  C   UNL     1     136.317 166.986 176.866  1.00  0.00     0.123 A 
ATOM      9  C   UNL     1     137.363 167.670 176.246  1.00  0.00     0.094 A 
ATOM     10  C   UNL     1     137.877 168.840 176.811  1.00  0.00     0.146 A 
ATOM     11  O   UNL     1     138.864 169.466 176.184  1.00  0.00    -0.452 OA
ENDROOT
BRANCH   1  12
ATOM     12  C   UNL     1     140.525 171.181 175.842  1.00  0.00     0.021 A 
ATOM     13  C   UNL     1     141.848 170.828 176.158  1.00  0.00     0.016 A 
ATOM     14  C   UNL     1     142.917 171.386 175.451  1.00  0.00     0.047 A 
ATOM     15  C   UNL     1     142.678 172.316 174.431  1.00  0.00     0.115 A 
ATOM     16  C   UNL     1     140.294 172.130 174.830  1.00  0.00     0.016 A 
ATOM     17  C   UNL     1     141.366 172.687 174.125  1.00  0.00     0.047 A 
BRANCH  15  18
ATOM     18  O   UNL     1     143.736 172.877 173.720  1.00  0.00    -0.508 OA
ATOM     19  H   UNL     1     144.701 172.686 173.965  1.00  0.00     0.293 HD
ENDBRANCH  15  18
ENDBRANCH   1  12
BRANCH   2  20
ATOM     20  O   UNL     1     139.406 172.446 178.196  1.00  0.00    -0.502 OA
ATOM     21  H   UNL     1     139.096 173.324 177.796  1.00  0.00     0.293 HD
ENDBRANCH   2  20
BRANCH   6  22
ATOM     22  O   UNL     1     135.797 168.937 179.936  1.00  0.00    -0.507 OA
ATOM     23  H   UNL     1     136.231 169.569 180.591  1.00  0.00     0.293 HD
ENDBRANCH   6  22
BRANCH   8  24
ATOM     24  O   UNL     1     135.787 165.830 176.296  1.00  0.00    -0.508 OA
ATOM     25  H   UNL     1     136.205 164.921 176.456  1.00  0.00     0.293 HD
ENDBRANCH   8  24
TORSDOF 5
ENDMDL
MODEL 2
REMARK VINA RESULT:    -4.968      1.206      3.064
REMARK INTER + INTRA:          -6.125
REMARK INTER:                  -5.840
REMARK INTRA:                  -0.285
REMARK UNBOUND:                -0.286
REMARK SMILES O=c1c(O)c(-c2ccc(O)cc2)oc2cc(O)cc(O)c12
REMARK SMILES IDX 5 1 3 2 2 3 1 4 21 5 19 6 18 7 16 8 15 9 14 10 13 11 6 12
REMARK SMILES IDX 7 13 8 14 9 15 12 16 11 17 10 18 4 20 20 22 17 24
REMARK H PARENT 10 19 4 21 20 23 17 25
REMARK Flexibility Score: inf
ROOT
ATOM      1  C   UNL     1     139.458 170.167 176.195  1.00  0.00     0.180 A 
ATOM      2  C   UNL     1     138.859 169.131 175.458  1.00  0.00     0.208 A 
ATOM      3  C   UNL     1     137.729 168.485 175.984  1.00  0.00     0.238 A 
ATOM      4  O   UNL     1     137.231 167.522 175.344  1.00  0.00    -0.285 OA
ATOM      5  C   UNL     1     137.202 168.893 177.232  1.00  0.00     0.111 A 
ATOM      6  C   UNL     1     136.038 168.336 177.842  1.00  0.00     0.134 A 
ATOM      7  C   UNL     1     135.683 168.727 179.139  1.00  0.00     0.093 A 
ATOM      8  C   UNL     1     136.410 169.701 179.822  1.00  0.00     0.123 A 
ATOM      9  C   UNL     1     137.516 170.295 179.213  1.00  0.00     0.094 A 
ATOM     10  C   UNL     1     137.916 169.900 177.933  1.00  0.00     0.146 A 
ATOM     11  O   UNL     1     138.979 170.482 177.393  1.00  0.00    -0.452 OA
ENDROOT
BRANCH   1  12
ATOM     12  C   UNL     1     140.636 170.911 175.695  1.00  0.00     0.021 A 
ATOM     13  C   UNL     1     140.445 172.076 174.934  1.00  0.00     0.016 A 
ATOM     14  C   UNL     1     141.542 172.782 174.432  1.00  0.00     0.047 A 
ATOM     15  C   UNL     1     142.844 172.323 174.670  1.00  0.00     0.115 A 
ATOM     16  C   UNL     1     141.945 170.445 175.913  1.00  0.00     0.016 A 
ATOM     17  C   UNL     1     143.041 171.153 175.409  1.00  0.00     0.047 A 
BRANCH  15  18
ATOM     18  O   UNL     1     143.945 173.018 174.176  1.00  0.00    -0.508 OA
ATOM     19  H   UNL     1     144.564 173.535 174.789  1.00  0.00     0.293 HD
ENDBRANCH  15  18
ENDBRANCH   1  12
BRANCH   2  20
ATOM     20  O   UNL     1     139.410 168.729 174.237  1.00  0.00    -0.502 OA
ATOM     21  H   UNL     1     139.901 167.849 174.126  1.00  0.00     0.293 HD
ENDBRANCH   2  20
BRANCH   6  22
ATOM     22  O   UNL     1     135.187 167.424 177.210  1.00  0.00    -0.507 OA
ATOM     23  H   UNL     1     134.269 167.171 177.540  1.00  0.00     0.293 HD
ENDBRANCH   6  22
BRANCH   8  24
ATOM     24  O   UNL     1     136.019 170.076 181.105  1.00  0.00    -0.508 OA
ATOM     25  H   UNL     1     135.048 170.051 181.391  1.00  0.00     0.293 HD
ENDBRANCH   8  24
TORSDOF 5
ENDMDL
MODEL 3
REMARK VINA RESULT:    -4.909      5.096      8.811
REMARK INTER + INTRA:          -6.056
REMARK INTER:                  -5.765
REMARK INTRA:                  -0.291
REMARK UNBOUND:                -0.286
REMARK SMILES O=c1c(O)c(-c2ccc(O)cc2)oc2cc(O)cc(O)c12
REMARK SMILES IDX 5 1 3 2 2 3 1 4 21 5 19 6 18 7 16 8 15 9 14 10 13 11 6 12
REMARK SMILES IDX 7 13 8 14 9 15 12 16 11 17 10 18 4 20 20 22 17 24
REMARK H PARENT 10 19 4 21 20 23 17 25
REMARK Flexibility Score: inf
ROOT
ATOM      1  C   UNL     1     142.805 170.959 171.525  1.00  0.00     0.180 A 
ATOM      2  C   UNL     1     143.822 171.612 170.806  1.00  0.00     0.208 A 
ATOM      3  C   UNL     1     144.244 171.074 169.580  1.00  0.00     0.238 A 
ATOM      4  O   UNL     1     145.192 171.633 168.969  1.00  0.00    -0.285 OA
ATOM      5  C   UNL     1     143.634 169.900 169.079  1.00  0.00     0.111 A 
ATOM      6  C   UNL     1     143.954 169.289 167.829  1.00  0.00     0.134 A 
ATOM      7  C   UNL     1     143.380 168.056 167.495  1.00  0.00     0.093 A 
ATOM      8  C   UNL     1     142.448 167.445 168.334  1.00  0.00     0.123 A 
ATOM      9  C   UNL     1     142.083 168.062 169.530  1.00  0.00     0.094 A 
ATOM     10  C   UNL     1     142.666 169.274 169.909  1.00  0.00     0.146 A 
ATOM     11  O   UNL     1     142.298 169.823 171.060  1.00  0.00    -0.452 OA
ENDROOT
BRANCH   1  12
ATOM     12  C   UNL     1     142.291 171.480 172.811  1.00  0.00     0.021 A 
ATOM     13  C   UNL     1     142.897 171.075 174.012  1.00  0.00     0.016 A 
ATOM     14  C   UNL     1     142.414 171.537 175.240  1.00  0.00     0.047 A 
ATOM     15  C   UNL     1     141.308 172.396 175.283  1.00  0.00     0.115 A 
ATOM     16  C   UNL     1     141.169 172.326 172.863  1.00  0.00     0.016 A 
ATOM     17  C   UNL     1     140.687 172.786 174.093  1.00  0.00     0.047 A 
BRANCH  15  18
ATOM     18  O   UNL     1     140.817 172.862 176.501  1.00  0.00    -0.508 OA
ATOM     19  H   UNL     1     140.636 173.847 176.657  1.00  0.00     0.293 HD
ENDBRANCH  15  18
ENDBRANCH   1  12
BRANCH   2  20
ATOM     20  O   UNL     1     144.426 172.759 171.329  1.00  0.00    -0.502 OA
ATOM     21  H   UNL     1     145.411 172.962 171.201  1.00  0.00     0.293 HD
ENDBRANCH   2  20
BRANCH   6  22
ATOM     22  O   UNL     1     144.802 169.861 166.876  1.00  0.00    -0.507 OA
ATOM     23  H   UNL     1     145.606 170.430 167.091  1.00  0.00     0.293 HD
ENDBRANCH   6  22
BRANCH   8  24
ATOM     24  O   UNL     1     141.885 166.226 167.962  1.00  0.00    -0.508 OA
ATOM     25  H   UNL     1     140.968 166.174 167.534  1.00  0.00     0.293 HD
ENDBRANCH   8  24
TORSDOF 5
ENDMDL
MODEL 4
REMARK VINA RESULT:    -4.892      1.807      6.886
REMARK INTER + INTRA:          -6.036
REMARK INTER:                  -5.773
REMARK INTRA:                  -0.263
REMARK UNBOUND:                -0.286
REMARK SMILES O=c1c(O)c(-c2ccc(O)cc2)oc2cc(O)cc(O)c12
REMARK SMILES IDX 5 1 3 2 2 3 1 4 21 5 19 6 18 7 16 8 15 9 14 10 13 11 6 12
REMARK SMILES IDX 7 13 8 14 9 15 12 16 11 17 10 18 4 20 20 22 17 24
REMARK H PARENT 10 19 4 21 20 23 17 25
REMARK Flexibility Score: inf
ROOT
ATOM      1  C   UNL     1     140.044 170.552 176.526  1.00  0.00     0.180 A 
ATOM      2  C   UNL     1     140.015 171.643 175.640  1.00  0.00     0.208 A 
ATOM      3  C   UNL     1     141.186 171.988 174.947  1.00  0.00     0.238 A 
ATOM      4  O   UNL     1     141.167 172.999 174.196  1.00  0.00    -0.285 OA
ATOM      5  C   UNL     1     142.366 171.231 175.135  1.00  0.00     0.111 A 
ATOM      6  C   UNL     1     143.598 171.466 174.455  1.00  0.00     0.134 A 
ATOM      7  C   UNL     1     144.738 170.737 174.816  1.00  0.00     0.093 A 
ATOM      8  C   UNL     1     144.674 169.736 175.785  1.00  0.00     0.123 A 
ATOM      9  C   UNL     1     143.462 169.456 176.415  1.00  0.00     0.094 A 
ATOM     10  C   UNL     1     142.315 170.192 176.102  1.00  0.00     0.146 A 
ATOM     11  O   UNL     1     141.184 169.901 176.731  1.00  0.00    -0.452 OA
ENDROOT
BRANCH   1  12
ATOM     12  C   UNL     1     138.843 170.112 177.273  1.00  0.00     0.021 A 
ATOM     13  C   UNL     1     138.487 170.774 178.460  1.00  0.00     0.016 A 
ATOM     14  C   UNL     1     137.371 170.361 179.193  1.00  0.00     0.047 A 
ATOM     15  C   UNL     1     136.606 169.271 178.757  1.00  0.00     0.115 A 
ATOM     16  C   UNL     1     138.083 169.006 176.852  1.00  0.00     0.016 A 
ATOM     17  C   UNL     1     136.967 168.594 177.589  1.00  0.00     0.047 A 
BRANCH  15  18
ATOM     18  O   UNL     1     135.492 168.851 179.479  1.00  0.00    -0.508 OA
ATOM     19  H   UNL     1     135.568 168.549 180.444  1.00  0.00     0.293 HD
ENDBRANCH  15  18
ENDBRANCH   1  12
BRANCH   2  20
ATOM     20  O   UNL     1     138.845 172.391 175.485  1.00  0.00    -0.502 OA
ATOM     21  H   UNL     1     137.971 172.132 175.928  1.00  0.00     0.293 HD
ENDBRANCH   2  20
BRANCH   6  22
ATOM     22  O   UNL     1     143.748 172.380 173.406  1.00  0.00    -0.507 OA
ATOM     23  H   UNL     1     143.153 173.178 173.251  1.00  0.00     0.293 HD
ENDBRANCH   6  22
BRANCH   8  24
ATOM     24  O   UNL     1     145.825 169.020 176.109  1.00  0.00    -0.508 OA
ATOM     25  H   UNL     1     146.143 168.933 177.067  1.00  0.00     0.293 HD
ENDBRANCH   8  24
TORSDOF 5
ENDMDL
MODEL 5
REMARK VINA RESULT:    -4.657     10.057     11.972
REMARK INTER + INTRA:          -5.759
REMARK INTER:                  -5.515
REMARK INTRA:                  -0.244
REMARK UNBOUND:                -0.286
REMARK SMILES O=c1c(O)c(-c2ccc(O)cc2)oc2cc(O)cc(O)c12
REMARK SMILES IDX 5 1 3 2 2 3 1 4 21 5 19 6 18 7 16 8 15 9 14 10 13 11 6 12
REMARK SMILES IDX 7 13 8 14 9 15 12 16 11 17 10 18 4 20 20 22 17 24
REMARK H PARENT 10 19 4 21 20 23 17 25
REMARK Flexibility Score: inf
ROOT
ATOM      1  C   UNL     1     144.418 165.693 168.657  1.00  0.00     0.180 A 
ATOM      2  C   UNL     1     143.196 165.713 167.962  1.00  0.00     0.208 A 
ATOM      3  C   UNL     1     142.613 166.950 167.645  1.00  0.00     0.238 A 
ATOM      4  O   UNL     1     141.492 166.960 167.071  1.00  0.00    -0.285 OA
ATOM      5  C   UNL     1     143.264 168.151 168.012  1.00  0.00     0.111 A 
ATOM      6  C   UNL     1     142.785 169.460 167.706  1.00  0.00     0.134 A 
ATOM      7  C   UNL     1     143.444 170.578 168.233  1.00  0.00     0.093 A 
ATOM      8  C   UNL     1     144.602 170.437 168.997  1.00  0.00     0.123 A 
ATOM      9  C   UNL     1     145.114 169.165 169.252  1.00  0.00     0.094 A 
ATOM     10  C   UNL     1     144.457 168.028 168.772  1.00  0.00     0.146 A 
ATOM     11  O   UNL     1     144.972 166.836 169.045  1.00  0.00    -0.452 OA
ENDROOT
BRANCH   1  12
ATOM     12  C   UNL     1     145.106 164.429 169.005  1.00  0.00     0.021 A 
ATOM     13  C   UNL     1     145.133 164.002 170.343  1.00  0.00     0.016 A 
ATOM     14  C   UNL     1     145.796 162.824 170.697  1.00  0.00     0.047 A 
ATOM     15  C   UNL     1     146.454 162.066 169.720  1.00  0.00     0.115 A 
ATOM     16  C   UNL     1     145.785 163.674 168.033  1.00  0.00     0.016 A 
ATOM     17  C   UNL     1     146.449 162.495 168.390  1.00  0.00     0.047 A 
BRANCH  15  18
ATOM     18  O   UNL     1     147.118 160.890 170.061  1.00  0.00    -0.508 OA
ATOM     19  H   UNL     1     146.791 159.985 169.742  1.00  0.00     0.293 HD
ENDBRANCH  15  18
ENDBRANCH   1  12
BRANCH   2  20
ATOM     20  O   UNL     1     142.558 164.515 167.629  1.00  0.00    -0.502 OA
ATOM     21  H   UNL     1     143.011 163.790 167.084  1.00  0.00     0.293 HD
ENDBRANCH   2  20
BRANCH   6  22
ATOM     22  O   UNL     1     141.689 169.715 166.875  1.00  0.00    -0.507 OA
ATOM     23  H   UNL     1     141.488 169.219 166.021  1.00  0.00     0.293 HD
ENDBRANCH   6  22
BRANCH   8  24
ATOM     24  O   UNL     1     145.240 171.572 169.491  1.00  0.00    -0.508 OA
ATOM     25  H   UNL     1     144.725 172.416 169.714  1.00  0.00     0.293 HD
ENDBRANCH   8  24
TORSDOF 5
ENDMDL
MODEL 6
REMARK VINA RESULT:    -4.634      1.796      2.567
REMARK INTER + INTRA:          -5.733
REMARK INTER:                  -5.474
REMARK INTRA:                  -0.259
REMARK UNBOUND:                -0.286
REMARK SMILES O=c1c(O)c(-c2ccc(O)cc2)oc2cc(O)cc(O)c12
REMARK SMILES IDX 5 1 3 2 2 3 1 4 21 5 19 6 18 7 16 8 15 9 14 10 13 11 6 12
REMARK SMILES IDX 7 13 8 14 9 15 12 16 11 17 10 18 4 20 20 22 17 24
REMARK H PARENT 10 19 4 21 20 23 17 25
REMARK Flexibility Score: inf
ROOT
ATOM      1  C   UNL     1     140.823 171.102 174.792  1.00  0.00     0.180 A 
ATOM      2  C   UNL     1     140.753 171.964 175.901  1.00  0.00     0.208 A 
ATOM      3  C   UNL     1     139.866 171.660 176.945  1.00  0.00     0.238 A 
ATOM      4  O   UNL     1     139.769 172.465 177.909  1.00  0.00    -0.285 OA
ATOM      5  C   UNL     1     139.072 170.491 176.877  1.00  0.00     0.111 A 
ATOM      6  C   UNL     1     138.168 170.064 177.896  1.00  0.00     0.134 A 
ATOM      7  C   UNL     1     137.337 168.961 177.665  1.00  0.00     0.093 A 
ATOM      8  C   UNL     1     137.423 168.231 176.480  1.00  0.00     0.123 A 
ATOM      9  C   UNL     1     138.344 168.603 175.501  1.00  0.00     0.094 A 
ATOM     10  C   UNL     1     139.162 169.721 175.688  1.00  0.00     0.146 A 
ATOM     11  O   UNL     1     140.018 170.048 174.728  1.00  0.00    -0.452 OA
ENDROOT
BRANCH   1  12
ATOM     12  C   UNL     1     141.752 171.342 173.665  1.00  0.00     0.021 A 
ATOM     13  C   UNL     1     143.109 171.003 173.803  1.00  0.00     0.016 A 
ATOM     14  C   UNL     1     144.008 171.242 172.760  1.00  0.00     0.047 A 
ATOM     15  C   UNL     1     143.566 171.838 171.572  1.00  0.00     0.115 A 
ATOM     16  C   UNL     1     141.320 171.958 172.477  1.00  0.00     0.016 A 
ATOM     17  C   UNL     1     142.222 172.197 171.435  1.00  0.00     0.047 A 
BRANCH  15  18
ATOM     18  O   UNL     1     144.453 172.080 170.526  1.00  0.00    -0.508 OA
ATOM     19  H   UNL     1     144.974 171.330 170.088  1.00  0.00     0.293 HD
ENDBRANCH  15  18
ENDBRANCH   1  12
BRANCH   2  20
ATOM     20  O   UNL     1     141.531 173.125 175.937  1.00  0.00    -0.502 OA
ATOM     21  H   UNL     1     141.123 174.052 175.962  1.00  0.00     0.293 HD
ENDBRANCH   2  20
BRANCH   6  22
ATOM     22  O   UNL     1     138.069 170.668 179.154  1.00  0.00    -0.507 OA
ATOM     23  H   UNL     1     138.289 171.632 179.347  1.00  0.00     0.293 HD
ENDBRANCH   6  22
BRANCH   8  24
ATOM     24  O   UNL     1     136.591 167.129 176.291  1.00  0.00    -0.508 OA
ATOM     25  H   UNL     1     136.824 166.396 175.632  1.00  0.00     0.293 HD
ENDBRANCH   8  24
TORSDOF 5
ENDMDL
MODEL 7
REMARK VINA RESULT:    -4.585      6.802     10.137
REMARK INTER + INTRA:          -5.675
REMARK INTER:                  -5.396
REMARK INTRA:                  -0.279
REMARK UNBOUND:                -0.286
REMARK SMILES O=c1c(O)c(-c2ccc(O)cc2)oc2cc(O)cc(O)c12
REMARK SMILES IDX 5 1 3 2 2 3 1 4 21 5 19 6 18 7 16 8 15 9 14 10 13 11 6 12
REMARK SMILES IDX 7 13 8 14 9 15 12 16 11 17 10 18 4 20 20 22 17 24
REMARK H PARENT 10 19 4 21 20 23 17 25
REMARK Flexibility Score: inf
ROOT
ATOM      1  C   UNL     1     144.437 167.789 169.952  1.00  0.00     0.180 A 
ATOM      2  C   UNL     1     144.384 168.931 169.134  1.00  0.00     0.208 A 
ATOM      3  C   UNL     1     144.260 170.194 169.733  1.00  0.00     0.238 A 
ATOM      4  O   UNL     1     144.159 171.207 168.993  1.00  0.00    -0.285 OA
ATOM      5  C   UNL     1     144.205 170.302 171.143  1.00  0.00     0.111 A 
ATOM      6  C   UNL     1     144.119 171.534 171.860  1.00  0.00     0.134 A 
ATOM      7  C   UNL     1     143.939 171.515 173.248  1.00  0.00     0.093 A 
ATOM      8  C   UNL     1     143.907 170.312 173.954  1.00  0.00     0.123 A 
ATOM      9  C   UNL     1     144.050 169.104 173.271  1.00  0.00     0.094 A 
ATOM     10  C   UNL     1     144.194 169.089 171.881  1.00  0.00     0.146 A 
ATOM     11  O   UNL     1     144.317 167.918 171.269  1.00  0.00    -0.452 OA
ENDROOT
BRANCH   1  12
ATOM     12  C   UNL     1     144.593 166.427 169.394  1.00  0.00     0.021 A 
ATOM     13  C   UNL     1     143.454 165.715 168.979  1.00  0.00     0.016 A 
ATOM     14  C   UNL     1     143.576 164.419 168.470  1.00  0.00     0.047 A 
ATOM     15  C   UNL     1     144.835 163.811 168.386  1.00  0.00     0.115 A 
ATOM     16  C   UNL     1     145.851 165.803 169.325  1.00  0.00     0.016 A 
ATOM     17  C   UNL     1     145.970 164.505 168.816  1.00  0.00     0.047 A 
BRANCH  15  18
ATOM     18  O   UNL     1     144.969 162.521 167.880  1.00  0.00    -0.508 OA
ATOM     19  H   UNL     1     145.444 161.793 168.401  1.00  0.00     0.293 HD
ENDBRANCH  15  18
ENDBRANCH   1  12
BRANCH   2  20
ATOM     20  O   UNL     1     144.418 168.800 167.742  1.00  0.00    -0.502 OA
ATOM     21  H   UNL     1     145.210 168.399 167.253  1.00  0.00     0.293 HD
ENDBRANCH   2  20
BRANCH   6  22
ATOM     22  O   UNL     1     144.232 172.793 171.262  1.00  0.00    -0.507 OA
ATOM     23  H   UNL     1     144.683 173.591 171.683  1.00  0.00     0.293 HD
ENDBRANCH   6  22
BRANCH   8  24
ATOM     24  O   UNL     1     143.742 170.332 175.337  1.00  0.00    -0.508 OA
ATOM     25  H   UNL     1     144.284 169.728 175.943  1.00  0.00     0.293 HD
ENDBRANCH   8  24
TORSDOF 5
ENDMDL
MODEL 8
REMARK VINA RESULT:    -4.463     12.760     14.386
REMARK INTER + INTRA:          -5.532
REMARK INTER:                  -5.248
REMARK INTRA:                  -0.284
REMARK UNBOUND:                -0.286
REMARK SMILES O=c1c(O)c(-c2ccc(O)cc2)oc2cc(O)cc(O)c12
REMARK SMILES IDX 5 1 3 2 2 3 1 4 21 5 19 6 18 7 16 8 15 9 14 10 13 11 6 12
REMARK SMILES IDX 7 13 8 14 9 15 12 16 11 17 10 18 4 20 20 22 17 24
REMARK H PARENT 10 19 4 21 20 23 17 25
REMARK Flexibility Score: inf
ROOT
ATOM      1  C   UNL     1     141.735 156.609 176.033  1.00  0.00     0.180 A 
ATOM      2  C   UNL     1     140.680 155.703 176.243  1.00  0.00     0.208 A 
ATOM      3  C   UNL     1     139.603 155.692 175.343  1.00  0.00     0.238 A 
ATOM      4  O   UNL     1     138.636 154.916 175.568  1.00  0.00    -0.285 OA
ATOM      5  C   UNL     1     139.600 156.573 174.236  1.00  0.00     0.111 A 
ATOM      6  C   UNL     1     138.579 156.620 173.239  1.00  0.00     0.134 A 
ATOM      7  C   UNL     1     138.614 157.622 172.261  1.00  0.00     0.093 A 
ATOM      8  C   UNL     1     139.665 158.536 172.204  1.00  0.00     0.123 A 
ATOM      9  C   UNL     1     140.699 158.463 173.138  1.00  0.00     0.094 A 
ATOM     10  C   UNL     1     140.674 157.498 174.148  1.00  0.00     0.146 A 
ATOM     11  O   UNL     1     141.671 157.469 175.022  1.00  0.00    -0.452 OA
ENDROOT
BRANCH   1  12
ATOM     12  C   UNL     1     142.916 156.663 176.924  1.00  0.00     0.021 A 
ATOM     13  C   UNL     1     144.045 155.882 176.622  1.00  0.00     0.016 A 
ATOM     14  C   UNL     1     145.163 155.900 177.461  1.00  0.00     0.047 A 
ATOM     15  C   UNL     1     145.160 156.685 178.621  1.00  0.00     0.115 A 
ATOM     16  C   UNL     1     142.913 157.433 178.100  1.00  0.00     0.016 A 
ATOM     17  C   UNL     1     144.032 157.448 178.939  1.00  0.00     0.047 A 
BRANCH  15  18
ATOM     18  O   UNL     1     146.268 156.711 179.465  1.00  0.00    -0.508 OA
ATOM     19  H   UNL     1     146.171 156.627 180.470  1.00  0.00     0.293 HD
ENDBRANCH  15  18
ENDBRANCH   1  12
BRANCH   2  20
ATOM     20  O   UNL     1     140.693 154.856 177.355  1.00  0.00    -0.502 OA
ATOM     21  H   UNL     1     140.676 153.847 177.270  1.00  0.00     0.293 HD
ENDBRANCH   2  20
BRANCH   6  22
ATOM     22  O   UNL     1     137.533 155.696 173.150  1.00  0.00    -0.507 OA
ATOM     23  H   UNL     1     137.551 154.861 172.587  1.00  0.00     0.293 HD
ENDBRANCH   6  22
BRANCH   8  24
ATOM     24  O   UNL     1     139.675 159.510 171.208  1.00  0.00    -0.508 OA
ATOM     25  H   UNL     1     139.154 159.392 170.347  1.00  0.00     0.293 HD
ENDBRANCH   8  24
TORSDOF 5
ENDMDL
MODEL 9
REMARK VINA RESULT:    -4.452      3.080      7.868
REMARK INTER + INTRA:          -5.519
REMARK INTER:                  -5.274
REMARK INTRA:                  -0.245
REMARK UNBOUND:                -0.286
REMARK SMILES O=c1c(O)c(-c2ccc(O)cc2)oc2cc(O)cc(O)c12
REMARK SMILES IDX 5 1 3 2 2 3 1 4 21 5 19 6 18 7 16 8 15 9 14 10 13 11 6 12
REMARK SMILES IDX 7 13 8 14 9 15 12 16 11 17 10 18 4 20 20 22 17 24
REMARK H PARENT 10 19 4 21 20 23 17 25
REMARK Flexibility Score: inf
ROOT
ATOM      1  C   UNL     1     142.448 170.957 174.604  1.00  0.00     0.180 A 
ATOM      2  C   UNL     1     142.546 171.811 173.492  1.00  0.00     0.208 A 
ATOM      3  C   UNL     1     143.549 171.575 172.538  1.00  0.00     0.238 A 
ATOM      4  O   UNL     1     143.665 172.375 171.573  1.00  0.00    -0.285 OA
ATOM      5  C   UNL     1     144.430 170.479 172.699  1.00  0.00     0.111 A 
ATOM      6  C   UNL     1     145.457 170.122 171.774  1.00  0.00     0.134 A 
ATOM      7  C   UNL     1     146.355 169.098 172.100  1.00  0.00     0.093 A 
ATOM      8  C   UNL     1     146.223 168.375 173.285  1.00  0.00     0.123 A 
ATOM      9  C   UNL     1     145.187 168.676 174.169  1.00  0.00     0.094 A 
ATOM     10  C   UNL     1     144.297 169.717 173.889  1.00  0.00     0.146 A 
ATOM     11  O   UNL     1     143.331 169.978 174.761  1.00  0.00    -0.452 OA
ENDROOT
BRANCH   1  12
ATOM     12  C   UNL     1     141.402 171.128 175.638  1.00  0.00     0.021 A 
ATOM     13  C   UNL     1     140.255 170.317 175.600  1.00  0.00     0.016 A 
ATOM     14  C   UNL     1     139.244 170.476 176.552  1.00  0.00     0.047 A 
ATOM     15  C   UNL     1     139.360 171.458 177.545  1.00  0.00     0.115 A 
ATOM     16  C   UNL     1     141.502 172.124 176.625  1.00  0.00     0.016 A 
ATOM     17  C   UNL     1     140.488 172.282 177.576  1.00  0.00     0.047 A 
BRANCH  15  18
ATOM     18  O   UNL     1     138.359 171.625 178.499  1.00  0.00    -0.508 OA
ATOM     19  H   UNL     1     138.478 171.305 179.454  1.00  0.00     0.293 HD
ENDBRANCH  15  18
ENDBRANCH   1  12
BRANCH   2  20
ATOM     20  O   UNL     1     141.679 172.900 173.363  1.00  0.00    -0.502 OA
ATOM     21  H   UNL     1     141.266 173.165 172.477  1.00  0.00     0.293 HD
ENDBRANCH   2  20
BRANCH   6  22
ATOM     22  O   UNL     1     145.620 170.720 170.520  1.00  0.00    -0.507 OA
ATOM     23  H   UNL     1     145.386 170.284 169.642  1.00  0.00     0.293 HD
ENDBRANCH   6  22
BRANCH   8  24
ATOM     24  O   UNL     1     147.125 167.352 173.569  1.00  0.00    -0.508 OA
ATOM     25  H   UNL     1     148.046 167.547 173.942  1.00  0.00     0.293 HD
ENDBRANCH   8  24
TORSDOF 5
ENDMDL
