MODEL 1
REMARK VINA RESULT:    -6.154      0.000      0.000
REMARK INTER + INTRA:         -12.967
REMARK INTER:                 -11.191
REMARK INTRA:                  -1.776
REMARK UNBOUND:                -1.776
REMARK SMILES CCCCCC=CCC=CCCCCCCCC(=O)[O-]
REMARK SMILES IDX 11 1 12 2 13 3 14 4 15 5 16 6 17 7 18 8 19 9 20 10 10 11
REMARK SMILES IDX 9 12 8 13 7 14 6 15 5 16 4 17 3 18 2 19 1 20
REMARK H PARENT
REMARK Flexibility Score: inf
ROOT
ATOM      1  C   UNL     1      51.777  53.262  24.266  1.00  0.00     0.027 C 
ENDROOT
BRANCH   1   2
ATOM      2  C   UNL     1      50.481  53.998  24.646  1.00  0.00     0.004 C 
BRANCH   2   3
ATOM      3  C   UNL     1      49.300  53.027  24.828  1.00  0.00     0.000 C 
BRANCH   3   4
ATOM      4  C   UNL     1      48.815  52.954  26.292  1.00  0.00     0.000 C 
BRANCH   4   5
ATOM      5  C   UNL     1      47.363  53.420  26.499  1.00  0.00     0.000 C 
BRANCH   5   6
ATOM      6  C   UNL     1      46.406  52.935  25.399  1.00  0.00     0.006 C 
BRANCH   6   7
ATOM      7  C   UNL     1      46.059  51.452  25.582  1.00  0.00     0.053 C 
BRANCH   7   8
ATOM      8  C   UNL     1      46.581  50.632  24.441  1.00  0.00     0.041 C 
ATOM      9  O   UNL     1      46.419  51.024  23.252  1.00  0.00    -0.550 OA
ATOM     10  O   UNL     1      47.239  49.431  24.688  1.00  0.00    -0.550 OA
ENDBRANCH   7   8
ENDBRANCH   6   7
ENDBRANCH   5   6
ENDBRANCH   4   5
ENDBRANCH   3   4
ENDBRANCH   2   3
ENDBRANCH   1   2
BRANCH   1  11
ATOM     11  C   UNL     1      52.798  54.200  23.667  1.00  0.00    -0.031 C 
ATOM     12  C   UNL     1      52.933  54.409  22.346  1.00  0.00    -0.027 C 
BRANCH  12  13
ATOM     13  C   UNL     1      52.119  53.716  21.283  1.00  0.00     0.054 C 
BRANCH  13  14
ATOM     14  C   UNL     1      52.526  52.275  21.092  1.00  0.00    -0.027 C 
ATOM     15  C   UNL     1      51.679  51.231  21.154  1.00  0.00    -0.031 C 
BRANCH  15  16
ATOM     16  C   UNL     1      50.200  51.369  21.442  1.00  0.00     0.027 C 
BRANCH  16  17
ATOM     17  C   UNL     1      49.692  50.280  22.397  1.00  0.00     0.004 C 
BRANCH  17  18
ATOM     18  C   UNL     1      50.630  49.064  22.449  1.00  0.00     0.000 C 
BRANCH  18  19
ATOM     19  C   UNL     1      50.287  48.161  23.638  1.00  0.00    -0.003 C 
ATOM     20  C   UNL     1      51.433  47.203  23.954  1.00  0.00     0.004 C 
ENDBRANCH  18  19
ENDBRANCH  17  18
ENDBRANCH  16  17
ENDBRANCH  15  16
ENDBRANCH  13  14
ENDBRANCH  12  13
ENDBRANCH   1  11
TORSDOF 14
ENDMDL
MODEL 2
REMARK VINA RESULT:    -5.986      1.715      4.423
REMARK INTER + INTRA:         -12.661
REMARK INTER:                 -10.535
REMARK INTRA:                  -2.126
REMARK UNBOUND:                -1.776
REMARK SMILES CCCCCC=CCC=CCCCCCCCC(=O)[O-]
REMARK SMILES IDX 11 1 12 2 13 3 14 4 15 5 16 6 17 7 18 8 19 9 20 10 10 11
REMARK SMILES IDX 9 12 8 13 7 14 6 15 5 16 4 17 3 18 2 19 1 20
REMARK H PARENT
REMARK Flexibility Score: inf
ROOT
ATOM      1  C   UNL     1      49.949  52.603  24.022  1.00  0.00     0.027 C 
ENDROOT
BRANCH   1   2
ATOM      2  C   UNL     1      49.079  53.355  25.043  1.00  0.00     0.004 C 
BRANCH   2   3
ATOM      3  C   UNL     1      48.074  52.421  25.741  1.00  0.00     0.000 C 
BRANCH   3   4
ATOM      4  C   UNL     1      46.719  52.352  25.005  1.00  0.00     0.000 C 
BRANCH   4   5
ATOM      5  C   UNL     1      46.457  51.013  24.291  1.00  0.00     0.000 C 
BRANCH   5   6
ATOM      6  C   UNL     1      47.238  49.837  24.898  1.00  0.00     0.006 C 
BRANCH   6   7
ATOM      7  C   UNL     1      48.271  49.288  23.905  1.00  0.00     0.053 C 
BRANCH   7   8
ATOM      8  C   UNL     1      48.829  47.980  24.376  1.00  0.00     0.041 C 
ATOM      9  O   UNL     1      48.074  47.128  24.922  1.00  0.00    -0.550 OA
ATOM     10  O   UNL     1      50.183  47.702  24.221  1.00  0.00    -0.550 OA
ENDBRANCH   7   8
ENDBRANCH   6   7
ENDBRANCH   5   6
ENDBRANCH   4   5
ENDBRANCH   3   4
ENDBRANCH   2   3
ENDBRANCH   1   2
BRANCH   1  11
ATOM     11  C   UNL     1      49.287  52.530  22.666  1.00  0.00    -0.031 C 
ATOM     12  C   UNL     1      49.725  51.749  21.664  1.00  0.00    -0.027 C 
BRANCH  12  13
ATOM     13  C   UNL     1      50.950  50.873  21.735  1.00  0.00     0.054 C 
BRANCH  13  14
ATOM     14  C   UNL     1      52.044  51.334  20.802  1.00  0.00    -0.027 C 
ATOM     15  C   UNL     1      53.028  52.184  21.147  1.00  0.00    -0.031 C 
BRANCH  15  16
ATOM     16  C   UNL     1      53.155  52.806  22.520  1.00  0.00     0.027 C 
BRANCH  16  17
ATOM     17  C   UNL     1      52.875  54.315  22.502  1.00  0.00     0.004 C 
BRANCH  17  18
ATOM     18  C   UNL     1      51.849  54.705  21.427  1.00  0.00     0.000 C 
BRANCH  18  19
ATOM     19  C   UNL     1      52.373  55.859  20.566  1.00  0.00    -0.003 C 
ATOM     20  C   UNL     1      53.078  56.910  21.418  1.00  0.00     0.004 C 
ENDBRANCH  18  19
ENDBRANCH  17  18
ENDBRANCH  16  17
ENDBRANCH  15  16
ENDBRANCH  13  14
ENDBRANCH  12  13
ENDBRANCH   1  11
TORSDOF 14
ENDMDL
MODEL 3
REMARK VINA RESULT:    -5.883      1.582      3.917
REMARK INTER + INTRA:         -12.475
REMARK INTER:                 -10.858
REMARK INTRA:                  -1.617
REMARK UNBOUND:                -1.776
REMARK SMILES CCCCCC=CCC=CCCCCCCCC(=O)[O-]
REMARK SMILES IDX 11 1 12 2 13 3 14 4 15 5 16 6 17 7 18 8 19 9 20 10 10 11
REMARK SMILES IDX 9 12 8 13 7 14 6 15 5 16 4 17 3 18 2 19 1 20
REMARK H PARENT
REMARK Flexibility Score: inf
ROOT
ATOM      1  C   UNL     1      48.815  53.215  25.903  1.00  0.00     0.027 C 
ENDROOT
BRANCH   1   2
ATOM      2  C   UNL     1      47.281  53.228  26.020  1.00  0.00     0.004 C 
BRANCH   2   3
ATOM      3  C   UNL     1      46.682  51.817  25.876  1.00  0.00     0.000 C 
BRANCH   3   4
ATOM      4  C   UNL     1      46.080  51.570  24.476  1.00  0.00     0.000 C 
BRANCH   4   5
ATOM      5  C   UNL     1      46.938  50.666  23.571  1.00  0.00     0.000 C 
BRANCH   5   6
ATOM      6  C   UNL     1      47.703  49.582  24.347  1.00  0.00     0.006 C 
BRANCH   6   7
ATOM      7  C   UNL     1      49.072  49.310  23.712  1.00  0.00     0.053 C 
BRANCH   7   8
ATOM      8  C   UNL     1      49.589  47.959  24.102  1.00  0.00     0.041 C 
ATOM      9  O   UNL     1      48.889  47.197  24.825  1.00  0.00    -0.550 OA
ATOM     10  O   UNL     1      50.846  47.542  23.675  1.00  0.00    -0.550 OA
ENDBRANCH   7   8
ENDBRANCH   6   7
ENDBRANCH   5   6
ENDBRANCH   4   5
ENDBRANCH   3   4
ENDBRANCH   2   3
ENDBRANCH   1   2
BRANCH   1  11
ATOM     11  C   UNL     1      49.268  52.805  24.521  1.00  0.00    -0.031 C 
ATOM     12  C   UNL     1      50.418  53.218  23.961  1.00  0.00    -0.027 C 
BRANCH  12  13
ATOM     13  C   UNL     1      51.391  54.170  24.609  1.00  0.00     0.054 C 
BRANCH  13  14
ATOM     14  C   UNL     1      52.814  53.930  24.166  1.00  0.00    -0.027 C 
ATOM     15  C   UNL     1      53.258  54.100  22.908  1.00  0.00    -0.031 C 
BRANCH  15  16
ATOM     16  C   UNL     1      52.375  54.541  21.761  1.00  0.00     0.027 C 
BRANCH  16  17
ATOM     17  C   UNL     1      52.114  53.406  20.761  1.00  0.00     0.004 C 
BRANCH  17  18
ATOM     18  C   UNL     1      52.828  52.104  21.156  1.00  0.00     0.000 C 
BRANCH  18  19
ATOM     19  C   UNL     1      51.821  50.963  21.338  1.00  0.00    -0.003 C 
ATOM     20  C   UNL     1      50.437  51.359  20.831  1.00  0.00     0.004 C 
ENDBRANCH  18  19
ENDBRANCH  17  18
ENDBRANCH  16  17
ENDBRANCH  15  16
ENDBRANCH  13  14
ENDBRANCH  12  13
ENDBRANCH   1  11
TORSDOF 14
ENDMDL
MODEL 4
REMARK VINA RESULT:    -5.821      1.683      4.124
REMARK INTER + INTRA:         -12.361
REMARK INTER:                 -10.006
REMARK INTRA:                  -2.355
REMARK UNBOUND:                -1.776
REMARK SMILES CCCCCC=CCC=CCCCCCCCC(=O)[O-]
REMARK SMILES IDX 11 1 12 2 13 3 14 4 15 5 16 6 17 7 18 8 19 9 20 10 10 11
REMARK SMILES IDX 9 12 8 13 7 14 6 15 5 16 4 17 3 18 2 19 1 20
REMARK H PARENT
REMARK Flexibility Score: inf
ROOT
ATOM      1  C   UNL     1      48.504  52.707  26.116  1.00  0.00     0.027 C 
ENDROOT
BRANCH   1   2
ATOM      2  C   UNL     1      47.089  53.307  26.151  1.00  0.00     0.004 C 
BRANCH   2   3
ATOM      3  C   UNL     1      46.083  52.455  25.356  1.00  0.00     0.000 C 
BRANCH   3   4
ATOM      4  C   UNL     1      46.475  52.309  23.870  1.00  0.00     0.000 C 
BRANCH   4   5
ATOM      5  C   UNL     1      46.631  50.851  23.400  1.00  0.00     0.000 C 
BRANCH   5   6
ATOM      6  C   UNL     1      47.287  49.940  24.450  1.00  0.00     0.006 C 
BRANCH   6   7
ATOM      7  C   UNL     1      48.599  49.346  23.923  1.00  0.00     0.053 C 
BRANCH   7   8
ATOM      8  C   UNL     1      48.795  47.946  24.422  1.00  0.00     0.041 C 
ATOM      9  O   UNL     1      49.938  47.412  24.379  1.00  0.00    -0.550 OA
ATOM     10  O   UNL     1      47.717  47.228  24.930  1.00  0.00    -0.550 OA
ENDBRANCH   7   8
ENDBRANCH   6   7
ENDBRANCH   5   6
ENDBRANCH   4   5
ENDBRANCH   3   4
ENDBRANCH   2   3
ENDBRANCH   1   2
BRANCH   1  11
ATOM     11  C   UNL     1      49.513  53.683  25.557  1.00  0.00    -0.031 C 
ATOM     12  C   UNL     1      50.257  53.442  24.464  1.00  0.00    -0.027 C 
BRANCH  12  13
ATOM     13  C   UNL     1      50.219  52.162  23.669  1.00  0.00     0.054 C 
BRANCH  13  14
ATOM     14  C   UNL     1      49.812  52.386  22.232  1.00  0.00    -0.027 C 
ATOM     15  C   UNL     1      50.558  52.040  21.168  1.00  0.00    -0.031 C 
BRANCH  15  16
ATOM     16  C   UNL     1      51.921  51.392  21.276  1.00  0.00     0.027 C 
BRANCH  16  17
ATOM     17  C   UNL     1      53.053  52.427  21.322  1.00  0.00     0.004 C 
BRANCH  17  18
ATOM     18  C   UNL     1      53.509  52.730  22.758  1.00  0.00     0.000 C 
BRANCH  18  19
ATOM     19  C   UNL     1      53.393  54.228  23.063  1.00  0.00    -0.003 C 
ATOM     20  C   UNL     1      52.639  54.961  21.956  1.00  0.00     0.004 C 
ENDBRANCH  18  19
ENDBRANCH  17  18
ENDBRANCH  16  17
ENDBRANCH  15  16
ENDBRANCH  13  14
ENDBRANCH  12  13
ENDBRANCH   1  11
TORSDOF 14
ENDMDL
MODEL 5
REMARK VINA RESULT:    -5.764      1.619      5.047
REMARK INTER + INTRA:         -12.258
REMARK INTER:                  -9.657
REMARK INTRA:                  -2.601
REMARK UNBOUND:                -1.776
REMARK SMILES CCCCCC=CCC=CCCCCCCCC(=O)[O-]
REMARK SMILES IDX 11 1 12 2 13 3 14 4 15 5 16 6 17 7 18 8 19 9 20 10 10 11
REMARK SMILES IDX 9 12 8 13 7 14 6 15 5 16 4 17 3 18 2 19 1 20
REMARK H PARENT
REMARK Flexibility Score: inf
ROOT
ATOM      1  C   UNL     1      52.780  52.887  23.359  1.00  0.00     0.027 C 
ENDROOT
BRANCH   1   2
ATOM      2  C   UNL     1      52.998  53.275  21.887  1.00  0.00     0.004 C 
BRANCH   2   3
ATOM      3  C   UNL     1      51.976  52.597  20.956  1.00  0.00     0.000 C 
BRANCH   3   4
ATOM      4  C   UNL     1      51.751  51.110  21.307  1.00  0.00     0.000 C 
BRANCH   4   5
ATOM      5  C   UNL     1      50.369  50.568  20.898  1.00  0.00     0.000 C 
BRANCH   5   6
ATOM      6  C   UNL     1      49.835  49.486  21.849  1.00  0.00     0.006 C 
BRANCH   6   7
ATOM      7  C   UNL     1      50.770  49.294  23.050  1.00  0.00     0.053 C 
BRANCH   7   8
ATOM      8  C   UNL     1      50.509  47.987  23.734  1.00  0.00     0.041 C 
ATOM      9  O   UNL     1      49.364  47.733  24.201  1.00  0.00    -0.550 OA
ATOM     10  O   UNL     1      51.529  47.049  23.862  1.00  0.00    -0.550 OA
ENDBRANCH   7   8
ENDBRANCH   6   7
ENDBRANCH   5   6
ENDBRANCH   4   5
ENDBRANCH   3   4
ENDBRANCH   2   3
ENDBRANCH   1   2
BRANCH   1  11
ATOM     11  C   UNL     1      51.985  53.934  24.102  1.00  0.00    -0.031 C 
ATOM     12  C   UNL     1      50.709  53.764  24.492  1.00  0.00    -0.027 C 
BRANCH  12  13
ATOM     13  C   UNL     1      49.887  52.532  24.211  1.00  0.00     0.054 C 
BRANCH  13  14
ATOM     14  C   UNL     1      48.855  52.760  23.133  1.00  0.00    -0.027 C 
ATOM     15  C   UNL     1      47.688  52.097  23.046  1.00  0.00    -0.031 C 
BRANCH  15  16
ATOM     16  C   UNL     1      47.265  51.015  24.015  1.00  0.00     0.027 C 
BRANCH  16  17
ATOM     17  C   UNL     1      45.914  51.325  24.676  1.00  0.00     0.004 C 
BRANCH  17  18
ATOM     18  C   UNL     1      45.875  52.731  25.294  1.00  0.00     0.000 C 
BRANCH  18  19
ATOM     19  C   UNL     1      46.366  52.703  26.746  1.00  0.00    -0.003 C 
ATOM     20  C   UNL     1      47.797  53.224  26.856  1.00  0.00     0.004 C 
ENDBRANCH  18  19
ENDBRANCH  17  18
ENDBRANCH  16  17
ENDBRANCH  15  16
ENDBRANCH  13  14
ENDBRANCH  12  13
ENDBRANCH   1  11
TORSDOF 14
ENDMDL
MODEL 6
REMARK VINA RESULT:    -5.744      2.572      6.371
REMARK INTER + INTRA:         -12.221
REMARK INTER:                 -10.041
REMARK INTRA:                  -2.180
REMARK UNBOUND:                -1.776
REMARK SMILES CCCCCC=CCC=CCCCCCCCC(=O)[O-]
REMARK SMILES IDX 11 1 12 2 13 3 14 4 15 5 16 6 17 7 18 8 19 9 20 10 10 11
REMARK SMILES IDX 9 12 8 13 7 14 6 15 5 16 4 17 3 18 2 19 1 20
REMARK H PARENT
REMARK Flexibility Score: inf
ROOT
ATOM      1  C   UNL     1      50.917  50.477  23.019  1.00  0.00     0.027 C 
ENDROOT
BRANCH   1   2
ATOM      2  C   UNL     1      50.614  51.597  22.009  1.00  0.00     0.004 C 
BRANCH   2   3
ATOM      3  C   UNL     1      51.634  51.624  20.856  1.00  0.00     0.000 C 
BRANCH   3   4
ATOM      4  C   UNL     1      52.295  53.008  20.683  1.00  0.00     0.000 C 
BRANCH   4   5
ATOM      5  C   UNL     1      51.711  54.104  21.594  1.00  0.00     0.000 C 
BRANCH   5   6
ATOM      6  C   UNL     1      52.780  54.855  22.403  1.00  0.00     0.006 C 
BRANCH   6   7
ATOM      7  C   UNL     1      52.747  54.441  23.880  1.00  0.00     0.053 C 
BRANCH   7   8
ATOM      8  C   UNL     1      53.583  53.220  24.116  1.00  0.00     0.041 C 
ATOM      9  O   UNL     1      53.325  52.452  25.085  1.00  0.00    -0.550 OA
ATOM     10  O   UNL     1      54.652  52.931  23.273  1.00  0.00    -0.550 OA
ENDBRANCH   7   8
ENDBRANCH   6   7
ENDBRANCH   5   6
ENDBRANCH   4   5
ENDBRANCH   3   4
ENDBRANCH   2   3
ENDBRANCH   1   2
BRANCH   1  11
ATOM     11  C   UNL     1      50.116  49.229  22.728  1.00  0.00    -0.031 C 
ATOM     12  C   UNL     1      48.923  48.963  23.286  1.00  0.00    -0.027 C 
BRANCH  12  13
ATOM     13  C   UNL     1      48.238  49.842  24.301  1.00  0.00     0.054 C 
BRANCH  13  14
ATOM     14  C   UNL     1      47.186  50.729  23.680  1.00  0.00    -0.027 C 
ATOM     15  C   UNL     1      46.174  51.299  24.359  1.00  0.00    -0.031 C 
BRANCH  15  16
ATOM     16  C   UNL     1      45.948  51.106  25.843  1.00  0.00     0.027 C 
BRANCH  16  17
ATOM     17  C   UNL     1      46.064  52.423  26.622  1.00  0.00     0.004 C 
BRANCH  17  18
ATOM     18  C   UNL     1      47.060  53.399  25.976  1.00  0.00     0.000 C 
BRANCH  18  19
ATOM     19  C   UNL     1      48.498  53.065  26.390  1.00  0.00    -0.003 C 
ATOM     20  C   UNL     1      49.465  53.246  25.223  1.00  0.00     0.004 C 
ENDBRANCH  18  19
ENDBRANCH  17  18
ENDBRANCH  16  17
ENDBRANCH  15  16
ENDBRANCH  13  14
ENDBRANCH  12  13
ENDBRANCH   1  11
TORSDOF 14
ENDMDL
MODEL 7
REMARK VINA RESULT:    -5.723      1.252      4.805
REMARK INTER + INTRA:         -12.182
REMARK INTER:                 -10.763
REMARK INTRA:                  -1.419
REMARK UNBOUND:                -1.776
REMARK SMILES CCCCCC=CCC=CCCCCCCCC(=O)[O-]
REMARK SMILES IDX 11 1 12 2 13 3 14 4 15 5 16 6 17 7 18 8 19 9 20 10 10 11
REMARK SMILES IDX 9 12 8 13 7 14 6 15 5 16 4 17 3 18 2 19 1 20
REMARK H PARENT
REMARK Flexibility Score: inf
ROOT
ATOM      1  C   UNL     1      52.733  54.833  22.198  1.00  0.00     0.027 C 
ENDROOT
BRANCH   1   2
ATOM      2  C   UNL     1      52.377  54.129  20.878  1.00  0.00     0.004 C 
BRANCH   2   3
ATOM      3  C   UNL     1      52.300  52.601  21.042  1.00  0.00     0.000 C 
BRANCH   3   4
ATOM      4  C   UNL     1      50.851  52.096  21.215  1.00  0.00     0.000 C 
BRANCH   4   5
ATOM      5  C   UNL     1      50.670  50.593  20.940  1.00  0.00     0.000 C 
BRANCH   5   6
ATOM      6  C   UNL     1      50.715  49.732  22.212  1.00  0.00     0.006 C 
BRANCH   6   7
ATOM      7  C   UNL     1      49.314  49.560  22.814  1.00  0.00     0.053 C 
BRANCH   7   8
ATOM      8  C   UNL     1      49.301  48.475  23.847  1.00  0.00     0.041 C 
ATOM      9  O   UNL     1      48.234  48.199  24.463  1.00  0.00    -0.550 OA
ATOM     10  O   UNL     1      50.466  47.771  24.136  1.00  0.00    -0.550 OA
ENDBRANCH   7   8
ENDBRANCH   6   7
ENDBRANCH   5   6
ENDBRANCH   4   5
ENDBRANCH   3   4
ENDBRANCH   2   3
ENDBRANCH   1   2
BRANCH   1  11
ATOM     11  C   UNL     1      53.334  53.875  23.199  1.00  0.00    -0.031 C 
ATOM     12  C   UNL     1      52.711  53.486  24.325  1.00  0.00    -0.027 C 
BRANCH  12  13
ATOM     13  C   UNL     1      51.354  53.975  24.765  1.00  0.00     0.054 C 
BRANCH  13  14
ATOM     14  C   UNL     1      50.227  53.193  24.135  1.00  0.00    -0.027 C 
ATOM     15  C   UNL     1      49.105  52.824  24.779  1.00  0.00    -0.031 C 
BRANCH  15  16
ATOM     16  C   UNL     1      48.837  53.133  26.236  1.00  0.00     0.027 C 
BRANCH  16  17
ATOM     17  C   UNL     1      47.335  53.203  26.546  1.00  0.00     0.004 C 
BRANCH  17  18
ATOM     18  C   UNL     1      46.470  53.023  25.289  1.00  0.00     0.000 C 
BRANCH  18  19
ATOM     19  C   UNL     1      46.155  51.543  25.050  1.00  0.00    -0.003 C 
ATOM     20  C   UNL     1      45.984  51.246  23.562  1.00  0.00     0.004 C 
ENDBRANCH  18  19
ENDBRANCH  17  18
ENDBRANCH  16  17
ENDBRANCH  15  16
ENDBRANCH  13  14
ENDBRANCH  12  13
ENDBRANCH   1  11
TORSDOF 14
ENDMDL
MODEL 8
REMARK VINA RESULT:    -5.704      1.718      4.198
REMARK INTER + INTRA:         -12.149
REMARK INTER:                 -10.045
REMARK INTRA:                  -2.104
REMARK UNBOUND:                -1.776
REMARK SMILES CCCCCC=CCC=CCCCCCCCC(=O)[O-]
REMARK SMILES IDX 11 1 12 2 13 3 14 4 15 5 16 6 17 7 18 8 19 9 20 10 10 11
REMARK SMILES IDX 9 12 8 13 7 14 6 15 5 16 4 17 3 18 2 19 1 20
REMARK H PARENT
REMARK Flexibility Score: inf
ROOT
ATOM      1  C   UNL     1      50.578  49.753  23.043  1.00  0.00     0.027 C 
ENDROOT
BRANCH   1   2
ATOM      2  C   UNL     1      49.979  48.432  23.552  1.00  0.00     0.004 C 
BRANCH   2   3
ATOM      3  C   UNL     1      48.554  48.620  24.104  1.00  0.00     0.000 C 
BRANCH   3   4
ATOM      4  C   UNL     1      48.222  50.100  24.390  1.00  0.00     0.000 C 
BRANCH   4   5
ATOM      5  C   UNL     1      47.068  50.663  23.541  1.00  0.00     0.000 C 
BRANCH   5   6
ATOM      6  C   UNL     1      46.276  51.773  24.251  1.00  0.00     0.006 C 
BRANCH   6   7
ATOM      7  C   UNL     1      46.512  51.738  25.766  1.00  0.00     0.053 C 
BRANCH   7   8
ATOM      8  C   UNL     1      46.912  53.087  26.281  1.00  0.00     0.041 C 
ATOM      9  O   UNL     1      46.196  54.097  26.034  1.00  0.00    -0.550 OA
ATOM     10  O   UNL     1      48.078  53.232  27.026  1.00  0.00    -0.550 OA
ENDBRANCH   7   8
ENDBRANCH   6   7
ENDBRANCH   5   6
ENDBRANCH   4   5
ENDBRANCH   3   4
ENDBRANCH   2   3
ENDBRANCH   1   2
BRANCH   1  11
ATOM     11  C   UNL     1      50.085  50.093  21.656  1.00  0.00    -0.031 C 
ATOM     12  C   UNL     1      50.807  50.787  20.758  1.00  0.00    -0.027 C 
BRANCH  12  13
ATOM     13  C   UNL     1      52.180  51.352  21.018  1.00  0.00     0.054 C 
BRANCH  13  14
ATOM     14  C   UNL     1      52.199  52.861  20.983  1.00  0.00    -0.027 C 
ATOM     15  C   UNL     1      52.880  53.633  21.848  1.00  0.00    -0.031 C 
BRANCH  15  16
ATOM     16  C   UNL     1      53.707  53.083  22.989  1.00  0.00     0.027 C 
BRANCH  16  17
ATOM     17  C   UNL     1      52.966  53.157  24.331  1.00  0.00     0.004 C 
BRANCH  17  18
ATOM     18  C   UNL     1      51.863  54.227  24.331  1.00  0.00     0.000 C 
BRANCH  18  19
ATOM     19  C   UNL     1      50.509  53.616  24.707  1.00  0.00    -0.003 C 
ATOM     20  C   UNL     1      49.695  53.267  23.464  1.00  0.00     0.004 C 
ENDBRANCH  18  19
ENDBRANCH  17  18
ENDBRANCH  16  17
ENDBRANCH  15  16
ENDBRANCH  13  14
ENDBRANCH  12  13
ENDBRANCH   1  11
TORSDOF 14
ENDMDL
MODEL 9
REMARK VINA RESULT:    -5.658      2.650      5.660
REMARK INTER + INTRA:         -12.065
REMARK INTER:                 -10.402
REMARK INTRA:                  -1.663
REMARK UNBOUND:                -1.776
REMARK SMILES CCCCCC=CCC=CCCCCCCCC(=O)[O-]
REMARK SMILES IDX 11 1 12 2 13 3 14 4 15 5 16 6 17 7 18 8 19 9 20 10 10 11
REMARK SMILES IDX 9 12 8 13 7 14 6 15 5 16 4 17 3 18 2 19 1 20
REMARK H PARENT
REMARK Flexibility Score: inf
ROOT
ATOM      1  C   UNL     1      48.977  52.656  25.781  1.00  0.00     0.027 C 
ENDROOT
BRANCH   1   2
ATOM      2  C   UNL     1      49.788  53.466  24.757  1.00  0.00     0.004 C 
BRANCH   2   3
ATOM      3  C   UNL     1      49.682  52.874  23.340  1.00  0.00     0.000 C 
BRANCH   3   4
ATOM      4  C   UNL     1      50.827  51.887  23.024  1.00  0.00     0.000 C 
BRANCH   4   5
ATOM      5  C   UNL     1      51.169  51.776  21.527  1.00  0.00     0.000 C 
BRANCH   5   6
ATOM      6  C   UNL     1      52.469  52.502  21.145  1.00  0.00     0.006 C 
BRANCH   6   7
ATOM      7  C   UNL     1      53.251  52.928  22.394  1.00  0.00     0.053 C 
BRANCH   7   8
ATOM      8  C   UNL     1      52.955  54.351  22.756  1.00  0.00     0.041 C 
ATOM      9  O   UNL     1      52.673  55.189  21.855  1.00  0.00    -0.550 OA
ATOM     10  O   UNL     1      52.995  54.756  24.087  1.00  0.00    -0.550 OA
ENDBRANCH   7   8
ENDBRANCH   6   7
ENDBRANCH   5   6
ENDBRANCH   4   5
ENDBRANCH   3   4
ENDBRANCH   2   3
ENDBRANCH   1   2
BRANCH   1  11
ATOM     11  C   UNL     1      47.862  53.475  26.387  1.00  0.00    -0.031 C 
ATOM     12  C   UNL     1      46.570  53.351  26.036  1.00  0.00    -0.027 C 
BRANCH  12  13
ATOM     13  C   UNL     1      46.059  52.416  24.969  1.00  0.00     0.054 C 
BRANCH  13  14
ATOM     14  C   UNL     1      46.006  50.982  25.437  1.00  0.00    -0.027 C 
ATOM     15  C   UNL     1      46.677  49.968  24.861  1.00  0.00    -0.031 C 
BRANCH  15  16
ATOM     16  C   UNL     1      47.566  50.136  23.648  1.00  0.00     0.027 C 
BRANCH  16  17
ATOM     17  C   UNL     1      48.796  49.219  23.700  1.00  0.00     0.004 C 
BRANCH  17  18
ATOM     18  C   UNL     1      48.523  47.918  24.470  1.00  0.00     0.000 C 
BRANCH  18  19
ATOM     19  C   UNL     1      49.821  47.136  24.699  1.00  0.00    -0.003 C 
ATOM     20  C   UNL     1      50.927  47.613  23.762  1.00  0.00     0.004 C 
ENDBRANCH  18  19
ENDBRANCH  17  18
ENDBRANCH  16  17
ENDBRANCH  15  16
ENDBRANCH  13  14
ENDBRANCH  12  13
ENDBRANCH   1  11
TORSDOF 14
ENDMDL
