MODEL 1
REMARK VINA RESULT:    -3.857      0.000      0.000
REMARK INTER + INTRA:          -5.900
REMARK INTER:                  -5.210
REMARK INTRA:                  -0.690
REMARK UNBOUND:                -0.690
REMARK SMILES O=C[C@H](O)[C@H](O)[C@H](O)CO
REMARK SMILES IDX 7 1 9 2 10 3 5 5 3 6 2 7 1 8 4 9 6 11 8 13
REMARK H PARENT 10 4 4 10 6 12 8 14
REMARK Flexibility Score: inf
ROOT
ATOM      1  C   UNL     1      -3.597  13.905 -18.268  1.00  0.00     0.171 C 
ENDROOT
BRANCH   1   2
ATOM      2  C   UNL     1      -3.940  15.315 -18.796  1.00  0.00     0.190 C 
BRANCH   2   3
ATOM      3  O   UNL     1      -4.886  15.928 -17.960  1.00  0.00    -0.394 OA
ATOM      4  H   UNL     1      -4.446  16.068 -17.081  1.00  0.00     0.210 HD
ENDBRANCH   2   3
ENDBRANCH   1   2
BRANCH   1   5
ATOM      5  C   UNL     1      -4.629  12.795 -18.636  1.00  0.00     0.181 C 
BRANCH   5   6
ATOM      6  C   UNL     1      -5.612  12.381 -17.507  1.00  0.00     0.209 C 
BRANCH   6   7
ATOM      7  C   UNL     1      -6.714  11.493 -18.021  1.00  0.00     0.258 C 
ATOM      8  O   UNL     1      -6.475  10.625 -18.846  1.00  0.00    -0.300 OA
ENDBRANCH   6   7
BRANCH   6   9
ATOM      9  O   UNL     1      -6.157  13.512 -16.879  1.00  0.00    -0.383 OA
ATOM     10  H   UNL     1      -5.507  13.801 -16.186  1.00  0.00     0.211 HD
ENDBRANCH   6   9
ENDBRANCH   5   6
BRANCH   5  11
ATOM     11  O   UNL     1      -4.000  11.668 -19.193  1.00  0.00    -0.387 OA
ATOM     12  H   UNL     1      -4.179  10.890 -18.605  1.00  0.00     0.211 HD
ENDBRANCH   5  11
ENDBRANCH   1   5
BRANCH   1  13
ATOM     13  O   UNL     1      -3.405  13.935 -16.875  1.00  0.00    -0.388 OA
ATOM     14  H   UNL     1      -2.456  13.710 -16.696  1.00  0.00     0.211 HD
ENDBRANCH   1  13
TORSDOF 8
ENDMDL
MODEL 2
REMARK VINA RESULT:    -3.568      2.230      3.577
REMARK INTER + INTRA:          -5.510
REMARK INTER:                  -4.738
REMARK INTRA:                  -0.772
REMARK UNBOUND:                -0.690
REMARK SMILES O=C[C@H](O)[C@H](O)[C@H](O)CO
REMARK SMILES IDX 7 1 9 2 10 3 5 5 3 6 2 7 1 8 4 9 6 11 8 13
REMARK H PARENT 10 4 4 10 6 12 8 14
REMARK Flexibility Score: inf
ROOT
ATOM      1  C   UNL     1      -6.127  12.038 -17.359  1.00  0.00     0.171 C 
ENDROOT
BRANCH   1   2
ATOM      2  C   UNL     1      -5.303  12.056 -18.665  1.00  0.00     0.190 C 
BRANCH   2   3
ATOM      3  O   UNL     1      -6.113  12.449 -19.742  1.00  0.00    -0.394 OA
ATOM      4  H   UNL     1      -5.755  13.315 -20.070  1.00  0.00     0.210 HD
ENDBRANCH   2   3
ENDBRANCH   1   2
BRANCH   1   5
ATOM      5  C   UNL     1      -7.504  11.311 -17.461  1.00  0.00     0.181 C 
BRANCH   5   6
ATOM      6  C   UNL     1      -7.474   9.883 -18.071  1.00  0.00     0.209 C 
BRANCH   6   7
ATOM      7  C   UNL     1      -8.353   9.775 -19.289  1.00  0.00     0.258 C 
ATOM      8  O   UNL     1      -7.957  10.171 -20.374  1.00  0.00    -0.300 OA
ENDBRANCH   6   7
BRANCH   6   9
ATOM      9  O   UNL     1      -7.853   8.924 -17.117  1.00  0.00    -0.383 OA
ATOM     10  H   UNL     1      -7.365   9.140 -16.280  1.00  0.00     0.211 HD
ENDBRANCH   6   9
ENDBRANCH   5   6
BRANCH   5  11
ATOM     11  O   UNL     1      -8.465  12.112 -18.104  1.00  0.00    -0.387 OA
ATOM     12  H   UNL     1      -8.857  11.588 -18.849  1.00  0.00     0.211 HD
ENDBRANCH   5  11
ENDBRANCH   1   5
BRANCH   1  13
ATOM     13  O   UNL     1      -6.313  13.345 -16.876  1.00  0.00    -0.388 OA
ATOM     14  H   UNL     1      -7.253  13.604 -17.061  1.00  0.00     0.211 HD
ENDBRANCH   1  13
TORSDOF 8
ENDMDL
MODEL 3
REMARK VINA RESULT:    -3.557      8.469      9.965
REMARK INTER + INTRA:          -5.495
REMARK INTER:                  -4.862
REMARK INTRA:                  -0.632
REMARK UNBOUND:                -0.690
REMARK SMILES O=C[C@H](O)[C@H](O)[C@H](O)CO
REMARK SMILES IDX 7 1 9 2 10 3 5 5 3 6 2 7 1 8 4 9 6 11 8 13
REMARK H PARENT 10 4 4 10 6 12 8 14
REMARK Flexibility Score: inf
ROOT
ATOM      1  C   UNL     1       3.400  11.026 -19.483  1.00  0.00     0.171 C 
ENDROOT
BRANCH   1   2
ATOM      2  C   UNL     1       3.031  11.266 -18.003  1.00  0.00     0.190 C 
BRANCH   2   3
ATOM      3  O   UNL     1       4.135  11.786 -17.308  1.00  0.00    -0.394 OA
ATOM      4  H   UNL     1       4.000  11.567 -16.350  1.00  0.00     0.210 HD
ENDBRANCH   2   3
ENDBRANCH   1   2
BRANCH   1   5
ATOM      5  C   UNL     1       3.655  12.320 -20.315  1.00  0.00     0.181 C 
BRANCH   5   6
ATOM      6  C   UNL     1       4.126  12.103 -21.779  1.00  0.00     0.209 C 
BRANCH   6   7
ATOM      7  C   UNL     1       4.943  13.264 -22.283  1.00  0.00     0.258 C 
ATOM      8  O   UNL     1       6.069  13.459 -21.855  1.00  0.00    -0.300 OA
ENDBRANCH   6   7
BRANCH   6   9
ATOM      9  O   UNL     1       3.030  11.880 -22.629  1.00  0.00    -0.383 OA
ATOM     10  H   UNL     1       3.393  11.521 -23.481  1.00  0.00     0.211 HD
ENDBRANCH   6   9
ENDBRANCH   5   6
BRANCH   5  11
ATOM     11  O   UNL     1       4.509  13.210 -19.639  1.00  0.00    -0.387 OA
ATOM     12  H   UNL     1       4.105  14.114 -19.674  1.00  0.00     0.211 HD
ENDBRANCH   5  11
ENDBRANCH   1   5
BRANCH   1  13
ATOM     13  O   UNL     1       2.418  10.240 -20.112  1.00  0.00    -0.388 OA
ATOM     14  H   UNL     1       2.799   9.334 -20.250  1.00  0.00     0.211 HD
ENDBRANCH   1  13
TORSDOF 8
ENDMDL
MODEL 4
REMARK VINA RESULT:    -3.414      1.140      2.661
REMARK INTER + INTRA:          -5.302
REMARK INTER:                  -4.611
REMARK INTRA:                  -0.692
REMARK UNBOUND:                -0.690
REMARK SMILES O=C[C@H](O)[C@H](O)[C@H](O)CO
REMARK SMILES IDX 7 1 9 2 10 3 5 5 3 6 2 7 1 8 4 9 6 11 8 13
REMARK H PARENT 10 4 4 10 6 12 8 14
REMARK Flexibility Score: inf
ROOT
ATOM      1  C   UNL     1      -4.753  12.695 -18.799  1.00  0.00     0.171 C 
ENDROOT
BRANCH   1   2
ATOM      2  C   UNL     1      -3.968  13.936 -18.324  1.00  0.00     0.190 C 
BRANCH   2   3
ATOM      3  O   UNL     1      -3.394  13.694 -17.066  1.00  0.00    -0.394 OA
ATOM      4  H   UNL     1      -2.619  14.308 -16.980  1.00  0.00     0.210 HD
ENDBRANCH   2   3
ENDBRANCH   1   2
BRANCH   1   5
ATOM      5  C   UNL     1      -5.760  12.116 -17.758  1.00  0.00     0.181 C 
BRANCH   5   6
ATOM      6  C   UNL     1      -6.823  11.130 -18.316  1.00  0.00     0.209 C 
BRANCH   6   7
ATOM      7  C   UNL     1      -7.734  10.615 -17.233  1.00  0.00     0.258 C 
ATOM      8  O   UNL     1      -8.700  11.269 -16.875  1.00  0.00    -0.300 OA
ENDBRANCH   6   7
BRANCH   6   9
ATOM      9  O   UNL     1      -6.208  10.057 -18.980  1.00  0.00    -0.383 OA
ATOM     10  H   UNL     1      -6.462   9.230 -18.492  1.00  0.00     0.211 HD
ENDBRANCH   6   9
ENDBRANCH   5   6
BRANCH   5  11
ATOM     11  O   UNL     1      -6.368  13.136 -17.003  1.00  0.00    -0.387 OA
ATOM     12  H   UNL     1      -5.832  13.962 -17.112  1.00  0.00     0.211 HD
ENDBRANCH   5  11
ENDBRANCH   1   5
BRANCH   1  13
ATOM     13  O   UNL     1      -3.869  11.685 -19.219  1.00  0.00    -0.388 OA
ATOM     14  H   UNL     1      -3.890  10.963 -18.539  1.00  0.00     0.211 HD
ENDBRANCH   1  13
TORSDOF 8
ENDMDL
MODEL 5
REMARK VINA RESULT:    -3.368     17.399     18.586
REMARK INTER + INTRA:          -5.240
REMARK INTER:                  -4.502
REMARK INTRA:                  -0.737
REMARK UNBOUND:                -0.690
REMARK SMILES O=C[C@H](O)[C@H](O)[C@H](O)CO
REMARK SMILES IDX 7 1 9 2 10 3 5 5 3 6 2 7 1 8 4 9 6 11 8 13
REMARK H PARENT 10 4 4 10 6 12 8 14
REMARK Flexibility Score: inf
ROOT
ATOM      1  C   UNL     1      -1.137  12.728 -36.093  1.00  0.00     0.171 C 
ENDROOT
BRANCH   1   2
ATOM      2  C   UNL     1      -0.066  11.678 -35.726  1.00  0.00     0.190 C 
BRANCH   2   3
ATOM      3  O   UNL     1       0.805  11.478 -36.808  1.00  0.00    -0.394 OA
ATOM      4  H   UNL     1       1.383  12.283 -36.865  1.00  0.00     0.210 HD
ENDBRANCH   2   3
ENDBRANCH   1   2
BRANCH   1   5
ATOM      5  C   UNL     1      -0.665  14.212 -35.990  1.00  0.00     0.181 C 
BRANCH   5   6
ATOM      6  C   UNL     1      -1.717  15.287 -36.376  1.00  0.00     0.209 C 
BRANCH   6   7
ATOM      7  C   UNL     1      -2.271  15.991 -35.165  1.00  0.00     0.258 C 
ATOM      8  O   UNL     1      -2.865  15.363 -34.303  1.00  0.00    -0.300 OA
ENDBRANCH   6   7
BRANCH   6   9
ATOM      9  O   UNL     1      -2.762  14.719 -37.123  1.00  0.00    -0.383 OA
ATOM     10  H   UNL     1      -2.576  14.916 -38.078  1.00  0.00     0.211 HD
ENDBRANCH   6   9
ENDBRANCH   5   6
BRANCH   5  11
ATOM     11  O   UNL     1       0.542  14.419 -36.681  1.00  0.00    -0.387 OA
ATOM     12  H   UNL     1       1.287  14.124 -36.097  1.00  0.00     0.211 HD
ENDBRANCH   5  11
ENDBRANCH   1   5
BRANCH   1  13
ATOM     13  O   UNL     1      -2.295  12.542 -35.316  1.00  0.00    -0.388 OA
ATOM     14  H   UNL     1      -2.993  13.156 -35.663  1.00  0.00     0.211 HD
ENDBRANCH   1  13
TORSDOF 8
ENDMDL
MODEL 6
REMARK VINA RESULT:    -3.366      8.611      9.696
REMARK INTER + INTRA:          -5.237
REMARK INTER:                  -4.493
REMARK INTRA:                  -0.744
REMARK UNBOUND:                -0.690
REMARK SMILES O=C[C@H](O)[C@H](O)[C@H](O)CO
REMARK SMILES IDX 7 1 9 2 10 3 5 5 3 6 2 7 1 8 4 9 6 11 8 13
REMARK H PARENT 10 4 4 10 6 12 8 14
REMARK Flexibility Score: inf
ROOT
ATOM      1  C   UNL     1       3.168  10.617 -19.091  1.00  0.00     0.171 C 
ENDROOT
BRANCH   1   2
ATOM      2  C   UNL     1       3.081  11.990 -19.792  1.00  0.00     0.190 C 
BRANCH   2   3
ATOM      3  O   UNL     1       4.217  12.758 -19.494  1.00  0.00    -0.394 OA
ATOM      4  H   UNL     1       4.834  12.671 -20.267  1.00  0.00     0.210 HD
ENDBRANCH   2   3
ENDBRANCH   1   2
BRANCH   1   5
ATOM      5  C   UNL     1       3.870  10.634 -17.698  1.00  0.00     0.181 C 
BRANCH   5   6
ATOM      6  C   UNL     1       3.823   9.303 -16.898  1.00  0.00     0.209 C 
BRANCH   6   7
ATOM      7  C   UNL     1       5.150   8.592 -16.914  1.00  0.00     0.258 C 
ATOM      8  O   UNL     1       5.640   8.221 -17.969  1.00  0.00    -0.300 OA
ENDBRANCH   6   7
BRANCH   6   9
ATOM      9  O   UNL     1       2.816   8.458 -17.392  1.00  0.00    -0.383 OA
ATOM     10  H   UNL     1       2.457   8.885 -18.214  1.00  0.00     0.211 HD
ENDBRANCH   6   9
ENDBRANCH   5   6
BRANCH   5  11
ATOM     11  O   UNL     1       3.428  11.711 -16.908  1.00  0.00    -0.387 OA
ATOM     12  H   UNL     1       4.060  11.821 -16.153  1.00  0.00     0.211 HD
ENDBRANCH   5  11
ENDBRANCH   1   5
BRANCH   1  13
ATOM     13  O   UNL     1       3.792   9.676 -19.928  1.00  0.00    -0.388 OA
ATOM     14  H   UNL     1       3.655   8.778 -19.528  1.00  0.00     0.211 HD
ENDBRANCH   1  13
TORSDOF 8
ENDMDL
