MODEL 1
REMARK VINA RESULT:    -2.837      0.000      0.000
REMARK INTER + INTRA:         -13.928
REMARK INTER:                  -7.480
REMARK INTRA:                  -6.448
REMARK UNBOUND:                -6.448
REMARK SMILES CCCCCCCCCCCCCCCCCCCCCCCCCCCCCC(=O)[O-]
REMARK SMILES IDX 16 1 17 2 18 3 19 4 20 5 21 6 22 7 23 8 24 9 25 10 26 11
REMARK SMILES IDX 27 12 28 13 29 14 30 15 31 16 32 17 15 18 14 19 13 20 12 21
REMARK SMILES IDX 11 22 10 23 9 24 8 25 7 26 6 27 5 28 4 29 3 30 2 31 1 32
REMARK H PARENT
REMARK Flexibility Score: inf
ROOT
ATOM      1  C   UNL     1      62.064  32.301  60.454  1.00  0.00     0.000 C 
ENDROOT
BRANCH   1   2
ATOM      2  C   UNL     1      61.356  31.205  61.271  1.00  0.00     0.000 C 
BRANCH   2   3
ATOM      3  C   UNL     1      62.322  30.154  61.865  1.00  0.00     0.000 C 
BRANCH   3   4
ATOM      4  C   UNL     1      61.948  28.717  61.454  1.00  0.00     0.000 C 
BRANCH   4   5
ATOM      5  C   UNL     1      63.166  27.914  60.976  1.00  0.00     0.000 C 
BRANCH   5   6
ATOM      6  C   UNL     1      64.408  28.802  60.751  1.00  0.00     0.000 C 
BRANCH   6   7
ATOM      7  C   UNL     1      64.920  28.744  59.306  1.00  0.00     0.000 C 
BRANCH   7   8
ATOM      8  C   UNL     1      63.798  28.639  58.252  1.00  0.00     0.000 C 
BRANCH   8   9
ATOM      9  C   UNL     1      63.531  29.966  57.509  1.00  0.00     0.000 C 
BRANCH   9  10
ATOM     10  C   UNL     1      62.075  30.127  57.028  1.00  0.00     0.000 C 
BRANCH  10  11
ATOM     11  C   UNL     1      61.019  29.682  58.061  1.00  0.00     0.000 C 
BRANCH  11  12
ATOM     12  C   UNL     1      59.721  30.501  57.968  1.00  0.00     0.000 C 
BRANCH  12  13
ATOM     13  C   UNL     1      58.484  29.716  58.450  1.00  0.00     0.006 C 
BRANCH  13  14
ATOM     14  C   UNL     1      58.834  28.368  59.132  1.00  0.00     0.053 C 
BRANCH  14  15
ATOM     15  C   UNL     1      58.002  28.085  60.343  1.00  0.00     0.041 C 
ATOM     16  O   UNL     1      56.772  28.357  60.363  1.00  0.00    -0.550 OA
ATOM     17  O   UNL     1      58.605  27.584  61.497  1.00  0.00    -0.550 OA
ENDBRANCH  14  15
ENDBRANCH  13  14
ENDBRANCH  12  13
ENDBRANCH  11  12
ENDBRANCH  10  11
ENDBRANCH   9  10
ENDBRANCH   8   9
ENDBRANCH   7   8
ENDBRANCH   6   7
ENDBRANCH   5   6
ENDBRANCH   4   5
ENDBRANCH   3   4
ENDBRANCH   2   3
ENDBRANCH   1   2
BRANCH   1  18
ATOM     18  C   UNL     1      63.565  32.456  60.802  1.00  0.00     0.000 C 
BRANCH  18  19
ATOM     19  C   UNL     1      64.422  32.801  59.580  1.00  0.00     0.000 C 
BRANCH  19  20
ATOM     20  C   UNL     1      63.599  33.399  58.415  1.00  0.00     0.000 C 
BRANCH  20  21
ATOM     21  C   UNL     1      64.106  34.795  58.017  1.00  0.00     0.000 C 
BRANCH  21  22
ATOM     22  C   UNL     1      65.455  35.128  58.688  1.00  0.00     0.000 C 
BRANCH  22  23
ATOM     23  C   UNL     1      65.437  36.411  59.562  1.00  0.00     0.000 C 
BRANCH  23  24
ATOM     24  C   UNL     1      65.593  36.139  61.072  1.00  0.00    -0.000 C 
BRANCH  24  25
ATOM     25  C   UNL     1      64.241  35.884  61.763  1.00  0.00    -0.000 C 
BRANCH  25  26
ATOM     26  C   UNL     1      63.096  36.669  61.095  1.00  0.00    -0.000 C 
BRANCH  26  27
ATOM     27  C   UNL     1      61.846  35.785  60.875  1.00  0.00    -0.000 C 
BRANCH  27  28
ATOM     28  C   UNL     1      60.759  36.444  60.000  1.00  0.00    -0.000 C 
BRANCH  28  29
ATOM     29  C   UNL     1      60.718  35.967  58.529  1.00  0.00    -0.000 C 
BRANCH  29  30
ATOM     30  C   UNL     1      60.026  34.607  58.272  1.00  0.00    -0.000 C 
BRANCH  30  31
ATOM     31  C   UNL     1      60.355  33.972  56.902  1.00  0.00    -0.003 C 
ATOM     32  C   UNL     1      60.970  34.953  55.902  1.00  0.00     0.004 C 
ENDBRANCH  30  31
ENDBRANCH  29  30
ENDBRANCH  28  29
ENDBRANCH  27  28
ENDBRANCH  26  27
ENDBRANCH  25  26
ENDBRANCH  24  25
ENDBRANCH  23  24
ENDBRANCH  22  23
ENDBRANCH  21  22
ENDBRANCH  20  21
ENDBRANCH  19  20
ENDBRANCH  18  19
ENDBRANCH   1  18
TORSDOF 28
ENDMDL
MODEL 2
REMARK VINA RESULT:    -2.724      2.517      6.846
REMARK INTER + INTRA:         -13.630
REMARK INTER:                  -7.514
REMARK INTRA:                  -6.116
REMARK UNBOUND:                -6.448
REMARK SMILES CCCCCCCCCCCCCCCCCCCCCCCCCCCCCC(=O)[O-]
REMARK SMILES IDX 16 1 17 2 18 3 19 4 20 5 21 6 22 7 23 8 24 9 25 10 26 11
REMARK SMILES IDX 27 12 28 13 29 14 30 15 31 16 32 17 15 18 14 19 13 20 12 21
REMARK SMILES IDX 11 22 10 23 9 24 8 25 7 26 6 27 5 28 4 29 3 30 2 31 1 32
REMARK H PARENT
REMARK Flexibility Score: inf
ROOT
ATOM      1  C   UNL     1      64.157  34.319  61.368  1.00  0.00     0.000 C 
ENDROOT
BRANCH   1   2
ATOM      2  C   UNL     1      64.812  35.698  61.562  1.00  0.00     0.000 C 
BRANCH   2   3
ATOM      3  C   UNL     1      63.799  36.867  61.572  1.00  0.00     0.000 C 
BRANCH   3   4
ATOM      4  C   UNL     1      62.410  36.441  61.061  1.00  0.00     0.000 C 
BRANCH   4   5
ATOM      5  C   UNL     1      62.135  36.944  59.636  1.00  0.00     0.000 C 
BRANCH   5   6
ATOM      6  C   UNL     1      61.449  35.878  58.756  1.00  0.00     0.000 C 
BRANCH   6   7
ATOM      7  C   UNL     1      61.103  34.603  59.535  1.00  0.00     0.000 C 
BRANCH   7   8
ATOM      8  C   UNL     1      60.590  33.451  58.648  1.00  0.00     0.000 C 
BRANCH   8   9
ATOM      9  C   UNL     1      60.529  32.093  59.382  1.00  0.00     0.000 C 
BRANCH   9  10
ATOM     10  C   UNL     1      61.531  31.971  60.547  1.00  0.00     0.000 C 
BRANCH  10  11
ATOM     11  C   UNL     1      61.102  30.972  61.642  1.00  0.00     0.000 C 
BRANCH  11  12
ATOM     12  C   UNL     1      62.121  29.837  61.838  1.00  0.00     0.000 C 
BRANCH  12  13
ATOM     13  C   UNL     1      63.469  30.121  61.145  1.00  0.00     0.006 C 
BRANCH  13  14
ATOM     14  C   UNL     1      64.342  28.854  60.948  1.00  0.00     0.053 C 
BRANCH  14  15
ATOM     15  C   UNL     1      65.548  29.093  60.096  1.00  0.00     0.041 C 
ATOM     16  O   UNL     1      66.232  28.131  59.657  1.00  0.00    -0.550 OA
ATOM     17  O   UNL     1      65.973  30.398  59.846  1.00  0.00    -0.550 OA
ENDBRANCH  14  15
ENDBRANCH  13  14
ENDBRANCH  12  13
ENDBRANCH  11  12
ENDBRANCH  10  11
ENDBRANCH   9  10
ENDBRANCH   8   9
ENDBRANCH   7   8
ENDBRANCH   6   7
ENDBRANCH   5   6
ENDBRANCH   4   5
ENDBRANCH   3   4
ENDBRANCH   2   3
ENDBRANCH   1   2
BRANCH   1  18
ATOM     18  C   UNL     1      64.671  33.562  60.119  1.00  0.00     0.000 C 
BRANCH  18  19
ATOM     19  C   UNL     1      64.856  34.480  58.906  1.00  0.00     0.000 C 
BRANCH  19  20
ATOM     20  C   UNL     1      64.710  33.736  57.558  1.00  0.00     0.000 C 
BRANCH  20  21
ATOM     21  C   UNL     1      64.006  32.380  57.729  1.00  0.00     0.000 C 
BRANCH  21  22
ATOM     22  C   UNL     1      63.154  32.017  56.495  1.00  0.00     0.000 C 
BRANCH  22  23
ATOM     23  C   UNL     1      62.477  30.622  56.572  1.00  0.00     0.000 C 
BRANCH  23  24
ATOM     24  C   UNL     1      63.425  29.491  57.023  1.00  0.00    -0.000 C 
BRANCH  24  25
ATOM     25  C   UNL     1      62.680  28.361  57.754  1.00  0.00    -0.000 C 
BRANCH  25  26
ATOM     26  C   UNL     1      61.290  28.811  58.246  1.00  0.00    -0.000 C 
BRANCH  26  27
ATOM     27  C   UNL     1      60.155  27.997  57.583  1.00  0.00    -0.000 C 
BRANCH  27  28
ATOM     28  C   UNL     1      59.016  27.610  58.549  1.00  0.00    -0.000 C 
BRANCH  28  29
ATOM     29  C   UNL     1      58.871  28.515  59.795  1.00  0.00    -0.000 C 
BRANCH  29  30
ATOM     30  C   UNL     1      58.895  27.798  61.167  1.00  0.00    -0.000 C 
BRANCH  30  31
ATOM     31  C   UNL     1      60.042  26.777  61.334  1.00  0.00    -0.003 C 
ATOM     32  C   UNL     1      59.816  25.777  62.470  1.00  0.00     0.004 C 
ENDBRANCH  30  31
ENDBRANCH  29  30
ENDBRANCH  28  29
ENDBRANCH  27  28
ENDBRANCH  26  27
ENDBRANCH  25  26
ENDBRANCH  24  25
ENDBRANCH  23  24
ENDBRANCH  22  23
ENDBRANCH  21  22
ENDBRANCH  20  21
ENDBRANCH  19  20
ENDBRANCH  18  19
ENDBRANCH   1  18
TORSDOF 28
ENDMDL
MODEL 3
REMARK VINA RESULT:    -2.709      2.781      7.194
REMARK INTER + INTRA:         -13.592
REMARK INTER:                  -7.022
REMARK INTRA:                  -6.570
REMARK UNBOUND:                -6.448
REMARK SMILES CCCCCCCCCCCCCCCCCCCCCCCCCCCCCC(=O)[O-]
REMARK SMILES IDX 16 1 17 2 18 3 19 4 20 5 21 6 22 7 23 8 24 9 25 10 26 11
REMARK SMILES IDX 27 12 28 13 29 14 30 15 31 16 32 17 15 18 14 19 13 20 12 21
REMARK SMILES IDX 11 22 10 23 9 24 8 25 7 26 6 27 5 28 4 29 3 30 2 31 1 32
REMARK H PARENT
REMARK Flexibility Score: inf
ROOT
ATOM      1  C   UNL     1      62.856  32.278  58.144  1.00  0.00     0.000 C 
ENDROOT
BRANCH   1   2
ATOM      2  C   UNL     1      61.367  32.579  57.889  1.00  0.00     0.000 C 
BRANCH   2   3
ATOM      3  C   UNL     1      60.705  33.411  59.011  1.00  0.00     0.000 C 
BRANCH   3   4
ATOM      4  C   UNL     1      61.674  33.704  60.173  1.00  0.00     0.000 C 
BRANCH   4   5
ATOM      5  C   UNL     1      61.576  35.156  60.660  1.00  0.00     0.000 C 
BRANCH   5   6
ATOM      6  C   UNL     1      62.947  35.735  61.070  1.00  0.00     0.000 C 
BRANCH   6   7
ATOM      7  C   UNL     1      64.092  34.734  60.872  1.00  0.00     0.000 C 
BRANCH   7   8
ATOM      8  C   UNL     1      64.971  35.029  59.639  1.00  0.00     0.000 C 
BRANCH   8   9
ATOM      9  C   UNL     1      64.955  36.514  59.218  1.00  0.00     0.000 C 
BRANCH   9  10
ATOM     10  C   UNL     1      64.427  36.751  57.790  1.00  0.00     0.000 C 
BRANCH  10  11
ATOM     11  C   UNL     1      63.550  35.605  57.246  1.00  0.00     0.000 C 
BRANCH  11  12
ATOM     12  C   UNL     1      62.241  36.110  56.616  1.00  0.00     0.000 C 
BRANCH  12  13
ATOM     13  C   UNL     1      61.382  36.928  57.601  1.00  0.00     0.006 C 
BRANCH  13  14
ATOM     14  C   UNL     1      59.875  36.570  57.552  1.00  0.00     0.053 C 
BRANCH  14  15
ATOM     15  C   UNL     1      59.428  36.072  56.214  1.00  0.00     0.041 C 
ATOM     16  O   UNL     1      59.220  36.869  55.261  1.00  0.00    -0.550 OA
ATOM     17  O   UNL     1      59.160  34.714  56.034  1.00  0.00    -0.550 OA
ENDBRANCH  14  15
ENDBRANCH  13  14
ENDBRANCH  12  13
ENDBRANCH  11  12
ENDBRANCH  10  11
ENDBRANCH   9  10
ENDBRANCH   8   9
ENDBRANCH   7   8
ENDBRANCH   6   7
ENDBRANCH   5   6
ENDBRANCH   4   5
ENDBRANCH   3   4
ENDBRANCH   2   3
ENDBRANCH   1   2
BRANCH   1  18
ATOM     18  C   UNL     1      63.397  31.090  57.312  1.00  0.00     0.000 C 
BRANCH  18  19
ATOM     19  C   UNL     1      64.447  30.270  58.067  1.00  0.00     0.000 C 
BRANCH  19  20
ATOM     20  C   UNL     1      65.243  31.108  59.095  1.00  0.00     0.000 C 
BRANCH  20  21
ATOM     21  C   UNL     1      65.223  30.466  60.492  1.00  0.00     0.000 C 
BRANCH  21  22
ATOM     22  C   UNL     1      64.068  31.010  61.357  1.00  0.00     0.000 C 
BRANCH  22  23
ATOM     23  C   UNL     1      62.923  29.992  61.612  1.00  0.00     0.000 C 
BRANCH  23  24
ATOM     24  C   UNL     1      61.534  30.643  61.778  1.00  0.00    -0.000 C 
BRANCH  24  25
ATOM     25  C   UNL     1      60.503  30.079  60.784  1.00  0.00    -0.000 C 
BRANCH  25  26
ATOM     26  C   UNL     1      61.174  29.280  59.650  1.00  0.00    -0.000 C 
BRANCH  26  27
ATOM     27  C   UNL     1      60.505  27.900  59.446  1.00  0.00    -0.000 C 
BRANCH  27  28
ATOM     28  C   UNL     1      59.760  27.376  60.692  1.00  0.00    -0.000 C 
BRANCH  28  29
ATOM     29  C   UNL     1      60.451  26.207  61.431  1.00  0.00    -0.000 C 
BRANCH  29  30
ATOM     30  C   UNL     1      61.825  26.521  62.071  1.00  0.00    -0.000 C 
BRANCH  30  31
ATOM     31  C   UNL     1      63.017  25.790  61.414  1.00  0.00    -0.003 C 
ATOM     32  C   UNL     1      63.875  26.690  60.522  1.00  0.00     0.004 C 
ENDBRANCH  30  31
ENDBRANCH  29  30
ENDBRANCH  28  29
ENDBRANCH  27  28
ENDBRANCH  26  27
ENDBRANCH  25  26
ENDBRANCH  24  25
ENDBRANCH  23  24
ENDBRANCH  22  23
ENDBRANCH  21  22
ENDBRANCH  20  21
ENDBRANCH  19  20
ENDBRANCH  18  19
ENDBRANCH   1  18
TORSDOF 28
ENDMDL
MODEL 4
REMARK VINA RESULT:    -2.695      3.177      7.134
REMARK INTER + INTRA:         -13.554
REMARK INTER:                  -7.900
REMARK INTRA:                  -5.654
REMARK UNBOUND:                -6.448
REMARK SMILES CCCCCCCCCCCCCCCCCCCCCCCCCCCCCC(=O)[O-]
REMARK SMILES IDX 16 1 17 2 18 3 19 4 20 5 21 6 22 7 23 8 24 9 25 10 26 11
REMARK SMILES IDX 27 12 28 13 29 14 30 15 31 16 32 17 15 18 14 19 13 20 12 21
REMARK SMILES IDX 11 22 10 23 9 24 8 25 7 26 6 27 5 28 4 29 3 30 2 31 1 32
REMARK H PARENT
REMARK Flexibility Score: inf
ROOT
ATOM      1  C   UNL     1      61.854  34.286  60.304  1.00  0.00     0.000 C 
ENDROOT
BRANCH   1   2
ATOM      2  C   UNL     1      62.719  35.357  60.992  1.00  0.00     0.000 C 
BRANCH   2   3
ATOM      3  C   UNL     1      64.129  34.857  61.381  1.00  0.00     0.000 C 
BRANCH   3   4
ATOM      4  C   UNL     1      65.160  36.000  61.440  1.00  0.00     0.000 C 
BRANCH   4   5
ATOM      5  C   UNL     1      65.341  36.691  60.081  1.00  0.00     0.000 C 
BRANCH   5   6
ATOM      6  C   UNL     1      65.930  35.745  59.012  1.00  0.00     0.000 C 
BRANCH   6   7
ATOM      7  C   UNL     1      65.050  35.652  57.760  1.00  0.00     0.000 C 
BRANCH   7   8
ATOM      8  C   UNL     1      64.339  34.293  57.599  1.00  0.00     0.000 C 
BRANCH   8   9
ATOM      9  C   UNL     1      65.082  33.127  58.288  1.00  0.00     0.000 C 
BRANCH   9  10
ATOM     10  C   UNL     1      66.090  32.404  57.373  1.00  0.00     0.000 C 
BRANCH  10  11
ATOM     11  C   UNL     1      66.524  31.017  57.890  1.00  0.00     0.000 C 
BRANCH  11  12
ATOM     12  C   UNL     1      65.950  30.700  59.281  1.00  0.00     0.000 C 
BRANCH  12  13
ATOM     13  C   UNL     1      66.558  29.425  59.901  1.00  0.00     0.006 C 
BRANCH  13  14
ATOM     14  C   UNL     1      68.093  29.317  59.714  1.00  0.00     0.053 C 
BRANCH  14  15
ATOM     15  C   UNL     1      68.837  29.162  61.002  1.00  0.00     0.041 C 
ATOM     16  O   UNL     1      68.237  28.843  62.063  1.00  0.00    -0.550 OA
ATOM     17  O   UNL     1      70.201  29.449  61.054  1.00  0.00    -0.550 OA
ENDBRANCH  14  15
ENDBRANCH  13  14
ENDBRANCH  12  13
ENDBRANCH  11  12
ENDBRANCH  10  11
ENDBRANCH   9  10
ENDBRANCH   8   9
ENDBRANCH   7   8
ENDBRANCH   6   7
ENDBRANCH   5   6
ENDBRANCH   4   5
ENDBRANCH   3   4
ENDBRANCH   2   3
ENDBRANCH   1   2
BRANCH   1  18
ATOM     18  C   UNL     1      62.286  32.837  60.635  1.00  0.00     0.000 C 
BRANCH  18  19
ATOM     19  C   UNL     1      61.103  31.938  61.007  1.00  0.00     0.000 C 
BRANCH  19  20
ATOM     20  C   UNL     1      61.533  30.649  61.747  1.00  0.00     0.000 C 
BRANCH  20  21
ATOM     21  C   UNL     1      63.048  30.411  61.641  1.00  0.00     0.000 C 
BRANCH  21  22
ATOM     22  C   UNL     1      63.379  28.924  61.396  1.00  0.00     0.000 C 
BRANCH  22  23
ATOM     23  C   UNL     1      62.142  27.985  61.394  1.00  0.00     0.000 C 
BRANCH  23  24
ATOM     24  C   UNL     1      62.342  26.692  60.576  1.00  0.00    -0.000 C 
BRANCH  24  25
ATOM     25  C   UNL     1      62.418  26.964  59.062  1.00  0.00    -0.000 C 
BRANCH  25  26
ATOM     26  C   UNL     1      61.635  28.231  58.665  1.00  0.00    -0.000 C 
BRANCH  26  27
ATOM     27  C   UNL     1      62.337  29.005  57.525  1.00  0.00    -0.000 C 
BRANCH  27  28
ATOM     28  C   UNL     1      62.602  30.491  57.848  1.00  0.00    -0.000 C 
BRANCH  28  29
ATOM     29  C   UNL     1      61.961  31.503  56.871  1.00  0.00    -0.000 C 
BRANCH  29  30
ATOM     30  C   UNL     1      60.687  32.224  57.372  1.00  0.00    -0.000 C 
BRANCH  30  31
ATOM     31  C   UNL     1      59.369  31.479  57.063  1.00  0.00    -0.003 C 
ATOM     32  C   UNL     1      58.845  30.644  58.233  1.00  0.00     0.004 C 
ENDBRANCH  30  31
ENDBRANCH  29  30
ENDBRANCH  28  29
ENDBRANCH  27  28
ENDBRANCH  26  27
ENDBRANCH  25  26
ENDBRANCH  24  25
ENDBRANCH  23  24
ENDBRANCH  22  23
ENDBRANCH  21  22
ENDBRANCH  20  21
ENDBRANCH  19  20
ENDBRANCH  18  19
ENDBRANCH   1  18
TORSDOF 28
ENDMDL
MODEL 5
REMARK VINA RESULT:    -2.667      7.669     11.729
REMARK INTER + INTRA:         -13.480
REMARK INTER:                  -7.228
REMARK INTRA:                  -6.251
REMARK UNBOUND:                -6.448
REMARK SMILES CCCCCCCCCCCCCCCCCCCCCCCCCCCCCC(=O)[O-]
REMARK SMILES IDX 16 1 17 2 18 3 19 4 20 5 21 6 22 7 23 8 24 9 25 10 26 11
REMARK SMILES IDX 27 12 28 13 29 14 30 15 31 16 32 17 15 18 14 19 13 20 12 21
REMARK SMILES IDX 11 22 10 23 9 24 8 25 7 26 6 27 5 28 4 29 3 30 2 31 1 32
REMARK H PARENT
REMARK Flexibility Score: inf
ROOT
ATOM      1  C   UNL     1      54.720  28.625  50.317  1.00  0.00     0.000 C 
ENDROOT
BRANCH   1   2
ATOM      2  C   UNL     1      53.788  27.528  49.771  1.00  0.00     0.000 C 
BRANCH   2   3
ATOM      3  C   UNL     1      54.485  26.161  49.585  1.00  0.00     0.000 C 
BRANCH   3   4
ATOM      4  C   UNL     1      53.559  24.980  49.932  1.00  0.00     0.000 C 
BRANCH   4   5
ATOM      5  C   UNL     1      53.519  24.696  51.440  1.00  0.00     0.000 C 
BRANCH   5   6
ATOM      6  C   UNL     1      54.818  25.121  52.156  1.00  0.00     0.000 C 
BRANCH   6   7
ATOM      7  C   UNL     1      54.792  24.813  53.658  1.00  0.00     0.000 C 
BRANCH   7   8
ATOM      8  C   UNL     1      54.428  26.027  54.537  1.00  0.00     0.000 C 
BRANCH   8   9
ATOM      9  C   UNL     1      54.562  27.377  53.800  1.00  0.00     0.000 C 
BRANCH   9  10
ATOM     10  C   UNL     1      53.231  28.142  53.656  1.00  0.00     0.000 C 
BRANCH  10  11
ATOM     11  C   UNL     1      53.301  29.616  54.108  1.00  0.00     0.000 C 
BRANCH  11  12
ATOM     12  C   UNL     1      53.140  30.600  52.938  1.00  0.00     0.000 C 
BRANCH  12  13
ATOM     13  C   UNL     1      54.316  31.590  52.825  1.00  0.00     0.006 C 
BRANCH  13  14
ATOM     14  C   UNL     1      55.419  31.365  53.890  1.00  0.00     0.053 C 
BRANCH  14  15
ATOM     15  C   UNL     1      55.585  32.522  54.824  1.00  0.00     0.041 C 
ATOM     16  O   UNL     1      56.584  33.285  54.740  1.00  0.00    -0.550 OA
ATOM     17  O   UNL     1      54.666  32.718  55.855  1.00  0.00    -0.550 OA
ENDBRANCH  14  15
ENDBRANCH  13  14
ENDBRANCH  12  13
ENDBRANCH  11  12
ENDBRANCH  10  11
ENDBRANCH   9  10
ENDBRANCH   8   9
ENDBRANCH   7   8
ENDBRANCH   6   7
ENDBRANCH   5   6
ENDBRANCH   4   5
ENDBRANCH   3   4
ENDBRANCH   2   3
ENDBRANCH   1   2
BRANCH   1  18
ATOM     18  C   UNL     1      56.193  28.169  50.457  1.00  0.00     0.000 C 
BRANCH  18  19
ATOM     19  C   UNL     1      56.968  28.987  51.495  1.00  0.00     0.000 C 
BRANCH  19  20
ATOM     20  C   UNL     1      58.434  29.256  51.080  1.00  0.00     0.000 C 
BRANCH  20  21
ATOM     21  C   UNL     1      58.614  29.192  49.554  1.00  0.00     0.000 C 
BRANCH  21  22
ATOM     22  C   UNL     1      59.785  28.272  49.153  1.00  0.00     0.000 C 
BRANCH  22  23
ATOM     23  C   UNL     1      60.484  27.567  50.348  1.00  0.00     0.000 C 
BRANCH  23  24
ATOM     24  C   UNL     1      60.633  26.042  50.172  1.00  0.00    -0.000 C 
BRANCH  24  25
ATOM     25  C   UNL     1      59.335  25.381  49.674  1.00  0.00    -0.000 C 
BRANCH  25  26
ATOM     26  C   UNL     1      58.245  25.360  50.764  1.00  0.00    -0.000 C 
BRANCH  26  27
ATOM     27  C   UNL     1      58.670  24.510  51.984  1.00  0.00    -0.000 C 
BRANCH  27  28
ATOM     28  C   UNL     1      58.376  25.176  53.344  1.00  0.00    -0.000 C 
BRANCH  28  29
ATOM     29  C   UNL     1      59.234  26.421  53.668  1.00  0.00    -0.000 C 
BRANCH  29  30
ATOM     30  C   UNL     1      58.527  27.554  54.450  1.00  0.00    -0.000 C 
BRANCH  30  31
ATOM     31  C   UNL     1      59.430  28.765  54.776  1.00  0.00    -0.003 C 
ATOM     32  C   UNL     1      58.661  30.076  54.951  1.00  0.00     0.004 C 
ENDBRANCH  30  31
ENDBRANCH  29  30
ENDBRANCH  28  29
ENDBRANCH  27  28
ENDBRANCH  26  27
ENDBRANCH  25  26
ENDBRANCH  24  25
ENDBRANCH  23  24
ENDBRANCH  22  23
ENDBRANCH  21  22
ENDBRANCH  20  21
ENDBRANCH  19  20
ENDBRANCH  18  19
ENDBRANCH   1  18
TORSDOF 28
ENDMDL
MODEL 6
REMARK VINA RESULT:    -2.649      7.662     11.333
REMARK INTER + INTRA:         -13.432
REMARK INTER:                  -7.811
REMARK INTRA:                  -5.621
REMARK UNBOUND:                -6.448
REMARK SMILES CCCCCCCCCCCCCCCCCCCCCCCCCCCCCC(=O)[O-]
REMARK SMILES IDX 16 1 17 2 18 3 19 4 20 5 21 6 22 7 23 8 24 9 25 10 26 11
REMARK SMILES IDX 27 12 28 13 29 14 30 15 31 16 32 17 15 18 14 19 13 20 12 21
REMARK SMILES IDX 11 22 10 23 9 24 8 25 7 26 6 27 5 28 4 29 3 30 2 31 1 32
REMARK H PARENT
REMARK Flexibility Score: inf
ROOT
ATOM      1  C   UNL     1      58.288  25.650  52.492  1.00  0.00     0.000 C 
ENDROOT
BRANCH   1   2
ATOM      2  C   UNL     1      58.864  24.848  51.311  1.00  0.00     0.000 C 
BRANCH   2   3
ATOM      3  C   UNL     1      60.012  25.574  50.573  1.00  0.00     0.000 C 
BRANCH   3   4
ATOM      4  C   UNL     1      59.500  26.458  49.420  1.00  0.00     0.000 C 
BRANCH   4   5
ATOM      5  C   UNL     1      60.305  27.758  49.282  1.00  0.00     0.000 C 
BRANCH   5   6
ATOM      6  C   UNL     1      59.414  29.016  49.363  1.00  0.00     0.000 C 
BRANCH   6   7
ATOM      7  C   UNL     1      58.025  28.718  49.939  1.00  0.00     0.000 C 
BRANCH   7   8
ATOM      8  C   UNL     1      57.830  29.217  51.386  1.00  0.00     0.000 C 
BRANCH   8   9
ATOM      9  C   UNL     1      59.126  29.762  52.025  1.00  0.00     0.000 C 
BRANCH   9  10
ATOM     10  C   UNL     1      59.797  28.781  53.007  1.00  0.00     0.000 C 
BRANCH  10  11
ATOM     11  C   UNL     1      61.316  28.996  53.169  1.00  0.00     0.000 C 
BRANCH  11  12
ATOM     12  C   UNL     1      61.841  30.164  52.318  1.00  0.00     0.000 C 
BRANCH  12  13
ATOM     13  C   UNL     1      62.758  29.699  51.169  1.00  0.00     0.006 C 
BRANCH  13  14
ATOM     14  C   UNL     1      63.836  30.742  50.777  1.00  0.00     0.053 C 
BRANCH  14  15
ATOM     15  C   UNL     1      63.398  31.664  49.683  1.00  0.00     0.041 C 
ATOM     16  O   UNL     1      62.193  31.712  49.319  1.00  0.00    -0.550 OA
ATOM     17  O   UNL     1      64.344  32.426  48.998  1.00  0.00    -0.550 OA
ENDBRANCH  14  15
ENDBRANCH  13  14
ENDBRANCH  12  13
ENDBRANCH  11  12
ENDBRANCH  10  11
ENDBRANCH   9  10
ENDBRANCH   8   9
ENDBRANCH   7   8
ENDBRANCH   6   7
ENDBRANCH   5   6
ENDBRANCH   4   5
ENDBRANCH   3   4
ENDBRANCH   2   3
ENDBRANCH   1   2
BRANCH   1  18
ATOM     18  C   UNL     1      56.745  25.775  52.461  1.00  0.00     0.000 C 
BRANCH  18  19
ATOM     19  C   UNL     1      56.187  25.843  51.036  1.00  0.00     0.000 C 
BRANCH  19  20
ATOM     20  C   UNL     1      54.695  26.247  50.991  1.00  0.00     0.000 C 
BRANCH  20  21
ATOM     21  C   UNL     1      54.382  27.140  49.779  1.00  0.00     0.000 C 
BRANCH  21  22
ATOM     22  C   UNL     1      53.520  28.358  50.171  1.00  0.00     0.000 C 
BRANCH  22  23
ATOM     23  C   UNL     1      54.334  29.632  50.525  1.00  0.00     0.000 C 
BRANCH  23  24
ATOM     24  C   UNL     1      53.993  30.226  51.907  1.00  0.00    -0.000 C 
BRANCH  24  25
ATOM     25  C   UNL     1      54.309  29.252  53.057  1.00  0.00    -0.000 C 
BRANCH  25  26
ATOM     26  C   UNL     1      55.362  29.826  54.025  1.00  0.00    -0.000 C 
BRANCH  26  27
ATOM     27  C   UNL     1      55.639  31.323  53.750  1.00  0.00    -0.000 C 
BRANCH  27  28
ATOM     28  C   UNL     1      57.016  31.807  54.250  1.00  0.00    -0.000 C 
BRANCH  28  29
ATOM     29  C   UNL     1      57.768  32.760  53.292  1.00  0.00    -0.000 C 
BRANCH  29  30
ATOM     30  C   UNL     1      59.237  33.079  53.660  1.00  0.00    -0.000 C 
BRANCH  30  31
ATOM     31  C   UNL     1      59.868  34.222  52.834  1.00  0.00    -0.003 C 
ATOM     32  C   UNL     1      61.102  33.796  52.036  1.00  0.00     0.004 C 
ENDBRANCH  30  31
ENDBRANCH  29  30
ENDBRANCH  28  29
ENDBRANCH  27  28
ENDBRANCH  26  27
ENDBRANCH  25  26
ENDBRANCH  24  25
ENDBRANCH  23  24
ENDBRANCH  22  23
ENDBRANCH  21  22
ENDBRANCH  20  21
ENDBRANCH  19  20
ENDBRANCH  18  19
ENDBRANCH   1  18
TORSDOF 28
ENDMDL
MODEL 7
REMARK VINA RESULT:    -2.619      7.844     11.106
REMARK INTER + INTRA:         -13.354
REMARK INTER:                  -7.402
REMARK INTRA:                  -5.952
REMARK UNBOUND:                -6.448
REMARK SMILES CCCCCCCCCCCCCCCCCCCCCCCCCCCCCC(=O)[O-]
REMARK SMILES IDX 16 1 17 2 18 3 19 4 20 5 21 6 22 7 23 8 24 9 25 10 26 11
REMARK SMILES IDX 27 12 28 13 29 14 30 15 31 16 32 17 15 18 14 19 13 20 12 21
REMARK SMILES IDX 11 22 10 23 9 24 8 25 7 26 6 27 5 28 4 29 3 30 2 31 1 32
REMARK H PARENT
REMARK Flexibility Score: inf
ROOT
ATOM      1  C   UNL     1      55.478  29.237  53.991  1.00  0.00     0.000 C 
ENDROOT
BRANCH   1   2
ATOM      2  C   UNL     1      55.355  29.981  52.649  1.00  0.00     0.000 C 
BRANCH   2   3
ATOM      3  C   UNL     1      54.174  29.492  51.778  1.00  0.00     0.000 C 
BRANCH   3   4
ATOM      4  C   UNL     1      54.645  28.887  50.441  1.00  0.00     0.000 C 
BRANCH   4   5
ATOM      5  C   UNL     1      53.655  27.849  49.893  1.00  0.00     0.000 C 
BRANCH   5   6
ATOM      6  C   UNL     1      54.282  26.443  49.769  1.00  0.00     0.000 C 
BRANCH   6   7
ATOM      7  C   UNL     1      55.814  26.483  49.732  1.00  0.00     0.000 C 
BRANCH   7   8
ATOM      8  C   UNL     1      56.483  25.892  50.990  1.00  0.00     0.000 C 
BRANCH   8   9
ATOM      9  C   UNL     1      55.484  25.575  52.123  1.00  0.00     0.000 C 
BRANCH   9  10
ATOM     10  C   UNL     1      56.138  24.963  53.378  1.00  0.00     0.000 C 
BRANCH  10  11
ATOM     11  C   UNL     1      57.458  25.643  53.793  1.00  0.00     0.000 C 
BRANCH  11  12
ATOM     12  C   UNL     1      58.680  24.730  53.597  1.00  0.00     0.000 C 
BRANCH  12  13
ATOM     13  C   UNL     1      59.803  25.401  52.782  1.00  0.00     0.006 C 
BRANCH  13  14
ATOM     14  C   UNL     1      60.942  24.430  52.381  1.00  0.00     0.053 C 
BRANCH  14  15
ATOM     15  C   UNL     1      60.988  24.144  50.913  1.00  0.00     0.041 C 
ATOM     16  O   UNL     1      59.933  23.914  50.265  1.00  0.00    -0.550 OA
ATOM     17  O   UNL     1      62.218  24.053  50.262  1.00  0.00    -0.550 OA
ENDBRANCH  14  15
ENDBRANCH  13  14
ENDBRANCH  12  13
ENDBRANCH  11  12
ENDBRANCH  10  11
ENDBRANCH   9  10
ENDBRANCH   8   9
ENDBRANCH   7   8
ENDBRANCH   6   7
ENDBRANCH   5   6
ENDBRANCH   4   5
ENDBRANCH   3   4
ENDBRANCH   2   3
ENDBRANCH   1   2
BRANCH   1  18
ATOM     18  C   UNL     1      56.099  30.097  55.119  1.00  0.00     0.000 C 
BRANCH  18  19
ATOM     19  C   UNL     1      56.687  31.414  54.602  1.00  0.00     0.000 C 
BRANCH  19  20
ATOM     20  C   UNL     1      58.233  31.406  54.554  1.00  0.00     0.000 C 
BRANCH  20  21
ATOM     21  C   UNL     1      58.762  31.851  53.180  1.00  0.00     0.000 C 
BRANCH  21  22
ATOM     22  C   UNL     1      59.547  30.725  52.476  1.00  0.00     0.000 C 
BRANCH  22  23
ATOM     23  C   UNL     1      59.105  29.291  52.873  1.00  0.00     0.000 C 
BRANCH  23  24
ATOM     24  C   UNL     1      58.516  28.474  51.705  1.00  0.00    -0.000 C 
BRANCH  24  25
ATOM     25  C   UNL     1      58.268  29.337  50.454  1.00  0.00    -0.000 C 
BRANCH  25  26
ATOM     26  C   UNL     1      59.063  28.829  49.236  1.00  0.00    -0.000 C 
BRANCH  26  27
ATOM     27  C   UNL     1      59.727  27.460  49.515  1.00  0.00    -0.000 C 
BRANCH  27  28
ATOM     28  C   UNL     1      61.268  27.484  49.433  1.00  0.00    -0.000 C 
BRANCH  28  29
ATOM     29  C   UNL     1      61.982  28.149  50.633  1.00  0.00    -0.000 C 
BRANCH  29  30
ATOM     30  C   UNL     1      62.920  29.335  50.299  1.00  0.00    -0.000 C 
BRANCH  30  31
ATOM     31  C   UNL     1      62.188  30.657  49.978  1.00  0.00    -0.003 C 
ATOM     32  C   UNL     1      62.638  31.835  50.844  1.00  0.00     0.004 C 
ENDBRANCH  30  31
ENDBRANCH  29  30
ENDBRANCH  28  29
ENDBRANCH  27  28
ENDBRANCH  26  27
ENDBRANCH  25  26
ENDBRANCH  24  25
ENDBRANCH  23  24
ENDBRANCH  22  23
ENDBRANCH  21  22
ENDBRANCH  20  21
ENDBRANCH  19  20
ENDBRANCH  18  19
ENDBRANCH   1  18
TORSDOF 28
ENDMDL
MODEL 8
REMARK VINA RESULT:    -2.593      2.466      7.207
REMARK INTER + INTRA:         -13.285
REMARK INTER:                  -7.584
REMARK INTRA:                  -5.701
REMARK UNBOUND:                -6.448
REMARK SMILES CCCCCCCCCCCCCCCCCCCCCCCCCCCCCC(=O)[O-]
REMARK SMILES IDX 16 1 17 2 18 3 19 4 20 5 21 6 22 7 23 8 24 9 25 10 26 11
REMARK SMILES IDX 27 12 28 13 29 14 30 15 31 16 32 17 15 18 14 19 13 20 12 21
REMARK SMILES IDX 11 22 10 23 9 24 8 25 7 26 6 27 5 28 4 29 3 30 2 31 1 32
REMARK H PARENT
REMARK Flexibility Score: inf
ROOT
ATOM      1  C   UNL     1      64.464  32.635  59.342  1.00  0.00     0.000 C 
ENDROOT
BRANCH   1   2
ATOM      2  C   UNL     1      64.613  33.346  57.984  1.00  0.00     0.000 C 
BRANCH   2   3
ATOM      3  C   UNL     1      65.593  34.541  58.018  1.00  0.00     0.000 C 
BRANCH   3   4
ATOM      4  C   UNL     1      64.873  35.892  57.838  1.00  0.00     0.000 C 
BRANCH   4   5
ATOM      5  C   UNL     1      64.984  36.781  59.085  1.00  0.00     0.000 C 
BRANCH   5   6
ATOM      6  C   UNL     1      65.810  36.120  60.209  1.00  0.00     0.000 C 
BRANCH   6   7
ATOM      7  C   UNL     1      64.946  35.701  61.406  1.00  0.00     0.000 C 
BRANCH   7   8
ATOM      8  C   UNL     1      63.520  36.287  61.379  1.00  0.00     0.000 C 
BRANCH   8   9
ATOM      9  C   UNL     1      62.445  35.263  60.954  1.00  0.00     0.000 C 
BRANCH   9  10
ATOM     10  C   UNL     1      61.071  35.893  60.649  1.00  0.00     0.000 C 
BRANCH  10  11
ATOM     11  C   UNL     1      60.716  35.928  59.148  1.00  0.00     0.000 C 
BRANCH  11  12
ATOM     12  C   UNL     1      61.380  34.788  58.358  1.00  0.00     0.000 C 
BRANCH  12  13
ATOM     13  C   UNL     1      60.626  34.447  57.057  1.00  0.00     0.006 C 
BRANCH  13  14
ATOM     14  C   UNL     1      59.126  34.126  57.276  1.00  0.00     0.053 C 
BRANCH  14  15
ATOM     15  C   UNL     1      58.303  34.261  56.034  1.00  0.00     0.041 C 
ATOM     16  O   UNL     1      57.110  34.662  56.087  1.00  0.00    -0.550 OA
ATOM     17  O   UNL     1      58.833  33.866  54.805  1.00  0.00    -0.550 OA
ENDBRANCH  14  15
ENDBRANCH  13  14
ENDBRANCH  12  13
ENDBRANCH  11  12
ENDBRANCH  10  11
ENDBRANCH   9  10
ENDBRANCH   8   9
ENDBRANCH   7   8
ENDBRANCH   6   7
ENDBRANCH   5   6
ENDBRANCH   4   5
ENDBRANCH   3   4
ENDBRANCH   2   3
ENDBRANCH   1   2
BRANCH   1  18
ATOM     18  C   UNL     1      65.139  31.242  59.386  1.00  0.00     0.000 C 
BRANCH  18  19
ATOM     19  C   UNL     1      64.863  30.493  60.693  1.00  0.00     0.000 C 
BRANCH  19  20
ATOM     20  C   UNL     1      63.730  31.134  61.529  1.00  0.00     0.000 C 
BRANCH  20  21
ATOM     21  C   UNL     1      62.580  30.146  61.782  1.00  0.00     0.000 C 
BRANCH  21  22
ATOM     22  C   UNL     1      61.207  30.850  61.772  1.00  0.00     0.000 C 
BRANCH  22  23
ATOM     23  C   UNL     1      61.028  31.890  60.634  1.00  0.00     0.000 C 
BRANCH  23  24
ATOM     24  C   UNL     1      61.010  31.272  59.220  1.00  0.00    -0.000 C 
BRANCH  24  25
ATOM     25  C   UNL     1      60.067  30.060  59.125  1.00  0.00    -0.000 C 
BRANCH  25  26
ATOM     26  C   UNL     1      60.808  28.788  58.668  1.00  0.00    -0.000 C 
BRANCH  26  27
ATOM     27  C   UNL     1      62.286  29.080  58.317  1.00  0.00    -0.000 C 
BRANCH  27  28
ATOM     28  C   UNL     1      63.190  27.830  58.331  1.00  0.00    -0.000 C 
BRANCH  28  29
ATOM     29  C   UNL     1      63.502  27.257  59.733  1.00  0.00    -0.000 C 
BRANCH  29  30
ATOM     30  C   UNL     1      62.822  25.912  60.088  1.00  0.00    -0.000 C 
BRANCH  30  31
ATOM     31  C   UNL     1      61.564  26.048  60.976  1.00  0.00    -0.003 C 
ATOM     32  C   UNL     1      61.865  26.518  62.400  1.00  0.00     0.004 C 
ENDBRANCH  30  31
ENDBRANCH  29  30
ENDBRANCH  28  29
ENDBRANCH  27  28
ENDBRANCH  26  27
ENDBRANCH  25  26
ENDBRANCH  24  25
ENDBRANCH  23  24
ENDBRANCH  22  23
ENDBRANCH  21  22
ENDBRANCH  20  21
ENDBRANCH  19  20
ENDBRANCH  18  19
ENDBRANCH   1  18
TORSDOF 28
ENDMDL
MODEL 9
REMARK VINA RESULT:    -2.580      8.628     12.602
REMARK INTER + INTRA:         -13.250
REMARK INTER:                  -8.707
REMARK INTRA:                  -4.543
REMARK UNBOUND:                -6.448
REMARK SMILES CCCCCCCCCCCCCCCCCCCCCCCCCCCCCC(=O)[O-]
REMARK SMILES IDX 16 1 17 2 18 3 19 4 20 5 21 6 22 7 23 8 24 9 25 10 26 11
REMARK SMILES IDX 27 12 28 13 29 14 30 15 31 16 32 17 15 18 14 19 13 20 12 21
REMARK SMILES IDX 11 22 10 23 9 24 8 25 7 26 6 27 5 28 4 29 3 30 2 31 1 32
REMARK H PARENT
REMARK Flexibility Score: inf
ROOT
ATOM      1  C   UNL     1      59.036  28.995  49.453  1.00  0.00     0.000 C 
ENDROOT
BRANCH   1   2
ATOM      2  C   UNL     1      60.179  28.327  50.238  1.00  0.00     0.000 C 
BRANCH   2   3
ATOM      3  C   UNL     1      61.029  27.357  49.386  1.00  0.00     0.000 C 
BRANCH   3   4
ATOM      4  C   UNL     1      62.530  27.701  49.431  1.00  0.00     0.000 C 
BRANCH   4   5
ATOM      5  C   UNL     1      62.823  28.913  50.327  1.00  0.00     0.000 C 
BRANCH   5   6
ATOM      6  C   UNL     1      63.239  30.159  49.516  1.00  0.00     0.000 C 
BRANCH   6   7
ATOM      7  C   UNL     1      62.325  31.363  49.777  1.00  0.00     0.000 C 
BRANCH   7   8
ATOM      8  C   UNL     1      61.918  31.526  51.256  1.00  0.00     0.000 C 
BRANCH   8   9
ATOM      9  C   UNL     1      62.313  32.895  51.852  1.00  0.00     0.000 C 
BRANCH   9  10
ATOM     10  C   UNL     1      62.098  34.079  50.889  1.00  0.00     0.000 C 
BRANCH  10  11
ATOM     11  C   UNL     1      63.393  34.596  50.229  1.00  0.00     0.000 C 
BRANCH  11  12
ATOM     12  C   UNL     1      64.659  34.094  50.943  1.00  0.00     0.000 C 
BRANCH  12  13
ATOM     13  C   UNL     1      65.572  33.259  50.022  1.00  0.00     0.006 C 
BRANCH  13  14
ATOM     14  C   UNL     1      65.222  33.393  48.518  1.00  0.00     0.053 C 
BRANCH  14  15
ATOM     15  C   UNL     1      66.296  34.060  47.717  1.00  0.00     0.041 C 
ATOM     16  O   UNL     1      67.128  34.832  48.264  1.00  0.00    -0.550 OA
ATOM     17  O   UNL     1      66.336  33.890  46.333  1.00  0.00    -0.550 OA
ENDBRANCH  14  15
ENDBRANCH  13  14
ENDBRANCH  12  13
ENDBRANCH  11  12
ENDBRANCH  10  11
ENDBRANCH   9  10
ENDBRANCH   8   9
ENDBRANCH   7   8
ENDBRANCH   6   7
ENDBRANCH   5   6
ENDBRANCH   4   5
ENDBRANCH   3   4
ENDBRANCH   2   3
ENDBRANCH   1   2
BRANCH   1  18
ATOM     18  C   UNL     1      57.639  28.766  50.080  1.00  0.00     0.000 C 
BRANCH  18  19
ATOM     19  C   UNL     1      57.558  27.463  50.881  1.00  0.00     0.000 C 
BRANCH  19  20
ATOM     20  C   UNL     1      56.897  26.309  50.090  1.00  0.00     0.000 C 
BRANCH  20  21
ATOM     21  C   UNL     1      55.489  25.988  50.619  1.00  0.00     0.000 C 
BRANCH  21  22
ATOM     22  C   UNL     1      54.486  25.752  49.471  1.00  0.00     0.000 C 
BRANCH  22  23
ATOM     23  C   UNL     1      53.366  26.823  49.368  1.00  0.00     0.000 C 
BRANCH  23  24
ATOM     24  C   UNL     1      53.300  27.775  50.580  1.00  0.00    -0.000 C 
BRANCH  24  25
ATOM     25  C   UNL     1      53.339  29.256  50.163  1.00  0.00    -0.000 C 
BRANCH  25  26
ATOM     26  C   UNL     1      53.820  30.165  51.310  1.00  0.00    -0.000 C 
BRANCH  26  27
ATOM     27  C   UNL     1      54.759  29.414  52.282  1.00  0.00    -0.000 C 
BRANCH  27  28
ATOM     28  C   UNL     1      55.882  30.293  52.872  1.00  0.00    -0.000 C 
BRANCH  28  29
ATOM     29  C   UNL     1      56.792  29.594  53.908  1.00  0.00    -0.000 C 
BRANCH  29  30
ATOM     30  C   UNL     1      58.261  30.078  53.965  1.00  0.00    -0.000 C 
BRANCH  30  31
ATOM     31  C   UNL     1      58.653  31.061  52.839  1.00  0.00    -0.003 C 
ATOM     32  C   UNL     1      58.894  32.491  53.327  1.00  0.00     0.004 C 
ENDBRANCH  30  31
ENDBRANCH  29  30
ENDBRANCH  28  29
ENDBRANCH  27  28
ENDBRANCH  26  27
ENDBRANCH  25  26
ENDBRANCH  24  25
ENDBRANCH  23  24
ENDBRANCH  22  23
ENDBRANCH  21  22
ENDBRANCH  20  21
ENDBRANCH  19  20
ENDBRANCH  18  19
ENDBRANCH   1  18
TORSDOF 28
ENDMDL
