MODEL 1
REMARK VINA RESULT:    -4.481      0.000      0.000
REMARK INTER + INTRA:          -6.111
REMARK INTER:                  -5.791
REMARK INTRA:                  -0.321
REMARK UNBOUND:                -0.321
REMARK SMILES CCCCCCC(=O)[O-]
REMARK SMILES IDX 5 1 6 2 7 3 8 4 9 5 4 6 3 7 2 8 1 9
REMARK H PARENT
REMARK Flexibility Score: inf
ROOT
ATOM      1  C   UNL     1      -2.416  29.409  42.450  1.00  0.00     0.006 C 
ENDROOT
BRANCH   1   2
ATOM      2  C   UNL     1      -2.861  29.743  43.879  1.00  0.00     0.053 C 
BRANCH   2   3
ATOM      3  C   UNL     1      -1.778  29.464  44.877  1.00  0.00     0.041 C 
ATOM      4  O   UNL     1      -1.715  28.342  45.447  1.00  0.00    -0.550 OA
ATOM      5  O   UNL     1      -0.859  30.453  45.201  1.00  0.00    -0.550 OA
ENDBRANCH   2   3
ENDBRANCH   1   2
BRANCH   1   6
ATOM      6  C   UNL     1      -2.379  30.650  41.546  1.00  0.00     0.000 C 
BRANCH   6   7
ATOM      7  C   UNL     1      -0.998  31.321  41.589  1.00  0.00    -0.000 C 
BRANCH   7   8
ATOM      8  C   UNL     1       0.150  30.304  41.681  1.00  0.00    -0.003 C 
ATOM      9  C   UNL     1       0.552  29.741  40.318  1.00  0.00     0.004 C 
ENDBRANCH   7   8
ENDBRANCH   6   7
ENDBRANCH   1   6
TORSDOF 5
ENDMDL
MODEL 2
REMARK VINA RESULT:    -4.420      1.155      1.431
REMARK INTER + INTRA:          -6.032
REMARK INTER:                  -5.663
REMARK INTRA:                  -0.370
REMARK UNBOUND:                -0.321
REMARK SMILES CCCCCCC(=O)[O-]
REMARK SMILES IDX 5 1 6 2 7 3 8 4 9 5 4 6 3 7 2 8 1 9
REMARK H PARENT
REMARK Flexibility Score: inf
ROOT
ATOM      1  C   UNL     1      -2.250  30.990  43.504  1.00  0.00     0.006 C 
ENDROOT
BRANCH   1   2
ATOM      2  C   UNL     1      -2.743  29.546  43.664  1.00  0.00     0.053 C 
BRANCH   2   3
ATOM      3  C   UNL     1      -1.774  28.711  44.444  1.00  0.00     0.041 C 
ATOM      4  O   UNL     1      -1.310  27.649  43.950  1.00  0.00    -0.550 OA
ATOM      5  O   UNL     1      -1.408  29.090  45.729  1.00  0.00    -0.550 OA
ENDBRANCH   2   3
ENDBRANCH   1   2
BRANCH   1   6
ATOM      6  C   UNL     1      -0.878  31.063  42.815  1.00  0.00     0.000 C 
BRANCH   6   7
ATOM      7  C   UNL     1      -1.033  31.298  41.306  1.00  0.00    -0.000 C 
BRANCH   7   8
ATOM      8  C   UNL     1      -0.246  30.281  40.465  1.00  0.00    -0.003 C 
ATOM      9  C   UNL     1      -0.919  28.911  40.410  1.00  0.00     0.004 C 
ENDBRANCH   7   8
ENDBRANCH   6   7
ENDBRANCH   1   6
TORSDOF 5
ENDMDL
MODEL 3
REMARK VINA RESULT:    -4.411      2.709      4.210
REMARK INTER + INTRA:          -6.022
REMARK INTER:                  -5.685
REMARK INTRA:                  -0.337
REMARK UNBOUND:                -0.321
REMARK SMILES CCCCCCC(=O)[O-]
REMARK SMILES IDX 5 1 6 2 7 3 8 4 9 5 4 6 3 7 2 8 1 9
REMARK H PARENT
REMARK Flexibility Score: inf
ROOT
ATOM      1  C   UNL     1      -0.891  31.019  42.588  1.00  0.00     0.006 C 
ENDROOT
BRANCH   1   2
ATOM      2  C   UNL     1      -0.938  31.082  41.055  1.00  0.00     0.053 C 
BRANCH   2   3
ATOM      3  C   UNL     1      -0.353  29.850  40.432  1.00  0.00     0.041 C 
ATOM      4  O   UNL     1       0.882  29.788  40.189  1.00  0.00    -0.550 OA
ATOM      5  O   UNL     1      -1.177  28.786  40.091  1.00  0.00    -0.550 OA
ENDBRANCH   2   3
ENDBRANCH   1   2
BRANCH   1   6
ATOM      6  C   UNL     1      -2.293  30.938  43.210  1.00  0.00     0.000 C 
BRANCH   6   7
ATOM      7  C   UNL     1      -2.772  29.482  43.298  1.00  0.00    -0.000 C 
BRANCH   7   8
ATOM      8  C   UNL     1      -1.660  28.521  43.747  1.00  0.00    -0.003 C 
ATOM      9  C   UNL     1      -1.549  28.414  45.268  1.00  0.00     0.004 C 
ENDBRANCH   7   8
ENDBRANCH   6   7
ENDBRANCH   1   6
TORSDOF 5
ENDMDL
MODEL 4
REMARK VINA RESULT:    -4.385     21.632     22.665
REMARK INTER + INTRA:          -5.987
REMARK INTER:                  -5.685
REMARK INTRA:                  -0.302
REMARK UNBOUND:                -0.321
REMARK SMILES CCCCCCC(=O)[O-]
REMARK SMILES IDX 5 1 6 2 7 3 8 4 9 5 4 6 3 7 2 8 1 9
REMARK H PARENT
REMARK Flexibility Score: inf
ROOT
ATOM      1  C   UNL     1      14.204  13.508  45.783  1.00  0.00     0.006 C 
ENDROOT
BRANCH   1   2
ATOM      2  C   UNL     1      14.887  13.377  44.416  1.00  0.00     0.053 C 
BRANCH   2   3
ATOM      3  C   UNL     1      14.551  14.528  43.515  1.00  0.00     0.041 C 
ATOM      4  O   UNL     1      15.366  15.476  43.367  1.00  0.00    -0.550 OA
ATOM      5  O   UNL     1      13.324  14.566  42.866  1.00  0.00    -0.550 OA
ENDBRANCH   2   3
ENDBRANCH   1   2
BRANCH   1   6
ATOM      6  C   UNL     1      15.217  13.609  46.933  1.00  0.00     0.000 C 
BRANCH   6   7
ATOM      7  C   UNL     1      15.841  15.011  46.995  1.00  0.00    -0.000 C 
BRANCH   7   8
ATOM      8  C   UNL     1      14.787  16.120  47.135  1.00  0.00    -0.003 C 
ATOM      9  C   UNL     1      13.986  16.015  48.432  1.00  0.00     0.004 C 
ENDBRANCH   7   8
ENDBRANCH   6   7
ENDBRANCH   1   6
TORSDOF 5
ENDMDL
MODEL 5
REMARK VINA RESULT:    -4.371     21.291     22.375
REMARK INTER + INTRA:          -5.969
REMARK INTER:                  -5.637
REMARK INTRA:                  -0.332
REMARK UNBOUND:                -0.321
REMARK SMILES CCCCCCC(=O)[O-]
REMARK SMILES IDX 5 1 6 2 7 3 8 4 9 5 4 6 3 7 2 8 1 9
REMARK H PARENT
REMARK Flexibility Score: inf
ROOT
ATOM      1  C   UNL     1      15.730  15.223  45.955  1.00  0.00     0.006 C 
ENDROOT
BRANCH   1   2
ATOM      2  C   UNL     1      15.679  14.875  47.448  1.00  0.00     0.053 C 
BRANCH   2   3
ATOM      3  C   UNL     1      14.344  15.199  48.048  1.00  0.00     0.041 C 
ATOM      4  O   UNL     1      14.115  16.352  48.500  1.00  0.00    -0.550 OA
ATOM      5  O   UNL     1      13.366  14.217  48.137  1.00  0.00    -0.550 OA
ENDBRANCH   2   3
ENDBRANCH   1   2
BRANCH   1   6
ATOM      6  C   UNL     1      15.874  13.975  45.071  1.00  0.00     0.000 C 
BRANCH   6   7
ATOM      7  C   UNL     1      14.504  13.340  44.789  1.00  0.00    -0.000 C 
BRANCH   7   8
ATOM      8  C   UNL     1      13.440  14.378  44.399  1.00  0.00    -0.003 C 
ATOM      9  C   UNL     1      13.543  14.809  42.937  1.00  0.00     0.004 C 
ENDBRANCH   7   8
ENDBRANCH   6   7
ENDBRANCH   1   6
TORSDOF 5
ENDMDL
MODEL 6
REMARK VINA RESULT:    -4.261     20.882     22.027
REMARK INTER + INTRA:          -5.827
REMARK INTER:                  -5.367
REMARK INTRA:                  -0.460
REMARK UNBOUND:                -0.321
REMARK SMILES CCCCCCC(=O)[O-]
REMARK SMILES IDX 5 1 6 2 7 3 8 4 9 5 4 6 3 7 2 8 1 9
REMARK H PARENT
REMARK Flexibility Score: inf
ROOT
ATOM      1  C   UNL     1      14.535  13.908  43.909  1.00  0.00     0.006 C 
ENDROOT
BRANCH   1   2
ATOM      2  C   UNL     1      13.159  14.535  43.650  1.00  0.00     0.053 C 
BRANCH   2   3
ATOM      3  C   UNL     1      12.955  15.780  44.459  1.00  0.00     0.041 C 
ATOM      4  O   UNL     1      13.867  16.646  44.531  1.00  0.00    -0.550 OA
ATOM      5  O   UNL     1      11.770  15.968  45.158  1.00  0.00    -0.550 OA
ENDBRANCH   2   3
ENDBRANCH   1   2
BRANCH   1   6
ATOM      6  C   UNL     1      14.610  13.214  45.277  1.00  0.00     0.000 C 
BRANCH   6   7
ATOM      7  C   UNL     1      15.720  13.826  46.144  1.00  0.00    -0.000 C 
BRANCH   7   8
ATOM      8  C   UNL     1      15.178  14.477  47.426  1.00  0.00    -0.003 C 
ATOM      9  C   UNL     1      13.722  14.107  47.707  1.00  0.00     0.004 C 
ENDBRANCH   7   8
ENDBRANCH   6   7
ENDBRANCH   1   6
TORSDOF 5
ENDMDL
MODEL 7
REMARK VINA RESULT:    -4.189      1.697      2.338
REMARK INTER + INTRA:          -5.734
REMARK INTER:                  -5.381
REMARK INTRA:                  -0.353
REMARK UNBOUND:                -0.321
REMARK SMILES CCCCCCC(=O)[O-]
REMARK SMILES IDX 5 1 6 2 7 3 8 4 9 5 4 6 3 7 2 8 1 9
REMARK H PARENT
REMARK Flexibility Score: inf
ROOT
ATOM      1  C   UNL     1       0.146  28.346  43.427  1.00  0.00     0.006 C 
ENDROOT
BRANCH   1   2
ATOM      2  C   UNL     1      -1.255  28.012  43.956  1.00  0.00     0.053 C 
BRANCH   2   3
ATOM      3  C   UNL     1      -1.844  29.154  44.727  1.00  0.00     0.041 C 
ATOM      4  O   UNL     1      -1.380  29.463  45.857  1.00  0.00    -0.550 OA
ATOM      5  O   UNL     1      -2.927  29.855  44.213  1.00  0.00    -0.550 OA
ENDBRANCH   2   3
ENDBRANCH   1   2
BRANCH   1   6
ATOM      6  C   UNL     1       0.273  28.098  41.917  1.00  0.00     0.000 C 
BRANCH   6   7
ATOM      7  C   UNL     1      -0.757  28.926  41.135  1.00  0.00    -0.000 C 
BRANCH   7   8
ATOM      8  C   UNL     1      -0.272  30.356  40.850  1.00  0.00    -0.003 C 
ATOM      9  C   UNL     1      -1.164  31.421  41.487  1.00  0.00     0.004 C 
ENDBRANCH   7   8
ENDBRANCH   6   7
ENDBRANCH   1   6
TORSDOF 5
ENDMDL
MODEL 8
REMARK VINA RESULT:    -4.181      2.175      3.604
REMARK INTER + INTRA:          -5.723
REMARK INTER:                  -5.397
REMARK INTRA:                  -0.326
REMARK UNBOUND:                -0.321
REMARK SMILES CCCCCCC(=O)[O-]
REMARK SMILES IDX 5 1 6 2 7 3 8 4 9 5 4 6 3 7 2 8 1 9
REMARK H PARENT
REMARK Flexibility Score: inf
ROOT
ATOM      1  C   UNL     1       0.816  29.825  40.882  1.00  0.00     0.006 C 
ENDROOT
BRANCH   1   2
ATOM      2  C   UNL     1       0.635  28.307  41.016  1.00  0.00     0.053 C 
BRANCH   2   3
ATOM      3  C   UNL     1       0.973  27.827  42.395  1.00  0.00     0.041 C 
ATOM      4  O   UNL     1       2.100  28.081  42.896  1.00  0.00    -0.550 OA
ATOM      5  O   UNL     1       0.054  27.072  43.113  1.00  0.00    -0.550 OA
ENDBRANCH   2   3
ENDBRANCH   1   2
BRANCH   1   6
ATOM      6  C   UNL     1      -0.511  30.548  40.611  1.00  0.00     0.000 C 
BRANCH   6   7
ATOM      7  C   UNL     1      -0.986  31.310  41.857  1.00  0.00    -0.000 C 
BRANCH   7   8
ATOM      8  C   UNL     1      -2.418  30.935  42.268  1.00  0.00    -0.003 C 
ATOM      9  C   UNL     1      -2.545  29.477  42.709  1.00  0.00     0.004 C 
ENDBRANCH   7   8
ENDBRANCH   6   7
ENDBRANCH   1   6
TORSDOF 5
ENDMDL
MODEL 9
REMARK VINA RESULT:    -4.175     10.082     11.218
REMARK INTER + INTRA:          -5.716
REMARK INTER:                  -5.310
REMARK INTRA:                  -0.406
REMARK UNBOUND:                -0.321
REMARK SMILES CCCCCCC(=O)[O-]
REMARK SMILES IDX 5 1 6 2 7 3 8 4 9 5 4 6 3 7 2 8 1 9
REMARK H PARENT
REMARK Flexibility Score: inf
ROOT
ATOM      1  C   UNL     1       7.764  22.435  42.189  1.00  0.00     0.006 C 
ENDROOT
BRANCH   1   2
ATOM      2  C   UNL     1       7.892  23.928  42.514  1.00  0.00     0.053 C 
BRANCH   2   3
ATOM      3  C   UNL     1       7.107  24.301  43.735  1.00  0.00     0.041 C 
ATOM      4  O   UNL     1       7.391  23.790  44.851  1.00  0.00    -0.550 OA
ATOM      5  O   UNL     1       6.042  25.186  43.634  1.00  0.00    -0.550 OA
ENDBRANCH   2   3
ENDBRANCH   1   2
BRANCH   1   6
ATOM      6  C   UNL     1       6.328  22.043  41.810  1.00  0.00     0.000 C 
BRANCH   6   7
ATOM      7  C   UNL     1       6.023  20.597  42.230  1.00  0.00    -0.000 C 
BRANCH   7   8
ATOM      8  C   UNL     1       5.540  20.495  43.685  1.00  0.00    -0.003 C 
ATOM      9  C   UNL     1       4.529  21.581  44.051  1.00  0.00     0.004 C 
ENDBRANCH   7   8
ENDBRANCH   6   7
ENDBRANCH   1   6
TORSDOF 5
ENDMDL
