MODEL 1
REMARK VINA RESULT:    -7.556      0.000      0.000
REMARK INTER + INTRA:         -11.903
REMARK INTER:                 -11.090
REMARK INTRA:                  -0.813
REMARK UNBOUND:                -0.813
REMARK SMILES CC(C)(O)CC[C@@H](O)[C@@](C)(O)[C@@H]1CC[C@@]2(O)C3=CC(=O)[C@H]4C[C@@H](O)[C@H](O)C[C@@]4(C)[C@@H]3CC[C@@]12C
REMARK SMILES IDX 6 1 7 2 9 3 10 4 12 5 34 6 33 7 32 8 15 9 31 10 17 11 14 12
REMARK SMILES IDX 13 13 30 14 18 15 28 16 19 17 21 18 27 19 29 20 20 21 22 22
REMARK SMILES IDX 25 23 23 24 16 25 26 27 24 29 11 31 8 33 5 35 2 36 1 37 3 38
REMARK SMILES IDX 4 39
REMARK H PARENT 16 26 26 28 24 30 11 32 8 34 4 40
REMARK Flexibility Score: inf
ROOT
ATOM      1  C   UNL     1      14.912 110.870  21.232  1.00  0.00     0.038 C 
ENDROOT
BRANCH   1   2
ATOM      2  C   UNL     1      14.907 110.610  19.706  1.00  0.00     0.146 C 
BRANCH   2   3
ATOM      3  C   UNL     1      14.557 111.846  18.787  1.00  0.00     0.091 C 
ATOM      4  C   UNL     1      15.857 112.559  18.362  1.00  0.00     0.045 C 
BRANCH   3   5
ATOM      5  C   UNL     1      13.444 112.811  19.439  1.00  0.00     0.032 C 
ATOM      6  C   UNL     1      14.141 115.071  18.069  1.00  0.00     0.015 C 
ATOM      7  C   UNL     1      13.201 114.371  19.097  1.00  0.00     0.006 C 
ATOM      8  C   UNL     1      13.341 115.194  20.438  1.00  0.00     0.011 C 
ATOM      9  C   UNL     1      11.703 114.411  18.592  1.00  0.00     0.092 C 
ATOM     10  C   UNL     1      12.669 116.582  20.438  1.00  0.00     0.009 C 
ATOM     11  C   UNL     1      11.032 115.786  18.799  1.00  0.00    -0.031 C 
ATOM     12  C   UNL     1      11.030 113.320  19.414  1.00  0.00     0.041 C 
ATOM     13  C   UNL     1      12.027 112.180  19.370  1.00  0.00     0.010 C 
ATOM     14  C   UNL     1      11.161 116.429  20.172  1.00  0.00     0.025 C 
ATOM     15  C   UNL     1      10.591 116.506  17.750  1.00  0.00     0.050 C 
ATOM     16  C   UNL     1      10.267 117.722  20.372  1.00  0.00    -0.013 C 
ATOM     17  C   UNL     1      10.313 117.941  17.840  1.00  0.00     0.159 C 
ATOM     18  C   UNL     1      10.403 118.683  19.151  1.00  0.00     0.070 C 
ATOM     19  C   UNL     1       8.778 117.258  20.524  1.00  0.00     0.042 C 
ATOM     20  C   UNL     1      10.704 118.453  21.674  1.00  0.00     0.013 C 
ATOM     21  O   UNL     1      10.081 118.573  16.773  1.00  0.00    -0.295 OA
ATOM     22  C   UNL     1       9.366 119.836  19.209  1.00  0.00     0.047 C 
ATOM     23  C   UNL     1       7.711 118.377  20.489  1.00  0.00     0.143 C 
ATOM     24  C   UNL     1       7.909 119.338  19.302  1.00  0.00     0.143 C 
BRANCH   9  25
ATOM     25  O   UNL     1      11.603 113.977  17.247  1.00  0.00    -0.385 OA
ATOM     26  H   UNL     1      10.782 114.337  16.832  1.00  0.00     0.211 HD
ENDBRANCH   9  25
BRANCH  23  27
ATOM     27  O   UNL     1       7.697 119.079  21.704  1.00  0.00    -0.390 OA
ATOM     28  H   UNL     1       8.591 119.502  21.807  1.00  0.00     0.211 HD
ENDBRANCH  23  27
BRANCH  24  29
ATOM     29  O   UNL     1       7.514 118.697  18.114  1.00  0.00    -0.390 OA
ATOM     30  H   UNL     1       6.610 118.325  18.276  1.00  0.00     0.211 HD
ENDBRANCH  24  29
ENDBRANCH   3   5
BRANCH   3  31
ATOM     31  O   UNL     1      14.008 111.300  17.599  1.00  0.00    -0.387 OA
ATOM     32  H   UNL     1      14.739 111.095  16.956  1.00  0.00     0.211 HD
ENDBRANCH   3  31
ENDBRANCH   2   3
BRANCH   2  33
ATOM     33  O   UNL     1      14.008 109.561  19.444  1.00  0.00    -0.390 OA
ATOM     34  H   UNL     1      14.535 108.721  19.374  1.00  0.00     0.211 HD
ENDBRANCH   2  33
ENDBRANCH   1   2
BRANCH   1  35
ATOM     35  C   UNL     1      13.760 110.196  22.015  1.00  0.00     0.037 C 
BRANCH  35  36
ATOM     36  C   UNL     1      12.919 111.104  22.972  1.00  0.00     0.059 C 
ATOM     37  C   UNL     1      13.405 112.566  22.929  1.00  0.00     0.042 C 
ATOM     38  C   UNL     1      12.955 110.602  24.436  1.00  0.00     0.042 C 
BRANCH  36  39
ATOM     39  O   UNL     1      11.584 111.098  22.517  1.00  0.00    -0.390 OA
ATOM     40  H   UNL     1      11.029 111.606  23.173  1.00  0.00     0.211 HD
ENDBRANCH  36  39
ENDBRANCH  35  36
ENDBRANCH   1  35
TORSDOF 11
ENDMDL
MODEL 2
REMARK VINA RESULT:    -7.383      1.881      8.631
REMARK INTER + INTRA:         -11.649
REMARK INTER:                 -10.850
REMARK INTRA:                  -0.799
REMARK UNBOUND:                -0.813
REMARK SMILES CC(C)(O)CC[C@@H](O)[C@@](C)(O)[C@@H]1CC[C@@]2(O)C3=CC(=O)[C@H]4C[C@@H](O)[C@H](O)C[C@@]4(C)[C@@H]3CC[C@@]12C
REMARK SMILES IDX 6 1 7 2 9 3 10 4 12 5 34 6 33 7 32 8 15 9 31 10 17 11 14 12
REMARK SMILES IDX 13 13 30 14 18 15 28 16 19 17 21 18 27 19 29 20 20 21 22 22
REMARK SMILES IDX 25 23 23 24 16 25 26 27 24 29 11 31 8 33 5 35 2 36 1 37 3 38
REMARK SMILES IDX 4 39
REMARK H PARENT 16 26 26 28 24 30 11 32 8 34 4 40
REMARK Flexibility Score: inf
ROOT
ATOM      1  C   UNL     1       8.308 117.539  19.478  1.00  0.00     0.038 C 
ENDROOT
BRANCH   1   2
ATOM      2  C   UNL     1       9.752 117.481  18.925  1.00  0.00     0.146 C 
BRANCH   2   3
ATOM      3  C   UNL     1      10.854 116.913  19.904  1.00  0.00     0.091 C 
ATOM      4  C   UNL     1      11.542 118.079  20.642  1.00  0.00     0.045 C 
BRANCH   3   5
ATOM      5  C   UNL     1      11.865 115.889  19.178  1.00  0.00     0.032 C 
ATOM      6  C   UNL     1      12.597 114.516  21.424  1.00  0.00     0.015 C 
ATOM      7  C   UNL     1      12.706 114.703  19.880  1.00  0.00     0.006 C 
ATOM      8  C   UNL     1      14.238 114.948  19.584  1.00  0.00     0.011 C 
ATOM      9  C   UNL     1      12.211 113.403  19.130  1.00  0.00     0.092 C 
ATOM     10  C   UNL     1      15.146 113.709  19.719  1.00  0.00     0.009 C 
ATOM     11  C   UNL     1      13.254 112.264  19.143  1.00  0.00    -0.031 C 
ATOM     12  C   UNL     1      11.931 113.901  17.718  1.00  0.00     0.041 C 
ATOM     13  C   UNL     1      11.205 115.212  17.946  1.00  0.00     0.010 C 
ATOM     14  C   UNL     1      14.679 112.615  18.742  1.00  0.00     0.025 C 
ATOM     15  C   UNL     1      12.985 111.086  19.737  1.00  0.00     0.050 C 
ATOM     16  C   UNL     1      15.633 111.362  18.566  1.00  0.00    -0.013 C 
ATOM     17  C   UNL     1      14.034 110.138  20.118  1.00  0.00     0.159 C 
ATOM     18  C   UNL     1      15.482 110.378  19.768  1.00  0.00     0.070 C 
ATOM     19  C   UNL     1      15.238 110.639  17.233  1.00  0.00     0.042 C 
ATOM     20  C   UNL     1      17.107 111.848  18.461  1.00  0.00     0.013 C 
ATOM     21  O   UNL     1      13.714 109.147  20.831  1.00  0.00    -0.295 OA
ATOM     22  C   UNL     1      16.222 109.039  19.512  1.00  0.00     0.047 C 
ATOM     23  C   UNL     1      15.885 109.256  16.992  1.00  0.00     0.143 C 
ATOM     24  C   UNL     1      15.766 108.331  18.218  1.00  0.00     0.143 C 
BRANCH   9  25
ATOM     25  O   UNL     1      10.957 112.968  19.627  1.00  0.00    -0.385 OA
ATOM     26  H   UNL     1      10.523 113.692  20.140  1.00  0.00     0.211 HD
ENDBRANCH   9  25
BRANCH  23  27
ATOM     27  O   UNL     1      17.227 109.403  16.605  1.00  0.00    -0.390 OA
ATOM     28  H   UNL     1      17.381 108.779  15.847  1.00  0.00     0.211 HD
ENDBRANCH  23  27
BRANCH  24  29
ATOM     29  O   UNL     1      14.440 107.876  18.329  1.00  0.00    -0.390 OA
ATOM     30  H   UNL     1      14.305 107.208  17.609  1.00  0.00     0.211 HD
ENDBRANCH  24  29
ENDBRANCH   3   5
BRANCH   3  31
ATOM     31  O   UNL     1      10.150 116.187  20.898  1.00  0.00    -0.387 OA
ATOM     32  H   UNL     1      10.753 116.000  21.666  1.00  0.00     0.211 HD
ENDBRANCH   3  31
ENDBRANCH   2   3
BRANCH   2  33
ATOM     33  O   UNL     1      10.116 118.774  18.510  1.00  0.00    -0.390 OA
ATOM     34  H   UNL     1      11.045 118.942  18.821  1.00  0.00     0.211 HD
ENDBRANCH   2  33
ENDBRANCH   1   2
BRANCH   1  35
ATOM     35  C   UNL     1       7.695 118.959  19.558  1.00  0.00     0.037 C 
BRANCH  35  36
ATOM     36  C   UNL     1       7.633 119.631  20.969  1.00  0.00     0.059 C 
ATOM     37  C   UNL     1       8.685 120.749  21.105  1.00  0.00     0.042 C 
ATOM     38  C   UNL     1       7.832 118.608  22.114  1.00  0.00     0.042 C 
BRANCH  36  39
ATOM     39  O   UNL     1       6.366 120.236  21.110  1.00  0.00    -0.390 OA
ATOM     40  H   UNL     1       6.445 121.193  20.840  1.00  0.00     0.211 HD
ENDBRANCH  36  39
ENDBRANCH  35  36
ENDBRANCH   1  35
TORSDOF 11
ENDMDL
MODEL 3
REMARK VINA RESULT:    -7.281      1.720      3.150
REMARK INTER + INTRA:         -11.500
REMARK INTER:                 -10.493
REMARK INTRA:                  -1.006
REMARK UNBOUND:                -0.813
REMARK SMILES CC(C)(O)CC[C@@H](O)[C@@](C)(O)[C@@H]1CC[C@@]2(O)C3=CC(=O)[C@H]4C[C@@H](O)[C@H](O)C[C@@]4(C)[C@@H]3CC[C@@]12C
REMARK SMILES IDX 6 1 7 2 9 3 10 4 12 5 34 6 33 7 32 8 15 9 31 10 17 11 14 12
REMARK SMILES IDX 13 13 30 14 18 15 28 16 19 17 21 18 27 19 29 20 20 21 22 22
REMARK SMILES IDX 25 23 23 24 16 25 26 27 24 29 11 31 8 33 5 35 2 36 1 37 3 38
REMARK SMILES IDX 4 39
REMARK H PARENT 16 26 26 28 24 30 11 32 8 34 4 40
REMARK Flexibility Score: inf
ROOT
ATOM      1  C   UNL     1      14.797 109.788  18.176  1.00  0.00     0.038 C 
ENDROOT
BRANCH   1   2
ATOM      2  C   UNL     1      14.789 110.764  19.376  1.00  0.00     0.146 C 
BRANCH   2   3
ATOM      3  C   UNL     1      14.893 112.302  19.029  1.00  0.00     0.091 C 
ATOM      4  C   UNL     1      16.293 112.825  19.410  1.00  0.00     0.045 C 
BRANCH   3   5
ATOM      5  C   UNL     1      13.669 113.160  19.630  1.00  0.00     0.032 C 
ATOM      6  C   UNL     1      14.263 115.501  18.351  1.00  0.00     0.015 C 
ATOM      7  C   UNL     1      13.322 114.704  19.305  1.00  0.00     0.006 C 
ATOM      8  C   UNL     1      13.315 115.502  20.668  1.00  0.00     0.011 C 
ATOM      9  C   UNL     1      11.859 114.638  18.709  1.00  0.00     0.092 C 
ATOM     10  C   UNL     1      12.535 116.832  20.654  1.00  0.00     0.009 C 
ATOM     11  C   UNL     1      11.069 115.950  18.901  1.00  0.00    -0.031 C 
ATOM     12  C   UNL     1      11.227 113.477  19.466  1.00  0.00     0.041 C 
ATOM     13  C   UNL     1      12.314 112.421  19.460  1.00  0.00     0.010 C 
ATOM     14  C   UNL     1      11.063 116.567  20.293  1.00  0.00     0.025 C 
ATOM     15  C   UNL     1      10.636 116.659  17.842  1.00  0.00     0.050 C 
ATOM     16  C   UNL     1      10.058 117.780  20.463  1.00  0.00    -0.013 C 
ATOM     17  C   UNL     1      10.238 118.065  17.943  1.00  0.00     0.159 C 
ATOM     18  C   UNL     1      10.189 118.779  19.272  1.00  0.00     0.070 C 
ATOM     19  C   UNL     1       8.604 117.197  20.512  1.00  0.00     0.042 C 
ATOM     20  C   UNL     1      10.356 118.511  21.803  1.00  0.00     0.013 C 
ATOM     21  O   UNL     1      10.020 118.703  16.876  1.00  0.00    -0.295 OA
ATOM     22  C   UNL     1       9.062 119.845  19.288  1.00  0.00     0.047 C 
ATOM     23  C   UNL     1       7.455 118.228  20.434  1.00  0.00     0.143 C 
ATOM     24  C   UNL     1       7.646 119.232  19.281  1.00  0.00     0.143 C 
BRANCH   9  25
ATOM     25  O   UNL     1      11.875 114.232  17.351  1.00  0.00    -0.385 OA
ATOM     26  H   UNL     1      12.241 113.318  17.272  1.00  0.00     0.211 HD
ENDBRANCH   9  25
BRANCH  23  27
ATOM     27  O   UNL     1       7.311 118.897  21.660  1.00  0.00    -0.390 OA
ATOM     28  H   UNL     1       6.337 119.026  21.809  1.00  0.00     0.211 HD
ENDBRANCH  23  27
BRANCH  24  29
ATOM     29  O   UNL     1       7.375 118.591  18.058  1.00  0.00    -0.390 OA
ATOM     30  H   UNL     1       8.219 118.159  17.769  1.00  0.00     0.211 HD
ENDBRANCH  24  29
ENDBRANCH   3   5
BRANCH   3  31
ATOM     31  O   UNL     1      14.821 112.384  17.615  1.00  0.00    -0.387 OA
ATOM     32  H   UNL     1      13.929 112.070  17.307  1.00  0.00     0.211 HD
ENDBRANCH   3  31
ENDBRANCH   2   3
BRANCH   2  33
ATOM     33  O   UNL     1      15.840 110.407  20.239  1.00  0.00    -0.390 OA
ATOM     34  H   UNL     1      15.549 110.606  21.169  1.00  0.00     0.211 HD
ENDBRANCH   2  33
ENDBRANCH   1   2
BRANCH   1  35
ATOM     35  C   UNL     1      16.155 109.096  17.904  1.00  0.00     0.037 C 
BRANCH  35  36
ATOM     36  C   UNL     1      16.973 109.590  16.665  1.00  0.00     0.059 C 
ATOM     37  C   UNL     1      16.085 109.686  15.409  1.00  0.00     0.042 C 
ATOM     38  C   UNL     1      18.183 108.673  16.361  1.00  0.00     0.042 C 
BRANCH  36  39
ATOM     39  O   UNL     1      17.441 110.891  16.942  1.00  0.00    -0.390 OA
ATOM     40  H   UNL     1      18.291 111.031  16.439  1.00  0.00     0.211 HD
ENDBRANCH  36  39
ENDBRANCH  35  36
ENDBRANCH   1  35
TORSDOF 11
ENDMDL
MODEL 4
REMARK VINA RESULT:    -7.032      2.579      8.747
REMARK INTER + INTRA:         -11.133
REMARK INTER:                 -10.298
REMARK INTRA:                  -0.835
REMARK UNBOUND:                -0.813
REMARK SMILES CC(C)(O)CC[C@@H](O)[C@@](C)(O)[C@@H]1CC[C@@]2(O)C3=CC(=O)[C@H]4C[C@@H](O)[C@H](O)C[C@@]4(C)[C@@H]3CC[C@@]12C
REMARK SMILES IDX 6 1 7 2 9 3 10 4 12 5 34 6 33 7 32 8 15 9 31 10 17 11 14 12
REMARK SMILES IDX 13 13 30 14 18 15 28 16 19 17 21 18 27 19 29 20 20 21 22 22
REMARK SMILES IDX 25 23 23 24 16 25 26 27 24 29 11 31 8 33 5 35 2 36 1 37 3 38
REMARK SMILES IDX 4 39
REMARK H PARENT 16 26 26 28 24 30 11 32 8 34 4 40
REMARK Flexibility Score: inf
ROOT
ATOM      1  C   UNL     1       7.689 120.435  22.789  1.00  0.00     0.038 C 
ENDROOT
BRANCH   1   2
ATOM      2  C   UNL     1       7.648 119.465  21.584  1.00  0.00     0.146 C 
BRANCH   2   3
ATOM      3  C   UNL     1       8.981 119.330  20.748  1.00  0.00     0.091 C 
ATOM      4  C   UNL     1       8.860 120.147  19.445  1.00  0.00     0.045 C 
BRANCH   3   5
ATOM      5  C   UNL     1       9.433 117.798  20.539  1.00  0.00     0.032 C 
ATOM      6  C   UNL     1      11.604 118.317  18.963  1.00  0.00     0.015 C 
ATOM      7  C   UNL     1      10.710 117.274  19.701  1.00  0.00     0.006 C 
ATOM      8  C   UNL     1      10.190 116.286  18.583  1.00  0.00     0.011 C 
ATOM      9  C   UNL     1      11.558 116.480  20.773  1.00  0.00     0.092 C 
ATOM     10  C   UNL     1      11.243 115.311  18.018  1.00  0.00     0.009 C 
ATOM     11  C   UNL     1      12.451 115.387  20.148  1.00  0.00    -0.031 C 
ATOM     12  C   UNL     1      10.495 115.890  21.690  1.00  0.00     0.041 C 
ATOM     13  C   UNL     1       9.527 117.040  21.891  1.00  0.00     0.010 C 
ATOM     14  C   UNL     1      11.801 114.435  19.154  1.00  0.00     0.025 C 
ATOM     15  C   UNL     1      13.791 115.439  20.263  1.00  0.00     0.050 C 
ATOM     16  C   UNL     1      12.717 113.214  18.728  1.00  0.00    -0.013 C 
ATOM     17  C   UNL     1      14.687 114.678  19.389  1.00  0.00     0.159 C 
ATOM     18  C   UNL     1      14.156 113.699  18.371  1.00  0.00     0.070 C 
ATOM     19  C   UNL     1      12.775 112.213  19.933  1.00  0.00     0.042 C 
ATOM     20  C   UNL     1      12.080 112.496  17.504  1.00  0.00     0.013 C 
ATOM     21  O   UNL     1      15.924 114.922  19.443  1.00  0.00    -0.295 OA
ATOM     22  C   UNL     1      15.133 112.509  18.180  1.00  0.00     0.047 C 
ATOM     23  C   UNL     1      13.808 111.069  19.816  1.00  0.00     0.143 C 
ATOM     24  C   UNL     1      15.203 111.578  19.408  1.00  0.00     0.143 C 
BRANCH   9  25
ATOM     25  O   UNL     1      12.307 117.362  21.591  1.00  0.00    -0.385 OA
ATOM     26  H   UNL     1      11.731 118.092  21.924  1.00  0.00     0.211 HD
ENDBRANCH   9  25
BRANCH  23  27
ATOM     27  O   UNL     1      13.353 110.087  18.922  1.00  0.00    -0.390 OA
ATOM     28  H   UNL     1      13.265 109.241  19.437  1.00  0.00     0.211 HD
ENDBRANCH  23  27
BRANCH  24  29
ATOM     29  O   UNL     1      15.800 112.227  20.505  1.00  0.00    -0.390 OA
ATOM     30  H   UNL     1      16.757 111.971  20.503  1.00  0.00     0.211 HD
ENDBRANCH  24  29
ENDBRANCH   3   5
BRANCH   3  31
ATOM     31  O   UNL     1       9.985 119.972  21.516  1.00  0.00    -0.387 OA
ATOM     32  H   UNL     1      10.243 119.392  22.282  1.00  0.00     0.211 HD
ENDBRANCH   3  31
ENDBRANCH   2   3
BRANCH   2  33
ATOM     33  O   UNL     1       6.600 119.865  20.735  1.00  0.00    -0.390 OA
ATOM     34  H   UNL     1       6.984 120.011  19.829  1.00  0.00     0.211 HD
ENDBRANCH   2  33
ENDBRANCH   1   2
BRANCH   1  35
ATOM     35  C   UNL     1       6.995 121.799  22.556  1.00  0.00     0.037 C 
BRANCH  35  36
ATOM     36  C   UNL     1       7.914 123.060  22.456  1.00  0.00     0.059 C 
ATOM     37  C   UNL     1       9.216 122.871  23.257  1.00  0.00     0.042 C 
ATOM     38  C   UNL     1       7.201 124.344  22.945  1.00  0.00     0.042 C 
BRANCH  36  39
ATOM     39  O   UNL     1       8.281 123.226  21.103  1.00  0.00    -0.390 OA
ATOM     40  H   UNL     1       8.882 122.472  20.848  1.00  0.00     0.211 HD
ENDBRANCH  36  39
ENDBRANCH  35  36
ENDBRANCH   1  35
TORSDOF 11
ENDMDL
MODEL 5
REMARK VINA RESULT:    -6.902      1.867      3.243
REMARK INTER + INTRA:         -10.943
REMARK INTER:                 -10.059
REMARK INTRA:                  -0.884
REMARK UNBOUND:                -0.813
REMARK SMILES CC(C)(O)CC[C@@H](O)[C@@](C)(O)[C@@H]1CC[C@@]2(O)C3=CC(=O)[C@H]4C[C@@H](O)[C@H](O)C[C@@]4(C)[C@@H]3CC[C@@]12C
REMARK SMILES IDX 6 1 7 2 9 3 10 4 12 5 34 6 33 7 32 8 15 9 31 10 17 11 14 12
REMARK SMILES IDX 13 13 30 14 18 15 28 16 19 17 21 18 27 19 29 20 20 21 22 22
REMARK SMILES IDX 25 23 23 24 16 25 26 27 24 29 11 31 8 33 5 35 2 36 1 37 3 38
REMARK SMILES IDX 4 39
REMARK H PARENT 16 26 26 28 24 30 11 32 8 34 4 40
REMARK Flexibility Score: inf
ROOT
ATOM      1  C   UNL     1      13.211 111.460  19.808  1.00  0.00     0.038 C 
ENDROOT
BRANCH   1   2
ATOM      2  C   UNL     1      14.017 112.759  20.053  1.00  0.00     0.146 C 
BRANCH   2   3
ATOM      3  C   UNL     1      14.195 113.716  18.809  1.00  0.00     0.091 C 
ATOM      4  C   UNL     1      15.678 113.744  18.386  1.00  0.00     0.045 C 
BRANCH   3   5
ATOM      5  C   UNL     1      13.537 115.168  19.041  1.00  0.00     0.032 C 
ATOM      6  C   UNL     1      10.937 114.329  19.128  1.00  0.00     0.015 C 
ATOM      7  C   UNL     1      11.966 115.497  19.223  1.00  0.00     0.006 C 
ATOM      8  C   UNL     1      11.549 116.530  18.103  1.00  0.00     0.011 C 
ATOM      9  C   UNL     1      11.893 116.183  20.645  1.00  0.00     0.092 C 
ATOM     10  C   UNL     1      10.270 117.341  18.391  1.00  0.00     0.009 C 
ATOM     11  C   UNL     1      10.685 117.133  20.797  1.00  0.00    -0.031 C 
ATOM     12  C   UNL     1      13.218 116.929  20.740  1.00  0.00     0.041 C 
ATOM     13  C   UNL     1      14.223 115.927  20.209  1.00  0.00     0.010 C 
ATOM     14  C   UNL     1      10.450 118.150  19.688  1.00  0.00     0.025 C 
ATOM     15  C   UNL     1       9.731 116.899  21.717  1.00  0.00     0.050 C 
ATOM     16  C   UNL     1       9.335 119.226  20.018  1.00  0.00    -0.013 C 
ATOM     17  C   UNL     1       8.404 117.516  21.652  1.00  0.00     0.159 C 
ATOM     18  C   UNL     1       8.060 118.542  20.600  1.00  0.00     0.070 C 
ATOM     19  C   UNL     1       9.929 120.228  21.066  1.00  0.00     0.042 C 
ATOM     20  C   UNL     1       8.973 120.005  18.721  1.00  0.00     0.013 C 
ATOM     21  O   UNL     1       7.514 117.104  22.447  1.00  0.00    -0.295 OA
ATOM     22  C   UNL     1       7.048 119.582  21.149  1.00  0.00     0.047 C 
ATOM     23  C   UNL     1       8.926 121.217  21.704  1.00  0.00     0.143 C 
ATOM     24  C   UNL     1       7.656 120.515  22.218  1.00  0.00     0.143 C 
BRANCH   9  25
ATOM     25  O   UNL     1      11.933 115.220  21.684  1.00  0.00    -0.385 OA
ATOM     26  H   UNL     1      11.024 115.053  22.031  1.00  0.00     0.211 HD
ENDBRANCH   9  25
BRANCH  23  27
ATOM     27  O   UNL     1       8.600 122.238  20.797  1.00  0.00    -0.390 OA
ATOM     28  H   UNL     1       8.304 121.797  19.956  1.00  0.00     0.211 HD
ENDBRANCH  23  27
BRANCH  24  29
ATOM     29  O   UNL     1       7.961 119.807  23.395  1.00  0.00    -0.390 OA
ATOM     30  H   UNL     1       7.334 120.127  24.092  1.00  0.00     0.211 HD
ENDBRANCH  24  29
ENDBRANCH   3   5
BRANCH   3  31
ATOM     31  O   UNL     1      13.499 113.096  17.741  1.00  0.00    -0.387 OA
ATOM     32  H   UNL     1      12.582 113.475  17.674  1.00  0.00     0.211 HD
ENDBRANCH   3  31
ENDBRANCH   2   3
BRANCH   2  33
ATOM     33  O   UNL     1      15.281 112.402  20.555  1.00  0.00    -0.390 OA
ATOM     34  H   UNL     1      15.385 112.831  21.446  1.00  0.00     0.211 HD
ENDBRANCH   2  33
ENDBRANCH   1   2
BRANCH   1  35
ATOM     35  C   UNL     1      11.998 111.256  20.749  1.00  0.00     0.037 C 
BRANCH  35  36
ATOM     36  C   UNL     1      12.151 110.198  21.891  1.00  0.00     0.059 C 
ATOM     37  C   UNL     1      12.742 110.831  23.166  1.00  0.00     0.042 C 
ATOM     38  C   UNL     1      13.033 109.000  21.465  1.00  0.00     0.042 C 
BRANCH  36  39
ATOM     39  O   UNL     1      10.864 109.725  22.223  1.00  0.00    -0.390 OA
ATOM     40  H   UNL     1      10.450 109.341  21.400  1.00  0.00     0.211 HD
ENDBRANCH  36  39
ENDBRANCH  35  36
ENDBRANCH   1  35
TORSDOF 11
ENDMDL
MODEL 6
REMARK VINA RESULT:    -6.899      2.156      8.272
REMARK INTER + INTRA:         -10.939
REMARK INTER:                  -9.743
REMARK INTRA:                  -1.196
REMARK UNBOUND:                -0.813
REMARK SMILES CC(C)(O)CC[C@@H](O)[C@@](C)(O)[C@@H]1CC[C@@]2(O)C3=CC(=O)[C@H]4C[C@@H](O)[C@H](O)C[C@@]4(C)[C@@H]3CC[C@@]12C
REMARK SMILES IDX 6 1 7 2 9 3 10 4 12 5 34 6 33 7 32 8 15 9 31 10 17 11 14 12
REMARK SMILES IDX 13 13 30 14 18 15 28 16 19 17 21 18 27 19 29 20 20 21 22 22
REMARK SMILES IDX 25 23 23 24 16 25 26 27 24 29 11 31 8 33 5 35 2 36 1 37 3 38
REMARK SMILES IDX 4 39
REMARK H PARENT 16 26 26 28 24 30 11 32 8 34 4 40
REMARK Flexibility Score: inf
ROOT
ATOM      1  C   UNL     1       7.639 118.858  21.315  1.00  0.00     0.038 C 
ENDROOT
BRANCH   1   2
ATOM      2  C   UNL     1       9.068 118.885  21.909  1.00  0.00     0.146 C 
BRANCH   2   3
ATOM      3  C   UNL     1       9.391 117.794  23.004  1.00  0.00     0.091 C 
ATOM      4  C   UNL     1      10.389 118.369  24.030  1.00  0.00     0.045 C 
BRANCH   3   5
ATOM      5  C   UNL     1       9.828 116.381  22.364  1.00  0.00     0.032 C 
ATOM      6  C   UNL     1      11.924 117.331  20.891  1.00  0.00     0.015 C 
ATOM      7  C   UNL     1      11.063 116.118  21.357  1.00  0.00     0.006 C 
ATOM      8  C   UNL     1      10.488 115.466  20.037  1.00  0.00     0.011 C 
ATOM      9  C   UNL     1      11.957 115.070  22.132  1.00  0.00     0.092 C 
ATOM     10  C   UNL     1      11.510 114.692  19.181  1.00  0.00     0.009 C 
ATOM     11  C   UNL     1      12.817 114.197  21.192  1.00  0.00    -0.031 C 
ATOM     12  C   UNL     1      10.936 114.242  22.901  1.00  0.00     0.041 C 
ATOM     13  C   UNL     1       9.983 115.284  23.453  1.00  0.00     0.010 C 
ATOM     14  C   UNL     1      12.118 113.545  20.007  1.00  0.00     0.025 C 
ATOM     15  C   UNL     1      14.161 114.229  21.255  1.00  0.00     0.050 C 
ATOM     16  C   UNL     1      13.008 112.495  19.223  1.00  0.00    -0.013 C 
ATOM     17  C   UNL     1      15.013 113.742  20.167  1.00  0.00     0.159 C 
ATOM     18  C   UNL     1      14.430 113.073  18.946  1.00  0.00     0.070 C 
ATOM     19  C   UNL     1      13.119 111.205  20.105  1.00  0.00     0.042 C 
ATOM     20  C   UNL     1      12.312 112.132  17.880  1.00  0.00     0.013 C 
ATOM     21  O   UNL     1      16.252 113.975  20.228  1.00  0.00    -0.295 OA
ATOM     22  C   UNL     1      15.394 111.990  18.393  1.00  0.00     0.047 C 
ATOM     23  C   UNL     1      14.142 110.146  19.634  1.00  0.00     0.143 C 
ATOM     24  C   UNL     1      15.519 110.760  19.316  1.00  0.00     0.143 C 
BRANCH   9  25
ATOM     25  O   UNL     1      12.747 115.702  23.124  1.00  0.00    -0.385 OA
ATOM     26  H   UNL     1      13.008 115.052  23.820  1.00  0.00     0.211 HD
ENDBRANCH   9  25
BRANCH  23  27
ATOM     27  O   UNL     1      13.643 109.440  18.528  1.00  0.00    -0.390 OA
ATOM     28  H   UNL     1      14.408 108.949  18.126  1.00  0.00     0.211 HD
ENDBRANCH  23  27
BRANCH  24  29
ATOM     29  O   UNL     1      16.168 111.091  20.519  1.00  0.00    -0.390 OA
ATOM     30  H   UNL     1      15.660 110.653  21.249  1.00  0.00     0.211 HD
ENDBRANCH  24  29
ENDBRANCH   3   5
BRANCH   3  31
ATOM     31  O   UNL     1       8.181 117.587  23.713  1.00  0.00    -0.387 OA
ATOM     32  H   UNL     1       7.773 116.724  23.436  1.00  0.00     0.211 HD
ENDBRANCH   3  31
ENDBRANCH   2   3
BRANCH   2  33
ATOM     33  O   UNL     1       9.297 120.166  22.441  1.00  0.00    -0.390 OA
ATOM     34  H   UNL     1       9.117 120.830  21.723  1.00  0.00     0.211 HD
ENDBRANCH   2  33
ENDBRANCH   1   2
BRANCH   1  35
ATOM     35  C   UNL     1       7.424 117.838  20.171  1.00  0.00     0.037 C 
BRANCH  35  36
ATOM     36  C   UNL     1       7.639 118.349  18.709  1.00  0.00     0.059 C 
ATOM     37  C   UNL     1       6.689 117.643  17.722  1.00  0.00     0.042 C 
ATOM     38  C   UNL     1       9.098 118.158  18.230  1.00  0.00     0.042 C 
BRANCH  36  39
ATOM     39  O   UNL     1       7.321 119.724  18.676  1.00  0.00    -0.390 OA
ATOM     40  H   UNL     1       6.433 119.850  19.111  1.00  0.00     0.211 HD
ENDBRANCH  36  39
ENDBRANCH  35  36
ENDBRANCH   1  35
TORSDOF 11
ENDMDL
MODEL 7
REMARK VINA RESULT:    -6.841      5.413      8.245
REMARK INTER + INTRA:         -10.853
REMARK INTER:                 -10.143
REMARK INTRA:                  -0.710
REMARK UNBOUND:                -0.813
REMARK SMILES CC(C)(O)CC[C@@H](O)[C@@](C)(O)[C@@H]1CC[C@@]2(O)C3=CC(=O)[C@H]4C[C@@H](O)[C@H](O)C[C@@]4(C)[C@@H]3CC[C@@]12C
REMARK SMILES IDX 6 1 7 2 9 3 10 4 12 5 34 6 33 7 32 8 15 9 31 10 17 11 14 12
REMARK SMILES IDX 13 13 30 14 18 15 28 16 19 17 21 18 27 19 29 20 20 21 22 22
REMARK SMILES IDX 25 23 23 24 16 25 26 27 24 29 11 31 8 33 5 35 2 36 1 37 3 38
REMARK SMILES IDX 4 39
REMARK H PARENT 16 26 26 28 24 30 11 32 8 34 4 40
REMARK Flexibility Score: inf
ROOT
ATOM      1  C   UNL     1      10.368 116.242  19.106  1.00  0.00     0.038 C 
ENDROOT
BRANCH   1   2
ATOM      2  C   UNL     1      11.887 116.533  19.070  1.00  0.00     0.146 C 
BRANCH   2   3
ATOM      3  C   UNL     1      12.776 115.512  18.255  1.00  0.00     0.091 C 
ATOM      4  C   UNL     1      13.262 114.386  19.191  1.00  0.00     0.045 C 
BRANCH   3   5
ATOM      5  C   UNL     1      13.944 116.236  17.415  1.00  0.00     0.032 C 
ATOM      6  C   UNL     1      12.427 118.307  16.478  1.00  0.00     0.015 C 
ATOM      7  C   UNL     1      13.816 117.602  16.564  1.00  0.00     0.006 C 
ATOM      8  C   UNL     1      14.231 117.291  15.071  1.00  0.00     0.011 C 
ATOM      9  C   UNL     1      14.881 118.559  17.233  1.00  0.00     0.092 C 
ATOM     10  C   UNL     1      14.657 118.512  14.233  1.00  0.00     0.009 C 
ATOM     11  C   UNL     1      15.406 119.647  16.270  1.00  0.00    -0.031 C 
ATOM     12  C   UNL     1      15.984 117.603  17.666  1.00  0.00     0.041 C 
ATOM     13  C   UNL     1      15.223 116.441  18.273  1.00  0.00     0.010 C 
ATOM     14  C   UNL     1      15.868 119.198  14.891  1.00  0.00     0.025 C 
ATOM     15  C   UNL     1      15.212 120.953  16.531  1.00  0.00     0.050 C 
ATOM     16  C   UNL     1      16.593 120.326  14.048  1.00  0.00    -0.013 C 
ATOM     17  C   UNL     1      15.332 121.988  15.501  1.00  0.00     0.159 C 
ATOM     18  C   UNL     1      15.787 121.661  14.100  1.00  0.00     0.070 C 
ATOM     19  C   UNL     1      18.020 120.541  14.661  1.00  0.00     0.042 C 
ATOM     20  C   UNL     1      16.742 119.852  12.575  1.00  0.00     0.013 C 
ATOM     21  O   UNL     1      14.958 123.160  15.784  1.00  0.00    -0.295 OA
ATOM     22  C   UNL     1      16.586 122.840  13.485  1.00  0.00     0.047 C 
ATOM     23  C   UNL     1      18.806 121.766  14.139  1.00  0.00     0.143 C 
ATOM     24  C   UNL     1      17.962 123.054  14.152  1.00  0.00     0.143 C 
BRANCH   9  25
ATOM     25  O   UNL     1      14.383 119.122  18.435  1.00  0.00    -0.385 OA
ATOM     26  H   UNL     1      15.103 119.600  18.912  1.00  0.00     0.211 HD
ENDBRANCH   9  25
BRANCH  23  27
ATOM     27  O   UNL     1      19.311 121.512  12.853  1.00  0.00    -0.390 OA
ATOM     28  H   UNL     1      20.085 120.897  12.960  1.00  0.00     0.211 HD
ENDBRANCH  23  27
BRANCH  24  29
ATOM     29  O   UNL     1      17.820 123.503  15.477  1.00  0.00    -0.390 OA
ATOM     30  H   UNL     1      17.457 122.743  16.000  1.00  0.00     0.211 HD
ENDBRANCH  24  29
ENDBRANCH   3   5
BRANCH   3  31
ATOM     31  O   UNL     1      11.901 114.893  17.327  1.00  0.00    -0.387 OA
ATOM     32  H   UNL     1      11.153 115.512  17.108  1.00  0.00     0.211 HD
ENDBRANCH   3  31
ENDBRANCH   2   3
BRANCH   2  33
ATOM     33  O   UNL     1      12.351 116.604  20.395  1.00  0.00    -0.390 OA
ATOM     34  H   UNL     1      13.316 116.362  20.392  1.00  0.00     0.211 HD
ENDBRANCH   2  33
ENDBRANCH   1   2
BRANCH   1  35
ATOM     35  C   UNL     1       9.508 117.333  19.790  1.00  0.00     0.037 C 
BRANCH  35  36
ATOM     36  C   UNL     1       8.682 118.279  18.858  1.00  0.00     0.059 C 
ATOM     37  C   UNL     1       9.076 119.755  19.065  1.00  0.00     0.042 C 
ATOM     38  C   UNL     1       7.157 118.128  19.075  1.00  0.00     0.042 C 
BRANCH  36  39
ATOM     39  O   UNL     1       8.990 117.953  17.520  1.00  0.00    -0.390 OA
ATOM     40  H   UNL     1       8.929 118.785  16.974  1.00  0.00     0.211 HD
ENDBRANCH  36  39
ENDBRANCH  35  36
ENDBRANCH   1  35
TORSDOF 11
ENDMDL
MODEL 8
REMARK VINA RESULT:    -6.812      1.835      3.269
REMARK INTER + INTRA:         -10.811
REMARK INTER:                  -9.708
REMARK INTRA:                  -1.103
REMARK UNBOUND:                -0.813
REMARK SMILES CC(C)(O)CC[C@@H](O)[C@@](C)(O)[C@@H]1CC[C@@]2(O)C3=CC(=O)[C@H]4C[C@@H](O)[C@H](O)C[C@@]4(C)[C@@H]3CC[C@@]12C
REMARK SMILES IDX 6 1 7 2 9 3 10 4 12 5 34 6 33 7 32 8 15 9 31 10 17 11 14 12
REMARK SMILES IDX 13 13 30 14 18 15 28 16 19 17 21 18 27 19 29 20 20 21 22 22
REMARK SMILES IDX 25 23 23 24 16 25 26 27 24 29 11 31 8 33 5 35 2 36 1 37 3 38
REMARK SMILES IDX 4 39
REMARK H PARENT 16 26 26 28 24 30 11 32 8 34 4 40
REMARK Flexibility Score: inf
ROOT
ATOM      1  C   UNL     1      15.048 108.884  19.687  1.00  0.00     0.038 C 
ENDROOT
BRANCH   1   2
ATOM      2  C   UNL     1      13.816 109.538  20.357  1.00  0.00     0.146 C 
BRANCH   2   3
ATOM      3  C   UNL     1      14.058 110.937  21.050  1.00  0.00     0.091 C 
ATOM      4  C   UNL     1      14.554 110.721  22.494  1.00  0.00     0.045 C 
BRANCH   3   5
ATOM      5  C   UNL     1      12.792 111.925  20.916  1.00  0.00     0.032 C 
ATOM      6  C   UNL     1      14.149 114.249  21.390  1.00  0.00     0.015 C 
ATOM      7  C   UNL     1      12.805 113.534  21.051  1.00  0.00     0.006 C 
ATOM      8  C   UNL     1      11.802 113.937  22.204  1.00  0.00     0.011 C 
ATOM      9  C   UNL     1      12.253 114.029  19.656  1.00  0.00     0.092 C 
ATOM     10  C   UNL     1      11.293 115.392  22.161  1.00  0.00     0.009 C 
ATOM     11  C   UNL     1      11.584 115.419  19.729  1.00  0.00    -0.031 C 
ATOM     12  C   UNL     1      11.261 112.941  19.268  1.00  0.00     0.041 C 
ATOM     13  C   UNL     1      11.994 111.659  19.610  1.00  0.00     0.010 C 
ATOM     14  C   UNL     1      10.560 115.646  20.832  1.00  0.00     0.025 C 
ATOM     15  C   UNL     1      12.074 116.461  19.032  1.00  0.00     0.050 C 
ATOM     16  C   UNL     1       9.761 117.009  20.708  1.00  0.00    -0.013 C 
ATOM     17  C   UNL     1      11.739 117.851  19.351  1.00  0.00     0.159 C 
ATOM     18  C   UNL     1      10.732 118.196  20.421  1.00  0.00     0.070 C 
ATOM     19  C   UNL     1       8.737 116.861  19.532  1.00  0.00     0.042 C 
ATOM     20  C   UNL     1       8.981 117.270  22.028  1.00  0.00     0.013 C 
ATOM     21  O   UNL     1      12.380 118.769  18.769  1.00  0.00    -0.295 OA
ATOM     22  C   UNL     1       9.963 119.495  20.062  1.00  0.00     0.047 C 
ATOM     23  C   UNL     1       8.023 118.158  19.085  1.00  0.00     0.143 C 
ATOM     24  C   UNL     1       9.006 119.322  18.864  1.00  0.00     0.143 C 
BRANCH   9  25
ATOM     25  O   UNL     1      13.260 113.986  18.660  1.00  0.00    -0.385 OA
ATOM     26  H   UNL     1      14.068 113.539  19.009  1.00  0.00     0.211 HD
ENDBRANCH   9  25
BRANCH  23  27
ATOM     27  O   UNL     1       7.028 118.513  20.010  1.00  0.00    -0.390 OA
ATOM     28  H   UNL     1       6.303 117.837  19.931  1.00  0.00     0.211 HD
ENDBRANCH  23  27
BRANCH  24  29
ATOM     29  O   UNL     1       9.719 119.108  17.671  1.00  0.00    -0.390 OA
ATOM     30  H   UNL     1      10.681 119.114  17.907  1.00  0.00     0.211 HD
ENDBRANCH  24  29
ENDBRANCH   3   5
BRANCH   3  31
ATOM     31  O   UNL     1      15.141 111.532  20.353  1.00  0.00    -0.387 OA
ATOM     32  H   UNL     1      15.286 111.056  19.492  1.00  0.00     0.211 HD
ENDBRANCH   3  31
ENDBRANCH   2   3
BRANCH   2  33
ATOM     33  O   UNL     1      13.296 108.633  21.298  1.00  0.00    -0.390 OA
ATOM     34  H   UNL     1      13.556 107.716  21.012  1.00  0.00     0.211 HD
ENDBRANCH   2  33
ENDBRANCH   1   2
BRANCH   1  35
ATOM     35  C   UNL     1      14.957 108.741  18.148  1.00  0.00     0.037 C 
BRANCH  35  36
ATOM     36  C   UNL     1      15.630 109.859  17.286  1.00  0.00     0.059 C 
ATOM     37  C   UNL     1      14.673 111.045  17.060  1.00  0.00     0.042 C 
ATOM     38  C   UNL     1      16.112 109.329  15.913  1.00  0.00     0.042 C 
BRANCH  36  39
ATOM     39  O   UNL     1      16.741 110.354  18.002  1.00  0.00    -0.390 OA
ATOM     40  H   UNL     1      17.570 110.089  17.515  1.00  0.00     0.211 HD
ENDBRANCH  36  39
ENDBRANCH  35  36
ENDBRANCH   1  35
TORSDOF 11
ENDMDL
MODEL 9
REMARK VINA RESULT:    -6.771      1.924      2.653
REMARK INTER + INTRA:         -10.751
REMARK INTER:                  -9.413
REMARK INTRA:                  -1.339
REMARK UNBOUND:                -0.813
REMARK SMILES CC(C)(O)CC[C@@H](O)[C@@](C)(O)[C@@H]1CC[C@@]2(O)C3=CC(=O)[C@H]4C[C@@H](O)[C@H](O)C[C@@]4(C)[C@@H]3CC[C@@]12C
REMARK SMILES IDX 6 1 7 2 9 3 10 4 12 5 34 6 33 7 32 8 15 9 31 10 17 11 14 12
REMARK SMILES IDX 13 13 30 14 18 15 28 16 19 17 21 18 27 19 29 20 20 21 22 22
REMARK SMILES IDX 25 23 23 24 16 25 26 27 24 29 11 31 8 33 5 35 2 36 1 37 3 38
REMARK SMILES IDX 4 39
REMARK H PARENT 16 26 26 28 24 30 11 32 8 34 4 40
REMARK Flexibility Score: inf
ROOT
ATOM      1  C   UNL     1      16.655 112.492  20.151  1.00  0.00     0.038 C 
ENDROOT
BRANCH   1   2
ATOM      2  C   UNL     1      16.180 112.213  18.705  1.00  0.00     0.146 C 
BRANCH   2   3
ATOM      3  C   UNL     1      14.699 111.686  18.544  1.00  0.00     0.091 C 
ATOM      4  C   UNL     1      14.421 111.369  17.061  1.00  0.00     0.045 C 
BRANCH   3   5
ATOM      5  C   UNL     1      13.615 112.655  19.238  1.00  0.00     0.032 C 
ATOM      6  C   UNL     1      14.249 114.907  17.825  1.00  0.00     0.015 C 
ATOM      7  C   UNL     1      13.355 114.212  18.897  1.00  0.00     0.006 C 
ATOM      8  C   UNL     1      13.553 115.044  20.226  1.00  0.00     0.011 C 
ATOM      9  C   UNL     1      11.837 114.248  18.458  1.00  0.00     0.092 C 
ATOM     10  C   UNL     1      12.881 116.432  20.245  1.00  0.00     0.009 C 
ATOM     11  C   UNL     1      11.174 115.624  18.685  1.00  0.00    -0.031 C 
ATOM     12  C   UNL     1      11.201 113.162  19.316  1.00  0.00     0.041 C 
ATOM     13  C   UNL     1      12.197 112.022  19.235  1.00  0.00     0.010 C 
ATOM     14  C   UNL     1      11.362 116.276  20.047  1.00  0.00     0.025 C 
ATOM     15  C   UNL     1      10.688 116.336  17.652  1.00  0.00     0.050 C 
ATOM     16  C   UNL     1      10.477 117.569  20.278  1.00  0.00    -0.013 C 
ATOM     17  C   UNL     1      10.412 117.772  17.744  1.00  0.00     0.159 C 
ATOM     18  C   UNL     1      10.558 118.523  19.046  1.00  0.00     0.070 C 
ATOM     19  C   UNL     1       8.996 117.106  20.497  1.00  0.00     0.042 C 
ATOM     20  C   UNL     1      10.970 118.309  21.554  1.00  0.00     0.013 C 
ATOM     21  O   UNL     1      10.133 118.397  16.684  1.00  0.00    -0.295 OA
ATOM     22  C   UNL     1       9.524 119.676  19.141  1.00  0.00     0.047 C 
ATOM     23  C   UNL     1       7.928 118.223  20.501  1.00  0.00     0.143 C 
ATOM     24  C   UNL     1       8.072 119.177  19.301  1.00  0.00     0.143 C 
BRANCH   9  25
ATOM     25  O   UNL     1      11.679 113.806  17.121  1.00  0.00    -0.385 OA
ATOM     26  H   UNL     1      11.010 113.080  17.077  1.00  0.00     0.211 HD
ENDBRANCH   9  25
BRANCH  23  27
ATOM     27  O   UNL     1       7.966 118.933  21.712  1.00  0.00    -0.390 OA
ATOM     28  H   UNL     1       7.742 119.879  21.502  1.00  0.00     0.211 HD
ENDBRANCH  23  27
BRANCH  24  29
ATOM     29  O   UNL     1       7.627 118.528  18.136  1.00  0.00    -0.390 OA
ATOM     30  H   UNL     1       7.501 119.230  17.447  1.00  0.00     0.211 HD
ENDBRANCH  24  29
ENDBRANCH   3   5
BRANCH   3  31
ATOM     31  O   UNL     1      14.656 110.441  19.222  1.00  0.00    -0.387 OA
ATOM     32  H   UNL     1      14.731 109.699  18.563  1.00  0.00     0.211 HD
ENDBRANCH   3  31
ENDBRANCH   2   3
BRANCH   2  33
ATOM     33  O   UNL     1      17.070 111.294  18.121  1.00  0.00    -0.390 OA
ATOM     34  H   UNL     1      17.787 111.813  17.668  1.00  0.00     0.211 HD
ENDBRANCH   2  33
ENDBRANCH   1   2
BRANCH   1  35
ATOM     35  C   UNL     1      17.707 113.620  20.288  1.00  0.00     0.037 C 
BRANCH  35  36
ATOM     36  C   UNL     1      17.459 114.697  21.395  1.00  0.00     0.059 C 
ATOM     37  C   UNL     1      16.396 114.227  22.407  1.00  0.00     0.042 C 
ATOM     38  C   UNL     1      17.024 116.058  20.800  1.00  0.00     0.042 C 
BRANCH  36  39
ATOM     39  O   UNL     1      18.663 114.872  22.110  1.00  0.00    -0.390 OA
ATOM     40  H   UNL     1      18.446 114.904  23.083  1.00  0.00     0.211 HD
ENDBRANCH  36  39
ENDBRANCH  35  36
ENDBRANCH   1  35
TORSDOF 11
ENDMDL
