MODEL 1
REMARK VINA RESULT:    12.419      0.000      0.000
REMARK INTER + INTRA:          13.508
REMARK INTER:                  13.508
REMARK INTRA:                   0.000
REMARK UNBOUND:                 0.000
REMARK SMILES Cc1cc(O)c2c(c1)C(=O)c1cc(O)cc(O)c1C2=O
REMARK SMILES IDX 1 1 2 2 8 3 7 4 6 5 4 6 3 7 19 8 20 9 18 10 11 11 9 12 10 13
REMARK SMILES IDX 12 14 13 15 15 16 16 17 5 18 17 20 14 22
REMARK H PARENT 5 19 17 21 14 23
REMARK Flexibility Score: inf
ROOT
ATOM      1  C   UNL     1      -5.877 -20.264  -3.146  1.00  0.00     0.044 C 
ATOM      2  C   UNL     1      -6.055 -19.078  -4.049  1.00  0.00    -0.047 A 
ATOM      3  C   UNL     1      -6.089 -19.249  -5.436  1.00  0.00     0.016 A 
ATOM      4  C   UNL     1      -6.226 -18.142  -6.291  1.00  0.00     0.038 A 
ATOM      5  C   UNL     1      -6.331 -16.842  -5.747  1.00  0.00     0.076 A 
ATOM      6  C   UNL     1      -6.211 -16.669  -4.344  1.00  0.00     0.127 A 
ATOM      7  C   UNL     1      -6.095 -17.786  -3.513  1.00  0.00     0.050 A 
ATOM      8  C   UNL     1      -6.622 -15.716  -6.670  1.00  0.00     0.201 C 
ATOM      9  O   UNL     1      -7.268 -14.717  -6.255  1.00  0.00    -0.288 OA
ATOM     10  C   UNL     1      -6.322 -15.852  -8.119  1.00  0.00     0.076 A 
ATOM     11  C   UNL     1      -6.215 -17.154  -8.660  1.00  0.00     0.041 A 
ATOM     12  C   UNL     1      -6.254 -18.331  -7.761  1.00  0.00     0.194 C 
ATOM     13  O   UNL     1      -6.285 -19.495  -8.248  1.00  0.00    -0.289 OA
ATOM     14  C   UNL     1      -6.067 -17.324 -10.046  1.00  0.00     0.059 A 
ATOM     15  C   UNL     1      -6.009 -16.219 -10.895  1.00  0.00     0.120 A 
ATOM     16  C   UNL     1      -6.074 -14.930 -10.361  1.00  0.00     0.093 A 
ATOM     17  C   UNL     1      -6.200 -14.731  -8.983  1.00  0.00     0.131 A 
ENDROOT
BRANCH   6  18
ATOM     18  O   UNL     1      -6.164 -15.409  -3.741  1.00  0.00    -0.507 OA
ATOM     19  H   UNL     1      -5.372 -15.073  -3.209  1.00  0.00     0.293 HD
ENDBRANCH   6  18
BRANCH  17  20
ATOM     20  O   UNL     1      -6.166 -13.416  -8.515  1.00  0.00    -0.507 OA
ATOM     21  H   UNL     1      -6.528 -13.135  -7.614  1.00  0.00     0.293 HD
ENDBRANCH  17  20
BRANCH  15  22
ATOM     22  O   UNL     1      -5.876 -16.414 -12.268  1.00  0.00    -0.508 OA
ATOM     23  H   UNL     1      -6.651 -16.734 -12.836  1.00  0.00     0.293 HD
ENDBRANCH  15  22
TORSDOF 3
ENDMDL
