MODEL 1
REMARK VINA RESULT:    -4.475      0.000      0.000
REMARK INTER + INTRA:          -5.208
REMARK INTER:                  -4.998
REMARK INTRA:                  -0.210
REMARK UNBOUND:                -0.210
REMARK SMILES CC(C)c1ccc(C(=O)[O-])cc1
REMARK SMILES IDX 7 1 6 2 11 3 5 4 12 5 4 6 8 7 9 8 10 9 2 10 1 11 3 12
REMARK H PARENT
REMARK Flexibility Score: inf
ROOT
ATOM      1  C   UNL     1       8.102  -6.959  -6.063  1.00  0.00    -0.003 A 
ATOM      2  C   UNL     1       7.503  -7.926  -6.887  1.00  0.00     0.010 A 
ATOM      3  C   UNL     1       8.024  -7.110  -4.668  1.00  0.00     0.010 A 
ATOM      4  C   UNL     1       6.841  -9.023  -6.328  1.00  0.00     0.004 A 
ATOM      5  C   UNL     1       7.362  -8.207  -4.109  1.00  0.00     0.004 A 
ATOM      6  C   UNL     1       6.762  -9.176  -4.934  1.00  0.00    -0.045 A 
ENDROOT
BRANCH   1   7
ATOM      7  C   UNL     1       8.801  -5.799  -6.658  1.00  0.00     0.071 C 
ATOM      8  O   UNL     1       9.125  -5.800  -7.875  1.00  0.00    -0.545 OA
ATOM      9  O   UNL     1       9.110  -4.688  -5.881  1.00  0.00    -0.545 OA
ENDBRANCH   1   7
BRANCH   6  10
ATOM     10  C   UNL     1       6.040 -10.373  -4.341  1.00  0.00     0.013 C 
ATOM     11  C   UNL     1       4.553 -10.068  -4.126  1.00  0.00     0.012 C 
ATOM     12  C   UNL     1       6.705 -10.829  -3.036  1.00  0.00     0.012 C 
ENDBRANCH   6  10
TORSDOF 2
ENDMDL
MODEL 2
REMARK VINA RESULT:    -4.266      1.325      2.077
REMARK INTER + INTRA:          -4.974
REMARK INTER:                  -4.764
REMARK INTRA:                  -0.210
REMARK UNBOUND:                -0.210
REMARK SMILES CC(C)c1ccc(C(=O)[O-])cc1
REMARK SMILES IDX 7 1 6 2 11 3 5 4 12 5 4 6 8 7 9 8 10 9 2 10 1 11 3 12
REMARK H PARENT
REMARK Flexibility Score: inf
ROOT
ATOM      1  C   UNL     1       8.439  -5.558  -6.982  1.00  0.00    -0.003 A 
ATOM      2  C   UNL     1       7.704  -6.641  -7.491  1.00  0.00     0.010 A 
ATOM      3  C   UNL     1       8.728  -5.519  -5.606  1.00  0.00     0.010 A 
ATOM      4  C   UNL     1       7.268  -7.664  -6.644  1.00  0.00     0.004 A 
ATOM      5  C   UNL     1       8.292  -6.542  -4.759  1.00  0.00     0.004 A 
ATOM      6  C   UNL     1       7.556  -7.626  -5.270  1.00  0.00    -0.045 A 
ENDROOT
BRANCH   1   7
ATOM      7  C   UNL     1       8.899  -4.477  -7.880  1.00  0.00     0.071 C 
ATOM      8  O   UNL     1       9.090  -4.699  -9.105  1.00  0.00    -0.545 OA
ATOM      9  O   UNL     1       9.125  -3.198  -7.385  1.00  0.00    -0.545 OA
ENDBRANCH   1   7
BRANCH   6  10
ATOM     10  C   UNL     1       7.076  -8.745  -4.363  1.00  0.00     0.013 C 
ATOM     11  C   UNL     1       8.130  -9.852  -4.247  1.00  0.00     0.012 C 
ATOM     12  C   UNL     1       5.733  -9.309  -4.843  1.00  0.00     0.012 C 
ENDBRANCH   6  10
TORSDOF 2
ENDMDL
MODEL 3
REMARK VINA RESULT:    -4.083     11.566     13.184
REMARK INTER + INTRA:          -4.770
REMARK INTER:                  -4.564
REMARK INTRA:                  -0.207
REMARK UNBOUND:                -0.210
REMARK SMILES CC(C)c1ccc(C(=O)[O-])cc1
REMARK SMILES IDX 7 1 6 2 11 3 5 4 12 5 4 6 8 7 9 8 10 9 2 10 1 11 3 12
REMARK H PARENT
REMARK Flexibility Score: inf
ROOT
ATOM      1  C   UNL     1       4.240  -9.988   6.727  1.00  0.00    -0.003 A 
ATOM      2  C   UNL     1       4.900  -9.129   7.619  1.00  0.00     0.010 A 
ATOM      3  C   UNL     1       4.947 -10.500   5.625  1.00  0.00     0.010 A 
ATOM      4  C   UNL     1       6.241  -8.788   7.416  1.00  0.00     0.004 A 
ATOM      5  C   UNL     1       6.287 -10.159   5.421  1.00  0.00     0.004 A 
ATOM      6  C   UNL     1       6.949  -9.298   6.316  1.00  0.00    -0.045 A 
ENDROOT
BRANCH   1   7
ATOM      7  C   UNL     1       2.821 -10.347   6.945  1.00  0.00     0.071 C 
ATOM      8  O   UNL     1       1.991 -10.285   5.999  1.00  0.00    -0.545 OA
ATOM      9  O   UNL     1       2.384 -10.759   8.198  1.00  0.00    -0.545 OA
ENDBRANCH   1   7
BRANCH   6  10
ATOM     10  C   UNL     1       8.404  -8.919   6.108  1.00  0.00     0.013 C 
ATOM     11  C   UNL     1       9.125  -8.742   7.450  1.00  0.00     0.012 C 
ATOM     12  C   UNL     1       8.530  -7.659   5.243  1.00  0.00     0.012 C 
ENDBRANCH   6  10
TORSDOF 2
ENDMDL
MODEL 4
REMARK VINA RESULT:    -4.017     11.407     13.378
REMARK INTER + INTRA:          -4.696
REMARK INTER:                  -4.481
REMARK INTRA:                  -0.215
REMARK UNBOUND:                -0.210
REMARK SMILES CC(C)c1ccc(C(=O)[O-])cc1
REMARK SMILES IDX 7 1 6 2 11 3 5 4 12 5 4 6 8 7 9 8 10 9 2 10 1 11 3 12
REMARK H PARENT
REMARK Flexibility Score: inf
ROOT
ATOM      1  C   UNL     1       3.368  -9.344   7.442  1.00  0.00    -0.003 A 
ATOM      2  C   UNL     1       3.534 -10.298   6.425  1.00  0.00     0.010 A 
ATOM      3  C   UNL     1       4.491  -8.629   7.895  1.00  0.00     0.010 A 
ATOM      4  C   UNL     1       4.796 -10.533   5.871  1.00  0.00     0.004 A 
ATOM      5  C   UNL     1       5.752  -8.864   7.341  1.00  0.00     0.004 A 
ATOM      6  C   UNL     1       5.919  -9.820   6.322  1.00  0.00    -0.045 A 
ENDROOT
BRANCH   1   7
ATOM      7  C   UNL     1       2.031  -9.098   8.026  1.00  0.00     0.071 C 
ATOM      8  O   UNL     1       1.333 -10.054   8.456  1.00  0.00    -0.545 OA
ATOM      9  O   UNL     1       1.526  -7.805   8.110  1.00  0.00    -0.545 OA
ENDBRANCH   1   7
BRANCH   6  10
ATOM     10  C   UNL     1       7.282 -10.086   5.711  1.00  0.00     0.013 C 
ATOM     11  C   UNL     1       8.148  -8.820   5.723  1.00  0.00     0.012 C 
ATOM     12  C   UNL     1       7.152 -10.652   4.292  1.00  0.00     0.012 C 
ENDBRANCH   6  10
TORSDOF 2
ENDMDL
MODEL 5
REMARK VINA RESULT:    -3.977     10.301     12.029
REMARK INTER + INTRA:          -4.652
REMARK INTER:                  -4.443
REMARK INTRA:                  -0.208
REMARK UNBOUND:                -0.210
REMARK SMILES CC(C)c1ccc(C(=O)[O-])cc1
REMARK SMILES IDX 7 1 6 2 11 3 5 4 12 5 4 6 8 7 9 8 10 9 2 10 1 11 3 12
REMARK H PARENT
REMARK Flexibility Score: inf
ROOT
ATOM      1  C   UNL     1       6.737  -9.994   5.274  1.00  0.00    -0.003 A 
ATOM      2  C   UNL     1       5.698 -10.848   4.870  1.00  0.00     0.010 A 
ATOM      3  C   UNL     1       6.567  -9.215   6.433  1.00  0.00     0.010 A 
ATOM      4  C   UNL     1       4.514 -10.924   5.608  1.00  0.00     0.004 A 
ATOM      5  C   UNL     1       5.381  -9.291   7.170  1.00  0.00     0.004 A 
ATOM      6  C   UNL     1       4.341 -10.147   6.765  1.00  0.00    -0.045 A 
ENDROOT
BRANCH   1   7
ATOM      7  C   UNL     1       7.989  -9.915   4.491  1.00  0.00     0.071 C 
ATOM      8  O   UNL     1       8.907  -9.120   4.826  1.00  0.00    -0.545 OA
ATOM      9  O   UNL     1       8.172 -10.721   3.373  1.00  0.00    -0.545 OA
ENDBRANCH   1   7
BRANCH   6  10
ATOM     10  C   UNL     1       3.049 -10.240   7.557  1.00  0.00     0.013 C 
ATOM     11  C   UNL     1       2.438  -8.851   7.781  1.00  0.00     0.012 C 
ATOM     12  C   UNL     1       3.268 -10.968   8.889  1.00  0.00     0.012 C 
ENDBRANCH   6  10
TORSDOF 2
ENDMDL
MODEL 6
REMARK VINA RESULT:    -3.962     16.487     17.667
REMARK INTER + INTRA:          -4.635
REMARK INTER:                  -4.432
REMARK INTRA:                  -0.204
REMARK UNBOUND:                -0.210
REMARK SMILES CC(C)c1ccc(C(=O)[O-])cc1
REMARK SMILES IDX 7 1 6 2 11 3 5 4 12 5 4 6 8 7 9 8 10 9 2 10 1 11 3 12
REMARK H PARENT
REMARK Flexibility Score: inf
ROOT
ATOM      1  C   UNL     1      -7.613  -1.596  -6.137  1.00  0.00    -0.003 A 
ATOM      2  C   UNL     1      -8.964  -1.252  -6.307  1.00  0.00     0.010 A 
ATOM      3  C   UNL     1      -6.822  -0.835  -5.258  1.00  0.00     0.010 A 
ATOM      4  C   UNL     1      -9.514  -0.171  -5.611  1.00  0.00     0.004 A 
ATOM      5  C   UNL     1      -7.373   0.246  -4.563  1.00  0.00     0.004 A 
ATOM      6  C   UNL     1      -8.726   0.590  -4.733  1.00  0.00    -0.045 A 
ENDROOT
BRANCH   1   7
ATOM      7  C   UNL     1      -7.034  -2.740  -6.875  1.00  0.00     0.071 C 
ATOM      8  O   UNL     1      -6.309  -3.583  -6.283  1.00  0.00    -0.545 OA
ATOM      9  O   UNL     1      -7.284  -2.902  -8.232  1.00  0.00    -0.545 OA
ENDBRANCH   1   7
BRANCH   6  10
ATOM     10  C   UNL     1      -9.338   1.760  -3.985  1.00  0.00     0.013 C 
ATOM     11  C   UNL     1      -8.459   3.012  -4.106  1.00  0.00     0.012 C 
ATOM     12  C   UNL     1      -9.592   1.405  -2.515  1.00  0.00     0.012 C 
ENDBRANCH   6  10
TORSDOF 2
ENDMDL
MODEL 7
REMARK VINA RESULT:    -3.940      2.911      5.093
REMARK INTER + INTRA:          -4.610
REMARK INTER:                  -4.398
REMARK INTRA:                  -0.213
REMARK UNBOUND:                -0.210
REMARK SMILES CC(C)c1ccc(C(=O)[O-])cc1
REMARK SMILES IDX 7 1 6 2 11 3 5 4 12 5 4 6 8 7 9 8 10 9 2 10 1 11 3 12
REMARK H PARENT
REMARK Flexibility Score: inf
ROOT
ATOM      1  C   UNL     1       6.725  -8.632  -5.232  1.00  0.00    -0.003 A 
ATOM      2  C   UNL     1       6.939  -8.655  -6.620  1.00  0.00     0.010 A 
ATOM      3  C   UNL     1       7.302  -7.599  -4.472  1.00  0.00     0.010 A 
ATOM      4  C   UNL     1       7.712  -7.666  -7.236  1.00  0.00     0.004 A 
ATOM      5  C   UNL     1       8.075  -6.611  -5.088  1.00  0.00     0.004 A 
ATOM      6  C   UNL     1       8.289  -6.634  -6.478  1.00  0.00    -0.045 A 
ENDROOT
BRANCH   1   7
ATOM      7  C   UNL     1       5.907  -9.680  -4.583  1.00  0.00     0.071 C 
ATOM      8  O   UNL     1       6.456 -10.633  -3.968  1.00  0.00    -0.545 OA
ATOM      9  O   UNL     1       4.520  -9.627  -4.642  1.00  0.00    -0.545 OA
ENDBRANCH   1   7
BRANCH   6  10
ATOM     10  C   UNL     1       9.125  -5.567  -7.161  1.00  0.00     0.013 C 
ATOM     11  C   UNL     1       9.119  -4.262  -6.355  1.00  0.00     0.012 C 
ATOM     12  C   UNL     1       8.651  -5.330  -8.600  1.00  0.00     0.012 C 
ENDBRANCH   6  10
TORSDOF 2
ENDMDL
MODEL 8
REMARK VINA RESULT:    -3.934     16.994     18.192
REMARK INTER + INTRA:          -4.604
REMARK INTER:                  -4.391
REMARK INTRA:                  -0.212
REMARK UNBOUND:                -0.210
REMARK SMILES CC(C)c1ccc(C(=O)[O-])cc1
REMARK SMILES IDX 7 1 6 2 11 3 5 4 12 5 4 6 8 7 9 8 10 9 2 10 1 11 3 12
REMARK H PARENT
REMARK Flexibility Score: inf
ROOT
ATOM      1  C   UNL     1      -9.281   0.884  -4.208  1.00  0.00    -0.003 A 
ATOM      2  C   UNL     1      -7.908   0.814  -3.923  1.00  0.00     0.010 A 
ATOM      3  C   UNL     1      -9.797   0.115  -5.267  1.00  0.00     0.010 A 
ATOM      4  C   UNL     1      -7.067  -0.009  -4.678  1.00  0.00     0.004 A 
ATOM      5  C   UNL     1      -8.956  -0.706  -6.022  1.00  0.00     0.004 A 
ATOM      6  C   UNL     1      -7.580  -0.777  -5.736  1.00  0.00    -0.045 A 
ENDROOT
BRANCH   1   7
ATOM      7  C   UNL     1     -10.168   1.755  -3.407  1.00  0.00     0.071 C 
ATOM      8  O   UNL     1     -11.125   1.266  -2.750  1.00  0.00    -0.545 OA
ATOM      9  O   UNL     1      -9.957   3.129  -3.366  1.00  0.00    -0.545 OA
ENDBRANCH   1   7
BRANCH   6  10
ATOM     10  C   UNL     1      -6.655  -1.665  -6.548  1.00  0.00     0.013 C 
ATOM     11  C   UNL     1      -7.447  -2.520  -7.546  1.00  0.00     0.012 C 
ATOM     12  C   UNL     1      -5.789  -2.542  -5.635  1.00  0.00     0.012 C 
ENDBRANCH   6  10
TORSDOF 2
ENDMDL
MODEL 9
REMARK VINA RESULT:    -1.836      3.046      4.873
REMARK INTER + INTRA:          -2.261
REMARK INTER:                  -2.041
REMARK INTRA:                  -0.220
REMARK UNBOUND:                -0.210
REMARK SMILES CC(C)c1ccc(C(=O)[O-])cc1
REMARK SMILES IDX 7 1 6 2 11 3 5 4 12 5 4 6 8 7 9 8 10 9 2 10 1 11 3 12
REMARK H PARENT
REMARK Flexibility Score: inf
ROOT
ATOM      1  C   UNL     1       8.767  -2.766  -7.277  1.00  0.00    -0.003 A 
ATOM      2  C   UNL     1       9.125  -3.201  -5.991  1.00  0.00     0.010 A 
ATOM      3  C   UNL     1       8.410  -3.722  -8.245  1.00  0.00     0.010 A 
ATOM      4  C   UNL     1       9.125  -4.563  -5.676  1.00  0.00     0.004 A 
ATOM      5  C   UNL     1       8.411  -5.084  -7.930  1.00  0.00     0.004 A 
ATOM      6  C   UNL     1       8.769  -5.520  -6.641  1.00  0.00    -0.045 A 
ENDROOT
BRANCH   1   7
ATOM      7  C   UNL     1       8.768  -1.324  -7.607  1.00  0.00     0.071 C 
ATOM      8  O   UNL     1       8.750  -0.457  -6.693  1.00  0.00    -0.545 OA
ATOM      9  O   UNL     1       8.791  -0.905  -8.932  1.00  0.00    -0.545 OA
ENDBRANCH   1   7
BRANCH   6  10
ATOM     10  C   UNL     1       8.773  -6.995  -6.285  1.00  0.00     0.013 C 
ATOM     11  C   UNL     1       8.090  -7.828  -7.376  1.00  0.00     0.012 C 
ATOM     12  C   UNL     1       8.122  -7.236  -4.917  1.00  0.00     0.012 C 
ENDBRANCH   6  10
TORSDOF 2
ENDMDL
