MODEL 1
REMARK VINA RESULT:    -1.351      0.000      0.000
REMARK INTER + INTRA:          -1.828
REMARK INTER:                  -1.549
REMARK INTRA:                  -0.279
REMARK UNBOUND:                -0.279
REMARK SMILES O=C1C[C@@H](c2ccc(O)cc2)Oc2cc(O)cc(O)c21
REMARK SMILES IDX 3 1 4 2 12 3 13 4 14 5 15 6 17 7 18 8 20 9 2 10 1 11 5 12
REMARK SMILES IDX 6 13 11 14 7 15 10 16 8 17 9 18 19 20 16 22
REMARK H PARENT 9 19 19 21 16 23
REMARK Flexibility Score: inf
ROOT
ATOM      1  C   UNL     1      28.443  38.562  26.821  1.00  0.00     0.131 C 
ATOM      2  C   UNL     1      29.929  38.374  26.494  1.00  0.00     0.211 C 
ATOM      3  O   UNL     1      30.330  37.034  26.778  1.00  0.00    -0.484 OA
ATOM      4  C   UNL     1      29.554  35.937  26.389  1.00  0.00     0.138 A 
ATOM      5  C   UNL     1      30.133  34.666  26.401  1.00  0.00     0.093 A 
ATOM      6  C   UNL     1      29.399  33.554  25.993  1.00  0.00     0.123 A 
ATOM      7  C   UNL     1      28.081  33.716  25.556  1.00  0.00     0.093 A 
ATOM      8  C   UNL     1      27.481  34.981  25.529  1.00  0.00     0.133 A 
ATOM      9  C   UNL     1      28.207  36.112  25.998  1.00  0.00     0.102 A 
ATOM     10  C   UNL     1      27.622  37.471  26.190  1.00  0.00     0.174 C 
ATOM     11  O   UNL     1      26.412  37.713  25.940  1.00  0.00    -0.294 OA
ENDROOT
BRANCH   2  12
ATOM     12  C   UNL     1      30.778  39.347  27.277  1.00  0.00    -0.007 A 
ATOM     13  C   UNL     1      30.416  39.724  28.583  1.00  0.00     0.011 A 
ATOM     14  C   UNL     1      31.912  39.931  26.685  1.00  0.00     0.011 A 
ATOM     15  C   UNL     1      31.189  40.648  29.291  1.00  0.00     0.046 A 
ATOM     16  C   UNL     1      32.683  40.855  27.396  1.00  0.00     0.046 A 
ATOM     17  C   UNL     1      32.323  41.214  28.702  1.00  0.00     0.115 A 
BRANCH  17  18
ATOM     18  O   UNL     1      33.085  42.134  29.420  1.00  0.00    -0.508 OA
ATOM     19  H   UNL     1      33.574  41.871  30.268  1.00  0.00     0.293 HD
ENDBRANCH  17  18
ENDBRANCH   2  12
BRANCH   8  20
ATOM     20  O   UNL     1      26.184  35.054  25.014  1.00  0.00    -0.507 OA
ATOM     21  H   UNL     1      25.490  35.724  25.306  1.00  0.00     0.293 HD
ENDBRANCH   8  20
BRANCH   6  22
ATOM     22  O   UNL     1      29.990  32.293  26.019  1.00  0.00    -0.508 OA
ATOM     23  H   UNL     1      29.633  31.552  26.611  1.00  0.00     0.293 HD
ENDBRANCH   6  22
TORSDOF 4
ENDMDL
MODEL 2
REMARK VINA RESULT:    -0.158      3.046      5.279
REMARK INTER + INTRA:          -0.460
REMARK INTER:                  -0.181
REMARK INTRA:                  -0.279
REMARK UNBOUND:                -0.279
REMARK SMILES O=C1C[C@@H](c2ccc(O)cc2)Oc2cc(O)cc(O)c21
REMARK SMILES IDX 3 1 4 2 12 3 13 4 14 5 15 6 17 7 18 8 20 9 2 10 1 11 5 12
REMARK SMILES IDX 6 13 11 14 7 15 10 16 8 17 9 18 19 20 16 22
REMARK H PARENT 9 19 19 21 16 23
REMARK Flexibility Score: inf
ROOT
ATOM      1  C   UNL     1      28.488  37.267  27.541  1.00  0.00     0.131 C 
ATOM      2  C   UNL     1      29.981  37.614  27.533  1.00  0.00     0.211 C 
ATOM      3  O   UNL     1      30.385  38.012  26.223  1.00  0.00    -0.484 OA
ATOM      4  C   UNL     1      29.625  38.902  25.457  1.00  0.00     0.138 A 
ATOM      5  C   UNL     1      30.212  39.501  24.340  1.00  0.00     0.093 A 
ATOM      6  C   UNL     1      29.493  40.413  23.570  1.00  0.00     0.123 A 
ATOM      7  C   UNL     1      28.182  40.742  23.929  1.00  0.00     0.093 A 
ATOM      8  C   UNL     1      27.575  40.161  25.049  1.00  0.00     0.133 A 
ATOM      9  C   UNL     1      28.284  39.185  25.805  1.00  0.00     0.102 A 
ATOM     10  C   UNL     1      27.686  38.366  26.900  1.00  0.00     0.174 C 
ATOM     11  O   UNL     1      26.480  38.490  27.237  1.00  0.00    -0.294 OA
ENDROOT
BRANCH   2  12
ATOM     12  C   UNL     1      30.809  36.440  27.997  1.00  0.00    -0.007 A 
ATOM     13  C   UNL     1      30.379  35.122  27.757  1.00  0.00     0.011 A 
ATOM     14  C   UNL     1      31.991  36.653  28.726  1.00  0.00     0.011 A 
ATOM     15  C   UNL     1      31.134  34.038  28.217  1.00  0.00     0.046 A 
ATOM     16  C   UNL     1      32.743  35.567  29.185  1.00  0.00     0.046 A 
ATOM     17  C   UNL     1      32.317  34.257  28.929  1.00  0.00     0.115 A 
BRANCH  17  18
ATOM     18  O   UNL     1      33.060  33.168  29.380  1.00  0.00    -0.508 OA
ATOM     19  H   UNL     1      32.620  32.385  29.849  1.00  0.00     0.293 HD
ENDBRANCH  17  18
ENDBRANCH   2  12
BRANCH   8  20
ATOM     20  O   UNL     1      26.287  40.600  25.368  1.00  0.00    -0.507 OA
ATOM     21  H   UNL     1      25.479  40.482  24.775  1.00  0.00     0.293 HD
ENDBRANCH   8  20
BRANCH   6  22
ATOM     22  O   UNL     1      30.092  40.994  22.456  1.00  0.00    -0.508 OA
ATOM     23  H   UNL     1      29.797  40.762  21.514  1.00  0.00     0.293 HD
ENDBRANCH   6  22
TORSDOF 4
ENDMDL
MODEL 3
REMARK VINA RESULT:    -0.140      3.029      5.426
REMARK INTER + INTRA:          -0.439
REMARK INTER:                  -0.160
REMARK INTRA:                  -0.279
REMARK UNBOUND:                -0.279
REMARK SMILES O=C1C[C@@H](c2ccc(O)cc2)Oc2cc(O)cc(O)c21
REMARK SMILES IDX 3 1 4 2 12 3 13 4 14 5 15 6 17 7 18 8 20 9 2 10 1 11 5 12
REMARK SMILES IDX 6 13 11 14 7 15 10 16 8 17 9 18 19 20 16 22
REMARK H PARENT 9 19 19 21 16 23
REMARK Flexibility Score: inf
ROOT
ATOM      1  C   UNL     1      28.466  37.164  26.320  1.00  0.00     0.131 C 
ATOM      2  C   UNL     1      29.967  36.951  26.547  1.00  0.00     0.211 C 
ATOM      3  O   UNL     1      30.458  37.892  27.500  1.00  0.00    -0.484 OA
ATOM      4  C   UNL     1      29.771  38.162  28.689  1.00  0.00     0.138 A 
ATOM      5  C   UNL     1      30.440  38.831  29.716  1.00  0.00     0.093 A 
ATOM      6  C   UNL     1      29.795  39.092  30.924  1.00  0.00     0.123 A 
ATOM      7  C   UNL     1      28.476  38.666  31.111  1.00  0.00     0.093 A 
ATOM      8  C   UNL     1      27.788  37.987  30.099  1.00  0.00     0.133 A 
ATOM      9  C   UNL     1      28.422  37.770  28.843  1.00  0.00     0.102 A 
ATOM     10  C   UNL     1      27.736  37.226  27.634  1.00  0.00     0.174 C 
ATOM     11  O   UNL     1      26.517  36.914  27.647  1.00  0.00    -0.294 OA
ENDROOT
BRANCH   2  12
ATOM     12  C   UNL     1      30.730  37.080  25.250  1.00  0.00    -0.007 A 
ATOM     13  C   UNL     1      30.344  38.026  24.283  1.00  0.00     0.011 A 
ATOM     14  C   UNL     1      31.801  36.214  24.972  1.00  0.00     0.011 A 
ATOM     15  C   UNL     1      31.035  38.119  23.072  1.00  0.00     0.046 A 
ATOM     16  C   UNL     1      32.491  36.310  23.759  1.00  0.00     0.046 A 
ATOM     17  C   UNL     1      32.110  37.265  22.807  1.00  0.00     0.115 A 
BRANCH  17  18
ATOM     18  O   UNL     1      32.790  37.369  21.595  1.00  0.00    -0.508 OA
ATOM     19  H   UNL     1      32.412  37.901  20.820  1.00  0.00     0.293 HD
ENDBRANCH  17  18
ENDBRANCH   2  12
BRANCH   8  20
ATOM     20  O   UNL     1      26.498  37.543  30.401  1.00  0.00    -0.507 OA
ATOM     21  H   UNL     1      25.654  38.061  30.208  1.00  0.00     0.293 HD
ENDBRANCH   8  20
BRANCH   6  22
ATOM     22  O   UNL     1      30.475  39.767  31.934  1.00  0.00    -0.508 OA
ATOM     23  H   UNL     1      30.007  40.058  32.785  1.00  0.00     0.293 HD
ENDBRANCH   6  22
TORSDOF 4
ENDMDL
MODEL 4
REMARK VINA RESULT:     0.423      1.524      2.156
REMARK INTER + INTRA:           0.205
REMARK INTER:                   0.488
REMARK INTRA:                  -0.282
REMARK UNBOUND:                -0.279
REMARK SMILES O=C1C[C@@H](c2ccc(O)cc2)Oc2cc(O)cc(O)c21
REMARK SMILES IDX 3 1 4 2 12 3 13 4 14 5 15 6 17 7 18 8 20 9 2 10 1 11 5 12
REMARK SMILES IDX 6 13 11 14 7 15 10 16 8 17 9 18 19 20 16 22
REMARK H PARENT 9 19 19 21 16 23
REMARK Flexibility Score: inf
ROOT
ATOM      1  C   UNL     1      27.534  37.915  27.773  1.00  0.00     0.131 C 
ATOM      2  C   UNL     1      29.067  37.921  27.775  1.00  0.00     0.211 C 
ATOM      3  O   UNL     1      29.564  36.584  27.754  1.00  0.00    -0.484 OA
ATOM      4  C   UNL     1      29.035  35.616  26.893  1.00  0.00     0.138 A 
ATOM      5  C   UNL     1      29.755  34.438  26.681  1.00  0.00     0.093 A 
ATOM      6  C   UNL     1      29.271  33.464  25.809  1.00  0.00     0.123 A 
ATOM      7  C   UNL     1      28.067  33.678  25.131  1.00  0.00     0.093 A 
ATOM      8  C   UNL     1      27.332  34.854  25.321  1.00  0.00     0.133 A 
ATOM      9  C   UNL     1      27.791  35.826  26.254  1.00  0.00     0.102 A 
ATOM     10  C   UNL     1      27.011  37.026  26.678  1.00  0.00     0.174 C 
ATOM     11  O   UNL     1      25.863  37.264  26.222  1.00  0.00    -0.294 OA
ENDROOT
BRANCH   2  12
ATOM     12  C   UNL     1      29.599  38.653  28.984  1.00  0.00    -0.007 A 
ATOM     13  C   UNL     1      30.653  39.576  28.855  1.00  0.00     0.011 A 
ATOM     14  C   UNL     1      29.084  38.377  30.261  1.00  0.00     0.011 A 
ATOM     15  C   UNL     1      31.163  40.228  29.982  1.00  0.00     0.046 A 
ATOM     16  C   UNL     1      29.596  39.030  31.387  1.00  0.00     0.046 A 
ATOM     17  C   UNL     1      30.636  39.959  31.249  1.00  0.00     0.115 A 
BRANCH  17  18
ATOM     18  O   UNL     1      31.153  40.616  32.363  1.00  0.00    -0.508 OA
ATOM     19  H   UNL     1      31.520  41.558  32.299  1.00  0.00     0.293 HD
ENDBRANCH  17  18
ENDBRANCH   2  12
BRANCH   8  20
ATOM     20  O   UNL     1      26.176  35.008  24.551  1.00  0.00    -0.507 OA
ATOM     21  H   UNL     1      25.746  34.272  24.011  1.00  0.00     0.293 HD
ENDBRANCH   8  20
BRANCH   6  22
ATOM     22  O   UNL     1      29.997  32.292  25.616  1.00  0.00    -0.508 OA
ATOM     23  H   UNL     1      29.675  31.566  24.988  1.00  0.00     0.293 HD
ENDBRANCH   6  22
TORSDOF 4
ENDMDL
MODEL 5
REMARK VINA RESULT:     1.511      3.414      5.300
REMARK INTER + INTRA:           1.452
REMARK INTER:                   1.741
REMARK INTRA:                  -0.289
REMARK UNBOUND:                -0.279
REMARK SMILES O=C1C[C@@H](c2ccc(O)cc2)Oc2cc(O)cc(O)c21
REMARK SMILES IDX 3 1 4 2 12 3 13 4 14 5 15 6 17 7 18 8 20 9 2 10 1 11 5 12
REMARK SMILES IDX 6 13 11 14 7 15 10 16 8 17 9 18 19 20 16 22
REMARK H PARENT 9 19 19 21 16 23
REMARK Flexibility Score: inf
ROOT
ATOM      1  C   UNL     1      27.210  38.382  26.439  1.00  0.00     0.131 C 
ATOM      2  C   UNL     1      28.732  38.429  26.264  1.00  0.00     0.211 C 
ATOM      3  O   UNL     1      29.337  39.061  27.391  1.00  0.00    -0.484 OA
ATOM      4  C   UNL     1      28.959  38.748  28.701  1.00  0.00     0.138 A 
ATOM      5  C   UNL     1      29.787  39.144  29.754  1.00  0.00     0.093 A 
ATOM      6  C   UNL     1      29.455  38.825  31.069  1.00  0.00     0.123 A 
ATOM      7  C   UNL     1      28.295  38.090  31.333  1.00  0.00     0.093 A 
ATOM      8  C   UNL     1      27.453  37.675  30.294  1.00  0.00     0.133 A 
ATOM      9  C   UNL     1      27.756  38.048  28.954  1.00  0.00     0.102 A 
ATOM     10  C   UNL     1      26.849  37.826  27.789  1.00  0.00     0.174 C 
ATOM     11  O   UNL     1      25.725  37.277  27.921  1.00  0.00    -0.294 OA
ENDROOT
BRANCH   2  12
ATOM     12  C   UNL     1      29.105  39.160  24.997  1.00  0.00    -0.007 A 
ATOM     13  C   UNL     1      30.432  39.150  24.529  1.00  0.00     0.011 A 
ATOM     14  C   UNL     1      28.139  39.907  24.301  1.00  0.00     0.011 A 
ATOM     15  C   UNL     1      30.778  39.854  23.372  1.00  0.00     0.046 A 
ATOM     16  C   UNL     1      28.489  40.610  23.144  1.00  0.00     0.046 A 
ATOM     17  C   UNL     1      29.809  40.584  22.676  1.00  0.00     0.115 A 
BRANCH  17  18
ATOM     18  O   UNL     1      30.168  41.280  21.524  1.00  0.00    -0.508 OA
ATOM     19  H   UNL     1      31.055  41.119  21.062  1.00  0.00     0.293 HD
ENDBRANCH  17  18
ENDBRANCH   2  12
BRANCH   8  20
ATOM     20  O   UNL     1      26.353  36.890  30.648  1.00  0.00    -0.507 OA
ATOM     21  H   UNL     1      25.404  37.225  30.701  1.00  0.00     0.293 HD
ENDBRANCH   8  20
BRANCH   6  22
ATOM     22  O   UNL     1      30.288  39.235  32.107  1.00  0.00    -0.508 OA
ATOM     23  H   UNL     1      31.061  39.870  31.946  1.00  0.00     0.293 HD
ENDBRANCH   6  22
TORSDOF 4
ENDMDL
