MODEL 1
REMARK VINA RESULT:    -5.336      0.000      0.000
REMARK INTER + INTRA:         -11.260
REMARK INTER:                  -9.704
REMARK INTRA:                  -1.556
REMARK UNBOUND:                -1.556
REMARK SMILES CCCCCCCCCCCCCC[C@H](C)C(=O)[O-]
REMARK SMILES IDX 9 1 10 2 11 3 12 4 13 5 14 6 15 7 16 8 17 9 18 10 19 11 8 12
REMARK SMILES IDX 7 13 6 14 5 15 4 16 3 17 2 18 1 19
REMARK H PARENT
REMARK Flexibility Score: inf
ROOT
ATOM      1  C   UNL     1      45.349   4.499 130.914  1.00  0.00     0.000 C 
ENDROOT
BRANCH   1   2
ATOM      2  C   UNL     1      46.880   4.514 131.069  1.00  0.00     0.000 C 
BRANCH   2   3
ATOM      3  C   UNL     1      47.598   5.130 129.854  1.00  0.00     0.000 C 
BRANCH   3   4
ATOM      4  C   UNL     1      47.006   6.460 129.346  1.00  0.00     0.000 C 
BRANCH   4   5
ATOM      5  C   UNL     1      47.024   6.642 127.815  1.00  0.00     0.001 C 
BRANCH   5   6
ATOM      6  C   UNL     1      45.637   6.815 127.161  1.00  0.00     0.009 C 
BRANCH   6   7
ATOM      7  C   UNL     1      44.569   5.819 127.665  1.00  0.00     0.032 C 
ATOM      8  C   UNL     1      44.141   4.874 126.536  1.00  0.00     0.014 C 
BRANCH   7   9
ATOM      9  C   UNL     1      43.365   6.531 128.221  1.00  0.00     0.044 C 
ATOM     10  O   UNL     1      43.469   7.268 129.238  1.00  0.00    -0.550 OA
ATOM     11  O   UNL     1      42.125   6.373 127.613  1.00  0.00    -0.550 OA
ENDBRANCH   7   9
ENDBRANCH   6   7
ENDBRANCH   5   6
ENDBRANCH   4   5
ENDBRANCH   3   4
ENDBRANCH   2   3
ENDBRANCH   1   2
BRANCH   1  12
ATOM     12  C   UNL     1      44.620   4.072 132.200  1.00  0.00     0.000 C 
BRANCH  12  13
ATOM     13  C   UNL     1      45.502   4.002 133.460  1.00  0.00    -0.000 C 
BRANCH  13  14
ATOM     14  C   UNL     1      45.798   2.559 133.905  1.00  0.00    -0.000 C 
BRANCH  14  15
ATOM     15  C   UNL     1      44.579   1.877 134.544  1.00  0.00    -0.000 C 
BRANCH  15  16
ATOM     16  C   UNL     1      44.316   0.476 133.963  1.00  0.00    -0.000 C 
BRANCH  16  17
ATOM     17  C   UNL     1      44.552   0.414 132.446  1.00  0.00    -0.000 C 
BRANCH  17  18
ATOM     18  C   UNL     1      43.250   0.525 131.640  1.00  0.00    -0.003 C 
ATOM     19  C   UNL     1      42.062   0.000 132.439  1.00  0.00     0.004 C 
ENDBRANCH  17  18
ENDBRANCH  16  17
ENDBRANCH  15  16
ENDBRANCH  14  15
ENDBRANCH  13  14
ENDBRANCH  12  13
ENDBRANCH   1  12
TORSDOF 14
ENDMDL
MODEL 2
REMARK VINA RESULT:    -5.313      1.037      1.472
REMARK INTER + INTRA:         -11.217
REMARK INTER:                  -9.499
REMARK INTRA:                  -1.718
REMARK UNBOUND:                -1.556
REMARK SMILES CCCCCCCCCCCCCC[C@H](C)C(=O)[O-]
REMARK SMILES IDX 9 1 10 2 11 3 12 4 13 5 14 6 15 7 16 8 17 9 18 10 19 11 8 12
REMARK SMILES IDX 7 13 6 14 5 15 4 16 3 17 2 18 1 19
REMARK H PARENT
REMARK Flexibility Score: inf
ROOT
ATOM      1  C   UNL     1      45.201   4.253 130.989  1.00  0.00     0.000 C 
ENDROOT
BRANCH   1   2
ATOM      2  C   UNL     1      46.606   4.876 131.047  1.00  0.00     0.000 C 
BRANCH   2   3
ATOM      3  C   UNL     1      47.331   4.844 129.689  1.00  0.00     0.000 C 
BRANCH   3   4
ATOM      4  C   UNL     1      47.559   6.221 129.033  1.00  0.00     0.000 C 
BRANCH   4   5
ATOM      5  C   UNL     1      46.356   7.183 129.093  1.00  0.00     0.001 C 
BRANCH   5   6
ATOM      6  C   UNL     1      45.561   7.319 127.777  1.00  0.00     0.009 C 
BRANCH   6   7
ATOM      7  C   UNL     1      44.058   6.988 127.905  1.00  0.00     0.032 C 
ATOM      8  C   UNL     1      43.625   7.023 129.375  1.00  0.00     0.014 C 
BRANCH   7   9
ATOM      9  C   UNL     1      43.732   5.646 127.307  1.00  0.00     0.044 C 
ATOM     10  O   UNL     1      42.726   5.503 126.562  1.00  0.00    -0.550 OA
ATOM     11  O   UNL     1      44.544   4.551 127.579  1.00  0.00    -0.550 OA
ENDBRANCH   7   9
ENDBRANCH   6   7
ENDBRANCH   5   6
ENDBRANCH   4   5
ENDBRANCH   3   4
ENDBRANCH   2   3
ENDBRANCH   1   2
BRANCH   1  12
ATOM     12  C   UNL     1      44.553   4.104 132.377  1.00  0.00     0.000 C 
BRANCH  12  13
ATOM     13  C   UNL     1      45.541   4.006 133.553  1.00  0.00    -0.000 C 
BRANCH  13  14
ATOM     14  C   UNL     1      45.883   2.554 133.929  1.00  0.00    -0.000 C 
BRANCH  14  15
ATOM     15  C   UNL     1      44.865   1.942 134.904  1.00  0.00    -0.000 C 
BRANCH  15  16
ATOM     16  C   UNL     1      43.956   0.899 134.228  1.00  0.00    -0.000 C 
BRANCH  16  17
ATOM     17  C   UNL     1      44.450   0.506 132.828  1.00  0.00    -0.000 C 
BRANCH  17  18
ATOM     18  C   UNL     1      43.320   0.479 131.789  1.00  0.00    -0.003 C 
ATOM     19  C   UNL     1      41.991   0.098 132.433  1.00  0.00     0.004 C 
ENDBRANCH  17  18
ENDBRANCH  16  17
ENDBRANCH  15  16
ENDBRANCH  14  15
ENDBRANCH  13  14
ENDBRANCH  12  13
ENDBRANCH   1  12
TORSDOF 14
ENDMDL
MODEL 3
REMARK VINA RESULT:    -5.153      2.697      6.425
REMARK INTER + INTRA:         -10.927
REMARK INTER:                  -9.044
REMARK INTRA:                  -1.884
REMARK UNBOUND:                -1.556
REMARK SMILES CCCCCCCCCCCCCC[C@H](C)C(=O)[O-]
REMARK SMILES IDX 9 1 10 2 11 3 12 4 13 5 14 6 15 7 16 8 17 9 18 10 19 11 8 12
REMARK SMILES IDX 7 13 6 14 5 15 4 16 3 17 2 18 1 19
REMARK H PARENT
REMARK Flexibility Score: inf
ROOT
ATOM      1  C   UNL     1      46.152   4.894 130.191  1.00  0.00     0.000 C 
ENDROOT
BRANCH   1   2
ATOM      2  C   UNL     1      47.058   4.923 131.435  1.00  0.00     0.000 C 
BRANCH   2   3
ATOM      3  C   UNL     1      47.880   3.631 131.606  1.00  0.00     0.000 C 
BRANCH   3   4
ATOM      4  C   UNL     1      47.181   2.509 132.399  1.00  0.00     0.000 C 
BRANCH   4   5
ATOM      5  C   UNL     1      46.534   2.949 133.727  1.00  0.00     0.001 C 
BRANCH   5   6
ATOM      6  C   UNL     1      45.025   2.647 133.850  1.00  0.00     0.009 C 
BRANCH   6   7
ATOM      7  C   UNL     1      44.298   2.479 132.498  1.00  0.00     0.032 C 
ATOM      8  C   UNL     1      43.145   3.483 132.380  1.00  0.00     0.014 C 
BRANCH   7   9
ATOM      9  C   UNL     1      43.778   1.078 132.318  1.00  0.00     0.044 C 
ATOM     10  O   UNL     1      44.559   0.091 132.377  1.00  0.00    -0.550 OA
ATOM     11  O   UNL     1      42.425   0.868 132.079  1.00  0.00    -0.550 OA
ENDBRANCH   7   9
ENDBRANCH   6   7
ENDBRANCH   5   6
ENDBRANCH   4   5
ENDBRANCH   3   4
ENDBRANCH   2   3
ENDBRANCH   1   2
BRANCH   1  12
ATOM     12  C   UNL     1      46.918   5.165 128.884  1.00  0.00     0.000 C 
BRANCH  12  13
ATOM     13  C   UNL     1      46.668   6.548 128.255  1.00  0.00    -0.000 C 
BRANCH  13  14
ATOM     14  C   UNL     1      45.690   7.410 129.073  1.00  0.00    -0.000 C 
BRANCH  14  15
ATOM     15  C   UNL     1      44.331   7.580 128.376  1.00  0.00    -0.000 C 
BRANCH  15  16
ATOM     16  C   UNL     1      43.336   6.466 128.747  1.00  0.00    -0.000 C 
BRANCH  16  17
ATOM     17  C   UNL     1      42.460   6.039 127.560  1.00  0.00    -0.000 C 
BRANCH  17  18
ATOM     18  C   UNL     1      43.280   5.741 126.297  1.00  0.00    -0.003 C 
ATOM     19  C   UNL     1      44.154   4.505 126.488  1.00  0.00     0.004 C 
ENDBRANCH  17  18
ENDBRANCH  16  17
ENDBRANCH  15  16
ENDBRANCH  14  15
ENDBRANCH  13  14
ENDBRANCH  12  13
ENDBRANCH   1  12
TORSDOF 14
ENDMDL
MODEL 4
REMARK VINA RESULT:    -5.142      3.298      7.113
REMARK INTER + INTRA:         -10.907
REMARK INTER:                  -9.533
REMARK INTRA:                  -1.374
REMARK UNBOUND:                -1.556
REMARK SMILES CCCCCCCCCCCCCC[C@H](C)C(=O)[O-]
REMARK SMILES IDX 9 1 10 2 11 3 12 4 13 5 14 6 15 7 16 8 17 9 18 10 19 11 8 12
REMARK SMILES IDX 7 13 6 14 5 15 4 16 3 17 2 18 1 19
REMARK H PARENT
REMARK Flexibility Score: inf
ROOT
ATOM      1  C   UNL     1      46.454   5.152 130.281  1.00  0.00     0.000 C 
ENDROOT
BRANCH   1   2
ATOM      2  C   UNL     1      47.170   4.465 131.457  1.00  0.00     0.000 C 
BRANCH   2   3
ATOM      3  C   UNL     1      46.204   4.035 132.576  1.00  0.00     0.000 C 
BRANCH   3   4
ATOM      4  C   UNL     1      44.708   4.077 132.206  1.00  0.00     0.000 C 
BRANCH   4   5
ATOM      5  C   UNL     1      43.932   2.770 132.465  1.00  0.00     0.001 C 
BRANCH   5   6
ATOM      6  C   UNL     1      44.790   1.586 132.957  1.00  0.00     0.009 C 
BRANCH   6   7
ATOM      7  C   UNL     1      44.135   0.201 132.760  1.00  0.00     0.032 C 
ATOM      8  C   UNL     1      42.857   0.326 131.922  1.00  0.00     0.014 C 
BRANCH   7   9
ATOM      9  C   UNL     1      43.820  -0.456 134.078  1.00  0.00     0.044 C 
ATOM     10  O   UNL     1      44.336  -1.566 134.379  1.00  0.00    -0.550 OA
ATOM     11  O   UNL     1      42.952   0.161 134.969  1.00  0.00    -0.550 OA
ENDBRANCH   7   9
ENDBRANCH   6   7
ENDBRANCH   5   6
ENDBRANCH   4   5
ENDBRANCH   3   4
ENDBRANCH   2   3
ENDBRANCH   1   2
BRANCH   1  12
ATOM     12  C   UNL     1      47.427   5.794 129.277  1.00  0.00     0.000 C 
BRANCH  12  13
ATOM     13  C   UNL     1      46.843   6.060 127.878  1.00  0.00    -0.000 C 
BRANCH  13  14
ATOM     14  C   UNL     1      45.765   5.040 127.475  1.00  0.00    -0.000 C 
BRANCH  14  15
ATOM     15  C   UNL     1      44.758   5.614 126.465  1.00  0.00    -0.000 C 
BRANCH  15  16
ATOM     16  C   UNL     1      43.314   5.164 126.753  1.00  0.00    -0.000 C 
BRANCH  16  17
ATOM     17  C   UNL     1      42.492   6.245 127.472  1.00  0.00    -0.000 C 
BRANCH  17  18
ATOM     18  C   UNL     1      42.778   6.300 128.979  1.00  0.00    -0.003 C 
ATOM     19  C   UNL     1      43.630   7.515 129.333  1.00  0.00     0.004 C 
ENDBRANCH  17  18
ENDBRANCH  16  17
ENDBRANCH  15  16
ENDBRANCH  14  15
ENDBRANCH  13  14
ENDBRANCH  12  13
ENDBRANCH   1  12
TORSDOF 14
ENDMDL
MODEL 5
REMARK VINA RESULT:    -5.134      2.668      6.898
REMARK INTER + INTRA:         -10.892
REMARK INTER:                  -9.415
REMARK INTRA:                  -1.477
REMARK UNBOUND:                -1.556
REMARK SMILES CCCCCCCCCCCCCC[C@H](C)C(=O)[O-]
REMARK SMILES IDX 9 1 10 2 11 3 12 4 13 5 14 6 15 7 16 8 17 9 18 10 19 11 8 12
REMARK SMILES IDX 7 13 6 14 5 15 4 16 3 17 2 18 1 19
REMARK H PARENT
REMARK Flexibility Score: inf
ROOT
ATOM      1  C   UNL     1      47.404   3.667 131.753  1.00  0.00     0.000 C 
ENDROOT
BRANCH   1   2
ATOM      2  C   UNL     1      45.900   3.846 132.023  1.00  0.00     0.000 C 
BRANCH   2   3
ATOM      3  C   UNL     1      45.577   4.017 133.519  1.00  0.00     0.000 C 
BRANCH   3   4
ATOM      4  C   UNL     1      46.151   2.926 134.444  1.00  0.00     0.000 C 
BRANCH   4   5
ATOM      5  C   UNL     1      45.135   2.286 135.412  1.00  0.00     0.001 C 
BRANCH   5   6
ATOM      6  C   UNL     1      44.523   0.953 134.929  1.00  0.00     0.009 C 
BRANCH   6   7
ATOM      7  C   UNL     1      43.233   1.112 134.094  1.00  0.00     0.032 C 
ATOM      8  C   UNL     1      42.073   0.356 134.751  1.00  0.00     0.014 C 
BRANCH   7   9
ATOM      9  C   UNL     1      43.424   0.630 132.681  1.00  0.00     0.044 C 
ATOM     10  O   UNL     1      44.579   0.404 132.231  1.00  0.00    -0.550 OA
ATOM     11  O   UNL     1      42.320   0.436 131.861  1.00  0.00    -0.550 OA
ENDBRANCH   7   9
ENDBRANCH   6   7
ENDBRANCH   5   6
ENDBRANCH   4   5
ENDBRANCH   3   4
ENDBRANCH   2   3
ENDBRANCH   1   2
BRANCH   1  12
ATOM     12  C   UNL     1      47.902   4.497 130.557  1.00  0.00     0.000 C 
BRANCH  12  13
ATOM     13  C   UNL     1      46.950   5.615 130.095  1.00  0.00    -0.000 C 
BRANCH  13  14
ATOM     14  C   UNL     1      46.989   5.845 128.574  1.00  0.00    -0.000 C 
BRANCH  14  15
ATOM     15  C   UNL     1      46.269   4.736 127.791  1.00  0.00    -0.000 C 
BRANCH  15  16
ATOM     16  C   UNL     1      44.777   4.630 128.158  1.00  0.00    -0.000 C 
BRANCH  16  17
ATOM     17  C   UNL     1      43.865   5.286 127.111  1.00  0.00    -0.000 C 
BRANCH  17  18
ATOM     18  C   UNL     1      42.777   6.167 127.743  1.00  0.00    -0.003 C 
ATOM     19  C   UNL     1      43.309   6.899 128.971  1.00  0.00     0.004 C 
ENDBRANCH  17  18
ENDBRANCH  16  17
ENDBRANCH  15  16
ENDBRANCH  14  15
ENDBRANCH  13  14
ENDBRANCH  12  13
ENDBRANCH   1  12
TORSDOF 14
ENDMDL
MODEL 6
REMARK VINA RESULT:    -5.078      3.368      7.065
REMARK INTER + INTRA:         -10.790
REMARK INTER:                  -9.102
REMARK INTRA:                  -1.688
REMARK UNBOUND:                -1.556
REMARK SMILES CCCCCCCCCCCCCC[C@H](C)C(=O)[O-]
REMARK SMILES IDX 9 1 10 2 11 3 12 4 13 5 14 6 15 7 16 8 17 9 18 10 19 11 8 12
REMARK SMILES IDX 7 13 6 14 5 15 4 16 3 17 2 18 1 19
REMARK H PARENT
REMARK Flexibility Score: inf
ROOT
ATOM      1  C   UNL     1      47.498   4.875 130.533  1.00  0.00     0.000 C 
ENDROOT
BRANCH   1   2
ATOM      2  C   UNL     1      46.608   4.253 131.623  1.00  0.00     0.000 C 
BRANCH   2   3
ATOM      3  C   UNL     1      45.133   4.136 131.196  1.00  0.00     0.000 C 
BRANCH   3   4
ATOM      4  C   UNL     1      44.109   4.202 132.346  1.00  0.00     0.000 C 
BRANCH   4   5
ATOM      5  C   UNL     1      43.242   2.940 132.526  1.00  0.00     0.001 C 
BRANCH   5   6
ATOM      6  C   UNL     1      43.819   1.883 133.492  1.00  0.00     0.009 C 
BRANCH   6   7
ATOM      7  C   UNL     1      43.672   0.426 133.001  1.00  0.00     0.032 C 
ATOM      8  C   UNL     1      42.623   0.338 131.887  1.00  0.00     0.014 C 
BRANCH   7   9
ATOM      9  C   UNL     1      43.303  -0.505 134.125  1.00  0.00     0.044 C 
ATOM     10  O   UNL     1      42.150  -0.473 134.632  1.00  0.00    -0.550 OA
ATOM     11  O   UNL     1      44.241  -1.405 134.614  1.00  0.00    -0.550 OA
ENDBRANCH   7   9
ENDBRANCH   6   7
ENDBRANCH   5   6
ENDBRANCH   4   5
ENDBRANCH   3   4
ENDBRANCH   2   3
ENDBRANCH   1   2
BRANCH   1  12
ATOM     12  C   UNL     1      46.805   4.945 129.161  1.00  0.00     0.000 C 
BRANCH  12  13
ATOM     13  C   UNL     1      47.036   6.251 128.378  1.00  0.00    -0.000 C 
BRANCH  13  14
ATOM     14  C   UNL     1      46.312   7.458 128.999  1.00  0.00    -0.000 C 
BRANCH  14  15
ATOM     15  C   UNL     1      44.929   7.700 128.376  1.00  0.00    -0.000 C 
BRANCH  15  16
ATOM     16  C   UNL     1      43.782   7.201 129.275  1.00  0.00    -0.000 C 
BRANCH  16  17
ATOM     17  C   UNL     1      42.945   6.101 128.606  1.00  0.00    -0.000 C 
BRANCH  17  18
ATOM     18  C   UNL     1      43.191   6.009 127.093  1.00  0.00    -0.003 C 
ATOM     19  C   UNL     1      43.937   4.728 126.735  1.00  0.00     0.004 C 
ENDBRANCH  17  18
ENDBRANCH  16  17
ENDBRANCH  15  16
ENDBRANCH  14  15
ENDBRANCH  13  14
ENDBRANCH  12  13
ENDBRANCH   1  12
TORSDOF 14
ENDMDL
MODEL 7
REMARK VINA RESULT:    -5.037      2.689      7.210
REMARK INTER + INTRA:         -10.716
REMARK INTER:                  -9.587
REMARK INTRA:                  -1.129
REMARK UNBOUND:                -1.556
REMARK SMILES CCCCCCCCCCCCCC[C@H](C)C(=O)[O-]
REMARK SMILES IDX 9 1 10 2 11 3 12 4 13 5 14 6 15 7 16 8 17 9 18 10 19 11 8 12
REMARK SMILES IDX 7 13 6 14 5 15 4 16 3 17 2 18 1 19
REMARK H PARENT
REMARK Flexibility Score: inf
ROOT
ATOM      1  C   UNL     1      46.633   4.413 131.875  1.00  0.00     0.000 C 
ENDROOT
BRANCH   1   2
ATOM      2  C   UNL     1      46.593   3.234 132.863  1.00  0.00     0.000 C 
BRANCH   2   3
ATOM      3  C   UNL     1      45.597   3.455 134.017  1.00  0.00     0.000 C 
BRANCH   3   4
ATOM      4  C   UNL     1      45.842   2.591 135.270  1.00  0.00     0.000 C 
BRANCH   4   5
ATOM      5  C   UNL     1      44.803   1.477 135.511  1.00  0.00     0.001 C 
BRANCH   5   6
ATOM      6  C   UNL     1      43.527   1.575 134.650  1.00  0.00     0.009 C 
BRANCH   6   7
ATOM      7  C   UNL     1      43.162   0.273 133.903  1.00  0.00     0.032 C 
ATOM      8  C   UNL     1      43.666  -0.949 134.679  1.00  0.00     0.014 C 
BRANCH   7   9
ATOM      9  C   UNL     1      43.722   0.259 132.506  1.00  0.00     0.044 C 
ATOM     10  O   UNL     1      42.958   0.365 131.509  1.00  0.00    -0.550 OA
ATOM     11  O   UNL     1      45.090   0.123 132.310  1.00  0.00    -0.550 OA
ENDBRANCH   7   9
ENDBRANCH   6   7
ENDBRANCH   5   6
ENDBRANCH   4   5
ENDBRANCH   3   4
ENDBRANCH   2   3
ENDBRANCH   1   2
BRANCH   1  12
ATOM     12  C   UNL     1      47.838   4.354 130.919  1.00  0.00     0.000 C 
BRANCH  12  13
ATOM     13  C   UNL     1      47.754   5.293 129.702  1.00  0.00    -0.000 C 
BRANCH  13  14
ATOM     14  C   UNL     1      46.318   5.758 129.401  1.00  0.00    -0.000 C 
BRANCH  14  15
ATOM     15  C   UNL     1      46.276   6.970 128.457  1.00  0.00    -0.000 C 
BRANCH  15  16
ATOM     16  C   UNL     1      44.856   7.541 128.296  1.00  0.00    -0.000 C 
BRANCH  16  17
ATOM     17  C   UNL     1      43.825   6.813 129.171  1.00  0.00    -0.000 C 
BRANCH  17  18
ATOM     18  C   UNL     1      42.544   6.456 128.403  1.00  0.00    -0.003 C 
ATOM     19  C   UNL     1      42.870   5.769 127.081  1.00  0.00     0.004 C 
ENDBRANCH  17  18
ENDBRANCH  16  17
ENDBRANCH  15  16
ENDBRANCH  14  15
ENDBRANCH  13  14
ENDBRANCH  12  13
ENDBRANCH   1  12
TORSDOF 14
ENDMDL
MODEL 8
REMARK VINA RESULT:    -4.924      1.156      2.068
REMARK INTER + INTRA:         -10.510
REMARK INTER:                  -9.503
REMARK INTRA:                  -1.007
REMARK UNBOUND:                -1.556
REMARK SMILES CCCCCCCCCCCCCC[C@H](C)C(=O)[O-]
REMARK SMILES IDX 9 1 10 2 11 3 12 4 13 5 14 6 15 7 16 8 17 9 18 10 19 11 8 12
REMARK SMILES IDX 7 13 6 14 5 15 4 16 3 17 2 18 1 19
REMARK H PARENT
REMARK Flexibility Score: inf
ROOT
ATOM      1  C   UNL     1      46.304   4.124 132.648  1.00  0.00     0.000 C 
ENDROOT
BRANCH   1   2
ATOM      2  C   UNL     1      47.108   4.350 131.356  1.00  0.00     0.000 C 
BRANCH   2   3
ATOM      3  C   UNL     1      46.273   5.003 130.239  1.00  0.00     0.000 C 
BRANCH   3   4
ATOM      4  C   UNL     1      47.016   5.224 128.907  1.00  0.00     0.000 C 
BRANCH   4   5
ATOM      5  C   UNL     1      46.745   6.579 128.222  1.00  0.00     0.001 C 
BRANCH   5   6
ATOM      6  C   UNL     1      45.604   6.570 127.182  1.00  0.00     0.009 C 
BRANCH   6   7
ATOM      7  C   UNL     1      44.434   5.624 127.532  1.00  0.00     0.032 C 
ATOM      8  C   UNL     1      44.007   4.820 126.298  1.00  0.00     0.014 C 
BRANCH   7   9
ATOM      9  C   UNL     1      43.255   6.380 128.083  1.00  0.00     0.044 C 
ATOM     10  O   UNL     1      42.133   6.325 127.511  1.00  0.00    -0.550 OA
ATOM     11  O   UNL     1      43.401   7.150 129.230  1.00  0.00    -0.550 OA
ENDBRANCH   7   9
ENDBRANCH   6   7
ENDBRANCH   5   6
ENDBRANCH   4   5
ENDBRANCH   3   4
ENDBRANCH   2   3
ENDBRANCH   1   2
BRANCH   1  12
ATOM     12  C   UNL     1      46.325   2.659 133.119  1.00  0.00     0.000 C 
BRANCH  12  13
ATOM     13  C   UNL     1      44.993   2.136 133.687  1.00  0.00    -0.000 C 
BRANCH  13  14
ATOM     14  C   UNL     1      43.851   2.159 132.656  1.00  0.00    -0.000 C 
BRANCH  14  15
ATOM     15  C   UNL     1      43.617   0.786 132.006  1.00  0.00    -0.000 C 
BRANCH  15  16
ATOM     16  C   UNL     1      42.207   0.235 132.286  1.00  0.00    -0.000 C 
BRANCH  16  17
ATOM     17  C   UNL     1      42.184  -0.756 133.459  1.00  0.00    -0.000 C 
BRANCH  17  18
ATOM     18  C   UNL     1      41.257  -0.303 134.597  1.00  0.00    -0.003 C 
ATOM     19  C   UNL     1      41.967   0.674 135.529  1.00  0.00     0.004 C 
ENDBRANCH  17  18
ENDBRANCH  16  17
ENDBRANCH  15  16
ENDBRANCH  14  15
ENDBRANCH  13  14
ENDBRANCH  12  13
ENDBRANCH   1  12
TORSDOF 14
ENDMDL
MODEL 9
REMARK VINA RESULT:    -4.878      5.474      7.781
REMARK INTER + INTRA:         -10.427
REMARK INTER:                  -9.090
REMARK INTRA:                  -1.337
REMARK UNBOUND:                -1.556
REMARK SMILES CCCCCCCCCCCCCC[C@H](C)C(=O)[O-]
REMARK SMILES IDX 9 1 10 2 11 3 12 4 13 5 14 6 15 7 16 8 17 9 18 10 19 11 8 12
REMARK SMILES IDX 7 13 6 14 5 15 4 16 3 17 2 18 1 19
REMARK H PARENT
REMARK Flexibility Score: inf
ROOT
ATOM      1  C   UNL     1      46.159   7.898 125.676  1.00  0.00     0.000 C 
ENDROOT
BRANCH   1   2
ATOM      2  C   UNL     1      46.404   7.934 124.157  1.00  0.00     0.000 C 
BRANCH   2   3
ATOM      3  C   UNL     1      47.771   8.537 123.786  1.00  0.00     0.000 C 
BRANCH   3   4
ATOM      4  C   UNL     1      47.714   9.836 122.958  1.00  0.00     0.000 C 
BRANCH   4   5
ATOM      5  C   UNL     1      46.937  10.997 123.612  1.00  0.00     0.001 C 
BRANCH   5   6
ATOM      6  C   UNL     1      46.601  12.172 122.669  1.00  0.00     0.009 C 
BRANCH   6   7
ATOM      7  C   UNL     1      45.089  12.435 122.495  1.00  0.00     0.032 C 
ATOM      8  C   UNL     1      44.277  11.214 122.943  1.00  0.00     0.014 C 
BRANCH   7   9
ATOM      9  C   UNL     1      44.746  12.783 121.071  1.00  0.00     0.044 C 
ATOM     10  O   UNL     1      45.640  13.173 120.274  1.00  0.00    -0.550 OA
ATOM     11  O   UNL     1      43.433  12.678 120.630  1.00  0.00    -0.550 OA
ENDBRANCH   7   9
ENDBRANCH   6   7
ENDBRANCH   5   6
ENDBRANCH   4   5
ENDBRANCH   3   4
ENDBRANCH   2   3
ENDBRANCH   1   2
BRANCH   1  12
ATOM     12  C   UNL     1      47.378   7.395 126.469  1.00  0.00     0.000 C 
BRANCH  12  13
ATOM     13  C   UNL     1      47.052   6.445 127.636  1.00  0.00    -0.000 C 
BRANCH  13  14
ATOM     14  C   UNL     1      46.694   7.190 128.933  1.00  0.00    -0.000 C 
BRANCH  14  15
ATOM     15  C   UNL     1      45.203   7.554 129.011  1.00  0.00    -0.000 C 
BRANCH  15  16
ATOM     16  C   UNL     1      44.289   6.321 128.897  1.00  0.00    -0.000 C 
BRANCH  16  17
ATOM     17  C   UNL     1      42.902   6.665 128.334  1.00  0.00    -0.000 C 
BRANCH  17  18
ATOM     18  C   UNL     1      42.522   5.796 127.127  1.00  0.00    -0.003 C 
ATOM     19  C   UNL     1      43.762   5.214 126.456  1.00  0.00     0.004 C 
ENDBRANCH  17  18
ENDBRANCH  16  17
ENDBRANCH  15  16
ENDBRANCH  14  15
ENDBRANCH  13  14
ENDBRANCH  12  13
ENDBRANCH   1  12
TORSDOF 14
ENDMDL
