MODEL 1
REMARK VINA RESULT:    -4.120      0.000      0.000
REMARK INTER + INTRA:          -6.881
REMARK INTER:                  -5.927
REMARK INTRA:                  -0.954
REMARK UNBOUND:                -0.954
REMARK SMILES O=C(CO)[C@H](O)[C@@H](O)[C@@H](O)CO
REMARK SMILES IDX 7 1 9 2 11 3 12 4 10 6 5 8 2 9 1 10 3 11 4 12 6 14 8 16
REMARK H PARENT 12 5 10 7 4 13 6 15 8 17
REMARK Flexibility Score: inf
ROOT
ATOM      1  C   UNL     1      11.668  23.856  -7.263  1.00  0.00     0.181 C 
ENDROOT
BRANCH   1   2
ATOM      2  C   UNL     1      13.169  24.243  -7.403  1.00  0.00     0.171 C 
BRANCH   2   3
ATOM      3  C   UNL     1      14.040  23.050  -7.846  1.00  0.00     0.190 C 
BRANCH   3   4
ATOM      4  O   UNL     1      13.692  22.617  -9.134  1.00  0.00    -0.394 OA
ATOM      5  H   UNL     1      14.521  22.264  -9.550  1.00  0.00     0.210 HD
ENDBRANCH   3   4
ENDBRANCH   2   3
BRANCH   2   6
ATOM      6  O   UNL     1      13.665  24.763  -6.194  1.00  0.00    -0.388 OA
ATOM      7  H   UNL     1      12.933  25.283  -5.769  1.00  0.00     0.211 HD
ENDBRANCH   2   6
ENDBRANCH   1   2
BRANCH   1   8
ATOM      8  C   UNL     1      10.778  24.527  -8.341  1.00  0.00     0.214 C 
BRANCH   8   9
ATOM      9  C   UNL     1       9.315  24.306  -8.020  1.00  0.00     0.189 C 
ATOM     10  O   UNL     1       9.012  23.735  -6.982  1.00  0.00    -0.294 OA
BRANCH   9  11
ATOM     11  C   UNL     1       8.203  24.813  -8.906  1.00  0.00     0.234 C 
BRANCH  11  12
ATOM     12  O   UNL     1       7.855  23.884  -9.899  1.00  0.00    -0.388 OA
ATOM     13  H   UNL     1       6.893  24.028 -10.100  1.00  0.00     0.211 HD
ENDBRANCH  11  12
ENDBRANCH   9  11
ENDBRANCH   8   9
BRANCH   8  14
ATOM     14  O   UNL     1      11.059  24.001  -9.616  1.00  0.00    -0.382 OA
ATOM     15  H   UNL     1      10.257  24.153 -10.180  1.00  0.00     0.211 HD
ENDBRANCH   8  14
ENDBRANCH   1   8
BRANCH   1  16
ATOM     16  O   UNL     1      11.503  22.459  -7.282  1.00  0.00    -0.387 OA
ATOM     17  H   UNL     1      10.751  22.235  -6.673  1.00  0.00     0.211 HD
ENDBRANCH   1  16
TORSDOF 10
ENDMDL
MODEL 2
REMARK VINA RESULT:    -4.093      2.078      4.046
REMARK INTER + INTRA:          -6.842
REMARK INTER:                  -6.045
REMARK INTRA:                  -0.797
REMARK UNBOUND:                -0.954
REMARK SMILES O=C(CO)[C@H](O)[C@@H](O)[C@@H](O)CO
REMARK SMILES IDX 7 1 9 2 11 3 12 4 10 6 5 8 2 9 1 10 3 11 4 12 6 14 8 16
REMARK H PARENT 12 5 10 7 4 13 6 15 8 17
REMARK Flexibility Score: inf
ROOT
ATOM      1  C   UNL     1      13.152  23.400  -7.151  1.00  0.00     0.181 C 
ENDROOT
BRANCH   1   2
ATOM      2  C   UNL     1      12.820  23.641  -8.652  1.00  0.00     0.171 C 
BRANCH   2   3
ATOM      3  C   UNL     1      11.834  24.812  -8.850  1.00  0.00     0.190 C 
BRANCH   3   4
ATOM      4  O   UNL     1      10.577  24.352  -9.270  1.00  0.00    -0.394 OA
ATOM      5  H   UNL     1      10.068  25.150  -9.569  1.00  0.00     0.210 HD
ENDBRANCH   3   4
ENDBRANCH   2   3
BRANCH   2   6
ATOM      6  O   UNL     1      12.290  22.478  -9.238  1.00  0.00    -0.388 OA
ATOM      7  H   UNL     1      11.381  22.698  -9.573  1.00  0.00     0.211 HD
ENDBRANCH   2   6
ENDBRANCH   1   2
BRANCH   1   8
ATOM      8  C   UNL     1      11.903  23.521  -6.239  1.00  0.00     0.214 C 
BRANCH   8   9
ATOM      9  C   UNL     1      12.307  23.395  -4.785  1.00  0.00     0.189 C 
ATOM     10  O   UNL     1      13.493  23.316  -4.499  1.00  0.00    -0.294 OA
BRANCH   9  11
ATOM     11  C   UNL     1      11.302  23.415  -3.658  1.00  0.00     0.234 C 
BRANCH  11  12
ATOM     12  O   UNL     1      10.277  22.477  -3.848  1.00  0.00    -0.388 OA
ATOM     13  H   UNL     1       9.686  22.533  -3.051  1.00  0.00     0.211 HD
ENDBRANCH  11  12
ENDBRANCH   9  11
ENDBRANCH   8   9
BRANCH   8  14
ATOM     14  O   UNL     1      10.962  22.523  -6.549  1.00  0.00    -0.382 OA
ATOM     15  H   UNL     1      11.337  21.658  -6.239  1.00  0.00     0.211 HD
ENDBRANCH   8  14
ENDBRANCH   1   8
BRANCH   1  16
ATOM     16  O   UNL     1      13.782  22.155  -6.966  1.00  0.00    -0.387 OA
ATOM     17  H   UNL     1      14.507  22.080  -7.641  1.00  0.00     0.211 HD
ENDBRANCH   1  16
TORSDOF 10
ENDMDL
MODEL 3
REMARK VINA RESULT:    -3.815     15.306     16.508
REMARK INTER + INTRA:          -6.442
REMARK INTER:                  -5.768
REMARK INTRA:                  -0.675
REMARK UNBOUND:                -0.954
REMARK SMILES O=C(CO)[C@H](O)[C@@H](O)[C@@H](O)CO
REMARK SMILES IDX 7 1 9 2 11 3 12 4 10 6 5 8 2 9 1 10 3 11 4 12 6 14 8 16
REMARK H PARENT 12 5 10 7 4 13 6 15 8 17
REMARK Flexibility Score: inf
ROOT
ATOM      1  C   UNL     1      10.288   8.801 -14.357  1.00  0.00     0.181 C 
ENDROOT
BRANCH   1   2
ATOM      2  C   UNL     1       8.930   8.052 -14.479  1.00  0.00     0.171 C 
BRANCH   2   3
ATOM      3  C   UNL     1       7.815   8.726 -13.653  1.00  0.00     0.190 C 
BRANCH   3   4
ATOM      4  O   UNL     1       6.906   7.779 -13.158  1.00  0.00    -0.394 OA
ATOM      5  H   UNL     1       7.314   7.394 -12.339  1.00  0.00     0.210 HD
ENDBRANCH   3   4
ENDBRANCH   2   3
BRANCH   2   6
ATOM      6  O   UNL     1       9.064   6.710 -14.080  1.00  0.00    -0.388 OA
ATOM      7  H   UNL     1      10.018   6.559 -13.851  1.00  0.00     0.211 HD
ENDBRANCH   2   6
ENDBRANCH   1   2
BRANCH   1   8
ATOM      8  C   UNL     1      10.560   9.307 -12.915  1.00  0.00     0.214 C 
BRANCH   8   9
ATOM      9  C   UNL     1      11.837  10.120 -12.882  1.00  0.00     0.189 C 
ATOM     10  O   UNL     1      12.455  10.304 -13.921  1.00  0.00    -0.294 OA
BRANCH   9  11
ATOM     11  C   UNL     1      12.356  10.764 -11.619  1.00  0.00     0.234 C 
BRANCH  11  12
ATOM     12  O   UNL     1      13.071   9.859 -10.820  1.00  0.00    -0.388 OA
ATOM     13  H   UNL     1      12.740   9.974  -9.891  1.00  0.00     0.211 HD
ENDBRANCH  11  12
ENDBRANCH   9  11
ENDBRANCH   8   9
BRANCH   8  14
ATOM     14  O   UNL     1      10.673   8.226 -12.022  1.00  0.00    -0.382 OA
ATOM     15  H   UNL     1      11.621   8.182 -11.731  1.00  0.00     0.211 HD
ENDBRANCH   8  14
ENDBRANCH   1   8
BRANCH   1  16
ATOM     16  O   UNL     1      11.352   7.998 -14.809  1.00  0.00    -0.387 OA
ATOM     17  H   UNL     1      12.038   8.598 -15.201  1.00  0.00     0.211 HD
ENDBRANCH   1  16
TORSDOF 10
ENDMDL
MODEL 4
REMARK VINA RESULT:    -3.687      2.124      3.628
REMARK INTER + INTRA:          -6.258
REMARK INTER:                  -6.110
REMARK INTRA:                  -0.148
REMARK UNBOUND:                -0.954
REMARK SMILES O=C(CO)[C@H](O)[C@@H](O)[C@@H](O)CO
REMARK SMILES IDX 7 1 9 2 11 3 12 4 10 6 5 8 2 9 1 10 3 11 4 12 6 14 8 16
REMARK H PARENT 12 5 10 7 4 13 6 15 8 17
REMARK Flexibility Score: inf
ROOT
ATOM      1  C   UNL     1      11.676  23.364  -6.682  1.00  0.00     0.181 C 
ENDROOT
BRANCH   1   2
ATOM      2  C   UNL     1      11.564  23.706  -5.168  1.00  0.00     0.171 C 
BRANCH   2   3
ATOM      3  C   UNL     1      12.947  23.823  -4.493  1.00  0.00     0.190 C 
BRANCH   3   4
ATOM      4  O   UNL     1      13.436  22.564  -4.116  1.00  0.00    -0.394 OA
ATOM      5  H   UNL     1      12.644  21.991  -3.941  1.00  0.00     0.210 HD
ENDBRANCH   3   4
ENDBRANCH   2   3
BRANCH   2   6
ATOM      6  O   UNL     1      10.793  22.741  -4.495  1.00  0.00    -0.388 OA
ATOM      7  H   UNL     1      10.604  22.007  -5.138  1.00  0.00     0.211 HD
ENDBRANCH   2   6
ENDBRANCH   1   2
BRANCH   1   8
ATOM      8  C   UNL     1      13.135  23.442  -7.203  1.00  0.00     0.214 C 
BRANCH   8   9
ATOM      9  C   UNL     1      13.153  23.975  -8.621  1.00  0.00     0.189 C 
ATOM     10  O   UNL     1      14.125  23.752  -9.330  1.00  0.00    -0.294 OA
BRANCH   9  11
ATOM     11  C   UNL     1      11.992  24.730  -9.220  1.00  0.00     0.234 C 
BRANCH  11  12
ATOM     12  O   UNL     1      10.979  23.870  -9.669  1.00  0.00    -0.388 OA
ATOM     13  H   UNL     1      10.928  23.122  -9.017  1.00  0.00     0.211 HD
ENDBRANCH  11  12
ENDBRANCH   9  11
ENDBRANCH   8   9
BRANCH   8  14
ATOM     14  O   UNL     1      13.741  22.173  -7.175  1.00  0.00    -0.382 OA
ATOM     15  H   UNL     1      13.228  21.616  -6.533  1.00  0.00     0.211 HD
ENDBRANCH   8  14
ENDBRANCH   1   8
BRANCH   1  16
ATOM     16  O   UNL     1      11.118  22.102  -6.959  1.00  0.00    -0.387 OA
ATOM     17  H   UNL     1      10.347  21.971  -6.346  1.00  0.00     0.211 HD
ENDBRANCH   1  16
TORSDOF 10
ENDMDL
MODEL 5
REMARK VINA RESULT:    -3.664     16.651     17.333
REMARK INTER + INTRA:          -6.224
REMARK INTER:                  -5.515
REMARK INTRA:                  -0.709
REMARK UNBOUND:                -0.954
REMARK SMILES O=C(CO)[C@H](O)[C@@H](O)[C@@H](O)CO
REMARK SMILES IDX 7 1 9 2 11 3 12 4 10 6 5 8 2 9 1 10 3 11 4 12 6 14 8 16
REMARK H PARENT 12 5 10 7 4 13 6 15 8 17
REMARK Flexibility Score: inf
ROOT
ATOM      1  C   UNL     1       8.942   9.154 -14.099  1.00  0.00     0.181 C 
ENDROOT
BRANCH   1   2
ATOM      2  C   UNL     1      10.316   9.592 -13.513  1.00  0.00     0.171 C 
BRANCH   2   3
ATOM      3  C   UNL     1      11.438   9.562 -14.572  1.00  0.00     0.190 C 
BRANCH   3   4
ATOM      4  O   UNL     1      10.918   9.720 -15.866  1.00  0.00    -0.394 OA
ATOM      5  H   UNL     1      10.230  10.433 -15.811  1.00  0.00     0.210 HD
ENDBRANCH   3   4
ENDBRANCH   2   3
BRANCH   2   6
ATOM      6  O   UNL     1      10.676   8.776 -12.425  1.00  0.00    -0.388 OA
ATOM      7  H   UNL     1      10.070   8.999 -11.670  1.00  0.00     0.211 HD
ENDBRANCH   2   6
ENDBRANCH   1   2
BRANCH   1   8
ATOM      8  C   UNL     1       8.517   7.739 -13.625  1.00  0.00     0.214 C 
BRANCH   8   9
ATOM      9  C   UNL     1       8.905   6.706 -14.661  1.00  0.00     0.189 C 
ATOM     10  O   UNL     1       9.360   7.077 -15.734  1.00  0.00    -0.294 OA
BRANCH   9  11
ATOM     11  C   UNL     1       8.805   5.222 -14.404  1.00  0.00     0.234 C 
BRANCH  11  12
ATOM     12  O   UNL     1       7.602   4.875 -13.772  1.00  0.00    -0.388 OA
ATOM     13  H   UNL     1       7.422   5.579 -13.094  1.00  0.00     0.211 HD
ENDBRANCH  11  12
ENDBRANCH   9  11
ENDBRANCH   8   9
BRANCH   8  14
ATOM     14  O   UNL     1       7.128   7.684 -13.409  1.00  0.00    -0.382 OA
ATOM     15  H   UNL     1       6.777   6.927 -13.948  1.00  0.00     0.211 HD
ENDBRANCH   8  14
ENDBRANCH   1   8
BRANCH   1  16
ATOM     16  O   UNL     1       7.942  10.098 -13.800  1.00  0.00    -0.387 OA
ATOM     17  H   UNL     1       8.389  10.967 -13.624  1.00  0.00     0.211 HD
ENDBRANCH   1  16
TORSDOF 10
ENDMDL
MODEL 6
REMARK VINA RESULT:    -3.643     17.296     18.255
REMARK INTER + INTRA:          -6.195
REMARK INTER:                  -4.741
REMARK INTRA:                  -1.453
REMARK UNBOUND:                -0.954
REMARK SMILES O=C(CO)[C@H](O)[C@@H](O)[C@@H](O)CO
REMARK SMILES IDX 7 1 9 2 11 3 12 4 10 6 5 8 2 9 1 10 3 11 4 12 6 14 8 16
REMARK H PARENT 12 5 10 7 4 13 6 15 8 17
REMARK Flexibility Score: inf
ROOT
ATOM      1  C   UNL     1       9.101   6.927 -13.800  1.00  0.00     0.181 C 
ENDROOT
BRANCH   1   2
ATOM      2  C   UNL     1       8.003   8.010 -14.002  1.00  0.00     0.171 C 
BRANCH   2   3
ATOM      3  C   UNL     1       8.569   9.441 -13.896  1.00  0.00     0.190 C 
BRANCH   3   4
ATOM      4  O   UNL     1       9.593   9.653 -14.831  1.00  0.00    -0.394 OA
ATOM      5  H   UNL     1      10.402   9.203 -14.474  1.00  0.00     0.210 HD
ENDBRANCH   3   4
ENDBRANCH   2   3
BRANCH   2   6
ATOM      6  O   UNL     1       6.963   7.846 -13.068  1.00  0.00    -0.388 OA
ATOM      7  H   UNL     1       6.252   7.307 -13.504  1.00  0.00     0.211 HD
ENDBRANCH   2   6
ENDBRANCH   1   2
BRANCH   1   8
ATOM      8  C   UNL     1       9.452   6.183 -15.115  1.00  0.00     0.214 C 
BRANCH   8   9
ATOM      9  C   UNL     1      10.941   5.920 -15.183  1.00  0.00     0.189 C 
ATOM     10  O   UNL     1      11.415   4.998 -14.533  1.00  0.00    -0.294 OA
BRANCH   9  11
ATOM     11  C   UNL     1      11.867   6.719 -16.067  1.00  0.00     0.234 C 
BRANCH  11  12
ATOM     12  O   UNL     1      11.837   8.088 -15.763  1.00  0.00    -0.388 OA
ATOM     13  H   UNL     1      12.562   8.515 -16.292  1.00  0.00     0.211 HD
ENDBRANCH  11  12
ENDBRANCH   9  11
ENDBRANCH   8   9
BRANCH   8  14
ATOM     14  O   UNL     1       9.061   6.941 -16.234  1.00  0.00    -0.382 OA
ATOM     15  H   UNL     1       9.449   7.849 -16.124  1.00  0.00     0.211 HD
ENDBRANCH   8  14
ENDBRANCH   1   8
BRANCH   1  16
ATOM     16  O   UNL     1      10.258   7.481 -13.220  1.00  0.00    -0.387 OA
ATOM     17  H   UNL     1      10.418   8.362 -13.649  1.00  0.00     0.211 HD
ENDBRANCH   1  16
TORSDOF 10
ENDMDL
MODEL 7
REMARK VINA RESULT:    -3.560      1.186      4.391
REMARK INTER + INTRA:          -6.076
REMARK INTER:                  -5.603
REMARK INTRA:                  -0.473
REMARK UNBOUND:                -0.954
REMARK SMILES O=C(CO)[C@H](O)[C@@H](O)[C@@H](O)CO
REMARK SMILES IDX 7 1 9 2 11 3 12 4 10 6 5 8 2 9 1 10 3 11 4 12 6 14 8 16
REMARK H PARENT 12 5 10 7 4 13 6 15 8 17
REMARK Flexibility Score: inf
ROOT
ATOM      1  C   UNL     1      10.552  23.464  -7.054  1.00  0.00     0.181 C 
ENDROOT
BRANCH   1   2
ATOM      2  C   UNL     1       9.881  24.592  -7.890  1.00  0.00     0.171 C 
BRANCH   2   3
ATOM      3  C   UNL     1       8.347  24.609  -7.723  1.00  0.00     0.190 C 
BRANCH   3   4
ATOM      4  O   UNL     1       7.747  23.565  -8.441  1.00  0.00    -0.394 OA
ATOM      5  H   UNL     1       6.970  23.957  -8.919  1.00  0.00     0.210 HD
ENDBRANCH   3   4
ENDBRANCH   2   3
BRANCH   2   6
ATOM      6  O   UNL     1      10.203  24.461  -9.253  1.00  0.00    -0.388 OA
ATOM      7  H   UNL     1      10.912  25.125  -9.458  1.00  0.00     0.211 HD
ENDBRANCH   2   6
ENDBRANCH   1   2
BRANCH   1   8
ATOM      8  C   UNL     1      11.803  23.960  -6.282  1.00  0.00     0.214 C 
BRANCH   8   9
ATOM      9  C   UNL     1      12.983  24.076  -7.223  1.00  0.00     0.189 C 
ATOM     10  O   UNL     1      13.610  25.125  -7.268  1.00  0.00    -0.294 OA
BRANCH   9  11
ATOM     11  C   UNL     1      13.456  22.925  -8.077  1.00  0.00     0.234 C 
BRANCH  11  12
ATOM     12  O   UNL     1      12.668  22.761  -9.226  1.00  0.00    -0.388 OA
ATOM     13  H   UNL     1      12.430  21.798  -9.275  1.00  0.00     0.211 HD
ENDBRANCH  11  12
ENDBRANCH   9  11
ENDBRANCH   8   9
BRANCH   8  14
ATOM     14  O   UNL     1      12.126  23.075  -5.237  1.00  0.00    -0.382 OA
ATOM     15  H   UNL     1      12.879  22.510  -5.552  1.00  0.00     0.211 HD
ENDBRANCH   8  14
ENDBRANCH   1   8
BRANCH   1  16
ATOM     16  O   UNL     1       9.628  22.871  -6.172  1.00  0.00    -0.387 OA
ATOM     17  H   UNL     1      10.129  22.250  -5.582  1.00  0.00     0.211 HD
ENDBRANCH   1  16
TORSDOF 10
ENDMDL
MODEL 8
REMARK VINA RESULT:    -3.541     17.085     17.822
REMARK INTER + INTRA:          -6.048
REMARK INTER:                  -4.799
REMARK INTRA:                  -1.249
REMARK UNBOUND:                -0.954
REMARK SMILES O=C(CO)[C@H](O)[C@@H](O)[C@@H](O)CO
REMARK SMILES IDX 7 1 9 2 11 3 12 4 10 6 5 8 2 9 1 10 3 11 4 12 6 14 8 16
REMARK H PARENT 12 5 10 7 4 13 6 15 8 17
REMARK Flexibility Score: inf
ROOT
ATOM      1  C   UNL     1      10.455   7.279 -15.002  1.00  0.00     0.181 C 
ENDROOT
BRANCH   1   2
ATOM      2  C   UNL     1       9.429   6.387 -15.761  1.00  0.00     0.171 C 
BRANCH   2   3
ATOM      3  C   UNL     1       8.986   5.168 -14.925  1.00  0.00     0.190 C 
BRANCH   3   4
ATOM      4  O   UNL     1       8.011   5.527 -13.983  1.00  0.00    -0.394 OA
ATOM      5  H   UNL     1       8.112   4.904 -13.217  1.00  0.00     0.210 HD
ENDBRANCH   3   4
ENDBRANCH   2   3
BRANCH   2   6
ATOM      6  O   UNL     1       9.962   5.947 -16.986  1.00  0.00    -0.388 OA
ATOM      7  H   UNL     1      10.159   6.753 -17.533  1.00  0.00     0.211 HD
ENDBRANCH   2   6
ENDBRANCH   1   2
BRANCH   1   8
ATOM      8  C   UNL     1      10.215   8.793 -15.239  1.00  0.00     0.214 C 
BRANCH   8   9
ATOM      9  C   UNL     1       9.616   9.425 -14.000  1.00  0.00     0.189 C 
ATOM     10  O   UNL     1      10.360   9.895 -13.151  1.00  0.00    -0.294 OA
BRANCH   9  11
ATOM     11  C   UNL     1       8.126   9.549 -13.791  1.00  0.00     0.234 C 
BRANCH  11  12
ATOM     12  O   UNL     1       7.583   8.410 -13.177  1.00  0.00    -0.388 OA
ATOM     13  H   UNL     1       8.248   7.681 -13.287  1.00  0.00     0.211 HD
ENDBRANCH  11  12
ENDBRANCH   9  11
ENDBRANCH   8   9
BRANCH   8  14
ATOM     14  O   UNL     1       9.349   8.995 -16.329  1.00  0.00    -0.382 OA
ATOM     15  H   UNL     1       9.802   8.634 -17.136  1.00  0.00     0.211 HD
ENDBRANCH   8  14
ENDBRANCH   1   8
BRANCH   1  16
ATOM     16  O   UNL     1      10.457   6.986 -13.625  1.00  0.00    -0.387 OA
ATOM     17  H   UNL     1       9.779   6.280 -13.465  1.00  0.00     0.211 HD
ENDBRANCH   1  16
TORSDOF 10
ENDMDL
MODEL 9
REMARK VINA RESULT:    -3.393      2.420      3.908
REMARK INTER + INTRA:          -5.835
REMARK INTER:                  -4.736
REMARK INTRA:                  -1.098
REMARK UNBOUND:                -0.954
REMARK SMILES O=C(CO)[C@H](O)[C@@H](O)[C@@H](O)CO
REMARK SMILES IDX 7 1 9 2 11 3 12 4 10 6 5 8 2 9 1 10 3 11 4 12 6 14 8 16
REMARK H PARENT 12 5 10 7 4 13 6 15 8 17
REMARK Flexibility Score: inf
ROOT
ATOM      1  C   UNL     1      11.390  23.682  -5.407  1.00  0.00     0.181 C 
ENDROOT
BRANCH   1   2
ATOM      2  C   UNL     1      12.093  23.249  -4.087  1.00  0.00     0.171 C 
BRANCH   2   3
ATOM      3  C   UNL     1      11.082  22.912  -2.972  1.00  0.00     0.190 C 
BRANCH   3   4
ATOM      4  O   UNL     1      10.012  22.153  -3.469  1.00  0.00    -0.394 OA
ATOM      5  H   UNL     1       9.686  22.620  -4.281  1.00  0.00     0.210 HD
ENDBRANCH   3   4
ENDBRANCH   2   3
BRANCH   2   6
ATOM      6  O   UNL     1      12.971  24.253  -3.638  1.00  0.00    -0.388 OA
ATOM      7  H   UNL     1      13.873  24.043  -3.997  1.00  0.00     0.211 HD
ENDBRANCH   2   6
ENDBRANCH   1   2
BRANCH   1   8
ATOM      8  C   UNL     1      12.316  24.522  -6.325  1.00  0.00     0.214 C 
BRANCH   8   9
ATOM      9  C   UNL     1      11.763  24.551  -7.735  1.00  0.00     0.189 C 
ATOM     10  O   UNL     1      10.704  25.125  -7.949  1.00  0.00    -0.294 OA
BRANCH   9  11
ATOM     11  C   UNL     1      12.495  23.944  -8.907  1.00  0.00     0.234 C 
BRANCH  11  12
ATOM     12  O   UNL     1      12.499  22.541  -8.856  1.00  0.00    -0.388 OA
ATOM     13  H   UNL     1      12.800  22.224  -9.749  1.00  0.00     0.211 HD
ENDBRANCH  11  12
ENDBRANCH   9  11
ENDBRANCH   8   9
BRANCH   8  14
ATOM     14  O   UNL     1      13.616  23.985  -6.346  1.00  0.00    -0.382 OA
ATOM     15  H   UNL     1      13.664  23.302  -5.628  1.00  0.00     0.211 HD
ENDBRANCH   8  14
ENDBRANCH   1   8
BRANCH   1  16
ATOM     16  O   UNL     1      10.885  22.566  -6.100  1.00  0.00    -0.387 OA
ATOM     17  H   UNL     1      11.134  22.665  -7.056  1.00  0.00     0.211 HD
ENDBRANCH   1  16
TORSDOF 10
ENDMDL
