MODEL 1
REMARK VINA RESULT:    -5.345      0.000      0.000
REMARK INTER + INTRA:         -11.647
REMARK INTER:                  -8.782
REMARK INTRA:                  -2.865
REMARK UNBOUND:                -2.865
REMARK SMILES C[C@@H]1O[C@H](OC[C@@H]2O[C@@H](Oc3c(-c4ccc(O)c(O)c4)oc4cc(O)cc(O)c4c3=O)[C@@H](O)[C@H](O)[C@H]2O)[C@@H](O)[C@H](O)[C@H]1O
REMARK SMILES IDX 7 1 36 2 34 3 32 4 9 5 8 6 6 7 5 8 4 9 1 10 2 11 42 12 3 13
REMARK SMILES IDX 40 14 38 15 43 16 41 18 39 20 37 22 35 24 10 26 11 27 12 28
REMARK SMILES IDX 30 29 21 30 29 31 31 32 22 33 27 34 23 35 26 36 24 37 13 38
REMARK SMILES IDX 20 39 14 40 18 41 15 42 16 43 19 44 17 46 28 48 25 50 33 52
REMARK H PARENT 43 17 41 19 39 21 37 23 35 25 19 45 17 47 28 49 25 51 33 53
REMARK Flexibility Score: inf
ROOT
ATOM      1  C   UNL     1      22.019 -45.259 203.628  1.00  0.00     0.180 C 
ATOM      2  C   UNL     1      21.115 -45.183 204.885  1.00  0.00     0.177 C 
ATOM      3  C   UNL     1      20.861 -46.595 205.441  1.00  0.00     0.180 C 
ATOM      4  C   UNL     1      20.380 -47.523 204.319  1.00  0.00     0.214 C 
ATOM      5  C   UNL     1      21.350 -47.456 203.126  1.00  0.00     0.339 C 
ATOM      6  O   UNL     1      21.463 -46.125 202.651  1.00  0.00    -0.332 OA
ENDROOT
BRANCH   1   7
ATOM      7  C   UNL     1      22.185 -43.877 202.981  1.00  0.00     0.198 C 
BRANCH   7   8
ATOM      8  O   UNL     1      21.747 -43.915 201.633  1.00  0.00    -0.347 OA
BRANCH   8   9
ATOM      9  C   UNL     1      22.794 -43.626 200.718  1.00  0.00     0.281 C 
ATOM     10  C   UNL     1      26.022 -43.601 201.669  1.00  0.00     0.041 C 
ATOM     11  C   UNL     1      25.080 -42.830 200.735  1.00  0.00     0.150 C 
ATOM     12  C   UNL     1      25.168 -43.328 199.262  1.00  0.00     0.174 C 
ATOM     13  O   UNL     1      23.774 -42.770 201.303  1.00  0.00    -0.344 OA
ATOM     14  C   UNL     1      24.361 -44.625 198.987  1.00  0.00     0.179 C 
ATOM     15  C   UNL     1      23.358 -44.934 200.116  1.00  0.00     0.202 C 
BRANCH  12  16
ATOM     16  O   UNL     1      24.786 -42.307 198.370  1.00  0.00    -0.388 OA
ATOM     17  H   UNL     1      25.411 -41.547 198.484  1.00  0.00     0.211 HD
ENDBRANCH  12  16
BRANCH  14  18
ATOM     18  O   UNL     1      25.245 -45.706 198.833  1.00  0.00    -0.387 OA
ATOM     19  H   UNL     1      25.881 -45.459 198.110  1.00  0.00     0.211 HD
ENDBRANCH  14  18
BRANCH  15  20
ATOM     20  O   UNL     1      22.324 -45.760 199.645  1.00  0.00    -0.385 OA
ATOM     21  H   UNL     1      21.734 -45.981 200.411  1.00  0.00     0.211 HD
ENDBRANCH  15  20
ENDBRANCH   8   9
ENDBRANCH   7   8
ENDBRANCH   1   7
BRANCH   2  22
ATOM     22  O   UNL     1      21.742 -44.397 205.866  1.00  0.00    -0.387 OA
ATOM     23  H   UNL     1      22.716 -44.430 205.686  1.00  0.00     0.211 HD
ENDBRANCH   2  22
BRANCH   3  24
ATOM     24  O   UNL     1      19.880 -46.547 206.445  1.00  0.00    -0.387 OA
ATOM     25  H   UNL     1      20.065 -47.295 207.072  1.00  0.00     0.211 HD
ENDBRANCH   3  24
BRANCH   5  26
ATOM     26  O   UNL     1      22.621 -48.003 203.494  1.00  0.00    -0.454 OA
BRANCH  26  27
ATOM     27  C   UNL     1      23.809 -48.023 202.735  1.00  0.00     0.214 A 
ATOM     28  C   UNL     1      24.958 -47.440 203.303  1.00  0.00     0.180 A 
ATOM     29  C   UNL     1      23.925 -48.627 201.461  1.00  0.00     0.239 A 
ATOM     30  O   UNL     1      26.125 -47.514 202.677  1.00  0.00    -0.452 OA
ATOM     31  C   UNL     1      25.170 -48.613 200.787  1.00  0.00     0.111 A 
ATOM     32  O   UNL     1      22.935 -49.216 200.955  1.00  0.00    -0.285 OA
ATOM     33  C   UNL     1      26.279 -48.072 201.486  1.00  0.00     0.146 A 
ATOM     34  C   UNL     1      25.386 -49.147 199.480  1.00  0.00     0.134 A 
ATOM     35  C   UNL     1      27.561 -48.126 200.937  1.00  0.00     0.094 A 
ATOM     36  C   UNL     1      26.687 -49.220 198.970  1.00  0.00     0.093 A 
ATOM     37  C   UNL     1      27.771 -48.715 199.690  1.00  0.00     0.123 A 
BRANCH  28  38
ATOM     38  C   UNL     1      24.916 -46.766 204.620  1.00  0.00     0.025 A 
ATOM     39  C   UNL     1      24.472 -47.445 205.768  1.00  0.00     0.062 A 
ATOM     40  C   UNL     1      25.289 -45.417 204.723  1.00  0.00     0.016 A 
ATOM     41  C   UNL     1      24.442 -46.800 207.009  1.00  0.00     0.158 A 
ATOM     42  C   UNL     1      25.258 -44.770 205.960  1.00  0.00     0.051 A 
ATOM     43  C   UNL     1      24.838 -45.456 207.107  1.00  0.00     0.157 A 
BRANCH  41  44
ATOM     44  O   UNL     1      24.014 -47.509 208.130  1.00  0.00    -0.504 OA
ATOM     45  H   UNL     1      23.854 -48.509 208.104  1.00  0.00     0.293 HD
ENDBRANCH  41  44
BRANCH  43  46
ATOM     46  O   UNL     1      24.808 -44.806 208.340  1.00  0.00    -0.504 OA
ATOM     47  H   UNL     1      24.112 -44.099 208.550  1.00  0.00     0.293 HD
ENDBRANCH  43  46
ENDBRANCH  28  38
BRANCH  34  48
ATOM     48  O   UNL     1      24.358 -49.586 198.637  1.00  0.00    -0.507 OA
ATOM     49  H   UNL     1      24.501 -50.122 197.795  1.00  0.00     0.293 HD
ENDBRANCH  34  48
BRANCH  37  50
ATOM     50  O   UNL     1      29.053 -48.797 199.151  1.00  0.00    -0.508 OA
ATOM     51  H   UNL     1      29.288 -49.489 198.449  1.00  0.00     0.293 HD
ENDBRANCH  37  50
ENDBRANCH  26  27
ENDBRANCH   5  26
BRANCH   4  52
ATOM     52  O   UNL     1      20.297 -48.839 204.804  1.00  0.00    -0.384 OA
ATOM     53  H   UNL     1      21.185 -49.059 205.189  1.00  0.00     0.211 HD
ENDBRANCH   4  52
TORSDOF 16
ENDMDL
MODEL 2
REMARK VINA RESULT:    -5.179     11.896     14.885
REMARK INTER + INTRA:         -11.375
REMARK INTER:                  -9.276
REMARK INTRA:                  -2.099
REMARK UNBOUND:                -2.865
REMARK SMILES C[C@@H]1O[C@H](OC[C@@H]2O[C@@H](Oc3c(-c4ccc(O)c(O)c4)oc4cc(O)cc(O)c4c3=O)[C@@H](O)[C@H](O)[C@H]2O)[C@@H](O)[C@H](O)[C@H]1O
REMARK SMILES IDX 7 1 36 2 34 3 32 4 9 5 8 6 6 7 5 8 4 9 1 10 2 11 42 12 3 13
REMARK SMILES IDX 40 14 38 15 43 16 41 18 39 20 37 22 35 24 10 26 11 27 12 28
REMARK SMILES IDX 30 29 21 30 29 31 31 32 22 33 27 34 23 35 26 36 24 37 13 38
REMARK SMILES IDX 20 39 14 40 18 41 15 42 16 43 19 44 17 46 28 48 25 50 33 52
REMARK H PARENT 43 17 41 19 39 21 37 23 35 25 19 45 17 47 28 49 25 51 33 53
REMARK Flexibility Score: inf
ROOT
ATOM      1  C   UNL     1      39.093 -46.792 205.294  1.00  0.00     0.180 C 
ATOM      2  C   UNL     1      39.374 -46.838 206.817  1.00  0.00     0.177 C 
ATOM      3  C   UNL     1      39.189 -45.439 207.433  1.00  0.00     0.180 C 
ATOM      4  C   UNL     1      39.985 -44.403 206.631  1.00  0.00     0.214 C 
ATOM      5  C   UNL     1      39.636 -44.509 205.136  1.00  0.00     0.339 C 
ATOM      6  O   UNL     1      39.902 -45.816 204.655  1.00  0.00    -0.332 OA
ENDROOT
BRANCH   1   7
ATOM      7  C   UNL     1      39.391 -48.145 204.634  1.00  0.00     0.198 C 
BRANCH   7   8
ATOM      8  O   UNL     1      39.533 -47.982 203.233  1.00  0.00    -0.347 OA
BRANCH   8   9
ATOM      9  C   UNL     1      38.691 -48.860 202.501  1.00  0.00     0.281 C 
ATOM     10  C   UNL     1      36.140 -50.498 203.963  1.00  0.00     0.041 C 
ATOM     11  C   UNL     1      37.212 -50.737 202.891  1.00  0.00     0.150 C 
ATOM     12  C   UNL     1      36.673 -50.494 201.450  1.00  0.00     0.174 C 
ATOM     13  O   UNL     1      38.410 -50.048 203.240  1.00  0.00    -0.344 OA
ATOM     14  C   UNL     1      36.616 -48.998 201.043  1.00  0.00     0.179 C 
ATOM     15  C   UNL     1      37.440 -48.107 201.993  1.00  0.00     0.202 C 
BRANCH  12  16
ATOM     16  O   UNL     1      37.418 -51.235 200.512  1.00  0.00    -0.388 OA
ATOM     17  H   UNL     1      37.660 -52.103 200.925  1.00  0.00     0.211 HD
ENDBRANCH  12  16
BRANCH  14  18
ATOM     18  O   UNL     1      35.280 -48.564 201.030  1.00  0.00    -0.387 OA
ATOM     19  H   UNL     1      34.713 -49.369 201.173  1.00  0.00     0.211 HD
ENDBRANCH  14  18
BRANCH  15  20
ATOM     20  O   UNL     1      37.797 -46.906 201.358  1.00  0.00    -0.385 OA
ATOM     21  H   UNL     1      37.423 -46.155 201.887  1.00  0.00     0.211 HD
ENDBRANCH  15  20
ENDBRANCH   8   9
ENDBRANCH   7   8
ENDBRANCH   1   7
BRANCH   2  22
ATOM     22  O   UNL     1      38.489 -47.741 207.430  1.00  0.00    -0.387 OA
ATOM     23  H   UNL     1      37.644 -47.252 207.598  1.00  0.00     0.211 HD
ENDBRANCH   2  22
BRANCH   3  24
ATOM     24  O   UNL     1      39.644 -45.436 208.762  1.00  0.00    -0.387 OA
ATOM     25  H   UNL     1      39.152 -46.153 209.242  1.00  0.00     0.211 HD
ENDBRANCH   3  24
BRANCH   5  26
ATOM     26  O   UNL     1      38.272 -44.127 204.921  1.00  0.00    -0.454 OA
BRANCH  26  27
ATOM     27  C   UNL     1      37.715 -43.504 203.786  1.00  0.00     0.214 A 
ATOM     28  C   UNL     1      36.739 -42.512 203.998  1.00  0.00     0.180 A 
ATOM     29  C   UNL     1      38.106 -43.786 202.455  1.00  0.00     0.239 A 
ATOM     30  O   UNL     1      36.250 -41.825 202.974  1.00  0.00    -0.452 OA
ATOM     31  C   UNL     1      37.500 -43.089 201.383  1.00  0.00     0.111 A 
ATOM     32  O   UNL     1      39.024 -44.618 202.235  1.00  0.00    -0.285 OA
ATOM     33  C   UNL     1      36.590 -42.054 201.714  1.00  0.00     0.146 A 
ATOM     34  C   UNL     1      37.783 -43.328 200.003  1.00  0.00     0.134 A 
ATOM     35  C   UNL     1      36.038 -41.244 200.719  1.00  0.00     0.094 A 
ATOM     36  C   UNL     1      37.243 -42.479 199.030  1.00  0.00     0.093 A 
ATOM     37  C   UNL     1      36.377 -41.442 199.381  1.00  0.00     0.123 A 
BRANCH  28  38
ATOM     38  C   UNL     1      36.257 -42.175 205.355  1.00  0.00     0.025 A 
ATOM     39  C   UNL     1      35.145 -42.829 205.914  1.00  0.00     0.062 A 
ATOM     40  C   UNL     1      36.893 -41.160 206.088  1.00  0.00     0.016 A 
ATOM     41  C   UNL     1      34.702 -42.506 207.200  1.00  0.00     0.158 A 
ATOM     42  C   UNL     1      36.451 -40.834 207.371  1.00  0.00     0.051 A 
ATOM     43  C   UNL     1      35.358 -41.504 207.935  1.00  0.00     0.157 A 
BRANCH  41  44
ATOM     44  O   UNL     1      33.607 -43.189 207.731  1.00  0.00    -0.504 OA
ATOM     45  H   UNL     1      32.858 -43.538 207.146  1.00  0.00     0.293 HD
ENDBRANCH  41  44
BRANCH  43  46
ATOM     46  O   UNL     1      34.919 -41.175 209.216  1.00  0.00    -0.504 OA
ATOM     47  H   UNL     1      33.938 -41.012 209.416  1.00  0.00     0.293 HD
ENDBRANCH  43  46
ENDBRANCH  28  38
BRANCH  34  48
ATOM     48  O   UNL     1      38.555 -44.399 199.540  1.00  0.00    -0.507 OA
ATOM     49  H   UNL     1      38.782 -45.217 200.086  1.00  0.00     0.293 HD
ENDBRANCH  34  48
BRANCH  37  50
ATOM     50  O   UNL     1      35.853 -40.619 198.388  1.00  0.00    -0.508 OA
ATOM     51  H   UNL     1      36.040 -39.623 198.373  1.00  0.00     0.293 HD
ENDBRANCH  37  50
ENDBRANCH  26  27
ENDBRANCH   5  26
BRANCH   4  52
ATOM     52  O   UNL     1      39.690 -43.115 207.109  1.00  0.00    -0.384 OA
ATOM     53  H   UNL     1      38.705 -43.007 207.052  1.00  0.00     0.211 HD
ENDBRANCH   4  52
TORSDOF 16
ENDMDL
MODEL 3
REMARK VINA RESULT:    -5.096     11.544     14.760
REMARK INTER + INTRA:         -11.238
REMARK INTER:                  -7.827
REMARK INTRA:                  -3.411
REMARK UNBOUND:                -2.865
REMARK SMILES C[C@@H]1O[C@H](OC[C@@H]2O[C@@H](Oc3c(-c4ccc(O)c(O)c4)oc4cc(O)cc(O)c4c3=O)[C@@H](O)[C@H](O)[C@H]2O)[C@@H](O)[C@H](O)[C@H]1O
REMARK SMILES IDX 7 1 36 2 34 3 32 4 9 5 8 6 6 7 5 8 4 9 1 10 2 11 42 12 3 13
REMARK SMILES IDX 40 14 38 15 43 16 41 18 39 20 37 22 35 24 10 26 11 27 12 28
REMARK SMILES IDX 30 29 21 30 29 31 31 32 22 33 27 34 23 35 26 36 24 37 13 38
REMARK SMILES IDX 20 39 14 40 18 41 15 42 16 43 19 44 17 46 28 48 25 50 33 52
REMARK H PARENT 43 17 41 19 39 21 37 23 35 25 19 45 17 47 28 49 25 51 33 53
REMARK Flexibility Score: inf
ROOT
ATOM      1  C   UNL     1      39.030 -44.922 205.816  1.00  0.00     0.180 C 
ATOM      2  C   UNL     1      39.212 -43.392 205.975  1.00  0.00     0.177 C 
ATOM      3  C   UNL     1      38.764 -42.669 204.692  1.00  0.00     0.180 C 
ATOM      4  C   UNL     1      39.436 -43.304 203.469  1.00  0.00     0.214 C 
ATOM      5  C   UNL     1      39.210 -44.827 203.473  1.00  0.00     0.339 C 
ATOM      6  O   UNL     1      39.714 -45.401 204.668  1.00  0.00    -0.332 OA
ENDROOT
BRANCH   1   7
ATOM      7  C   UNL     1      39.584 -45.676 207.033  1.00  0.00     0.198 C 
BRANCH   7   8
ATOM      8  O   UNL     1      38.597 -45.755 208.048  1.00  0.00    -0.347 OA
BRANCH   8   9
ATOM      9  C   UNL     1      37.427 -46.431 207.610  1.00  0.00     0.281 C 
ATOM     10  C   UNL     1      35.910 -48.759 209.508  1.00  0.00     0.041 C 
ATOM     11  C   UNL     1      36.231 -48.493 208.031  1.00  0.00     0.150 C 
ATOM     12  C   UNL     1      35.035 -47.847 207.272  1.00  0.00     0.174 C 
ATOM     13  O   UNL     1      37.484 -47.823 207.920  1.00  0.00    -0.344 OA
ATOM     14  C   UNL     1      34.893 -46.320 207.504  1.00  0.00     0.179 C 
ATOM     15  C   UNL     1      36.162 -45.707 208.126  1.00  0.00     0.202 C 
BRANCH  12  16
ATOM     16  O   UNL     1      35.109 -48.135 205.895  1.00  0.00    -0.388 OA
ATOM     17  H   UNL     1      34.964 -47.291 205.394  1.00  0.00     0.211 HD
ENDBRANCH  12  16
BRANCH  14  18
ATOM     18  O   UNL     1      33.791 -46.071 208.340  1.00  0.00    -0.387 OA
ATOM     19  H   UNL     1      34.059 -45.343 208.962  1.00  0.00     0.211 HD
ENDBRANCH  14  18
BRANCH  15  20
ATOM     20  O   UNL     1      36.227 -44.329 207.862  1.00  0.00    -0.385 OA
ATOM     21  H   UNL     1      35.343 -43.933 208.077  1.00  0.00     0.211 HD
ENDBRANCH  15  20
ENDBRANCH   8   9
ENDBRANCH   7   8
ENDBRANCH   1   7
BRANCH   2  22
ATOM     22  O   UNL     1      38.443 -42.939 207.061  1.00  0.00    -0.387 OA
ATOM     23  H   UNL     1      37.770 -43.640 207.253  1.00  0.00     0.211 HD
ENDBRANCH   2  22
BRANCH   3  24
ATOM     24  O   UNL     1      39.122 -41.312 204.756  1.00  0.00    -0.387 OA
ATOM     25  H   UNL     1      39.091 -40.957 203.828  1.00  0.00     0.211 HD
ENDBRANCH   3  24
BRANCH   5  26
ATOM     26  O   UNL     1      37.820 -45.118 203.284  1.00  0.00    -0.454 OA
BRANCH  26  27
ATOM     27  C   UNL     1      37.248 -46.242 202.655  1.00  0.00     0.214 A 
ATOM     28  C   UNL     1      36.744 -46.075 201.351  1.00  0.00     0.180 A 
ATOM     29  C   UNL     1      37.189 -47.531 203.236  1.00  0.00     0.239 A 
ATOM     30  O   UNL     1      36.282 -47.117 200.673  1.00  0.00    -0.452 OA
ATOM     31  C   UNL     1      36.612 -48.602 202.512  1.00  0.00     0.111 A 
ATOM     32  O   UNL     1      37.692 -47.730 204.371  1.00  0.00    -0.285 OA
ATOM     33  C   UNL     1      36.210 -48.340 201.177  1.00  0.00     0.146 A 
ATOM     34  C   UNL     1      36.455 -49.928 203.020  1.00  0.00     0.134 A 
ATOM     35  C   UNL     1      35.739 -49.370 200.360  1.00  0.00     0.094 A 
ATOM     36  C   UNL     1      36.014 -50.947 202.168  1.00  0.00     0.093 A 
ATOM     37  C   UNL     1      35.658 -50.675 200.846  1.00  0.00     0.123 A 
BRANCH  28  38
ATOM     38  C   UNL     1      36.746 -44.756 200.681  1.00  0.00     0.025 A 
ATOM     39  C   UNL     1      35.770 -43.789 200.980  1.00  0.00     0.062 A 
ATOM     40  C   UNL     1      37.712 -44.473 199.703  1.00  0.00     0.016 A 
ATOM     41  C   UNL     1      35.785 -42.543 200.345  1.00  0.00     0.158 A 
ATOM     42  C   UNL     1      37.728 -43.231 199.066  1.00  0.00     0.051 A 
ATOM     43  C   UNL     1      36.770 -42.260 199.384  1.00  0.00     0.157 A 
BRANCH  41  44
ATOM     44  O   UNL     1      34.814 -41.600 200.680  1.00  0.00    -0.504 OA
ATOM     45  H   UNL     1      34.831 -41.102 201.562  1.00  0.00     0.293 HD
ENDBRANCH  41  44
BRANCH  43  46
ATOM     46  O   UNL     1      36.788 -41.022 198.744  1.00  0.00    -0.504 OA
ATOM     47  H   UNL     1      36.804 -40.946 197.733  1.00  0.00     0.293 HD
ENDBRANCH  43  46
ENDBRANCH  28  38
BRANCH  34  48
ATOM     48  O   UNL     1      36.687 -50.284 204.353  1.00  0.00    -0.507 OA
ATOM     49  H   UNL     1      35.963 -50.404 205.046  1.00  0.00     0.293 HD
ENDBRANCH  34  48
BRANCH  37  50
ATOM     50  O   UNL     1      35.217 -51.710 200.026  1.00  0.00    -0.508 OA
ATOM     51  H   UNL     1      34.229 -51.903 199.903  1.00  0.00     0.293 HD
ENDBRANCH  37  50
ENDBRANCH  26  27
ENDBRANCH   5  26
BRANCH   4  52
ATOM     52  O   UNL     1      38.907 -42.738 202.298  1.00  0.00    -0.384 OA
ATOM     53  H   UNL     1      39.185 -41.785 202.290  1.00  0.00     0.211 HD
ENDBRANCH   4  52
TORSDOF 16
ENDMDL
MODEL 4
REMARK VINA RESULT:    -5.093     12.092     14.967
REMARK INTER + INTRA:         -11.233
REMARK INTER:                  -7.995
REMARK INTRA:                  -3.238
REMARK UNBOUND:                -2.865
REMARK SMILES C[C@@H]1O[C@H](OC[C@@H]2O[C@@H](Oc3c(-c4ccc(O)c(O)c4)oc4cc(O)cc(O)c4c3=O)[C@@H](O)[C@H](O)[C@H]2O)[C@@H](O)[C@H](O)[C@H]1O
REMARK SMILES IDX 7 1 36 2 34 3 32 4 9 5 8 6 6 7 5 8 4 9 1 10 2 11 42 12 3 13
REMARK SMILES IDX 40 14 38 15 43 16 41 18 39 20 37 22 35 24 10 26 11 27 12 28
REMARK SMILES IDX 30 29 21 30 29 31 31 32 22 33 27 34 23 35 26 36 24 37 13 38
REMARK SMILES IDX 20 39 14 40 18 41 15 42 16 43 19 44 17 46 28 48 25 50 33 52
REMARK H PARENT 43 17 41 19 39 21 37 23 35 25 19 45 17 47 28 49 25 51 33 53
REMARK Flexibility Score: inf
ROOT
ATOM      1  C   UNL     1      36.660 -46.698 202.084  1.00  0.00     0.180 C 
ATOM      2  C   UNL     1      36.450 -48.188 201.715  1.00  0.00     0.177 C 
ATOM      3  C   UNL     1      36.189 -48.328 200.205  1.00  0.00     0.180 C 
ATOM      4  C   UNL     1      35.079 -47.363 199.772  1.00  0.00     0.214 C 
ATOM      5  C   UNL     1      35.404 -45.936 200.248  1.00  0.00     0.339 C 
ATOM      6  O   UNL     1      35.562 -45.906 201.657  1.00  0.00    -0.332 OA
ENDROOT
BRANCH   1   7
ATOM      7  C   UNL     1      36.799 -46.517 203.602  1.00  0.00     0.198 C 
BRANCH   7   8
ATOM      8  O   UNL     1      37.978 -47.155 204.063  1.00  0.00    -0.347 OA
BRANCH   8   9
ATOM      9  C   UNL     1      38.557 -46.481 205.171  1.00  0.00     0.281 C 
ATOM     10  C   UNL     1      36.875 -46.042 208.053  1.00  0.00     0.041 C 
ATOM     11  C   UNL     1      37.865 -45.283 207.158  1.00  0.00     0.150 C 
ATOM     12  C   UNL     1      39.336 -45.428 207.646  1.00  0.00     0.174 C 
ATOM     13  O   UNL     1      37.621 -45.599 205.789  1.00  0.00    -0.344 OA
ATOM     14  C   UNL     1      40.007 -46.766 207.236  1.00  0.00     0.179 C 
ATOM     15  C   UNL     1      39.217 -47.496 206.133  1.00  0.00     0.202 C 
BRANCH  12  16
ATOM     16  O   UNL     1      40.110 -44.332 207.217  1.00  0.00    -0.388 OA
ATOM     17  H   UNL     1      41.046 -44.640 207.103  1.00  0.00     0.211 HD
ENDBRANCH  12  16
BRANCH  14  18
ATOM     18  O   UNL     1      40.125 -47.598 208.361  1.00  0.00    -0.387 OA
ATOM     19  H   UNL     1      39.364 -47.379 208.964  1.00  0.00     0.211 HD
ENDBRANCH  14  18
BRANCH  15  20
ATOM     20  O   UNL     1      40.051 -48.385 205.434  1.00  0.00    -0.385 OA
ATOM     21  H   UNL     1      39.474 -49.011 204.925  1.00  0.00     0.211 HD
ENDBRANCH  15  20
ENDBRANCH   8   9
ENDBRANCH   7   8
ENDBRANCH   1   7
BRANCH   2  22
ATOM     22  O   UNL     1      37.596 -48.923 202.064  1.00  0.00    -0.387 OA
ATOM     23  H   UNL     1      38.121 -48.363 202.690  1.00  0.00     0.211 HD
ENDBRANCH   2  22
BRANCH   3  24
ATOM     24  O   UNL     1      35.793 -49.643 199.906  1.00  0.00    -0.387 OA
ATOM     25  H   UNL     1      36.260 -49.906 199.069  1.00  0.00     0.211 HD
ENDBRANCH   3  24
BRANCH   5  26
ATOM     26  O   UNL     1      36.564 -45.443 199.569  1.00  0.00    -0.454 OA
BRANCH  26  27
ATOM     27  C   UNL     1      36.679 -44.279 198.782  1.00  0.00     0.214 A 
ATOM     28  C   UNL     1      37.272 -43.147 199.371  1.00  0.00     0.180 A 
ATOM     29  C   UNL     1      36.273 -44.194 197.429  1.00  0.00     0.239 A 
ATOM     30  O   UNL     1      37.494 -42.055 198.651  1.00  0.00    -0.452 OA
ATOM     31  C   UNL     1      36.450 -42.984 196.717  1.00  0.00     0.111 A 
ATOM     32  O   UNL     1      35.802 -45.208 196.852  1.00  0.00    -0.285 OA
ATOM     33  C   UNL     1      37.133 -41.934 197.383  1.00  0.00     0.146 A 
ATOM     34  C   UNL     1      36.032 -42.773 195.367  1.00  0.00     0.134 A 
ATOM     35  C   UNL     1      37.449 -40.752 196.711  1.00  0.00     0.094 A 
ATOM     36  C   UNL     1      36.394 -41.592 194.708  1.00  0.00     0.093 A 
ATOM     37  C   UNL     1      37.098 -40.586 195.371  1.00  0.00     0.123 A 
BRANCH  28  38
ATOM     38  C   UNL     1      37.702 -43.144 200.787  1.00  0.00     0.025 A 
ATOM     39  C   UNL     1      36.827 -42.738 201.810  1.00  0.00     0.062 A 
ATOM     40  C   UNL     1      39.015 -43.516 201.117  1.00  0.00     0.016 A 
ATOM     41  C   UNL     1      37.243 -42.745 203.146  1.00  0.00     0.158 A 
ATOM     42  C   UNL     1      39.433 -43.522 202.449  1.00  0.00     0.051 A 
ATOM     43  C   UNL     1      38.551 -43.140 203.469  1.00  0.00     0.157 A 
BRANCH  41  44
ATOM     44  O   UNL     1      36.343 -42.355 204.137  1.00  0.00    -0.504 OA
ATOM     45  H   UNL     1      36.598 -41.699 204.865  1.00  0.00     0.293 HD
ENDBRANCH  41  44
BRANCH  43  46
ATOM     46  O   UNL     1      38.973 -43.146 204.797  1.00  0.00    -0.504 OA
ATOM     47  H   UNL     1      38.315 -43.251 205.563  1.00  0.00     0.293 HD
ENDBRANCH  43  46
ENDBRANCH  28  38
BRANCH  34  48
ATOM     48  O   UNL     1      35.238 -43.673 194.648  1.00  0.00    -0.507 OA
ATOM     49  H   UNL     1      35.555 -44.202 193.849  1.00  0.00     0.293 HD
ENDBRANCH  34  48
BRANCH  37  50
ATOM     50  O   UNL     1      37.437 -39.420 194.689  1.00  0.00    -0.508 OA
ATOM     51  H   UNL     1      36.755 -38.690 194.520  1.00  0.00     0.293 HD
ENDBRANCH  37  50
ENDBRANCH  26  27
ENDBRANCH   5  26
BRANCH   4  52
ATOM     52  O   UNL     1      34.954 -47.391 198.373  1.00  0.00    -0.384 OA
ATOM     53  H   UNL     1      33.997 -47.230 198.168  1.00  0.00     0.211 HD
ENDBRANCH   4  52
TORSDOF 16
ENDMDL
MODEL 5
REMARK VINA RESULT:    -5.074     11.769     15.195
REMARK INTER + INTRA:         -11.201
REMARK INTER:                  -7.744
REMARK INTRA:                  -3.457
REMARK UNBOUND:                -2.865
REMARK SMILES C[C@@H]1O[C@H](OC[C@@H]2O[C@@H](Oc3c(-c4ccc(O)c(O)c4)oc4cc(O)cc(O)c4c3=O)[C@@H](O)[C@H](O)[C@H]2O)[C@@H](O)[C@H](O)[C@H]1O
REMARK SMILES IDX 7 1 36 2 34 3 32 4 9 5 8 6 6 7 5 8 4 9 1 10 2 11 42 12 3 13
REMARK SMILES IDX 40 14 38 15 43 16 41 18 39 20 37 22 35 24 10 26 11 27 12 28
REMARK SMILES IDX 30 29 21 30 29 31 31 32 22 33 27 34 23 35 26 36 24 37 13 38
REMARK SMILES IDX 20 39 14 40 18 41 15 42 16 43 19 44 17 46 28 48 25 50 33 52
REMARK H PARENT 43 17 41 19 39 21 37 23 35 25 19 45 17 47 28 49 25 51 33 53
REMARK Flexibility Score: inf
ROOT
ATOM      1  C   UNL     1      38.590 -45.584 204.362  1.00  0.00     0.180 C 
ATOM      2  C   UNL     1      39.054 -45.969 205.789  1.00  0.00     0.177 C 
ATOM      3  C   UNL     1      38.799 -44.803 206.762  1.00  0.00     0.180 C 
ATOM      4  C   UNL     1      39.382 -43.506 206.190  1.00  0.00     0.214 C 
ATOM      5  C   UNL     1      38.870 -43.283 204.755  1.00  0.00     0.339 C 
ATOM      6  O   UNL     1      39.211 -44.384 203.929  1.00  0.00    -0.332 OA
ENDROOT
BRANCH   1   7
ATOM      7  C   UNL     1      38.946 -46.681 203.349  1.00  0.00     0.198 C 
BRANCH   7   8
ATOM      8  O   UNL     1      38.497 -47.941 203.818  1.00  0.00    -0.347 OA
BRANCH   8   9
ATOM      9  C   UNL     1      37.357 -48.405 203.109  1.00  0.00     0.281 C 
ATOM     10  C   UNL     1      37.421 -51.252 201.317  1.00  0.00     0.041 C 
ATOM     11  C   UNL     1      36.816 -49.844 201.239  1.00  0.00     0.150 C 
ATOM     12  C   UNL     1      35.346 -49.801 201.750  1.00  0.00     0.174 C 
ATOM     13  O   UNL     1      37.712 -48.899 201.819  1.00  0.00    -0.344 OA
ATOM     14  C   UNL     1      35.217 -49.759 203.296  1.00  0.00     0.179 C 
ATOM     15  C   UNL     1      36.550 -49.397 203.979  1.00  0.00     0.202 C 
BRANCH  12  16
ATOM     16  O   UNL     1      34.649 -48.726 201.165  1.00  0.00    -0.388 OA
ATOM     17  H   UNL     1      33.907 -49.097 200.622  1.00  0.00     0.211 HD
ENDBRANCH  12  16
BRANCH  14  18
ATOM     18  O   UNL     1      34.771 -51.006 203.766  1.00  0.00    -0.387 OA
ATOM     19  H   UNL     1      33.777 -50.974 203.770  1.00  0.00     0.211 HD
ENDBRANCH  14  18
BRANCH  15  20
ATOM     20  O   UNL     1      36.321 -48.873 205.262  1.00  0.00    -0.385 OA
ATOM     21  H   UNL     1      36.026 -49.616 205.849  1.00  0.00     0.211 HD
ENDBRANCH  15  20
ENDBRANCH   8   9
ENDBRANCH   7   8
ENDBRANCH   1   7
BRANCH   2  22
ATOM     22  O   UNL     1      38.347 -47.104 206.221  1.00  0.00    -0.387 OA
ATOM     23  H   UNL     1      38.742 -47.381 207.086  1.00  0.00     0.211 HD
ENDBRANCH   2  22
BRANCH   3  24
ATOM     24  O   UNL     1      39.406 -45.070 208.000  1.00  0.00    -0.387 OA
ATOM     25  H   UNL     1      40.246 -45.567 207.813  1.00  0.00     0.211 HD
ENDBRANCH   3  24
BRANCH   5  26
ATOM     26  O   UNL     1      37.458 -43.042 204.769  1.00  0.00    -0.454 OA
BRANCH  26  27
ATOM     27  C   UNL     1      36.765 -41.921 204.267  1.00  0.00     0.214 A 
ATOM     28  C   UNL     1      36.159 -42.041 203.002  1.00  0.00     0.180 A 
ATOM     29  C   UNL     1      36.608 -40.705 204.973  1.00  0.00     0.239 A 
ATOM     30  O   UNL     1      35.414 -41.055 202.521  1.00  0.00    -0.452 OA
ATOM     31  C   UNL     1      35.875 -39.644 204.390  1.00  0.00     0.111 A 
ATOM     32  O   UNL     1      37.079 -40.590 206.134  1.00  0.00    -0.285 OA
ATOM     33  C   UNL     1      35.239 -39.901 203.149  1.00  0.00     0.146 A 
ATOM     34  C   UNL     1      35.697 -38.360 204.990  1.00  0.00     0.134 A 
ATOM     35  C   UNL     1      34.403 -38.947 202.566  1.00  0.00     0.094 A 
ATOM     36  C   UNL     1      34.826 -37.437 204.401  1.00  0.00     0.093 A 
ATOM     37  C   UNL     1      34.181 -37.723 203.198  1.00  0.00     0.123 A 
BRANCH  28  38
ATOM     38  C   UNL     1      36.296 -43.269 202.189  1.00  0.00     0.025 A 
ATOM     39  C   UNL     1      37.301 -43.385 201.213  1.00  0.00     0.062 A 
ATOM     40  C   UNL     1      35.387 -44.324 202.364  1.00  0.00     0.016 A 
ATOM     41  C   UNL     1      37.424 -44.553 200.454  1.00  0.00     0.158 A 
ATOM     42  C   UNL     1      35.505 -45.491 201.606  1.00  0.00     0.051 A 
ATOM     43  C   UNL     1      36.523 -45.614 200.651  1.00  0.00     0.157 A 
BRANCH  41  44
ATOM     44  O   UNL     1      38.445 -44.642 199.508  1.00  0.00    -0.504 OA
ATOM     45  H   UNL     1      38.948 -45.505 199.341  1.00  0.00     0.293 HD
ENDBRANCH  41  44
BRANCH  43  46
ATOM     46  O   UNL     1      36.638 -46.779 199.896  1.00  0.00    -0.504 OA
ATOM     47  H   UNL     1      36.186 -47.642 200.178  1.00  0.00     0.293 HD
ENDBRANCH  43  46
ENDBRANCH  28  38
BRANCH  34  48
ATOM     48  O   UNL     1      36.374 -37.937 206.139  1.00  0.00    -0.507 OA
ATOM     49  H   UNL     1      36.855 -38.553 206.778  1.00  0.00     0.293 HD
ENDBRANCH  34  48
BRANCH  37  50
ATOM     50  O   UNL     1      33.325 -36.780 202.634  1.00  0.00    -0.508 OA
ATOM     51  H   UNL     1      32.536 -36.407 203.149  1.00  0.00     0.293 HD
ENDBRANCH  37  50
ENDBRANCH  26  27
ENDBRANCH   5  26
BRANCH   4  52
ATOM     52  O   UNL     1      39.014 -42.427 207.010  1.00  0.00    -0.384 OA
ATOM     53  H   UNL     1      38.258 -42.739 207.572  1.00  0.00     0.211 HD
ENDBRANCH   4  52
TORSDOF 16
ENDMDL
MODEL 6
REMARK VINA RESULT:    -5.069     11.025     14.875
REMARK INTER + INTRA:         -11.193
REMARK INTER:                  -8.885
REMARK INTRA:                  -2.308
REMARK UNBOUND:                -2.865
REMARK SMILES C[C@@H]1O[C@H](OC[C@@H]2O[C@@H](Oc3c(-c4ccc(O)c(O)c4)oc4cc(O)cc(O)c4c3=O)[C@@H](O)[C@H](O)[C@H]2O)[C@@H](O)[C@H](O)[C@H]1O
REMARK SMILES IDX 7 1 36 2 34 3 32 4 9 5 8 6 6 7 5 8 4 9 1 10 2 11 42 12 3 13
REMARK SMILES IDX 40 14 38 15 43 16 41 18 39 20 37 22 35 24 10 26 11 27 12 28
REMARK SMILES IDX 30 29 21 30 29 31 31 32 22 33 27 34 23 35 26 36 24 37 13 38
REMARK SMILES IDX 20 39 14 40 18 41 15 42 16 43 19 44 17 46 28 48 25 50 33 52
REMARK H PARENT 43 17 41 19 39 21 37 23 35 25 19 45 17 47 28 49 25 51 33 53
REMARK Flexibility Score: inf
ROOT
ATOM      1  C   UNL     1      39.015 -44.450 203.972  1.00  0.00     0.180 C 
ATOM      2  C   UNL     1      38.753 -43.164 203.149  1.00  0.00     0.177 C 
ATOM      3  C   UNL     1      38.110 -43.521 201.797  1.00  0.00     0.180 C 
ATOM      4  C   UNL     1      38.929 -44.614 201.099  1.00  0.00     0.214 C 
ATOM      5  C   UNL     1      39.147 -45.802 202.052  1.00  0.00     0.339 C 
ATOM      6  O   UNL     1      39.801 -45.376 203.236  1.00  0.00    -0.332 OA
ENDROOT
BRANCH   1   7
ATOM      7  C   UNL     1      39.769 -44.133 205.271  1.00  0.00     0.198 C 
BRANCH   7   8
ATOM      8  O   UNL     1      40.045 -45.331 205.978  1.00  0.00    -0.347 OA
BRANCH   8   9
ATOM      9  C   UNL     1      38.994 -45.688 206.864  1.00  0.00     0.281 C 
ATOM     10  C   UNL     1      35.775 -45.006 206.160  1.00  0.00     0.041 C 
ATOM     11  C   UNL     1      36.718 -45.037 207.370  1.00  0.00     0.150 C 
ATOM     12  C   UNL     1      36.612 -46.369 208.169  1.00  0.00     0.174 C 
ATOM     13  O   UNL     1      38.029 -44.643 206.974  1.00  0.00    -0.344 OA
ATOM     14  C   UNL     1      37.401 -47.547 207.538  1.00  0.00     0.179 C 
ATOM     15  C   UNL     1      38.410 -47.066 206.476  1.00  0.00     0.202 C 
BRANCH  12  16
ATOM     16  O   UNL     1      36.999 -46.175 209.509  1.00  0.00    -0.388 OA
ATOM     17  H   UNL     1      36.489 -45.405 209.871  1.00  0.00     0.211 HD
ENDBRANCH  12  16
BRANCH  14  18
ATOM     18  O   UNL     1      36.503 -48.457 206.956  1.00  0.00    -0.387 OA
ATOM     19  H   UNL     1      36.949 -48.827 206.147  1.00  0.00     0.211 HD
ENDBRANCH  14  18
BRANCH  15  20
ATOM     20  O   UNL     1      39.429 -48.015 206.298  1.00  0.00    -0.385 OA
ATOM     21  H   UNL     1      39.472 -48.578 207.114  1.00  0.00     0.211 HD
ENDBRANCH  15  20
ENDBRANCH   8   9
ENDBRANCH   7   8
ENDBRANCH   1   7
BRANCH   2  22
ATOM     22  O   UNL     1      37.894 -42.315 203.867  1.00  0.00    -0.387 OA
ATOM     23  H   UNL     1      38.455 -41.805 204.505  1.00  0.00     0.211 HD
ENDBRANCH   2  22
BRANCH   3  24
ATOM     24  O   UNL     1      38.066 -42.386 200.971  1.00  0.00    -0.387 OA
ATOM     25  H   UNL     1      37.432 -42.586 200.232  1.00  0.00     0.211 HD
ENDBRANCH   3  24
BRANCH   5  26
ATOM     26  O   UNL     1      37.898 -46.444 202.332  1.00  0.00    -0.454 OA
BRANCH  26  27
ATOM     27  C   UNL     1      37.552 -47.795 202.128  1.00  0.00     0.214 A 
ATOM     28  C   UNL     1      36.487 -48.072 201.252  1.00  0.00     0.180 A 
ATOM     29  C   UNL     1      38.237 -48.886 202.717  1.00  0.00     0.239 A 
ATOM     30  O   UNL     1      36.179 -49.326 200.947  1.00  0.00    -0.452 OA
ATOM     31  C   UNL     1      37.825 -50.209 202.432  1.00  0.00     0.111 A 
ATOM     32  O   UNL     1      39.236 -48.674 203.451  1.00  0.00    -0.285 OA
ATOM     33  C   UNL     1      36.794 -50.375 201.472  1.00  0.00     0.146 A 
ATOM     34  C   UNL     1      38.410 -51.378 203.008  1.00  0.00     0.134 A 
ATOM     35  C   UNL     1      36.412 -51.650 201.051  1.00  0.00     0.094 A 
ATOM     36  C   UNL     1      38.032 -52.642 202.541  1.00  0.00     0.093 A 
ATOM     37  C   UNL     1      37.041 -52.783 201.569  1.00  0.00     0.123 A 
BRANCH  28  38
ATOM     38  C   UNL     1      35.705 -46.990 200.614  1.00  0.00     0.025 A 
ATOM     39  C   UNL     1      35.024 -46.034 201.389  1.00  0.00     0.062 A 
ATOM     40  C   UNL     1      35.605 -46.934 199.216  1.00  0.00     0.016 A 
ATOM     41  C   UNL     1      34.292 -45.012 200.776  1.00  0.00     0.158 A 
ATOM     42  C   UNL     1      34.873 -45.917 198.600  1.00  0.00     0.051 A 
ATOM     43  C   UNL     1      34.216 -44.950 199.374  1.00  0.00     0.157 A 
BRANCH  41  44
ATOM     44  O   UNL     1      33.646 -44.069 201.574  1.00  0.00    -0.504 OA
ATOM     45  H   UNL     1      33.697 -43.076 201.380  1.00  0.00     0.293 HD
ENDBRANCH  41  44
BRANCH  43  46
ATOM     46  O   UNL     1      33.486 -43.937 198.757  1.00  0.00    -0.504 OA
ATOM     47  H   UNL     1      33.881 -43.378 198.008  1.00  0.00     0.293 HD
ENDBRANCH  43  46
ENDBRANCH  28  38
BRANCH  34  48
ATOM     48  O   UNL     1      39.336 -51.350 204.056  1.00  0.00    -0.507 OA
ATOM     49  H   UNL     1      39.442 -50.583 204.704  1.00  0.00     0.293 HD
ENDBRANCH  34  48
BRANCH  37  50
ATOM     50  O   UNL     1      36.682 -54.055 201.131  1.00  0.00    -0.508 OA
ATOM     51  H   UNL     1      35.746 -54.255 200.798  1.00  0.00     0.293 HD
ENDBRANCH  37  50
ENDBRANCH  26  27
ENDBRANCH   5  26
BRANCH   4  52
ATOM     52  O   UNL     1      38.254 -45.037 199.942  1.00  0.00    -0.384 OA
ATOM     53  H   UNL     1      38.796 -44.735 199.167  1.00  0.00     0.211 HD
ENDBRANCH   4  52
TORSDOF 16
ENDMDL
MODEL 7
REMARK VINA RESULT:    -5.061      2.498      7.459
REMARK INTER + INTRA:         -11.181
REMARK INTER:                  -8.140
REMARK INTRA:                  -3.041
REMARK UNBOUND:                -2.865
REMARK SMILES C[C@@H]1O[C@H](OC[C@@H]2O[C@@H](Oc3c(-c4ccc(O)c(O)c4)oc4cc(O)cc(O)c4c3=O)[C@@H](O)[C@H](O)[C@H]2O)[C@@H](O)[C@H](O)[C@H]1O
REMARK SMILES IDX 7 1 36 2 34 3 32 4 9 5 8 6 6 7 5 8 4 9 1 10 2 11 42 12 3 13
REMARK SMILES IDX 40 14 38 15 43 16 41 18 39 20 37 22 35 24 10 26 11 27 12 28
REMARK SMILES IDX 30 29 21 30 29 31 31 32 22 33 27 34 23 35 26 36 24 37 13 38
REMARK SMILES IDX 20 39 14 40 18 41 15 42 16 43 19 44 17 46 28 48 25 50 33 52
REMARK H PARENT 43 17 41 19 39 21 37 23 35 25 19 45 17 47 28 49 25 51 33 53
REMARK Flexibility Score: inf
ROOT
ATOM      1  C   UNL     1      21.867 -46.567 203.313  1.00  0.00     0.180 C 
ATOM      2  C   UNL     1      21.799 -47.655 202.212  1.00  0.00     0.177 C 
ATOM      3  C   UNL     1      22.475 -47.149 200.925  1.00  0.00     0.180 C 
ATOM      4  C   UNL     1      21.920 -45.771 200.546  1.00  0.00     0.214 C 
ATOM      5  C   UNL     1      22.011 -44.816 201.750  1.00  0.00     0.339 C 
ATOM      6  O   UNL     1      21.304 -45.345 202.860  1.00  0.00    -0.332 OA
ENDROOT
BRANCH   1   7
ATOM      7  C   UNL     1      21.092 -46.997 204.566  1.00  0.00     0.198 C 
BRANCH   7   8
ATOM      8  O   UNL     1      21.956 -47.672 205.465  1.00  0.00    -0.347 OA
BRANCH   8   9
ATOM      9  C   UNL     1      23.159 -46.954 205.698  1.00  0.00     0.281 C 
ATOM     10  C   UNL     1      24.414 -46.556 208.795  1.00  0.00     0.041 C 
ATOM     11  C   UNL     1      24.270 -45.763 207.489  1.00  0.00     0.150 C 
ATOM     12  C   UNL     1      25.555 -45.828 206.612  1.00  0.00     0.174 C 
ATOM     13  O   UNL     1      23.048 -46.110 206.843  1.00  0.00    -0.344 OA
ATOM     14  C   UNL     1      25.690 -47.137 205.789  1.00  0.00     0.179 C 
ATOM     15  C   UNL     1      24.365 -47.922 205.726  1.00  0.00     0.202 C 
BRANCH  12  16
ATOM     16  O   UNL     1      25.637 -44.702 205.769  1.00  0.00    -0.388 OA
ATOM     17  H   UNL     1      26.465 -44.205 205.995  1.00  0.00     0.211 HD
ENDBRANCH  12  16
BRANCH  14  18
ATOM     18  O   UNL     1      26.690 -47.946 206.353  1.00  0.00    -0.387 OA
ATOM     19  H   UNL     1      27.557 -47.480 206.206  1.00  0.00     0.211 HD
ENDBRANCH  14  18
BRANCH  15  20
ATOM     20  O   UNL     1      24.351 -48.778 204.613  1.00  0.00    -0.385 OA
ATOM     21  H   UNL     1      25.282 -49.075 204.441  1.00  0.00     0.211 HD
ENDBRANCH  15  20
ENDBRANCH   8   9
ENDBRANCH   7   8
ENDBRANCH   1   7
BRANCH   2  22
ATOM     22  O   UNL     1      22.452 -48.816 202.660  1.00  0.00    -0.387 OA
ATOM     23  H   UNL     1      23.102 -49.072 201.959  1.00  0.00     0.211 HD
ENDBRANCH   2  22
BRANCH   3  24
ATOM     24  O   UNL     1      22.231 -48.045 199.871  1.00  0.00    -0.387 OA
ATOM     25  H   UNL     1      22.626 -47.648 199.051  1.00  0.00     0.211 HD
ENDBRANCH   3  24
BRANCH   5  26
ATOM     26  O   UNL     1      23.382 -44.552 202.066  1.00  0.00    -0.454 OA
BRANCH  26  27
ATOM     27  C   UNL     1      23.948 -43.349 202.535  1.00  0.00     0.214 A 
ATOM     28  C   UNL     1      24.791 -42.638 201.660  1.00  0.00     0.180 A 
ATOM     29  C   UNL     1      23.686 -42.795 203.811  1.00  0.00     0.239 A 
ATOM     30  O   UNL     1      25.274 -41.454 202.011  1.00  0.00    -0.452 OA
ATOM     31  C   UNL     1      24.288 -41.569 204.181  1.00  0.00     0.111 A 
ATOM     32  O   UNL     1      22.884 -43.371 204.590  1.00  0.00    -0.285 OA
ATOM     33  C   UNL     1      25.053 -40.898 203.193  1.00  0.00     0.146 A 
ATOM     34  C   UNL     1      24.134 -40.947 205.458  1.00  0.00     0.134 A 
ATOM     35  C   UNL     1      25.582 -39.630 203.442  1.00  0.00     0.094 A 
ATOM     36  C   UNL     1      24.645 -39.661 205.666  1.00  0.00     0.093 A 
ATOM     37  C   UNL     1      25.364 -39.002 204.668  1.00  0.00     0.123 A 
BRANCH  28  38
ATOM     38  C   UNL     1      25.134 -43.159 200.319  1.00  0.00     0.025 A 
ATOM     39  C   UNL     1      25.960 -44.287 200.168  1.00  0.00     0.062 A 
ATOM     40  C   UNL     1      24.662 -42.499 199.174  1.00  0.00     0.016 A 
ATOM     41  C   UNL     1      26.273 -44.774 198.895  1.00  0.00     0.158 A 
ATOM     42  C   UNL     1      24.975 -42.981 197.902  1.00  0.00     0.051 A 
ATOM     43  C   UNL     1      25.777 -44.120 197.754  1.00  0.00     0.157 A 
BRANCH  41  44
ATOM     44  O   UNL     1      27.079 -45.906 198.782  1.00  0.00    -0.504 OA
ATOM     45  H   UNL     1      27.759 -46.153 199.491  1.00  0.00     0.293 HD
ENDBRANCH  41  44
BRANCH  43  46
ATOM     46  O   UNL     1      26.089 -44.598 196.483  1.00  0.00    -0.504 OA
ATOM     47  H   UNL     1      26.951 -44.340 196.015  1.00  0.00     0.293 HD
ENDBRANCH  43  46
ENDBRANCH  28  38
BRANCH  34  48
ATOM     48  O   UNL     1      23.519 -41.562 206.555  1.00  0.00    -0.507 OA
ATOM     49  H   UNL     1      23.008 -42.430 206.510  1.00  0.00     0.293 HD
ENDBRANCH  34  48
BRANCH  37  50
ATOM     50  O   UNL     1      25.865 -37.726 204.910  1.00  0.00    -0.508 OA
ATOM     51  H   UNL     1      25.906 -37.027 204.177  1.00  0.00     0.293 HD
ENDBRANCH  37  50
ENDBRANCH  26  27
ENDBRANCH   5  26
BRANCH   4  52
ATOM     52  O   UNL     1      22.647 -45.256 199.461  1.00  0.00    -0.384 OA
ATOM     53  H   UNL     1      22.012 -44.718 198.920  1.00  0.00     0.211 HD
ENDBRANCH   4  52
TORSDOF 16
ENDMDL
MODEL 8
REMARK VINA RESULT:    -5.036     12.130     15.207
REMARK INTER + INTRA:         -11.139
REMARK INTER:                  -8.111
REMARK INTRA:                  -3.028
REMARK UNBOUND:                -2.865
REMARK SMILES C[C@@H]1O[C@H](OC[C@@H]2O[C@@H](Oc3c(-c4ccc(O)c(O)c4)oc4cc(O)cc(O)c4c3=O)[C@@H](O)[C@H](O)[C@H]2O)[C@@H](O)[C@H](O)[C@H]1O
REMARK SMILES IDX 7 1 36 2 34 3 32 4 9 5 8 6 6 7 5 8 4 9 1 10 2 11 42 12 3 13
REMARK SMILES IDX 40 14 38 15 43 16 41 18 39 20 37 22 35 24 10 26 11 27 12 28
REMARK SMILES IDX 30 29 21 30 29 31 31 32 22 33 27 34 23 35 26 36 24 37 13 38
REMARK SMILES IDX 20 39 14 40 18 41 15 42 16 43 19 44 17 46 28 48 25 50 33 52
REMARK H PARENT 43 17 41 19 39 21 37 23 35 25 19 45 17 47 28 49 25 51 33 53
REMARK Flexibility Score: inf
ROOT
ATOM      1  C   UNL     1      36.943 -45.745 203.120  1.00  0.00     0.180 C 
ATOM      2  C   UNL     1      37.710 -45.778 201.774  1.00  0.00     0.177 C 
ATOM      3  C   UNL     1      38.084 -44.348 201.341  1.00  0.00     0.180 C 
ATOM      4  C   UNL     1      36.846 -43.444 201.391  1.00  0.00     0.214 C 
ATOM      5  C   UNL     1      36.166 -43.553 202.767  1.00  0.00     0.339 C 
ATOM      6  O   UNL     1      35.807 -44.898 203.040  1.00  0.00    -0.332 OA
ENDROOT
BRANCH   1   7
ATOM      7  C   UNL     1      36.451 -47.144 203.511  1.00  0.00     0.198 C 
BRANCH   7   8
ATOM      8  O   UNL     1      37.501 -47.878 204.120  1.00  0.00    -0.347 OA
BRANCH   8   9
ATOM      9  C   UNL     1      37.304 -49.281 204.024  1.00  0.00     0.281 C 
ATOM     10  C   UNL     1      34.407 -50.592 202.922  1.00  0.00     0.041 C 
ATOM     11  C   UNL     1      35.488 -50.881 203.973  1.00  0.00     0.150 C 
ATOM     12  C   UNL     1      36.537 -51.918 203.473  1.00  0.00     0.174 C 
ATOM     13  O   UNL     1      36.006 -49.656 204.485  1.00  0.00    -0.344 OA
ATOM     14  C   UNL     1      37.621 -51.316 202.539  1.00  0.00     0.179 C 
ATOM     15  C   UNL     1      37.650 -49.777 202.601  1.00  0.00     0.202 C 
BRANCH  12  16
ATOM     16  O   UNL     1      37.134 -52.582 204.562  1.00  0.00    -0.388 OA
ATOM     17  H   UNL     1      38.117 -52.475 204.489  1.00  0.00     0.211 HD
ENDBRANCH  12  16
BRANCH  14  18
ATOM     18  O   UNL     1      37.386 -51.731 201.217  1.00  0.00    -0.387 OA
ATOM     19  H   UNL     1      36.463 -52.100 201.190  1.00  0.00     0.211 HD
ENDBRANCH  14  18
BRANCH  15  20
ATOM     20  O   UNL     1      38.900 -49.290 202.187  1.00  0.00    -0.385 OA
ATOM     21  H   UNL     1      39.089 -49.653 201.283  1.00  0.00     0.211 HD
ENDBRANCH  15  20
ENDBRANCH   8   9
ENDBRANCH   7   8
ENDBRANCH   1   7
BRANCH   2  22
ATOM     22  O   UNL     1      38.878 -46.544 201.919  1.00  0.00    -0.387 OA
ATOM     23  H   UNL     1      39.362 -46.191 202.708  1.00  0.00     0.211 HD
ENDBRANCH   2  22
BRANCH   3  24
ATOM     24  O   UNL     1      38.588 -44.360 200.030  1.00  0.00    -0.387 OA
ATOM     25  H   UNL     1      39.422 -43.820 200.033  1.00  0.00     0.211 HD
ENDBRANCH   3  24
BRANCH   5  26
ATOM     26  O   UNL     1      37.020 -43.012 203.782  1.00  0.00    -0.454 OA
BRANCH  26  27
ATOM     27  C   UNL     1      36.685 -42.095 204.798  1.00  0.00     0.214 A 
ATOM     28  C   UNL     1      37.031 -42.430 206.121  1.00  0.00     0.180 A 
ATOM     29  C   UNL     1      36.064 -40.845 204.565  1.00  0.00     0.239 A 
ATOM     30  O   UNL     1      36.828 -41.565 207.106  1.00  0.00    -0.452 OA
ATOM     31  C   UNL     1      35.787 -39.984 205.653  1.00  0.00     0.111 A 
ATOM     32  O   UNL     1      35.804 -40.486 203.387  1.00  0.00    -0.285 OA
ATOM     33  C   UNL     1      36.252 -40.385 206.932  1.00  0.00     0.146 A 
ATOM     34  C   UNL     1      35.120 -38.726 205.538  1.00  0.00     0.134 A 
ATOM     35  C   UNL     1      36.121 -39.539 208.035  1.00  0.00     0.094 A 
ATOM     36  C   UNL     1      35.035 -37.884 206.652  1.00  0.00     0.093 A 
ATOM     37  C   UNL     1      35.531 -38.283 207.894  1.00  0.00     0.123 A 
BRANCH  28  38
ATOM     38  C   UNL     1      37.661 -43.727 206.454  1.00  0.00     0.025 A 
ATOM     39  C   UNL     1      36.884 -44.881 206.652  1.00  0.00     0.062 A 
ATOM     40  C   UNL     1      39.053 -43.804 206.612  1.00  0.00     0.016 A 
ATOM     41  C   UNL     1      37.491 -46.103 206.961  1.00  0.00     0.158 A 
ATOM     42  C   UNL     1      39.662 -45.021 206.923  1.00  0.00     0.051 A 
ATOM     43  C   UNL     1      38.888 -46.176 207.096  1.00  0.00     0.157 A 
BRANCH  41  44
ATOM     44  O   UNL     1      36.691 -47.232 207.132  1.00  0.00    -0.504 OA
ATOM     45  H   UNL     1      36.938 -47.972 207.779  1.00  0.00     0.293 HD
ENDBRANCH  41  44
BRANCH  43  46
ATOM     46  O   UNL     1      39.498 -47.389 207.406  1.00  0.00    -0.504 OA
ATOM     47  H   UNL     1      39.811 -47.600 208.348  1.00  0.00     0.293 HD
ENDBRANCH  43  46
ENDBRANCH  28  38
BRANCH  34  48
ATOM     48  O   UNL     1      34.500 -38.277 204.366  1.00  0.00    -0.507 OA
ATOM     49  H   UNL     1      33.636 -38.647 204.000  1.00  0.00     0.293 HD
ENDBRANCH  34  48
BRANCH  37  50
ATOM     50  O   UNL     1      35.425 -37.424 208.985  1.00  0.00    -0.508 OA
ATOM     51  H   UNL     1      35.307 -36.425 208.862  1.00  0.00     0.293 HD
ENDBRANCH  37  50
ENDBRANCH  26  27
ENDBRANCH   5  26
BRANCH   4  52
ATOM     52  O   UNL     1      37.227 -42.116 201.141  1.00  0.00    -0.384 OA
ATOM     53  H   UNL     1      37.424 -42.052 200.170  1.00  0.00     0.211 HD
ENDBRANCH   4  52
TORSDOF 16
ENDMDL
MODEL 9
REMARK VINA RESULT:    -5.033     11.918     14.929
REMARK INTER + INTRA:         -11.135
REMARK INTER:                  -7.547
REMARK INTRA:                  -3.588
REMARK UNBOUND:                -2.865
REMARK SMILES C[C@@H]1O[C@H](OC[C@@H]2O[C@@H](Oc3c(-c4ccc(O)c(O)c4)oc4cc(O)cc(O)c4c3=O)[C@@H](O)[C@H](O)[C@H]2O)[C@@H](O)[C@H](O)[C@H]1O
REMARK SMILES IDX 7 1 36 2 34 3 32 4 9 5 8 6 6 7 5 8 4 9 1 10 2 11 42 12 3 13
REMARK SMILES IDX 40 14 38 15 43 16 41 18 39 20 37 22 35 24 10 26 11 27 12 28
REMARK SMILES IDX 30 29 21 30 29 31 31 32 22 33 27 34 23 35 26 36 24 37 13 38
REMARK SMILES IDX 20 39 14 40 18 41 15 42 16 43 19 44 17 46 28 48 25 50 33 52
REMARK H PARENT 43 17 41 19 39 21 37 23 35 25 19 45 17 47 28 49 25 51 33 53
REMARK Flexibility Score: inf
ROOT
ATOM      1  C   UNL     1      37.849 -46.734 203.716  1.00  0.00     0.180 C 
ATOM      2  C   UNL     1      38.031 -47.661 204.944  1.00  0.00     0.177 C 
ATOM      3  C   UNL     1      37.854 -46.857 206.245  1.00  0.00     0.180 C 
ATOM      4  C   UNL     1      38.734 -45.602 206.211  1.00  0.00     0.214 C 
ATOM      5  C   UNL     1      38.477 -44.812 204.915  1.00  0.00     0.339 C 
ATOM      6  O   UNL     1      38.730 -45.623 203.780  1.00  0.00    -0.332 OA
ENDROOT
BRANCH   1   7
ATOM      7  C   UNL     1      38.143 -47.483 202.408  1.00  0.00     0.198 C 
BRANCH   7   8
ATOM      8  O   UNL     1      36.930 -47.798 201.744  1.00  0.00    -0.347 OA
BRANCH   8   9
ATOM      9  C   UNL     1      36.912 -49.133 201.261  1.00  0.00     0.281 C 
ATOM     10  C   UNL     1      34.605 -51.358 202.287  1.00  0.00     0.041 C 
ATOM     11  C   UNL     1      36.095 -51.314 201.921  1.00  0.00     0.150 C 
ATOM     12  C   UNL     1      36.356 -51.755 200.451  1.00  0.00     0.174 C 
ATOM     13  O   UNL     1      36.654 -50.063 202.312  1.00  0.00    -0.344 OA
ATOM     14  C   UNL     1      36.076 -50.647 199.401  1.00  0.00     0.179 C 
ATOM     15  C   UNL     1      35.961 -49.253 200.047  1.00  0.00     0.202 C 
BRANCH  12  16
ATOM     16  O   UNL     1      37.665 -52.254 200.309  1.00  0.00    -0.388 OA
ATOM     17  H   UNL     1      37.636 -53.239 200.421  1.00  0.00     0.211 HD
ENDBRANCH  12  16
BRANCH  14  18
ATOM     18  O   UNL     1      34.892 -50.944 198.706  1.00  0.00    -0.387 OA
ATOM     19  H   UNL     1      35.021 -51.834 198.282  1.00  0.00     0.211 HD
ENDBRANCH  14  18
BRANCH  15  20
ATOM     20  O   UNL     1      36.219 -48.247 199.102  1.00  0.00    -0.385 OA
ATOM     21  H   UNL     1      35.556 -47.522 199.235  1.00  0.00     0.211 HD
ENDBRANCH  15  20
ENDBRANCH   8   9
ENDBRANCH   7   8
ENDBRANCH   1   7
BRANCH   2  22
ATOM     22  O   UNL     1      37.079 -48.693 204.897  1.00  0.00    -0.387 OA
ATOM     23  H   UNL     1      37.376 -49.331 204.199  1.00  0.00     0.211 HD
ENDBRANCH   2  22
BRANCH   3  24
ATOM     24  O   UNL     1      38.223 -47.644 207.349  1.00  0.00    -0.387 OA
ATOM     25  H   UNL     1      38.955 -48.244 207.049  1.00  0.00     0.211 HD
ENDBRANCH   3  24
BRANCH   5  26
ATOM     26  O   UNL     1      37.144 -44.289 204.914  1.00  0.00    -0.454 OA
BRANCH  26  27
ATOM     27  C   UNL     1      36.741 -42.941 204.829  1.00  0.00     0.214 A 
ATOM     28  C   UNL     1      36.464 -42.421 203.551  1.00  0.00     0.180 A 
ATOM     29  C   UNL     1      36.559 -42.096 205.949  1.00  0.00     0.239 A 
ATOM     30  O   UNL     1      35.990 -41.190 203.417  1.00  0.00    -0.452 OA
ATOM     31  C   UNL     1      36.131 -40.760 205.760  1.00  0.00     0.111 A 
ATOM     32  O   UNL     1      36.732 -42.549 207.110  1.00  0.00    -0.285 OA
ATOM     33  C   UNL     1      35.803 -40.366 204.437  1.00  0.00     0.146 A 
ATOM     34  C   UNL     1      35.964 -39.809 206.812  1.00  0.00     0.134 A 
ATOM     35  C   UNL     1      35.264 -39.104 204.183  1.00  0.00     0.094 A 
ATOM     36  C   UNL     1      35.389 -38.564 206.533  1.00  0.00     0.093 A 
ATOM     37  C   UNL     1      35.039 -38.209 205.230  1.00  0.00     0.123 A 
BRANCH  28  38
ATOM     38  C   UNL     1      36.652 -43.231 202.326  1.00  0.00     0.025 A 
ATOM     39  C   UNL     1      35.695 -44.181 201.931  1.00  0.00     0.062 A 
ATOM     40  C   UNL     1      37.820 -43.079 201.563  1.00  0.00     0.016 A 
ATOM     41  C   UNL     1      35.880 -44.937 200.769  1.00  0.00     0.158 A 
ATOM     42  C   UNL     1      38.009 -43.833 200.404  1.00  0.00     0.051 A 
ATOM     43  C   UNL     1      37.042 -44.762 199.999  1.00  0.00     0.157 A 
BRANCH  41  44
ATOM     44  O   UNL     1      34.900 -45.857 200.396  1.00  0.00    -0.504 OA
ATOM     45  H   UNL     1      34.967 -46.839 200.636  1.00  0.00     0.293 HD
ENDBRANCH  41  44
BRANCH  43  46
ATOM     46  O   UNL     1      37.234 -45.515 198.842  1.00  0.00    -0.504 OA
ATOM     47  H   UNL     1      37.483 -45.079 197.960  1.00  0.00     0.293 HD
ENDBRANCH  43  46
ENDBRANCH  28  38
BRANCH  34  48
ATOM     48  O   UNL     1      36.376 -40.027 208.132  1.00  0.00    -0.507 OA
ATOM     49  H   UNL     1      36.434 -40.934 208.569  1.00  0.00     0.293 HD
ENDBRANCH  34  48
BRANCH  37  50
ATOM     50  O   UNL     1      34.475 -36.960 204.985  1.00  0.00    -0.508 OA
ATOM     51  H   UNL     1      35.025 -36.196 204.611  1.00  0.00     0.293 HD
ENDBRANCH  37  50
ENDBRANCH  26  27
ENDBRANCH   5  26
BRANCH   4  52
ATOM     52  O   UNL     1      38.453 -44.803 207.331  1.00  0.00    -0.384 OA
ATOM     53  H   UNL     1      38.334 -43.876 206.999  1.00  0.00     0.211 HD
ENDBRANCH   4  52
TORSDOF 16
ENDMDL
