MODEL 1
REMARK VINA RESULT:    -3.418      0.000      0.000
REMARK INTER + INTRA:          -4.817
REMARK INTER:                  -4.617
REMARK INTRA:                  -0.200
REMARK UNBOUND:                -0.200
REMARK SMILES CCCCCCCC(=O)[O-]
REMARK SMILES IDX 5 1 6 2 7 3 8 4 9 5 10 6 4 7 3 8 2 9 1 10
REMARK H PARENT
REMARK Flexibility Score: inf
ROOT
ATOM      1  C   UNL     1      -2.648   6.141   8.726  1.00  0.00     0.000 C 
ENDROOT
BRANCH   1   2
ATOM      2  C   UNL     1      -2.289   6.845  10.044  1.00  0.00     0.006 C 
BRANCH   2   3
ATOM      3  C   UNL     1      -0.820   7.283  10.098  1.00  0.00     0.053 C 
BRANCH   3   4
ATOM      4  C   UNL     1      -0.711   8.765   9.932  1.00  0.00     0.041 C 
ATOM      5  O   UNL     1      -1.744   9.460   9.743  1.00  0.00    -0.550 OA
ATOM      6  O   UNL     1       0.527   9.387  10.034  1.00  0.00    -0.550 OA
ENDBRANCH   3   4
ENDBRANCH   2   3
ENDBRANCH   1   2
BRANCH   1   7
ATOM      7  C   UNL     1      -3.986   5.391   8.801  1.00  0.00     0.000 C 
BRANCH   7   8
ATOM      8  C   UNL     1      -3.933   4.092   7.987  1.00  0.00    -0.000 C 
BRANCH   8   9
ATOM      9  C   UNL     1      -4.935   3.064   8.526  1.00  0.00    -0.003 C 
ATOM     10  C   UNL     1      -5.926   3.711   9.488  1.00  0.00     0.004 C 
ENDBRANCH   8   9
ENDBRANCH   7   8
ENDBRANCH   1   7
TORSDOF 6
ENDMDL
MODEL 2
REMARK VINA RESULT:    -3.276     20.032     20.883
REMARK INTER + INTRA:          -4.625
REMARK INTER:                  -4.369
REMARK INTRA:                  -0.255
REMARK UNBOUND:                -0.200
REMARK SMILES CCCCCCCC(=O)[O-]
REMARK SMILES IDX 5 1 6 2 7 3 8 4 9 5 10 6 4 7 3 8 2 9 1 10
REMARK H PARENT
REMARK Flexibility Score: inf
ROOT
ATOM      1  C   UNL     1       9.306   8.241  -7.565  1.00  0.00     0.000 C 
ENDROOT
BRANCH   1   2
ATOM      2  C   UNL     1       9.885   7.112  -6.699  1.00  0.00     0.006 C 
BRANCH   2   3
ATOM      3  C   UNL     1       8.801   6.191  -6.127  1.00  0.00     0.053 C 
BRANCH   3   4
ATOM      4  C   UNL     1       9.423   5.011  -5.450  1.00  0.00     0.041 C 
ATOM      5  O   UNL     1      10.081   4.171  -6.117  1.00  0.00    -0.550 OA
ATOM      6  O   UNL     1       9.316   4.864  -4.072  1.00  0.00    -0.550 OA
ENDBRANCH   3   4
ENDBRANCH   2   3
ENDBRANCH   1   2
BRANCH   1   7
ATOM      7  C   UNL     1       9.789   8.177  -9.021  1.00  0.00     0.000 C 
BRANCH   7   8
ATOM      8  C   UNL     1       8.776   8.840  -9.964  1.00  0.00    -0.000 C 
BRANCH   8   9
ATOM      9  C   UNL     1       7.340   8.468  -9.579  1.00  0.00    -0.003 C 
ATOM     10  C   UNL     1       6.359   9.564  -9.984  1.00  0.00     0.004 C 
ENDBRANCH   8   9
ENDBRANCH   7   8
ENDBRANCH   1   7
TORSDOF 6
ENDMDL
MODEL 3
REMARK VINA RESULT:    -3.115     10.863     11.852
REMARK INTER + INTRA:          -4.408
REMARK INTER:                  -4.285
REMARK INTRA:                  -0.124
REMARK UNBOUND:                -0.200
REMARK SMILES CCCCCCCC(=O)[O-]
REMARK SMILES IDX 5 1 6 2 7 3 8 4 9 5 10 6 4 7 3 8 2 9 1 10
REMARK H PARENT
REMARK Flexibility Score: inf
ROOT
ATOM      1  C   UNL     1      -1.663   8.609  -0.375  1.00  0.00     0.000 C 
ENDROOT
BRANCH   1   2
ATOM      2  C   UNL     1      -3.116   8.135  -0.216  1.00  0.00     0.006 C 
BRANCH   2   3
ATOM      3  C   UNL     1      -4.125   9.287  -0.291  1.00  0.00     0.053 C 
BRANCH   3   4
ATOM      4  C   UNL     1      -4.873   9.242  -1.585  1.00  0.00     0.041 C 
ATOM      5  O   UNL     1      -6.096   9.540  -1.622  1.00  0.00    -0.550 OA
ATOM      6  O   UNL     1      -4.208   8.918  -2.762  1.00  0.00    -0.550 OA
ENDBRANCH   3   4
ENDBRANCH   2   3
ENDBRANCH   1   2
BRANCH   1   7
ATOM      7  C   UNL     1      -1.139   8.440  -1.808  1.00  0.00     0.000 C 
BRANCH   7   8
ATOM      8  C   UNL     1      -0.154   7.268  -1.898  1.00  0.00    -0.000 C 
BRANCH   8   9
ATOM      9  C   UNL     1       1.261   7.707  -1.503  1.00  0.00    -0.003 C 
ATOM     10  C   UNL     1       2.145   6.504  -1.190  1.00  0.00     0.004 C 
ENDBRANCH   8   9
ENDBRANCH   7   8
ENDBRANCH   1   7
TORSDOF 6
ENDMDL
MODEL 4
REMARK VINA RESULT:    -2.308     10.678     11.308
REMARK INTER + INTRA:          -3.318
REMARK INTER:                  -3.017
REMARK INTRA:                  -0.301
REMARK UNBOUND:                -0.200
REMARK SMILES CCCCCCCC(=O)[O-]
REMARK SMILES IDX 5 1 6 2 7 3 8 4 9 5 10 6 4 7 3 8 2 9 1 10
REMARK H PARENT
REMARK Flexibility Score: inf
ROOT
ATOM      1  C   UNL     1      -1.765   8.593  -0.296  1.00  0.00     0.000 C 
ENDROOT
BRANCH   1   2
ATOM      2  C   UNL     1      -1.084   8.463  -1.668  1.00  0.00     0.006 C 
BRANCH   2   3
ATOM      3  C   UNL     1      -0.316   7.145  -1.823  1.00  0.00     0.053 C 
BRANCH   3   4
ATOM      4  C   UNL     1       1.132   7.344  -1.504  1.00  0.00     0.041 C 
ATOM      5  O   UNL     1       1.641   8.494  -1.560  1.00  0.00    -0.550 OA
ATOM      6  O   UNL     1       1.909   6.267  -1.097  1.00  0.00    -0.550 OA
ENDBRANCH   3   4
ENDBRANCH   2   3
ENDBRANCH   1   2
BRANCH   1   7
ATOM      7  C   UNL     1      -3.259   8.242  -0.341  1.00  0.00     0.000 C 
BRANCH   7   8
ATOM      8  C   UNL     1      -4.120   9.458   0.022  1.00  0.00    -0.000 C 
BRANCH   8   9
ATOM      9  C   UNL     1      -5.090   9.805  -1.113  1.00  0.00    -0.003 C 
ATOM     10  C   UNL     1      -4.692   9.108  -2.410  1.00  0.00     0.004 C 
ENDBRANCH   8   9
ENDBRANCH   7   8
ENDBRANCH   1   7
TORSDOF 6
ENDMDL
MODEL 5
REMARK VINA RESULT:    -2.285      2.976      5.787
REMARK INTER + INTRA:          -3.287
REMARK INTER:                  -3.034
REMARK INTRA:                  -0.252
REMARK UNBOUND:                -0.200
REMARK SMILES CCCCCCCC(=O)[O-]
REMARK SMILES IDX 5 1 6 2 7 3 8 4 9 5 10 6 4 7 3 8 2 9 1 10
REMARK H PARENT
REMARK Flexibility Score: inf
ROOT
ATOM      1  C   UNL     1      -2.563   7.639   9.696  1.00  0.00     0.000 C 
ENDROOT
BRANCH   1   2
ATOM      2  C   UNL     1      -2.331   6.277   9.024  1.00  0.00     0.006 C 
BRANCH   2   3
ATOM      3  C   UNL     1      -3.632   5.492   8.813  1.00  0.00     0.053 C 
BRANCH   3   4
ATOM      4  C   UNL     1      -3.644   4.855   7.460  1.00  0.00     0.041 C 
ATOM      5  O   UNL     1      -4.136   3.707   7.305  1.00  0.00    -0.550 OA
ATOM      6  O   UNL     1      -3.156   5.550   6.360  1.00  0.00    -0.550 OA
ENDBRANCH   3   4
ENDBRANCH   2   3
ENDBRANCH   1   2
BRANCH   1   7
ATOM      7  C   UNL     1      -1.258   8.416   9.924  1.00  0.00     0.000 C 
BRANCH   7   8
ATOM      8  C   UNL     1      -0.074   7.459  10.110  1.00  0.00    -0.000 C 
BRANCH   8   9
ATOM      9  C   UNL     1       1.255   8.224  10.125  1.00  0.00    -0.003 C 
ATOM     10  C   UNL     1       1.024   9.731  10.118  1.00  0.00     0.004 C 
ENDBRANCH   8   9
ENDBRANCH   7   8
ENDBRANCH   1   7
TORSDOF 6
ENDMDL
MODEL 6
REMARK VINA RESULT:    -2.186      3.562      5.660
REMARK INTER + INTRA:          -3.153
REMARK INTER:                  -2.850
REMARK INTRA:                  -0.303
REMARK UNBOUND:                -0.200
REMARK SMILES CCCCCCCC(=O)[O-]
REMARK SMILES IDX 5 1 6 2 7 3 8 4 9 5 10 6 4 7 3 8 2 9 1 10
REMARK H PARENT
REMARK Flexibility Score: inf
ROOT
ATOM      1  C   UNL     1      -5.711   5.197  10.105  1.00  0.00     0.000 C 
ENDROOT
BRANCH   1   2
ATOM      2  C   UNL     1      -5.471   3.679  10.125  1.00  0.00     0.006 C 
BRANCH   2   3
ATOM      3  C   UNL     1      -5.756   3.018   8.771  1.00  0.00     0.053 C 
BRANCH   3   4
ATOM      4  C   UNL     1      -4.477   2.630   8.100  1.00  0.00     0.041 C 
ATOM      5  O   UNL     1      -3.399   2.617   8.750  1.00  0.00    -0.550 OA
ATOM      6  O   UNL     1      -4.482   2.234   6.768  1.00  0.00    -0.550 OA
ENDBRANCH   3   4
ENDBRANCH   2   3
ENDBRANCH   1   2
BRANCH   1   7
ATOM      7  C   UNL     1      -4.404   6.002  10.087  1.00  0.00     0.000 C 
BRANCH   7   8
ATOM      8  C   UNL     1      -3.781   6.007   8.686  1.00  0.00    -0.000 C 
BRANCH   8   9
ATOM      9  C   UNL     1      -2.249   6.010   8.764  1.00  0.00    -0.003 C 
ATOM     10  C   UNL     1      -1.750   7.052   9.760  1.00  0.00     0.004 C 
ENDBRANCH   8   9
ENDBRANCH   7   8
ENDBRANCH   1   7
TORSDOF 6
ENDMDL
MODEL 7
REMARK VINA RESULT:    -2.003     23.591     24.644
REMARK INTER + INTRA:          -2.906
REMARK INTER:                  -2.793
REMARK INTRA:                  -0.113
REMARK UNBOUND:                -0.200
REMARK SMILES CCCCCCCC(=O)[O-]
REMARK SMILES IDX 5 1 6 2 7 3 8 4 9 5 10 6 4 7 3 8 2 9 1 10
REMARK H PARENT
REMARK Flexibility Score: inf
ROOT
ATOM      1  C   UNL     1      -6.069  -9.208  -9.717  1.00  0.00     0.000 C 
ENDROOT
BRANCH   1   2
ATOM      2  C   UNL     1      -7.113  -9.719  -8.712  1.00  0.00     0.006 C 
BRANCH   2   3
ATOM      3  C   UNL     1      -8.552  -9.526  -9.206  1.00  0.00     0.053 C 
BRANCH   3   4
ATOM      4  C   UNL     1      -9.389  -8.890  -8.142  1.00  0.00     0.041 C 
ATOM      5  O   UNL     1      -9.732  -9.549  -7.126  1.00  0.00    -0.550 OA
ATOM      6  O   UNL     1      -9.749  -7.552  -8.247  1.00  0.00    -0.550 OA
ENDBRANCH   3   4
ENDBRANCH   2   3
ENDBRANCH   1   2
BRANCH   1   7
ATOM      7  C   UNL     1      -4.641  -9.648  -9.362  1.00  0.00     0.000 C 
BRANCH   7   8
ATOM      8  C   UNL     1      -3.608  -8.658  -9.914  1.00  0.00    -0.000 C 
BRANCH   8   9
ATOM      9  C   UNL     1      -2.717  -8.110  -8.793  1.00  0.00    -0.003 C 
ATOM     10  C   UNL     1      -1.408  -7.560  -9.349  1.00  0.00     0.004 C 
ENDBRANCH   8   9
ENDBRANCH   7   8
ENDBRANCH   1   7
TORSDOF 6
ENDMDL
