MODEL 1
REMARK VINA RESULT:    -3.986      0.000      0.000
REMARK INTER + INTRA:          -5.765
REMARK INTER:                  -5.617
REMARK INTRA:                  -0.148
REMARK UNBOUND:                -0.148
REMARK SMILES CC1=CCC(=C(C)C)CCC(C)=CCC1
REMARK SMILES IDX 5 1 6 2 7 3 8 4 9 5 10 6 11 7 12 8 13 9 4 11 3 12 2 13 1 14
REMARK SMILES IDX 15 15 14 16
REMARK H PARENT
REMARK Flexibility Score: 60.00
ROOT
ATOM      1  C   UNL     1      -0.516   2.263  12.976  1.00  0.00    -0.067 C 
ATOM      2  C   UNL     1      -1.079   1.037  13.231  1.00  0.00    -0.077 C 
ATOM      3  C   UNL     1      -1.231   0.514  14.644  1.00  0.00     0.039 C 
ATOM      4  C   UNL     1      -1.596   0.157  12.110  1.00  0.00     0.039 C 
ENDROOT
BRANCH   1   5
ATOM      5  C   UNL     1      -0.026   3.161  14.108  1.00  0.00     0.035 C 
BRANCH   5   6
ATOM      6  C   UNL     1      -0.857   4.455  14.230  1.00  0.00     0.035 C 
BRANCH   6   7
ATOM      7  C   UNL     1      -0.026   5.700  13.982  1.00  0.00    -0.077 C 
ATOM      8  C   UNL     1       1.170   5.955  14.861  1.00  0.00     0.039 C 
ATOM      9  C   UNL     1      -0.319   6.604  13.017  1.00  0.00    -0.028 CG0
ATOM     10  G   UNL     1      -1.508   6.522  12.093  1.00  0.00     0.000 G0
ENDBRANCH   6   7
ENDBRANCH   5   6
ENDBRANCH   1   5
BRANCH   1  11
ATOM     11  C   UNL     1      -0.424   2.816  11.557  1.00  0.00     0.058 C 
BRANCH  11  12
ATOM     12  C   UNL     1      -1.771   3.250  11.026  1.00  0.00    -0.024 C 
ATOM     13  C   UNL     1      -2.128   4.515  10.702  1.00  0.00    -0.077 C 
ATOM     14  C   UNL     1      -3.530   4.750  10.201  1.00  0.00     0.039 C 
BRANCH  13  15
ATOM     15  C   UNL     1      -1.205   5.713  10.831  1.00  0.00     0.034 C 
BRANCH  15  16
ATOM     16  C   UNL     1      -1.511   6.534  12.098  1.00  0.00     0.032 CG0
ATOM     17  G   UNL     1      -0.313   6.611  13.012  1.00  0.00     0.000 G0
ENDBRANCH  15  16
ENDBRANCH  13  15
ENDBRANCH  11  12
ENDBRANCH   1  11
TORSDOF 0
ENDMDL
MODEL 2
REMARK VINA RESULT:    -3.698      1.619      3.764
REMARK INTER + INTRA:          -5.359
REMARK INTER:                  -5.733
REMARK INTRA:                   0.374
REMARK UNBOUND:                -0.148
REMARK SMILES CC1=CCC(=C(C)C)CCC(C)=CCC1
REMARK SMILES IDX 5 1 6 2 7 3 8 4 9 5 10 6 11 7 12 8 13 9 4 11 3 12 2 13 1 14
REMARK SMILES IDX 15 15 14 16
REMARK H PARENT
REMARK Flexibility Score: 60.00
ROOT
ATOM      1  C   UNL     1      -2.590   5.019  11.732  1.00  0.00    -0.067 C 
ATOM      2  C   UNL     1      -3.908   5.207  11.394  1.00  0.00    -0.077 C 
ATOM      3  C   UNL     1      -4.875   5.899  12.333  1.00  0.00     0.039 C 
ATOM      4  C   UNL     1      -4.453   4.750  10.056  1.00  0.00     0.039 C 
ENDROOT
BRANCH   1   5
ATOM      5  C   UNL     1      -2.037   5.508  13.067  1.00  0.00     0.035 C 
BRANCH   5   6
ATOM      6  C   UNL     1      -0.560   5.942  12.964  1.00  0.00     0.035 C 
BRANCH   6   7
ATOM      7  C   UNL     1       0.275   5.428  14.122  1.00  0.00    -0.077 C 
ATOM      8  C   UNL     1       1.169   6.396  14.850  1.00  0.00     0.039 C 
ATOM      9  C   UNL     1       0.268   4.134  14.521  1.00  0.00    -0.028 CG0
ATOM     10  G   UNL     1      -0.529   3.035  13.863  1.00  0.00     0.000 G0
ENDBRANCH   6   7
ENDBRANCH   5   6
ENDBRANCH   1   5
BRANCH   1  11
ATOM     11  C   UNL     1      -1.604   4.382  10.759  1.00  0.00     0.058 C 
BRANCH  11  12
ATOM     12  C   UNL     1      -1.672   2.872  10.784  1.00  0.00    -0.024 C 
ATOM     13  C   UNL     1      -0.924   2.054  11.563  1.00  0.00    -0.077 C 
ATOM     14  C   UNL     1      -1.128   0.568  11.431  1.00  0.00     0.039 C 
BRANCH  13  15
ATOM     15  C   UNL     1       0.119   2.548  12.548  1.00  0.00     0.034 C 
BRANCH  15  16
ATOM     16  C   UNL     1      -0.521   3.016  13.868  1.00  0.00     0.032 CG0
ATOM     17  G   UNL     1       0.271   4.132  14.504  1.00  0.00     0.000 G0
ENDBRANCH  15  16
ENDBRANCH  13  15
ENDBRANCH  11  12
ENDBRANCH   1  11
TORSDOF 0
ENDMDL
MODEL 3
REMARK VINA RESULT:    -3.525      1.171      3.667
REMARK INTER + INTRA:          -5.116
REMARK INTER:                  -4.953
REMARK INTRA:                  -0.163
REMARK UNBOUND:                -0.148
REMARK SMILES CC1=CCC(=C(C)C)CCC(C)=CCC1
REMARK SMILES IDX 5 1 6 2 7 3 8 4 9 5 10 6 11 7 12 8 13 9 4 11 3 12 2 13 1 14
REMARK SMILES IDX 15 15 14 16
REMARK H PARENT
REMARK Flexibility Score: 60.00
ROOT
ATOM      1  C   UNL     1      -1.730   3.548  12.475  1.00  0.00    -0.067 C 
ATOM      2  C   UNL     1      -1.367   2.224  12.490  1.00  0.00    -0.077 C 
ATOM      3  C   UNL     1      -1.276   1.412  11.214  1.00  0.00     0.039 C 
ATOM      4  C   UNL     1      -1.016   1.517  13.784  1.00  0.00     0.039 C 
ENDROOT
BRANCH   1   5
ATOM      5  C   UNL     1      -2.052   4.266  11.168  1.00  0.00     0.035 C 
BRANCH   5   6
ATOM      6  C   UNL     1      -0.874   5.128  10.669  1.00  0.00     0.035 C 
BRANCH   6   7
ATOM      7  C   UNL     1      -1.262   6.584  10.485  1.00  0.00    -0.077 C 
ATOM      8  C   UNL     1      -2.260   6.933   9.413  1.00  0.00     0.039 C 
ATOM      9  C   UNL     1      -0.739   7.588  11.228  1.00  0.00    -0.028 CG0
ATOM     10  G   UNL     1       0.308   7.410  12.300  1.00  0.00     0.000 G0
ENDBRANCH   6   7
ENDBRANCH   5   6
ENDBRANCH   1   5
BRANCH   1  11
ATOM     11  C   UNL     1      -1.756   4.380  13.752  1.00  0.00     0.058 C 
BRANCH  11  12
ATOM     12  C   UNL     1      -0.368   4.639  14.292  1.00  0.00    -0.024 C 
ATOM     13  C   UNL     1       0.288   5.824  14.266  1.00  0.00    -0.077 C 
ATOM     14  C   UNL     1       1.678   5.878  14.842  1.00  0.00     0.039 C 
BRANCH  13  15
ATOM     15  C   UNL     1      -0.290   7.096  13.673  1.00  0.00     0.034 C 
BRANCH  15  16
ATOM     16  C   UNL     1       0.321   7.412  12.295  1.00  0.00     0.032 CG0
ATOM     17  G   UNL     1      -0.744   7.583  11.241  1.00  0.00     0.000 G0
ENDBRANCH  15  16
ENDBRANCH  13  15
ENDBRANCH  11  12
ENDBRANCH   1  11
TORSDOF 0
ENDMDL
MODEL 4
REMARK VINA RESULT:    -3.408     13.824     15.108
REMARK INTER + INTRA:          -4.951
REMARK INTER:                  -4.737
REMARK INTRA:                  -0.214
REMARK UNBOUND:                -0.148
REMARK SMILES CC1=CCC(=C(C)C)CCC(C)=CCC1
REMARK SMILES IDX 5 1 6 2 7 3 8 4 9 5 10 6 11 7 12 8 13 9 4 11 3 12 2 13 1 14
REMARK SMILES IDX 15 15 14 16
REMARK H PARENT
REMARK Flexibility Score: 60.00
ROOT
ATOM      1  C   UNL     1       3.924  -9.749  13.186  1.00  0.00    -0.067 C 
ATOM      2  C   UNL     1       3.080  -9.431  12.151  1.00  0.00    -0.077 C 
ATOM      3  C   UNL     1       3.444  -8.373  11.129  1.00  0.00     0.039 C 
ATOM      4  C   UNL     1       1.753 -10.139  11.967  1.00  0.00     0.039 C 
ENDROOT
BRANCH   1   5
ATOM      5  C   UNL     1       5.274  -9.057  13.350  1.00  0.00     0.035 C 
BRANCH   5   6
ATOM      6  C   UNL     1       5.279  -8.059  14.526  1.00  0.00     0.035 C 
BRANCH   6   7
ATOM      7  C   UNL     1       6.309  -8.415  15.581  1.00  0.00    -0.077 C 
ATOM      8  C   UNL     1       7.764  -8.430  15.192  1.00  0.00     0.039 C 
ATOM      9  C   UNL     1       5.981  -8.738  16.855  1.00  0.00    -0.028 CG0
ATOM     10  G   UNL     1       4.571  -8.821  17.386  1.00  0.00     0.000 G0
ENDBRANCH   6   7
ENDBRANCH   5   6
ENDBRANCH   1   5
BRANCH   1  11
ATOM     11  C   UNL     1       3.585 -10.860  14.174  1.00  0.00     0.058 C 
BRANCH  11  12
ATOM     12  C   UNL     1       2.491 -10.455  15.135  1.00  0.00    -0.024 C 
ATOM     13  C   UNL     1       2.650 -10.178  16.451  1.00  0.00    -0.077 C 
ATOM     14  C   UNL     1       1.428  -9.807  17.250  1.00  0.00     0.039 C 
BRANCH  13  15
ATOM     15  C   UNL     1       3.985 -10.236  17.171  1.00  0.00     0.034 C 
BRANCH  15  16
ATOM     16  C   UNL     1       4.573  -8.830  17.394  1.00  0.00     0.032 CG0
ATOM     17  G   UNL     1       5.980  -8.726  16.859  1.00  0.00     0.000 G0
ENDBRANCH  15  16
ENDBRANCH  13  15
ENDBRANCH  11  12
ENDBRANCH   1  11
TORSDOF 0
ENDMDL
MODEL 5
REMARK VINA RESULT:    -3.397     12.885     14.670
REMARK INTER + INTRA:          -4.935
REMARK INTER:                  -4.781
REMARK INTRA:                  -0.154
REMARK UNBOUND:                -0.148
REMARK SMILES CC1=CCC(=C(C)C)CCC(C)=CCC1
REMARK SMILES IDX 5 1 6 2 7 3 8 4 9 5 10 6 11 7 12 8 13 9 4 11 3 12 2 13 1 14
REMARK SMILES IDX 15 15 14 16
REMARK H PARENT
REMARK Flexibility Score: 60.00
ROOT
ATOM      1  C   UNL     1      -1.766  -9.968  13.682  1.00  0.00    -0.067 C 
ATOM      2  C   UNL     1      -2.409  -9.155  14.582  1.00  0.00    -0.077 C 
ATOM      3  C   UNL     1      -1.828  -7.819  14.999  1.00  0.00     0.039 C 
ATOM      4  C   UNL     1      -3.745  -9.545  15.184  1.00  0.00     0.039 C 
ENDROOT
BRANCH   1   5
ATOM      5  C   UNL     1      -0.438  -9.559  13.053  1.00  0.00     0.035 C 
BRANCH   5   6
ATOM      6  C   UNL     1      -0.626  -8.865  11.688  1.00  0.00     0.035 C 
BRANCH   6   7
ATOM      7  C   UNL     1       0.317  -9.407  10.630  1.00  0.00    -0.077 C 
ATOM      8  C   UNL     1       1.788  -9.108  10.755  1.00  0.00     0.039 C 
ATOM      9  C   UNL     1      -0.103 -10.133   9.567  1.00  0.00    -0.028 CG0
ATOM     10  G   UNL     1      -1.544 -10.470   9.270  1.00  0.00     0.000 G0
ENDBRANCH   6   7
ENDBRANCH   5   6
ENDBRANCH   1   5
BRANCH   1  11
ATOM     11  C   UNL     1      -2.385 -11.281  13.213  1.00  0.00     0.058 C 
BRANCH  11  12
ATOM     12  C   UNL     1      -3.481 -11.064  12.196  1.00  0.00    -0.024 C 
ATOM     13  C   UNL     1      -3.361 -11.204  10.854  1.00  0.00    -0.077 C 
ATOM     14  C   UNL     1      -4.572 -10.925  10.001  1.00  0.00     0.039 C 
BRANCH  13  15
ATOM     15  C   UNL     1      -2.075 -11.609  10.159  1.00  0.00     0.034 C 
BRANCH  15  16
ATOM     16  C   UNL     1      -1.543 -10.488   9.247  1.00  0.00     0.032 CG0
ATOM     17  G   UNL     1      -0.109 -10.145   9.568  1.00  0.00     0.000 G0
ENDBRANCH  15  16
ENDBRANCH  13  15
ENDBRANCH  11  12
ENDBRANCH   1  11
TORSDOF 0
ENDMDL
MODEL 6
REMARK VINA RESULT:    -3.393      1.686      3.976
REMARK INTER + INTRA:          -4.930
REMARK INTER:                  -4.873
REMARK INTRA:                  -0.057
REMARK UNBOUND:                -0.148
REMARK SMILES CC1=CCC(=C(C)C)CCC(C)=CCC1
REMARK SMILES IDX 5 1 6 2 7 3 8 4 9 5 10 6 11 7 12 8 13 9 4 11 3 12 2 13 1 14
REMARK SMILES IDX 15 15 14 16
REMARK H PARENT
REMARK Flexibility Score: 60.00
ROOT
ATOM      1  C   UNL     1      -1.312   5.213  10.811  1.00  0.00    -0.067 C 
ATOM      2  C   UNL     1      -2.590   5.487  10.391  1.00  0.00    -0.077 C 
ATOM      3  C   UNL     1      -2.992   6.872   9.926  1.00  0.00     0.039 C 
ATOM      4  C   UNL     1      -3.655   4.409  10.349  1.00  0.00     0.039 C 
ENDROOT
BRANCH   1   5
ATOM      5  C   UNL     1      -0.234   6.292  10.822  1.00  0.00     0.035 C 
BRANCH   5   6
ATOM      6  C   UNL     1      -0.231   7.103  12.135  1.00  0.00     0.035 C 
BRANCH   6   7
ATOM      7  C   UNL     1       1.084   6.985  12.883  1.00  0.00    -0.077 C 
ATOM      8  C   UNL     1       2.276   7.749  12.370  1.00  0.00     0.039 C 
ATOM      9  C   UNL     1       1.242   6.212  13.984  1.00  0.00    -0.028 CG0
ATOM     10  G   UNL     1       0.164   5.346  14.589  1.00  0.00     0.000 G0
ENDBRANCH   6   7
ENDBRANCH   5   6
ENDBRANCH   1   5
BRANCH   1  11
ATOM     11  C   UNL     1      -0.893   3.804  11.215  1.00  0.00     0.058 C 
BRANCH  11  12
ATOM     12  C   UNL     1      -1.614   3.327  12.454  1.00  0.00    -0.024 C 
ATOM     13  C   UNL     1      -1.131   3.361  13.720  1.00  0.00    -0.077 C 
ATOM     14  C   UNL     1      -2.001   2.820  14.825  1.00  0.00     0.039 C 
BRANCH  13  15
ATOM     15  C   UNL     1       0.241   3.895  14.085  1.00  0.00     0.034 C 
BRANCH  15  16
ATOM     16  C   UNL     1       0.167   5.343  14.606  1.00  0.00     0.032 CG0
ATOM     17  G   UNL     1       1.233   6.211  13.985  1.00  0.00     0.000 G0
ENDBRANCH  15  16
ENDBRANCH  13  15
ENDBRANCH  11  12
ENDBRANCH   1  11
TORSDOF 0
ENDMDL
MODEL 7
REMARK VINA RESULT:    -3.381      1.727      4.316
REMARK INTER + INTRA:          -4.912
REMARK INTER:                  -5.701
REMARK INTRA:                   0.789
REMARK UNBOUND:                -0.148
REMARK SMILES CC1=CCC(=C(C)C)CCC(C)=CCC1
REMARK SMILES IDX 5 1 6 2 7 3 8 4 9 5 10 6 11 7 12 8 13 9 4 11 3 12 2 13 1 14
REMARK SMILES IDX 15 15 14 16
REMARK H PARENT
REMARK Flexibility Score: 60.00
ROOT
ATOM      1  C   UNL     1      -1.706   4.791  10.735  1.00  0.00    -0.067 C 
ATOM      2  C   UNL     1      -1.524   5.912   9.963  1.00  0.00    -0.077 C 
ATOM      3  C   UNL     1      -2.677   6.833   9.620  1.00  0.00     0.039 C 
ATOM      4  C   UNL     1      -0.155   6.295   9.437  1.00  0.00     0.039 C 
ENDROOT
BRANCH   1   5
ATOM      5  C   UNL     1      -3.079   4.426  11.290  1.00  0.00     0.035 C 
BRANCH   5   6
ATOM      6  C   UNL     1      -3.361   5.106  12.646  1.00  0.00     0.035 C 
BRANCH   6   7
ATOM      7  C   UNL     1      -2.088   5.437  13.402  1.00  0.00    -0.077 C 
ATOM      8  C   UNL     1      -1.555   6.844  13.332  1.00  0.00     0.039 C 
ATOM      9  C   UNL     1      -1.398   4.523  14.124  1.00  0.00    -0.028 CG0
ATOM     10  G   UNL     1      -1.770   3.066  14.249  1.00  0.00     0.000 G0
ENDBRANCH   6   7
ENDBRANCH   5   6
ENDBRANCH   1   5
BRANCH   1  11
ATOM     11  C   UNL     1      -0.533   3.903  11.134  1.00  0.00     0.058 C 
BRANCH  11  12
ATOM     12  C   UNL     1      -0.913   2.441  11.178  1.00  0.00    -0.024 C 
ATOM     13  C   UNL     1      -0.961   1.664  12.287  1.00  0.00    -0.077 C 
ATOM     14  C   UNL     1      -1.349   0.218  12.123  1.00  0.00     0.039 C 
BRANCH  13  15
ATOM     15  C   UNL     1      -0.631   2.162  13.682  1.00  0.00     0.034 C 
BRANCH  15  16
ATOM     16  C   UNL     1      -1.751   3.054  14.248  1.00  0.00     0.032 CG0
ATOM     17  G   UNL     1      -1.416   4.519  14.113  1.00  0.00     0.000 G0
ENDBRANCH  15  16
ENDBRANCH  13  15
ENDBRANCH  11  12
ENDBRANCH   1  11
TORSDOF 0
ENDMDL
MODEL 8
REMARK VINA RESULT:    -3.305      2.137      5.258
REMARK INTER + INTRA:          -4.805
REMARK INTER:                  -4.636
REMARK INTRA:                  -0.169
REMARK UNBOUND:                -0.148
REMARK SMILES CC1=CCC(=C(C)C)CCC(C)=CCC1
REMARK SMILES IDX 5 1 6 2 7 3 8 4 9 5 10 6 11 7 12 8 13 9 4 11 3 12 2 13 1 14
REMARK SMILES IDX 15 15 14 16
REMARK H PARENT
REMARK Flexibility Score: 60.00
ROOT
ATOM      1  C   UNL     1      -1.578   5.211  11.292  1.00  0.00    -0.067 C 
ATOM      2  C   UNL     1      -1.457   6.446  10.704  1.00  0.00    -0.077 C 
ATOM      3  C   UNL     1      -0.682   6.637   9.415  1.00  0.00     0.039 C 
ATOM      4  C   UNL     1      -2.112   7.674  11.304  1.00  0.00     0.039 C 
ENDROOT
BRANCH   1   5
ATOM      5  C   UNL     1      -0.944   3.971  10.669  1.00  0.00     0.035 C 
BRANCH   5   6
ATOM      6  C   UNL     1      -0.069   3.194  11.674  1.00  0.00     0.035 C 
BRANCH   6   7
ATOM      7  C   UNL     1      -0.647   1.831  12.009  1.00  0.00    -0.077 C 
ATOM      8  C   UNL     1      -1.041   0.918  10.878  1.00  0.00     0.039 C 
ATOM      9  C   UNL     1      -0.842   1.403  13.279  1.00  0.00    -0.028 CG0
ATOM     10  G   UNL     1      -0.551   2.216  14.516  1.00  0.00     0.000 G0
ENDBRANCH   6   7
ENDBRANCH   5   6
ENDBRANCH   1   5
BRANCH   1  11
ATOM     11  C   UNL     1      -2.413   5.009  12.552  1.00  0.00     0.058 C 
BRANCH  11  12
ATOM     12  C   UNL     1      -1.662   5.404  13.803  1.00  0.00    -0.024 C 
ATOM     13  C   UNL     1      -1.360   4.588  14.841  1.00  0.00    -0.077 C 
ATOM     14  C   UNL     1      -0.617   5.175  16.011  1.00  0.00     0.039 C 
BRANCH  13  15
ATOM     15  C   UNL     1      -1.743   3.120  14.899  1.00  0.00     0.034 C 
BRANCH  15  16
ATOM     16  C   UNL     1      -0.559   2.208  14.524  1.00  0.00     0.032 CG0
ATOM     17  G   UNL     1      -0.852   1.401  13.284  1.00  0.00     0.000 G0
ENDBRANCH  15  16
ENDBRANCH  13  15
ENDBRANCH  11  12
ENDBRANCH   1  11
TORSDOF 0
ENDMDL
MODEL 9
REMARK VINA RESULT:    -3.205      1.808      5.010
REMARK INTER + INTRA:          -4.665
REMARK INTER:                  -4.743
REMARK INTRA:                   0.078
REMARK UNBOUND:                -0.148
REMARK SMILES CC1=CCC(=C(C)C)CCC(C)=CCC1
REMARK SMILES IDX 5 1 6 2 7 3 8 4 9 5 10 6 11 7 12 8 13 9 4 11 3 12 2 13 1 14
REMARK SMILES IDX 15 15 14 16
REMARK H PARENT
REMARK Flexibility Score: 60.00
ROOT
ATOM      1  C   UNL     1       0.029   6.705  13.509  1.00  0.00    -0.067 C 
ATOM      2  C   UNL     1       1.349   6.854  13.858  1.00  0.00    -0.077 C 
ATOM      3  C   UNL     1       2.360   7.449  12.899  1.00  0.00     0.039 C 
ATOM      4  C   UNL     1       1.853   6.451  15.230  1.00  0.00     0.039 C 
ENDROOT
BRANCH   1   5
ATOM      5  C   UNL     1      -0.482   7.141  12.140  1.00  0.00     0.035 C 
BRANCH   5   6
ATOM      6  C   UNL     1      -0.376   6.016  11.090  1.00  0.00     0.035 C 
BRANCH   6   7
ATOM      7  C   UNL     1      -1.735   5.489  10.668  1.00  0.00    -0.077 C 
ATOM      8  C   UNL     1      -2.565   6.315   9.721  1.00  0.00     0.039 C 
ATOM      9  C   UNL     1      -2.246   4.318  11.116  1.00  0.00    -0.028 CG0
ATOM     10  G   UNL     1      -1.566   3.405  12.106  1.00  0.00     0.000 G0
ENDBRANCH   6   7
ENDBRANCH   5   6
ENDBRANCH   1   5
BRANCH   1  11
ATOM     11  C   UNL     1      -0.999   6.168  14.499  1.00  0.00     0.058 C 
BRANCH  11  12
ATOM     12  C   UNL     1      -0.629   4.797  15.018  1.00  0.00    -0.024 C 
ATOM     13  C   UNL     1      -1.147   3.620  14.595  1.00  0.00    -0.077 C 
ATOM     14  C   UNL     1      -0.660   2.354  15.251  1.00  0.00     0.039 C 
BRANCH  13  15
ATOM     15  C   UNL     1      -2.202   3.503  13.510  1.00  0.00     0.034 C 
BRANCH  15  16
ATOM     16  C   UNL     1      -1.570   3.395  12.110  1.00  0.00     0.032 CG0
ATOM     17  G   UNL     1      -2.252   4.308  11.121  1.00  0.00     0.000 G0
ENDBRANCH  15  16
ENDBRANCH  13  15
ENDBRANCH  11  12
ENDBRANCH   1  11
TORSDOF 0
ENDMDL
