MODEL 1
REMARK VINA RESULT:    -1.910      0.000      0.000
REMARK INTER + INTRA:          -3.868
REMARK INTER:                  -2.914
REMARK INTRA:                  -0.954
REMARK UNBOUND:                -0.954
REMARK SMILES O=C([O-])CCCCCCCCC(=O)[O-]
REMARK SMILES IDX 7 1 6 2 5 3 4 4 2 5 1 6 3 7 8 8 9 9 10 10 11 11 12 12 13 13
REMARK SMILES IDX 14 14
REMARK H PARENT
REMARK Flexibility Score: inf
ROOT
ATOM      1  C   UNL     1     -30.698 -34.791  15.162  1.00  0.00     0.000 C 
ENDROOT
BRANCH   1   2
ATOM      2  C   UNL     1     -31.408 -36.013  15.765  1.00  0.00     0.000 C 
BRANCH   2   3
ATOM      3  C   UNL     1     -32.107 -35.696  17.095  1.00  0.00     0.006 C 
BRANCH   3   4
ATOM      4  C   UNL     1     -32.887 -34.381  17.007  1.00  0.00     0.053 C 
BRANCH   4   5
ATOM      5  C   UNL     1     -34.131 -34.451  17.833  1.00  0.00     0.041 C 
ATOM      6  O   UNL     1     -34.494 -33.459  18.519  1.00  0.00    -0.550 OA
ATOM      7  O   UNL     1     -34.865 -35.630  17.885  1.00  0.00    -0.550 OA
ENDBRANCH   4   5
ENDBRANCH   3   4
ENDBRANCH   2   3
ENDBRANCH   1   2
BRANCH   1   8
ATOM      8  C   UNL     1     -30.168 -35.053  13.744  1.00  0.00     0.000 C 
BRANCH   8   9
ATOM      9  C   UNL     1     -31.066 -36.045  12.997  1.00  0.00     0.000 C 
BRANCH   9  10
ATOM     10  C   UNL     1     -32.189 -35.316  12.249  1.00  0.00     0.006 C 
BRANCH  10  11
ATOM     11  C   UNL     1     -33.542 -35.993  12.491  1.00  0.00     0.053 C 
BRANCH  11  12
ATOM     12  C   UNL     1     -34.246 -35.358  13.647  1.00  0.00     0.041 C 
ATOM     13  O   UNL     1     -34.782 -36.073  14.533  1.00  0.00    -0.550 OA
ATOM     14  O   UNL     1     -34.268 -33.974  13.774  1.00  0.00    -0.550 OA
ENDBRANCH  11  12
ENDBRANCH  10  11
ENDBRANCH   9  10
ENDBRANCH   8   9
ENDBRANCH   1   8
TORSDOF 9
ENDMDL
MODEL 2
REMARK VINA RESULT:    -1.835      2.338      3.239
REMARK INTER + INTRA:          -3.754
REMARK INTER:                  -2.963
REMARK INTRA:                  -0.791
REMARK UNBOUND:                -0.954
REMARK SMILES O=C([O-])CCCCCCCCC(=O)[O-]
REMARK SMILES IDX 7 1 6 2 5 3 4 4 2 5 1 6 3 7 8 8 9 9 10 10 11 11 12 12 13 13
REMARK SMILES IDX 14 14
REMARK H PARENT
REMARK Flexibility Score: inf
ROOT
ATOM      1  C   UNL     1     -33.854 -33.939  14.910  1.00  0.00     0.000 C 
ENDROOT
BRANCH   1   2
ATOM      2  C   UNL     1     -35.124 -34.741  15.227  1.00  0.00     0.000 C 
BRANCH   2   3
ATOM      3  C   UNL     1     -34.917 -35.755  16.363  1.00  0.00     0.006 C 
BRANCH   3   4
ATOM      4  C   UNL     1     -33.491 -35.677  16.915  1.00  0.00     0.053 C 
BRANCH   4   5
ATOM      5  C   UNL     1     -33.504 -35.236  18.344  1.00  0.00     0.041 C 
ATOM      6  O   UNL     1     -32.748 -35.789  19.186  1.00  0.00    -0.550 OA
ATOM      7  O   UNL     1     -34.388 -34.248  18.758  1.00  0.00    -0.550 OA
ENDBRANCH   4   5
ENDBRANCH   3   4
ENDBRANCH   2   3
ENDBRANCH   1   2
BRANCH   1   8
ATOM      8  C   UNL     1     -33.441 -34.041  13.433  1.00  0.00     0.000 C 
BRANCH   8   9
ATOM      9  C   UNL     1     -33.699 -35.451  12.888  1.00  0.00     0.000 C 
BRANCH   9  10
ATOM     10  C   UNL     1     -32.390 -36.124  12.459  1.00  0.00     0.006 C 
BRANCH  10  11
ATOM     11  C   UNL     1     -31.197 -35.186  12.664  1.00  0.00     0.053 C 
BRANCH  11  12
ATOM     12  C   UNL     1     -30.210 -35.793  13.609  1.00  0.00     0.041 C 
ATOM     13  O   UNL     1     -29.014 -35.964  13.253  1.00  0.00    -0.550 OA
ATOM     14  O   UNL     1     -30.597 -36.125  14.901  1.00  0.00    -0.550 OA
ENDBRANCH  11  12
ENDBRANCH  10  11
ENDBRANCH   9  10
ENDBRANCH   8   9
ENDBRANCH   1   8
TORSDOF 9
ENDMDL
MODEL 3
REMARK VINA RESULT:    -1.817      1.511      4.246
REMARK INTER + INTRA:          -3.727
REMARK INTER:                  -2.849
REMARK INTRA:                  -0.877
REMARK UNBOUND:                -0.954
REMARK SMILES O=C([O-])CCCCCCCCC(=O)[O-]
REMARK SMILES IDX 7 1 6 2 5 3 4 4 2 5 1 6 3 7 8 8 9 9 10 10 11 11 12 12 13 13
REMARK SMILES IDX 14 14
REMARK H PARENT
REMARK Flexibility Score: inf
ROOT
ATOM      1  C   UNL     1     -30.678 -33.534  14.054  1.00  0.00     0.000 C 
ENDROOT
BRANCH   1   2
ATOM      2  C   UNL     1     -30.700 -34.833  13.235  1.00  0.00     0.000 C 
BRANCH   2   3
ATOM      3  C   UNL     1     -31.403 -34.668  11.880  1.00  0.00     0.006 C 
BRANCH   3   4
ATOM      4  C   UNL     1     -32.593 -33.710  11.991  1.00  0.00     0.053 C 
BRANCH   4   5
ATOM      5  C   UNL     1     -33.861 -34.472  12.210  1.00  0.00     0.041 C 
ATOM      6  O   UNL     1     -33.868 -35.729  12.130  1.00  0.00    -0.550 OA
ATOM      7  O   UNL     1     -35.048 -33.791  12.454  1.00  0.00    -0.550 OA
ENDBRANCH   4   5
ENDBRANCH   3   4
ENDBRANCH   2   3
ENDBRANCH   1   2
BRANCH   1   8
ATOM      8  C   UNL     1     -31.218 -33.723  15.481  1.00  0.00     0.000 C 
BRANCH   8   9
ATOM      9  C   UNL     1     -30.864 -35.113  16.021  1.00  0.00     0.000 C 
BRANCH   9  10
ATOM     10  C   UNL     1     -32.088 -35.787  16.652  1.00  0.00     0.006 C 
BRANCH  10  11
ATOM     11  C   UNL     1     -33.275 -35.791  15.683  1.00  0.00     0.053 C 
BRANCH  11  12
ATOM     12  C   UNL     1     -34.479 -35.182  16.327  1.00  0.00     0.041 C 
ATOM     13  O   UNL     1     -35.022 -34.165  15.822  1.00  0.00    -0.550 OA
ATOM     14  O   UNL     1     -35.032 -35.766  17.460  1.00  0.00    -0.550 OA
ENDBRANCH  11  12
ENDBRANCH  10  11
ENDBRANCH   9  10
ENDBRANCH   8   9
ENDBRANCH   1   8
TORSDOF 9
ENDMDL
MODEL 4
REMARK VINA RESULT:    -1.815     23.268     24.990
REMARK INTER + INTRA:          -3.723
REMARK INTER:                  -3.124
REMARK INTRA:                  -0.600
REMARK UNBOUND:                -0.954
REMARK SMILES O=C([O-])CCCCCCCCC(=O)[O-]
REMARK SMILES IDX 7 1 6 2 5 3 4 4 2 5 1 6 3 7 8 8 9 9 10 10 11 11 12 12 13 13
REMARK SMILES IDX 14 14
REMARK H PARENT
REMARK Flexibility Score: inf
ROOT
ATOM      1  C   UNL     1     -15.524 -25.546  31.018  1.00  0.00     0.000 C 
ENDROOT
BRANCH   1   2
ATOM      2  C   UNL     1     -15.234 -27.010  31.378  1.00  0.00     0.000 C 
BRANCH   2   3
ATOM      3  C   UNL     1     -16.510 -27.855  31.504  1.00  0.00     0.006 C 
BRANCH   3   4
ATOM      4  C   UNL     1     -17.675 -27.204  30.753  1.00  0.00     0.053 C 
BRANCH   4   5
ATOM      5  C   UNL     1     -18.968 -27.861  31.117  1.00  0.00     0.041 C 
ATOM      6  O   UNL     1     -20.021 -27.177  31.221  1.00  0.00    -0.550 OA
ATOM      7  O   UNL     1     -19.002 -29.222  31.393  1.00  0.00    -0.550 OA
ENDBRANCH   4   5
ENDBRANCH   3   4
ENDBRANCH   2   3
ENDBRANCH   1   2
BRANCH   1   8
ATOM      8  C   UNL     1     -14.875 -24.554  31.996  1.00  0.00     0.000 C 
BRANCH   8   9
ATOM      9  C   UNL     1     -15.718 -23.280  32.125  1.00  0.00     0.000 C 
BRANCH   9  10
ATOM     10  C   UNL     1     -17.055 -23.427  31.389  1.00  0.00     0.006 C 
BRANCH  10  11
ATOM     11  C   UNL     1     -17.429 -22.131  30.663  1.00  0.00     0.053 C 
BRANCH  11  12
ATOM     12  C   UNL     1     -18.285 -21.270  31.537  1.00  0.00     0.041 C 
ATOM     13  O   UNL     1     -17.791 -20.271  32.122  1.00  0.00    -0.550 OA
ATOM     14  O   UNL     1     -19.641 -21.543  31.668  1.00  0.00    -0.550 OA
ENDBRANCH  11  12
ENDBRANCH  10  11
ENDBRANCH   9  10
ENDBRANCH   8   9
ENDBRANCH   1   8
TORSDOF 9
ENDMDL
MODEL 5
REMARK VINA RESULT:    -1.783      3.062      4.857
REMARK INTER + INTRA:          -3.675
REMARK INTER:                  -2.666
REMARK INTRA:                  -1.008
REMARK UNBOUND:                -0.954
REMARK SMILES O=C([O-])CCCCCCCCC(=O)[O-]
REMARK SMILES IDX 7 1 6 2 5 3 4 4 2 5 1 6 3 7 8 8 9 9 10 10 11 11 12 12 13 13
REMARK SMILES IDX 14 14
REMARK H PARENT
REMARK Flexibility Score: inf
ROOT
ATOM      1  C   UNL     1     -34.337 -32.469  12.887  1.00  0.00     0.000 C 
ENDROOT
BRANCH   1   2
ATOM      2  C   UNL     1     -33.757 -32.449  14.309  1.00  0.00     0.000 C 
BRANCH   2   3
ATOM      3  C   UNL     1     -32.247 -32.174  14.331  1.00  0.00     0.006 C 
BRANCH   3   4
ATOM      4  C   UNL     1     -31.847 -31.212  13.208  1.00  0.00     0.053 C 
BRANCH   4   5
ATOM      5  C   UNL     1     -30.668 -31.742  12.457  1.00  0.00     0.041 C 
ATOM      6  O   UNL     1     -29.695 -30.988  12.188  1.00  0.00    -0.550 OA
ATOM      7  O   UNL     1     -30.663 -33.057  12.009  1.00  0.00    -0.550 OA
ENDBRANCH   4   5
ENDBRANCH   3   4
ENDBRANCH   2   3
ENDBRANCH   1   2
BRANCH   1   8
ATOM      8  C   UNL     1     -34.805 -33.868  12.457  1.00  0.00     0.000 C 
BRANCH   8   9
ATOM      9  C   UNL     1     -33.638 -34.688  11.893  1.00  0.00     0.000 C 
BRANCH   9  10
ATOM     10  C   UNL     1     -33.390 -35.945  12.736  1.00  0.00     0.006 C 
BRANCH  10  11
ATOM     11  C   UNL     1     -32.159 -35.773  13.631  1.00  0.00     0.053 C 
BRANCH  11  12
ATOM     12  C   UNL     1     -32.518 -36.001  15.065  1.00  0.00     0.041 C 
ATOM     13  O   UNL     1     -31.615 -36.113  15.934  1.00  0.00    -0.550 OA
ATOM     14  O   UNL     1     -33.852 -36.042  15.450  1.00  0.00    -0.550 OA
ENDBRANCH  11  12
ENDBRANCH  10  11
ENDBRANCH   9  10
ENDBRANCH   8   9
ENDBRANCH   1   8
TORSDOF 9
ENDMDL
MODEL 6
REMARK VINA RESULT:    -1.746      2.738      3.683
REMARK INTER + INTRA:          -3.618
REMARK INTER:                  -2.750
REMARK INTRA:                  -0.868
REMARK UNBOUND:                -0.954
REMARK SMILES O=C([O-])CCCCCCCCC(=O)[O-]
REMARK SMILES IDX 7 1 6 2 5 3 4 4 2 5 1 6 3 7 8 8 9 9 10 10 11 11 12 12 13 13
REMARK SMILES IDX 14 14
REMARK H PARENT
REMARK Flexibility Score: inf
ROOT
ATOM      1  C   UNL     1     -34.506 -35.697  14.779  1.00  0.00     0.000 C 
ENDROOT
BRANCH   1   2
ATOM      2  C   UNL     1     -33.666 -36.118  15.994  1.00  0.00     0.000 C 
BRANCH   2   3
ATOM      3  C   UNL     1     -32.896 -34.946  16.619  1.00  0.00     0.006 C 
BRANCH   3   4
ATOM      4  C   UNL     1     -31.392 -35.074  16.354  1.00  0.00     0.053 C 
BRANCH   4   5
ATOM      5  C   UNL     1     -30.747 -33.725  16.329  1.00  0.00     0.041 C 
ATOM      6  O   UNL     1     -31.432 -32.699  16.077  1.00  0.00    -0.550 OA
ATOM      7  O   UNL     1     -29.378 -33.606  16.534  1.00  0.00    -0.550 OA
ENDBRANCH   4   5
ENDBRANCH   3   4
ENDBRANCH   2   3
ENDBRANCH   1   2
BRANCH   1   8
ATOM      8  C   UNL     1     -33.872 -36.122  13.445  1.00  0.00     0.000 C 
BRANCH   8   9
ATOM      9  C   UNL     1     -33.772 -34.932  12.482  1.00  0.00     0.000 C 
BRANCH   9  10
ATOM     10  C   UNL     1     -32.368 -34.832  11.875  1.00  0.00     0.006 C 
BRANCH  10  11
ATOM     11  C   UNL     1     -31.368 -35.692  12.655  1.00  0.00     0.053 C 
BRANCH  11  12
ATOM     12  C   UNL     1     -30.149 -34.897  12.997  1.00  0.00     0.041 C 
ATOM     13  O   UNL     1     -29.070 -35.482  13.280  1.00  0.00    -0.550 OA
ATOM     14  O   UNL     1     -30.188 -33.509  12.956  1.00  0.00    -0.550 OA
ENDBRANCH  11  12
ENDBRANCH  10  11
ENDBRANCH   9  10
ENDBRANCH   8   9
ENDBRANCH   1   8
TORSDOF 9
ENDMDL
MODEL 7
REMARK VINA RESULT:    -1.744     23.547     25.169
REMARK INTER + INTRA:          -3.615
REMARK INTER:                  -3.136
REMARK INTRA:                  -0.479
REMARK UNBOUND:                -0.954
REMARK SMILES O=C([O-])CCCCCCCCC(=O)[O-]
REMARK SMILES IDX 7 1 6 2 5 3 4 4 2 5 1 6 3 7 8 8 9 9 10 10 11 11 12 12 13 13
REMARK SMILES IDX 14 14
REMARK H PARENT
REMARK Flexibility Score: inf
ROOT
ATOM      1  C   UNL     1     -16.116 -25.652  30.768  1.00  0.00     0.000 C 
ENDROOT
BRANCH   1   2
ATOM      2  C   UNL     1     -15.006 -25.239  31.745  1.00  0.00     0.000 C 
BRANCH   2   3
ATOM      3  C   UNL     1     -14.983 -23.727  32.013  1.00  0.00     0.006 C 
BRANCH   3   4
ATOM      4  C   UNL     1     -16.405 -23.162  32.092  1.00  0.00     0.053 C 
BRANCH   4   5
ATOM      5  C   UNL     1     -16.465 -21.803  31.470  1.00  0.00     0.041 C 
ATOM      6  O   UNL     1     -17.210 -20.914  31.960  1.00  0.00    -0.550 OA
ATOM      7  O   UNL     1     -15.737 -21.533  30.318  1.00  0.00    -0.550 OA
ENDBRANCH   4   5
ENDBRANCH   3   4
ENDBRANCH   2   3
ENDBRANCH   1   2
BRANCH   1   8
ATOM      8  C   UNL     1     -16.089 -27.153  30.439  1.00  0.00     0.000 C 
BRANCH   8   9
ATOM      9  C   UNL     1     -15.208 -27.916  31.435  1.00  0.00     0.000 C 
BRANCH   9  10
ATOM     10  C   UNL     1     -15.999 -29.034  32.125  1.00  0.00     0.006 C 
BRANCH  10  11
ATOM     11  C   UNL     1     -17.120 -29.554  31.220  1.00  0.00     0.053 C 
BRANCH  11  12
ATOM     12  C   UNL     1     -17.199 -31.046  31.289  1.00  0.00     0.041 C 
ATOM     13  O   UNL     1     -16.170 -31.745  31.096  1.00  0.00    -0.550 OA
ATOM     14  O   UNL     1     -18.400 -31.664  31.615  1.00  0.00    -0.550 OA
ENDBRANCH  11  12
ENDBRANCH  10  11
ENDBRANCH   9  10
ENDBRANCH   8   9
ENDBRANCH   1   8
TORSDOF 9
ENDMDL
MODEL 8
REMARK VINA RESULT:    -1.697      1.279      4.450
REMARK INTER + INTRA:          -3.543
REMARK INTER:                  -2.751
REMARK INTRA:                  -0.791
REMARK UNBOUND:                -0.954
REMARK SMILES O=C([O-])CCCCCCCCC(=O)[O-]
REMARK SMILES IDX 7 1 6 2 5 3 4 4 2 5 1 6 3 7 8 8 9 9 10 10 11 11 12 12 13 13
REMARK SMILES IDX 14 14
REMARK H PARENT
REMARK Flexibility Score: inf
ROOT
ATOM      1  C   UNL     1     -30.210 -35.444  13.354  1.00  0.00     0.000 C 
ENDROOT
BRANCH   1   2
ATOM      2  C   UNL     1     -31.115 -34.375  12.723  1.00  0.00     0.000 C 
BRANCH   2   3
ATOM      3  C   UNL     1     -32.246 -34.979  11.878  1.00  0.00     0.006 C 
BRANCH   3   4
ATOM      4  C   UNL     1     -33.329 -35.594  12.769  1.00  0.00     0.053 C 
BRANCH   4   5
ATOM      5  C   UNL     1     -34.158 -34.523  13.403  1.00  0.00     0.041 C 
ATOM      6  O   UNL     1     -34.235 -34.440  14.658  1.00  0.00    -0.550 OA
ATOM      7  O   UNL     1     -34.886 -33.646  12.610  1.00  0.00    -0.550 OA
ENDBRANCH   4   5
ENDBRANCH   3   4
ENDBRANCH   2   3
ENDBRANCH   1   2
BRANCH   1   8
ATOM      8  C   UNL     1     -29.649 -35.016  14.719  1.00  0.00     0.000 C 
BRANCH   8   9
ATOM      9  C   UNL     1     -30.774 -34.560  15.656  1.00  0.00     0.000 C 
BRANCH   9  10
ATOM     10  C   UNL     1     -31.433 -35.759  16.349  1.00  0.00     0.006 C 
BRANCH  10  11
ATOM     11  C   UNL     1     -31.253 -35.684  17.868  1.00  0.00     0.053 C 
BRANCH  11  12
ATOM     12  C   UNL     1     -32.571 -35.472  18.541  1.00  0.00     0.041 C 
ATOM     13  O   UNL     1     -33.501 -34.872  17.940  1.00  0.00    -0.550 OA
ATOM     14  O   UNL     1     -32.791 -35.978  19.816  1.00  0.00    -0.550 OA
ENDBRANCH  11  12
ENDBRANCH  10  11
ENDBRANCH   9  10
ENDBRANCH   8   9
ENDBRANCH   1   8
TORSDOF 9
ENDMDL
MODEL 9
REMARK VINA RESULT:    -1.693      2.924      5.161
REMARK INTER + INTRA:          -3.538
REMARK INTER:                  -2.562
REMARK INTRA:                  -0.976
REMARK UNBOUND:                -0.954
REMARK SMILES O=C([O-])CCCCCCCCC(=O)[O-]
REMARK SMILES IDX 7 1 6 2 5 3 4 4 2 5 1 6 3 7 8 8 9 9 10 10 11 11 12 12 13 13
REMARK SMILES IDX 14 14
REMARK H PARENT
REMARK Flexibility Score: inf
ROOT
ATOM      1  C   UNL     1     -34.179 -34.871  15.756  1.00  0.00     0.000 C 
ENDROOT
BRANCH   1   2
ATOM      2  C   UNL     1     -34.754 -34.840  14.332  1.00  0.00     0.000 C 
BRANCH   2   3
ATOM      3  C   UNL     1     -34.014 -35.783  13.372  1.00  0.00     0.006 C 
BRANCH   3   4
ATOM      4  C   UNL     1     -33.451 -35.014  12.173  1.00  0.00     0.053 C 
BRANCH   4   5
ATOM      5  C   UNL     1     -32.050 -34.566  12.447  1.00  0.00     0.041 C 
ATOM      6  O   UNL     1     -31.083 -35.348  12.247  1.00  0.00    -0.550 OA
ATOM      7  O   UNL     1     -31.816 -33.301  12.972  1.00  0.00    -0.550 OA
ENDBRANCH   4   5
ENDBRANCH   3   4
ENDBRANCH   2   3
ENDBRANCH   1   2
BRANCH   1   8
ATOM      8  C   UNL     1     -33.314 -36.113  16.019  1.00  0.00     0.000 C 
BRANCH   8   9
ATOM      9  C   UNL     1     -31.993 -35.729  16.696  1.00  0.00     0.000 C 
BRANCH   9  10
ATOM     10  C   UNL     1     -30.813 -35.893  15.732  1.00  0.00     0.006 C 
BRANCH  10  11
ATOM     11  C   UNL     1     -29.954 -34.625  15.691  1.00  0.00     0.053 C 
BRANCH  11  12
ATOM     12  C   UNL     1     -28.835 -34.781  14.712  1.00  0.00     0.041 C 
ATOM     13  O   UNL     1     -28.422 -35.929  14.400  1.00  0.00    -0.550 OA
ATOM     14  O   UNL     1     -28.278 -33.662  14.107  1.00  0.00    -0.550 OA
ENDBRANCH  11  12
ENDBRANCH  10  11
ENDBRANCH   9  10
ENDBRANCH   8   9
ENDBRANCH   1   8
TORSDOF 9
ENDMDL
