MODEL 1
REMARK VINA RESULT:    -2.582      0.000      0.000
REMARK INTER + INTRA:          -3.424
REMARK INTER:                  -3.261
REMARK INTRA:                  -0.163
REMARK UNBOUND:                -0.163
REMARK SMILES COc1cc(-c2[o+]c3cc(O)cc(O)c3cc2O)cc(O)c1O
REMARK SMILES IDX 6 1 7 2 8 3 9 4 10 5 12 6 13 7 15 8 16 9 17 10 5 11 3 12
REMARK SMILES IDX 4 13 22 14 20 15 19 16 2 17 1 18 23 19 21 21 18 23 11 25
REMARK SMILES IDX 14 27
REMARK H PARENT 23 20 21 22 18 24 11 26 14 28
REMARK Flexibility Score: inf
ROOT
ATOM      1  C   UNL     1      12.296  35.058  13.604  1.00  0.00     0.402 A 
ATOM      2  O   UNL     1      13.035  36.153  13.449  1.00  0.00    -0.202 OA
ATOM      3  C   UNL     1      14.106  36.206  12.663  1.00  0.00     0.368 A 
ATOM      4  C   UNL     1      14.820  37.403  12.567  1.00  0.00     0.162 A 
ATOM      5  C   UNL     1      15.952  37.486  11.751  1.00  0.00     0.128 A 
ATOM      6  C   UNL     1      16.371  36.366  11.028  1.00  0.00     0.093 A 
ATOM      7  C   UNL     1      15.673  35.154  11.108  1.00  0.00     0.136 A 
ATOM      8  C   UNL     1      14.522  35.067  11.933  1.00  0.00     0.125 A 
ATOM      9  C   UNL     1      13.753  33.899  12.064  1.00  0.00     0.078 A 
ATOM     10  C   UNL     1      12.628  33.890  12.894  1.00  0.00     0.223 A 
ENDROOT
BRANCH   1  11
ATOM     11  C   UNL     1      11.132  35.121  14.517  1.00  0.00     0.091 A 
ATOM     12  C   UNL     1       8.736  34.899  14.947  1.00  0.00     0.165 A 
ATOM     13  C   UNL     1       9.830  34.853  14.062  1.00  0.00     0.069 A 
ATOM     14  C   UNL     1       8.956  35.201  16.299  1.00  0.00     0.200 A 
ATOM     15  C   UNL     1      10.257  35.448  16.766  1.00  0.00     0.162 A 
ATOM     16  C   UNL     1      11.338  35.400  15.876  1.00  0.00     0.068 A 
BRANCH  12  17
ATOM     17  O   UNL     1       7.422  34.647  14.524  1.00  0.00    -0.493 OA
ATOM     18  C   UNL     1       6.773  33.383  14.613  1.00  0.00     0.278 C 
ENDBRANCH  12  17
BRANCH  14  19
ATOM     19  O   UNL     1       7.865  35.248  17.169  1.00  0.00    -0.502 OA
ATOM     20  H   UNL     1       7.365  36.107  17.361  1.00  0.00     0.293 HD
ENDBRANCH  14  19
BRANCH  15  21
ATOM     21  O   UNL     1      10.472  35.739  18.112  1.00  0.00    -0.504 OA
ATOM     22  H   UNL     1      10.449  36.691  18.460  1.00  0.00     0.293 HD
ENDBRANCH  15  21
ENDBRANCH   1  11
BRANCH  10  23
ATOM     23  O   UNL     1      11.835  32.745  12.985  1.00  0.00    -0.500 OA
ATOM     24  H   UNL     1      10.898  32.715  12.601  1.00  0.00     0.294 HD
ENDBRANCH  10  23
BRANCH   5  25
ATOM     25  O   UNL     1      16.669  38.676  11.650  1.00  0.00    -0.507 OA
ATOM     26  H   UNL     1      16.876  39.095  10.752  1.00  0.00     0.293 HD
ENDBRANCH   5  25
BRANCH   7  27
ATOM     27  O   UNL     1      16.159  34.081  10.356  1.00  0.00    -0.507 OA
ATOM     28  H   UNL     1      16.249  33.137  10.703  1.00  0.00     0.293 HD
ENDBRANCH   7  27
TORSDOF 7
ENDMDL
MODEL 2
REMARK VINA RESULT:    -2.047      5.397      9.110
REMARK INTER + INTRA:          -2.749
REMARK INTER:                  -3.066
REMARK INTRA:                   0.317
REMARK UNBOUND:                -0.163
REMARK SMILES COc1cc(-c2[o+]c3cc(O)cc(O)c3cc2O)cc(O)c1O
REMARK SMILES IDX 6 1 7 2 8 3 9 4 10 5 12 6 13 7 15 8 16 9 17 10 5 11 3 12
REMARK SMILES IDX 4 13 22 14 20 15 19 16 2 17 1 18 23 19 21 21 18 23 11 25
REMARK SMILES IDX 14 27
REMARK H PARENT 23 20 21 22 18 24 11 26 14 28
REMARK Flexibility Score: inf
ROOT
ATOM      1  C   UNL     1      16.596  39.692  11.463  1.00  0.00     0.402 A 
ATOM      2  O   UNL     1      16.231  38.746  10.603  1.00  0.00    -0.202 OA
ATOM      3  C   UNL     1      16.070  37.471  10.944  1.00  0.00     0.368 A 
ATOM      4  C   UNL     1      15.686  36.548   9.968  1.00  0.00     0.162 A 
ATOM      5  C   UNL     1      15.514  35.201  10.298  1.00  0.00     0.128 A 
ATOM      6  C   UNL     1      15.727  34.775  11.611  1.00  0.00     0.093 A 
ATOM      7  C   UNL     1      16.112  35.679  12.609  1.00  0.00     0.136 A 
ATOM      8  C   UNL     1      16.286  37.048  12.278  1.00  0.00     0.125 A 
ATOM      9  C   UNL     1      16.657  38.027  13.214  1.00  0.00     0.078 A 
ATOM     10  C   UNL     1      16.805  39.359  12.814  1.00  0.00     0.223 A 
ENDROOT
BRANCH   1  11
ATOM     11  C   UNL     1      16.752  41.075  10.959  1.00  0.00     0.091 A 
ATOM     12  C   UNL     1      16.996  42.668   9.122  1.00  0.00     0.165 A 
ATOM     13  C   UNL     1      16.868  41.345   9.586  1.00  0.00     0.069 A 
ATOM     14  C   UNL     1      16.993  43.725  10.043  1.00  0.00     0.200 A 
ATOM     15  C   UNL     1      16.855  43.465  11.416  1.00  0.00     0.162 A 
ATOM     16  C   UNL     1      16.728  42.144  11.867  1.00  0.00     0.068 A 
BRANCH  12  17
ATOM     17  O   UNL     1      17.125  42.972   7.757  1.00  0.00    -0.493 OA
ATOM     18  C   UNL     1      17.116  42.007   6.711  1.00  0.00     0.278 C 
ENDBRANCH  12  17
BRANCH  14  19
ATOM     19  O   UNL     1      17.125  45.033   9.575  1.00  0.00    -0.502 OA
ATOM     20  H   UNL     1      18.028  45.476   9.459  1.00  0.00     0.293 HD
ENDBRANCH  14  19
BRANCH  15  21
ATOM     21  O   UNL     1      16.843  44.518  12.329  1.00  0.00    -0.504 OA
ATOM     22  H   UNL     1      16.725  44.359  13.323  1.00  0.00     0.293 HD
ENDBRANCH  15  21
ENDBRANCH   1  11
BRANCH  10  23
ATOM     23  O   UNL     1      17.125  40.340  13.753  1.00  0.00    -0.500 OA
ATOM     24  H   UNL     1      16.899  41.316  13.601  1.00  0.00     0.294 HD
ENDBRANCH  10  23
BRANCH   5  25
ATOM     25  O   UNL     1      15.131  34.276   9.329  1.00  0.00    -0.507 OA
ATOM     26  H   UNL     1      14.304  33.703   9.442  1.00  0.00     0.293 HD
ENDBRANCH   5  25
BRANCH   7  27
ATOM     27  O   UNL     1      16.308  35.173  13.896  1.00  0.00    -0.507 OA
ATOM     28  H   UNL     1      16.597  35.727  14.690  1.00  0.00     0.293 HD
ENDBRANCH   7  27
TORSDOF 7
ENDMDL
MODEL 3
REMARK VINA RESULT:    -1.992      5.383      9.116
REMARK INTER + INTRA:          -2.679
REMARK INTER:                  -2.920
REMARK INTRA:                   0.241
REMARK UNBOUND:                -0.163
REMARK SMILES COc1cc(-c2[o+]c3cc(O)cc(O)c3cc2O)cc(O)c1O
REMARK SMILES IDX 6 1 7 2 8 3 9 4 10 5 12 6 13 7 15 8 16 9 17 10 5 11 3 12
REMARK SMILES IDX 4 13 22 14 20 15 19 16 2 17 1 18 23 19 21 21 18 23 11 25
REMARK SMILES IDX 14 27
REMARK H PARENT 23 20 21 22 18 24 11 26 14 28
REMARK Flexibility Score: inf
ROOT
ATOM      1  C   UNL     1      16.495  39.664  11.481  1.00  0.00     0.402 A 
ATOM      2  O   UNL     1      16.103  38.706  10.647  1.00  0.00    -0.202 OA
ATOM      3  C   UNL     1      15.978  37.432  11.007  1.00  0.00     0.368 A 
ATOM      4  C   UNL     1      15.561  36.495  10.057  1.00  0.00     0.162 A 
ATOM      5  C   UNL     1      15.425  35.149  10.406  1.00  0.00     0.128 A 
ATOM      6  C   UNL     1      15.707  34.737  11.711  1.00  0.00     0.093 A 
ATOM      7  C   UNL     1      16.127  35.656  12.681  1.00  0.00     0.136 A 
ATOM      8  C   UNL     1      16.264  37.024  12.332  1.00  0.00     0.125 A 
ATOM      9  C   UNL     1      16.666  38.016  13.240  1.00  0.00     0.078 A 
ATOM     10  C   UNL     1      16.774  39.347  12.824  1.00  0.00     0.223 A 
ENDROOT
BRANCH   1  11
ATOM     11  C   UNL     1      16.606  41.045  10.960  1.00  0.00     0.091 A 
ATOM     12  C   UNL     1      16.710  43.463  11.308  1.00  0.00     0.165 A 
ATOM     13  C   UNL     1      16.584  42.156  11.819  1.00  0.00     0.069 A 
ATOM     14  C   UNL     1      16.873  43.650   9.928  1.00  0.00     0.200 A 
ATOM     15  C   UNL     1      16.919  42.543   9.065  1.00  0.00     0.162 A 
ATOM     16  C   UNL     1      16.793  41.248   9.585  1.00  0.00     0.068 A 
BRANCH  12  17
ATOM     17  O   UNL     1      16.680  44.595  12.137  1.00  0.00    -0.493 OA
ATOM     18  C   UNL     1      15.724  44.817  13.167  1.00  0.00     0.278 C 
ENDBRANCH  12  17
BRANCH  14  19
ATOM     19  O   UNL     1      16.993  44.948   9.429  1.00  0.00    -0.502 OA
ATOM     20  H   UNL     1      16.592  45.224   8.542  1.00  0.00     0.293 HD
ENDBRANCH  14  19
BRANCH  15  21
ATOM     21  O   UNL     1      17.091  42.732   7.695  1.00  0.00    -0.504 OA
ATOM     22  H   UNL     1      17.388  41.978   7.087  1.00  0.00     0.293 HD
ENDBRANCH  15  21
ENDBRANCH   1  11
BRANCH  10  23
ATOM     23  O   UNL     1      17.124  40.341  13.738  1.00  0.00    -0.500 OA
ATOM     24  H   UNL     1      16.838  41.304  13.612  1.00  0.00     0.294 HD
ENDBRANCH  10  23
BRANCH   5  25
ATOM     25  O   UNL     1      15.010  34.210   9.464  1.00  0.00    -0.507 OA
ATOM     26  H   UNL     1      14.789  34.476   8.513  1.00  0.00     0.293 HD
ENDBRANCH   5  25
BRANCH   7  27
ATOM     27  O   UNL     1      16.392  35.163  13.962  1.00  0.00    -0.507 OA
ATOM     28  H   UNL     1      17.208  34.621  14.207  1.00  0.00     0.293 HD
ENDBRANCH   7  27
TORSDOF 7
ENDMDL
MODEL 4
REMARK VINA RESULT:    -1.069      5.295      8.118
REMARK INTER + INTRA:          -1.513
REMARK INTER:                  -1.946
REMARK INTRA:                   0.433
REMARK UNBOUND:                -0.163
REMARK SMILES COc1cc(-c2[o+]c3cc(O)cc(O)c3cc2O)cc(O)c1O
REMARK SMILES IDX 6 1 7 2 8 3 9 4 10 5 12 6 13 7 15 8 16 9 17 10 5 11 3 12
REMARK SMILES IDX 4 13 22 14 20 15 19 16 2 17 1 18 23 19 21 21 18 23 11 25
REMARK SMILES IDX 14 27
REMARK H PARENT 23 20 21 22 18 24 11 26 14 28
REMARK Flexibility Score: inf
ROOT
ATOM      1  C   UNL     1      16.375  39.655  11.508  1.00  0.00     0.402 A 
ATOM      2  O   UNL     1      16.132  40.339  10.394  1.00  0.00    -0.202 OA
ATOM      3  C   UNL     1      16.245  41.661  10.310  1.00  0.00     0.368 A 
ATOM      4  C   UNL     1      15.964  42.292   9.096  1.00  0.00     0.162 A 
ATOM      5  C   UNL     1      16.072  43.681   8.980  1.00  0.00     0.128 A 
ATOM      6  C   UNL     1      16.460  44.442  10.085  1.00  0.00     0.093 A 
ATOM      7  C   UNL     1      16.746  43.834  11.314  1.00  0.00     0.136 A 
ATOM      8  C   UNL     1      16.641  42.425  11.435  1.00  0.00     0.125 A 
ATOM      9  C   UNL     1      16.921  41.728  12.622  1.00  0.00     0.078 A 
ATOM     10  C   UNL     1      16.799  40.336  12.664  1.00  0.00     0.223 A 
ENDROOT
BRANCH   1  11
ATOM     11  C   UNL     1      16.204  38.184  11.479  1.00  0.00     0.091 A 
ATOM     12  C   UNL     1      15.952  36.036  12.618  1.00  0.00     0.165 A 
ATOM     13  C   UNL     1      16.134  37.432  12.663  1.00  0.00     0.069 A 
ATOM     14  C   UNL     1      15.825  35.398  11.376  1.00  0.00     0.200 A 
ATOM     15  C   UNL     1      15.871  36.146  10.189  1.00  0.00     0.162 A 
ATOM     16  C   UNL     1      16.053  37.534  10.246  1.00  0.00     0.068 A 
BRANCH  12  17
ATOM     17  O   UNL     1      15.889  35.253  13.781  1.00  0.00    -0.493 OA
ATOM     18  C   UNL     1      16.913  34.364  14.212  1.00  0.00     0.278 C 
ENDBRANCH  12  17
BRANCH  14  19
ATOM     19  O   UNL     1      15.648  34.013  11.340  1.00  0.00    -0.502 OA
ATOM     20  H   UNL     1      15.493  33.468  12.179  1.00  0.00     0.293 HD
ENDBRANCH  14  19
BRANCH  15  21
ATOM     21  O   UNL     1      15.735  35.509   8.956  1.00  0.00    -0.504 OA
ATOM     22  H   UNL     1      16.146  34.600   8.780  1.00  0.00     0.293 HD
ENDBRANCH  15  21
ENDBRANCH   1  11
BRANCH  10  23
ATOM     23  O   UNL     1      17.125  39.639  13.828  1.00  0.00    -0.500 OA
ATOM     24  H   UNL     1      17.731  40.038  14.535  1.00  0.00     0.294 HD
ENDBRANCH  10  23
BRANCH   5  25
ATOM     25  O   UNL     1      15.794  44.316   7.772  1.00  0.00    -0.507 OA
ATOM     26  H   UNL     1      15.205  43.885   7.070  1.00  0.00     0.293 HD
ENDBRANCH   5  25
BRANCH   7  27
ATOM     27  O   UNL     1      17.125  44.666  12.371  1.00  0.00    -0.507 OA
ATOM     28  H   UNL     1      17.174  44.375  13.337  1.00  0.00     0.293 HD
ENDBRANCH   7  27
TORSDOF 7
ENDMDL
MODEL 5
REMARK VINA RESULT:    -0.853      0.953      2.163
REMARK INTER + INTRA:          -1.240
REMARK INTER:                  -0.792
REMARK INTRA:                  -0.448
REMARK UNBOUND:                -0.163
REMARK SMILES COc1cc(-c2[o+]c3cc(O)cc(O)c3cc2O)cc(O)c1O
REMARK SMILES IDX 6 1 7 2 8 3 9 4 10 5 12 6 13 7 15 8 16 9 17 10 5 11 3 12
REMARK SMILES IDX 4 13 22 14 20 15 19 16 2 17 1 18 23 19 21 21 18 23 11 25
REMARK SMILES IDX 14 27
REMARK H PARENT 23 20 21 22 18 24 11 26 14 28
REMARK Flexibility Score: inf
ROOT
ATOM      1  C   UNL     1      12.614  35.124  13.329  1.00  0.00     0.402 A 
ATOM      2  O   UNL     1      13.319  36.233  13.125  1.00  0.00    -0.202 OA
ATOM      3  C   UNL     1      14.467  36.256  12.456  1.00  0.00     0.368 A 
ATOM      4  C   UNL     1      15.137  37.471  12.295  1.00  0.00     0.162 A 
ATOM      5  C   UNL     1      16.348  37.523  11.599  1.00  0.00     0.128 A 
ATOM      6  C   UNL     1      16.892  36.354  11.062  1.00  0.00     0.093 A 
ATOM      7  C   UNL     1      16.241  35.123  11.210  1.00  0.00     0.136 A 
ATOM      8  C   UNL     1      15.010  35.066  11.913  1.00  0.00     0.125 A 
ATOM      9  C   UNL     1      14.281  33.880  12.099  1.00  0.00     0.078 A 
ATOM     10  C   UNL     1      13.071  33.903  12.800  1.00  0.00     0.223 A 
ENDROOT
BRANCH   1  11
ATOM     11  C   UNL     1      11.354  35.226  14.100  1.00  0.00     0.091 A 
ATOM     12  C   UNL     1      10.136  35.227  16.219  1.00  0.00     0.165 A 
ATOM     13  C   UNL     1      11.341  35.108  15.500  1.00  0.00     0.069 A 
ATOM     14  C   UNL     1       8.943  35.479  15.528  1.00  0.00     0.200 A 
ATOM     15  C   UNL     1       8.951  35.622  14.131  1.00  0.00     0.162 A 
ATOM     16  C   UNL     1      10.156  35.501  13.425  1.00  0.00     0.068 A 
BRANCH  12  17
ATOM     17  O   UNL     1      10.085  35.103  17.616  1.00  0.00    -0.493 OA
ATOM     18  C   UNL     1      10.937  34.260  18.384  1.00  0.00     0.278 C 
ENDBRANCH  12  17
BRANCH  14  19
ATOM     19  O   UNL     1       7.752  35.592  16.248  1.00  0.00    -0.502 OA
ATOM     20  H   UNL     1       6.886  35.887  15.815  1.00  0.00     0.293 HD
ENDBRANCH  14  19
BRANCH  15  21
ATOM     21  O   UNL     1       7.765  35.881  13.448  1.00  0.00    -0.504 OA
ATOM     22  H   UNL     1       7.374  36.815  13.395  1.00  0.00     0.293 HD
ENDBRANCH  15  21
ENDBRANCH   1  11
BRANCH  10  23
ATOM     23  O   UNL     1      12.322  32.735  12.942  1.00  0.00    -0.500 OA
ATOM     24  H   UNL     1      11.573  32.502  12.300  1.00  0.00     0.294 HD
ENDBRANCH  10  23
BRANCH   5  25
ATOM     25  O   UNL     1      17.022  38.732  11.435  1.00  0.00    -0.507 OA
ATOM     26  H   UNL     1      18.016  38.763  11.247  1.00  0.00     0.293 HD
ENDBRANCH   5  25
BRANCH   7  27
ATOM     27  O   UNL     1      16.852  33.999  10.646  1.00  0.00    -0.507 OA
ATOM     28  H   UNL     1      17.847  33.900  10.507  1.00  0.00     0.293 HD
ENDBRANCH   7  27
TORSDOF 7
ENDMDL
MODEL 6
REMARK VINA RESULT:    -0.405      1.918      7.679
REMARK INTER + INTRA:          -0.675
REMARK INTER:                  -0.413
REMARK INTRA:                  -0.262
REMARK UNBOUND:                -0.163
REMARK SMILES COc1cc(-c2[o+]c3cc(O)cc(O)c3cc2O)cc(O)c1O
REMARK SMILES IDX 6 1 7 2 8 3 9 4 10 5 12 6 13 7 15 8 16 9 17 10 5 11 3 12
REMARK SMILES IDX 4 13 22 14 20 15 19 16 2 17 1 18 23 19 21 21 18 23 11 25
REMARK SMILES IDX 14 27
REMARK H PARENT 23 20 21 22 18 24 11 26 14 28
REMARK Flexibility Score: inf
ROOT
ATOM      1  C   UNL     1      11.502  34.989  14.008  1.00  0.00     0.402 A 
ATOM      2  O   UNL     1      10.599  34.065  13.690  1.00  0.00    -0.202 OA
ATOM      3  C   UNL     1       9.366  34.048  14.186  1.00  0.00     0.368 A 
ATOM      4  C   UNL     1       8.489  33.034  13.793  1.00  0.00     0.162 A 
ATOM      5  C   UNL     1       7.188  32.990  14.301  1.00  0.00     0.128 A 
ATOM      6  C   UNL     1       6.762  33.965  15.207  1.00  0.00     0.093 A 
ATOM      7  C   UNL     1       7.621  34.992  15.617  1.00  0.00     0.136 A 
ATOM      8  C   UNL     1       8.942  35.042  15.101  1.00  0.00     0.125 A 
ATOM      9  C   UNL     1       9.868  36.040  15.445  1.00  0.00     0.078 A 
ATOM     10  C   UNL     1      11.152  36.027  14.892  1.00  0.00     0.223 A 
ENDROOT
BRANCH   1  11
ATOM     11  C   UNL     1      12.847  34.894  13.397  1.00  0.00     0.091 A 
ATOM     12  C   UNL     1      15.272  34.657  13.589  1.00  0.00     0.165 A 
ATOM     13  C   UNL     1      14.002  34.765  14.187  1.00  0.00     0.069 A 
ATOM     14  C   UNL     1      15.379  34.665  12.191  1.00  0.00     0.200 A 
ATOM     15  C   UNL     1      14.227  34.770  11.395  1.00  0.00     0.162 A 
ATOM     16  C   UNL     1      12.968  34.878  12.000  1.00  0.00     0.068 A 
BRANCH  12  17
ATOM     17  O   UNL     1      16.447  34.537  14.348  1.00  0.00    -0.493 OA
ATOM     18  C   UNL     1      16.994  33.303  14.801  1.00  0.00     0.278 C 
ENDBRANCH  12  17
BRANCH  14  19
ATOM     19  O   UNL     1      16.643  34.561  11.607  1.00  0.00    -0.502 OA
ATOM     20  H   UNL     1      17.012  33.679  11.273  1.00  0.00     0.293 HD
ENDBRANCH  14  19
BRANCH  15  21
ATOM     21  O   UNL     1      14.336  34.769  10.005  1.00  0.00    -0.504 OA
ATOM     22  H   UNL     1      13.929  35.504   9.439  1.00  0.00     0.293 HD
ENDBRANCH  15  21
ENDBRANCH   1  11
BRANCH  10  23
ATOM     23  O   UNL     1      12.055  37.046  15.194  1.00  0.00    -0.500 OA
ATOM     24  H   UNL     1      12.994  36.846  15.519  1.00  0.00     0.294 HD
ENDBRANCH  10  23
BRANCH   5  25
ATOM     25  O   UNL     1       6.308  31.981  13.914  1.00  0.00    -0.507 OA
ATOM     26  H   UNL     1       5.806  32.025  13.036  1.00  0.00     0.293 HD
ENDBRANCH   5  25
BRANCH   7  27
ATOM     27  O   UNL     1       7.120  35.926  16.527  1.00  0.00    -0.507 OA
ATOM     28  H   UNL     1       6.310  35.776  17.111  1.00  0.00     0.293 HD
ENDBRANCH   7  27
TORSDOF 7
ENDMDL
MODEL 7
REMARK VINA RESULT:    -0.358      4.734      8.539
REMARK INTER + INTRA:          -0.615
REMARK INTER:                  -0.847
REMARK INTRA:                   0.233
REMARK UNBOUND:                -0.163
REMARK SMILES COc1cc(-c2[o+]c3cc(O)cc(O)c3cc2O)cc(O)c1O
REMARK SMILES IDX 6 1 7 2 8 3 9 4 10 5 12 6 13 7 15 8 16 9 17 10 5 11 3 12
REMARK SMILES IDX 4 13 22 14 20 15 19 16 2 17 1 18 23 19 21 21 18 23 11 25
REMARK SMILES IDX 14 27
REMARK H PARENT 23 20 21 22 18 24 11 26 14 28
REMARK Flexibility Score: inf
ROOT
ATOM      1  C   UNL     1      16.562  38.778  11.025  1.00  0.00     0.402 A 
ATOM      2  O   UNL     1      16.259  38.179  12.174  1.00  0.00    -0.202 OA
ATOM      3  C   UNL     1      16.089  36.866  12.290  1.00  0.00     0.368 A 
ATOM      4  C   UNL     1      15.769  36.329  13.540  1.00  0.00     0.162 A 
ATOM      5  C   UNL     1      15.581  34.952  13.690  1.00  0.00     0.128 A 
ATOM      6  C   UNL     1      15.713  34.108  12.584  1.00  0.00     0.093 A 
ATOM      7  C   UNL     1      16.031  34.621  11.320  1.00  0.00     0.136 A 
ATOM      8  C   UNL     1      16.226  36.018  11.164  1.00  0.00     0.125 A 
ATOM      9  C   UNL     1      16.561  36.619   9.940  1.00  0.00     0.078 A 
ATOM     10  C   UNL     1      16.741  38.004   9.864  1.00  0.00     0.223 A 
ENDROOT
BRANCH   1  11
ATOM     11  C   UNL     1      16.716  40.251  11.022  1.00  0.00     0.091 A 
ATOM     12  C   UNL     1      16.805  42.390   9.843  1.00  0.00     0.165 A 
ATOM     13  C   UNL     1      16.676  40.988   9.827  1.00  0.00     0.069 A 
ATOM     14  C   UNL     1      16.961  43.054  11.068  1.00  0.00     0.200 A 
ATOM     15  C   UNL     1      16.978  42.326  12.269  1.00  0.00     0.162 A 
ATOM     16  C   UNL     1      16.849  40.931  12.241  1.00  0.00     0.068 A 
BRANCH  12  17
ATOM     17  O   UNL     1      16.781  43.156   8.666  1.00  0.00    -0.493 OA
ATOM     18  C   UNL     1      16.782  42.613   7.350  1.00  0.00     0.278 C 
ENDBRANCH  12  17
BRANCH  14  19
ATOM     19  O   UNL     1      17.091  44.443  11.074  1.00  0.00    -0.502 OA
ATOM     20  H   UNL     1      16.475  45.041  11.612  1.00  0.00     0.293 HD
ENDBRANCH  14  19
BRANCH  15  21
ATOM     21  O   UNL     1      17.123  42.990  13.485  1.00  0.00    -0.504 OA
ATOM     22  H   UNL     1      16.340  43.128  14.113  1.00  0.00     0.293 HD
ENDBRANCH  15  21
ENDBRANCH   1  11
BRANCH  10  23
ATOM     23  O   UNL     1      17.122  38.596   8.660  1.00  0.00    -0.500 OA
ATOM     24  H   UNL     1      17.067  39.597   8.518  1.00  0.00     0.294 HD
ENDBRANCH  10  23
BRANCH   5  25
ATOM     25  O   UNL     1      15.263  34.411  14.933  1.00  0.00    -0.507 OA
ATOM     26  H   UNL     1      15.064  35.000  15.732  1.00  0.00     0.293 HD
ENDBRANCH   5  25
BRANCH   7  27
ATOM     27  O   UNL     1      16.141  33.712  10.265  1.00  0.00    -0.507 OA
ATOM     28  H   UNL     1      16.366  33.965   9.314  1.00  0.00     0.293 HD
ENDBRANCH   7  27
TORSDOF 7
ENDMDL
