MODEL 1
REMARK VINA RESULT:    -4.269      0.000      0.000
REMARK INTER + INTRA:          -5.490
REMARK INTER:                  -5.267
REMARK INTRA:                  -0.222
REMARK UNBOUND:                -0.222
REMARK SMILES C=CC[C@@H](C)C(=O)CC
REMARK SMILES IDX 4 1 5 2 6 3 7 4 8 5 9 6 3 7 2 8 1 9
REMARK H PARENT
REMARK Flexibility Score: inf
ROOT
ATOM      1  C   UNL     1       4.339   3.685  12.711  1.00  0.00     0.057 C 
ATOM      2  C   UNL     1       4.282   2.300  12.051  1.00  0.00     0.016 C 
ENDROOT
BRANCH   1   3
ATOM      3  C   UNL     1       4.327   4.762  11.647  1.00  0.00     0.135 C 
ATOM      4  O   UNL     1       5.018   5.762  11.790  1.00  0.00    -0.299 OA
BRANCH   3   5
ATOM      5  C   UNL     1       3.485   4.624  10.407  1.00  0.00     0.072 C 
ATOM      6  C   UNL     1       2.663   5.887  10.168  1.00  0.00     0.012 C 
ENDBRANCH   3   5
ENDBRANCH   1   3
BRANCH   1   7
ATOM      7  C   UNL     1       3.168   3.900  13.692  1.00  0.00     0.038 C 
BRANCH   7   8
ATOM      8  C   UNL     1       3.568   3.657  15.124  1.00  0.00    -0.034 C 
ATOM      9  C   UNL     1       3.140   2.588  15.803  1.00  0.00     0.004 C 
ENDBRANCH   7   8
ENDBRANCH   1   7
TORSDOF 4
ENDMDL
MODEL 2
REMARK VINA RESULT:    -4.245      1.636      4.000
REMARK INTER + INTRA:          -5.460
REMARK INTER:                  -5.123
REMARK INTRA:                  -0.337
REMARK UNBOUND:                -0.222
REMARK SMILES C=CC[C@@H](C)C(=O)CC
REMARK SMILES IDX 4 1 5 2 6 3 7 4 8 5 9 6 3 7 2 8 1 9
REMARK H PARENT
REMARK Flexibility Score: inf
ROOT
ATOM      1  C   UNL     1       4.316   3.988  11.409  1.00  0.00     0.057 C 
ATOM      2  C   UNL     1       4.631   5.429  11.834  1.00  0.00     0.016 C 
ENDROOT
BRANCH   1   3
ATOM      3  C   UNL     1       3.960   3.160  12.625  1.00  0.00     0.135 C 
ATOM      4  O   UNL     1       4.242   1.969  12.651  1.00  0.00    -0.299 OA
BRANCH   3   5
ATOM      5  C   UNL     1       3.268   3.775  13.813  1.00  0.00     0.072 C 
ATOM      6  C   UNL     1       3.952   3.360  15.112  1.00  0.00     0.012 C 
ENDBRANCH   3   5
ENDBRANCH   1   3
BRANCH   1   7
ATOM      7  C   UNL     1       3.169   3.933  10.379  1.00  0.00     0.038 C 
BRANCH   7   8
ATOM      8  C   UNL     1       2.183   5.058  10.559  1.00  0.00    -0.034 C 
ATOM      9  C   UNL     1       0.965   4.852  11.069  1.00  0.00     0.004 C 
ENDBRANCH   7   8
ENDBRANCH   1   7
TORSDOF 4
ENDMDL
MODEL 3
REMARK VINA RESULT:    -4.140     15.397     16.547
REMARK INTER + INTRA:          -5.331
REMARK INTER:                  -5.181
REMARK INTRA:                  -0.150
REMARK UNBOUND:                -0.222
REMARK SMILES C=CC[C@@H](C)C(=O)CC
REMARK SMILES IDX 4 1 5 2 6 3 7 4 8 5 9 6 3 7 2 8 1 9
REMARK H PARENT
REMARK Flexibility Score: inf
ROOT
ATOM      1  C   UNL     1      -3.062  -7.545   2.465  1.00  0.00     0.057 C 
ATOM      2  C   UNL     1      -3.341  -7.002   1.056  1.00  0.00     0.016 C 
ENDROOT
BRANCH   1   3
ATOM      3  C   UNL     1      -2.306  -6.511   3.273  1.00  0.00     0.135 C 
ATOM      4  O   UNL     1      -2.520  -5.321   3.087  1.00  0.00    -0.299 OA
BRANCH   3   5
ATOM      5  C   UNL     1      -1.296  -6.920   4.313  1.00  0.00     0.072 C 
ATOM      6  C   UNL     1      -0.620  -5.696   4.922  1.00  0.00     0.012 C 
ENDBRANCH   3   5
ENDBRANCH   1   3
BRANCH   1   7
ATOM      7  C   UNL     1      -4.363  -7.937   3.196  1.00  0.00     0.038 C 
BRANCH   7   8
ATOM      8  C   UNL     1      -4.419  -9.407   3.517  1.00  0.00    -0.034 C 
ATOM      9  C   UNL     1      -5.543  -9.993   3.940  1.00  0.00     0.004 C 
ENDBRANCH   7   8
ENDBRANCH   1   7
TORSDOF 4
ENDMDL
MODEL 4
REMARK VINA RESULT:    -4.097     16.346     17.399
REMARK INTER + INTRA:          -5.277
REMARK INTER:                  -4.804
REMARK INTRA:                  -0.474
REMARK UNBOUND:                -0.222
REMARK SMILES C=CC[C@@H](C)C(=O)CC
REMARK SMILES IDX 4 1 5 2 6 3 7 4 8 5 9 6 3 7 2 8 1 9
REMARK H PARENT
REMARK Flexibility Score: inf
ROOT
ATOM      1  C   UNL     1      -9.623  -7.516  14.115  1.00  0.00     0.057 C 
ATOM      2  C   UNL     1     -10.799  -7.308  15.079  1.00  0.00     0.016 C 
ENDROOT
BRANCH   1   3
ATOM      3  C   UNL     1      -9.083  -6.174  13.666  1.00  0.00     0.135 C 
ATOM      4  O   UNL     1      -9.730  -5.158  13.882  1.00  0.00    -0.299 OA
BRANCH   3   5
ATOM      5  C   UNL     1      -7.756  -6.063  12.963  1.00  0.00     0.072 C 
ATOM      6  C   UNL     1      -7.859  -6.569  11.528  1.00  0.00     0.012 C 
ENDBRANCH   3   5
ENDBRANCH   1   3
BRANCH   1   7
ATOM      7  C   UNL     1      -8.495  -8.349  14.758  1.00  0.00     0.038 C 
BRANCH   7   8
ATOM      8  C   UNL     1      -8.215  -9.619  13.998  1.00  0.00    -0.034 C 
ATOM      9  C   UNL     1      -8.892  -9.941  12.892  1.00  0.00     0.004 C 
ENDBRANCH   7   8
ENDBRANCH   1   7
TORSDOF 4
ENDMDL
MODEL 5
REMARK VINA RESULT:    -4.047      2.004      4.340
REMARK INTER + INTRA:          -5.216
REMARK INTER:                  -4.920
REMARK INTRA:                  -0.296
REMARK UNBOUND:                -0.222
REMARK SMILES C=CC[C@@H](C)C(=O)CC
REMARK SMILES IDX 4 1 5 2 6 3 7 4 8 5 9 6 3 7 2 8 1 9
REMARK H PARENT
REMARK Flexibility Score: inf
ROOT
ATOM      1  C   UNL     1       3.891   3.522  13.720  1.00  0.00     0.057 C 
ATOM      2  C   UNL     1       3.534   3.720  15.200  1.00  0.00     0.016 C 
ENDROOT
BRANCH   1   3
ATOM      3  C   UNL     1       4.004   2.043  13.412  1.00  0.00     0.135 C 
ATOM      4  O   UNL     1       4.687   1.672  12.467  1.00  0.00    -0.299 OA
BRANCH   3   5
ATOM      5  C   UNL     1       3.297   1.014  14.255  1.00  0.00     0.072 C 
ATOM      6  C   UNL     1       4.291   0.014  14.834  1.00  0.00     0.012 C 
ENDBRANCH   3   5
ENDBRANCH   1   3
BRANCH   1   7
ATOM      7  C   UNL     1       2.850   4.175  12.788  1.00  0.00     0.038 C 
BRANCH   7   8
ATOM      8  C   UNL     1       3.489   5.031  11.725  1.00  0.00    -0.034 C 
ATOM      9  C   UNL     1       4.780   5.371  11.778  1.00  0.00     0.004 C 
ENDBRANCH   7   8
ENDBRANCH   1   7
TORSDOF 4
ENDMDL
MODEL 6
REMARK VINA RESULT:    -4.040     16.188     17.170
REMARK INTER + INTRA:          -5.207
REMARK INTER:                  -4.721
REMARK INTRA:                  -0.486
REMARK UNBOUND:                -0.222
REMARK SMILES C=CC[C@@H](C)C(=O)CC
REMARK SMILES IDX 4 1 5 2 6 3 7 4 8 5 9 6 3 7 2 8 1 9
REMARK H PARENT
REMARK Flexibility Score: inf
ROOT
ATOM      1  C   UNL     1      -7.958  -8.435  13.499  1.00  0.00     0.057 C 
ATOM      2  C   UNL     1      -8.548  -9.526  12.594  1.00  0.00     0.016 C 
ENDROOT
BRANCH   1   3
ATOM      3  C   UNL     1      -7.931  -7.114  12.760  1.00  0.00     0.135 C 
ATOM      4  O   UNL     1      -8.202  -7.082  11.567  1.00  0.00    -0.299 OA
BRANCH   3   5
ATOM      5  C   UNL     1      -7.583  -5.831  13.468  1.00  0.00     0.072 C 
ATOM      6  C   UNL     1      -8.711  -4.814  13.330  1.00  0.00     0.012 C 
ENDBRANCH   3   5
ENDBRANCH   1   3
BRANCH   1   7
ATOM      7  C   UNL     1      -8.755  -8.288  14.812  1.00  0.00     0.038 C 
BRANCH   7   8
ATOM      8  C   UNL     1     -10.242  -8.230  14.576  1.00  0.00    -0.034 C 
ATOM      9  C   UNL     1     -11.007  -7.286  15.132  1.00  0.00     0.004 C 
ENDBRANCH   7   8
ENDBRANCH   1   7
TORSDOF 4
ENDMDL
MODEL 7
REMARK VINA RESULT:    -4.013      1.856      4.155
REMARK INTER + INTRA:          -5.174
REMARK INTER:                  -4.910
REMARK INTRA:                  -0.264
REMARK UNBOUND:                -0.222
REMARK SMILES C=CC[C@@H](C)C(=O)CC
REMARK SMILES IDX 4 1 5 2 6 3 7 4 8 5 9 6 3 7 2 8 1 9
REMARK H PARENT
REMARK Flexibility Score: inf
ROOT
ATOM      1  C   UNL     1       3.697   3.212  12.554  1.00  0.00     0.057 C 
ATOM      2  C   UNL     1       4.502   1.961  12.176  1.00  0.00     0.016 C 
ENDROOT
BRANCH   1   3
ATOM      3  C   UNL     1       3.155   3.069  13.960  1.00  0.00     0.135 C 
ATOM      4  O   UNL     1       2.179   2.359  14.164  1.00  0.00    -0.299 OA
BRANCH   3   5
ATOM      5  C   UNL     1       3.800   3.778  15.122  1.00  0.00     0.072 C 
ATOM      6  C   UNL     1       2.814   3.937  16.274  1.00  0.00     0.012 C 
ENDBRANCH   3   5
ENDBRANCH   1   3
BRANCH   1   7
ATOM      7  C   UNL     1       4.546   4.495  12.445  1.00  0.00     0.038 C 
BRANCH   7   8
ATOM      8  C   UNL     1       4.078   5.400  11.336  1.00  0.00    -0.034 C 
ATOM      9  C   UNL     1       3.085   5.051  10.513  1.00  0.00     0.004 C 
ENDBRANCH   7   8
ENDBRANCH   1   7
TORSDOF 4
ENDMDL
MODEL 8
REMARK VINA RESULT:    -3.969     16.798     17.929
REMARK INTER + INTRA:          -5.119
REMARK INTER:                  -4.709
REMARK INTRA:                  -0.410
REMARK UNBOUND:                -0.222
REMARK SMILES C=CC[C@@H](C)C(=O)CC
REMARK SMILES IDX 4 1 5 2 6 3 7 4 8 5 9 6 3 7 2 8 1 9
REMARK H PARENT
REMARK Flexibility Score: inf
ROOT
ATOM      1  C   UNL     1      -8.717  -8.332  12.810  1.00  0.00     0.057 C 
ATOM      2  C   UNL     1      -8.195  -9.680  12.294  1.00  0.00     0.016 C 
ENDROOT
BRANCH   1   3
ATOM      3  C   UNL     1      -9.957  -8.549  13.651  1.00  0.00     0.135 C 
ATOM      4  O   UNL     1     -10.919  -9.134  13.172  1.00  0.00    -0.299 OA
BRANCH   3   5
ATOM      5  C   UNL     1     -10.030  -8.064  15.075  1.00  0.00     0.072 C 
ATOM      6  C   UNL     1     -11.125  -7.014  15.234  1.00  0.00     0.012 C 
ENDBRANCH   3   5
ENDBRANCH   1   3
BRANCH   1   7
ATOM      7  C   UNL     1      -7.649  -7.580  13.632  1.00  0.00     0.038 C 
BRANCH   7   8
ATOM      8  C   UNL     1      -7.390  -6.194  13.103  1.00  0.00    -0.034 C 
ATOM      9  C   UNL     1      -8.290  -5.214  13.223  1.00  0.00     0.004 C 
ENDBRANCH   7   8
ENDBRANCH   1   7
TORSDOF 4
ENDMDL
MODEL 9
REMARK VINA RESULT:    -3.930     17.449     18.624
REMARK INTER + INTRA:          -5.071
REMARK INTER:                  -4.824
REMARK INTRA:                  -0.247
REMARK UNBOUND:                -0.222
REMARK SMILES C=CC[C@@H](C)C(=O)CC
REMARK SMILES IDX 4 1 5 2 6 3 7 4 8 5 9 6 3 7 2 8 1 9
REMARK H PARENT
REMARK Flexibility Score: inf
ROOT
ATOM      1  C   UNL     1      -9.767  -9.135  13.328  1.00  0.00     0.057 C 
ATOM      2  C   UNL     1     -10.970 -10.044  13.617  1.00  0.00     0.016 C 
ENDROOT
BRANCH   1   3
ATOM      3  C   UNL     1      -9.590  -8.143  14.458  1.00  0.00     0.135 C 
ATOM      4  O   UNL     1      -8.465  -7.785  14.779  1.00  0.00    -0.299 OA
BRANCH   3   5
ATOM      5  C   UNL     1     -10.776  -7.579  15.195  1.00  0.00     0.072 C 
ATOM      6  C   UNL     1     -10.956  -6.098  14.876  1.00  0.00     0.012 C 
ENDBRANCH   3   5
ENDBRANCH   1   3
BRANCH   1   7
ATOM      7  C   UNL     1      -8.470  -9.948  13.132  1.00  0.00     0.038 C 
BRANCH   7   8
ATOM      8  C   UNL     1      -7.848  -9.715  11.780  1.00  0.00    -0.034 C 
ATOM      9  C   UNL     1      -7.402  -8.512  11.408  1.00  0.00     0.004 C 
ENDBRANCH   7   8
ENDBRANCH   1   7
TORSDOF 4
ENDMDL
