MODEL 1
REMARK VINA RESULT:     1.216      0.000      0.000
REMARK INTER + INTRA:           1.540
REMARK INTER:                   1.606
REMARK INTRA:                  -0.067
REMARK UNBOUND:                -0.067
REMARK SMILES CC[C@H](C=C[C@@H](C)[C@H]1CC[C@H]2[C@H]3CC=C4C[C@@H](O)CC[C@]4(C)[C@H]3CC[C@@]12C)C(C)C
REMARK SMILES IDX 6 1 7 2 5 3 4 4 3 5 2 6 1 7 28 8 29 9 30 10 8 11 9 12 26 13
REMARK SMILES IDX 10 14 11 15 25 16 27 17 12 18 24 19 23 20 13 21 21 22 14 23
REMARK SMILES IDX 15 24 20 25 22 26 16 27 19 28 17 29 18 30
REMARK H PARENT 18 31
REMARK Flexibility Score: inf
ROOT
ATOM      1  C   UNL     1       1.454  47.575   8.008  1.00  0.00     0.012 C 
ATOM      2  C   UNL     1       1.906  47.052   6.621  1.00  0.00     0.012 C 
ENDROOT
BRANCH   1   3
ATOM      3  C   UNL     1       2.609  47.364   8.975  1.00  0.00    -0.028 C 
ATOM      4  C   UNL     1       3.894  47.506   8.602  1.00  0.00    -0.027 C 
BRANCH   4   5
ATOM      5  C   UNL     1       5.049  47.371   9.582  1.00  0.00     0.014 C 
BRANCH   5   6
ATOM      6  C   UNL     1       5.174  45.867   9.969  1.00  0.00     0.004 C 
ATOM      7  C   UNL     1       4.875  45.592  11.448  1.00  0.00     0.004 C 
ENDBRANCH   5   6
BRANCH   5   8
ATOM      8  C   UNL     1       6.342  47.971   8.935  1.00  0.00    -0.011 C 
ATOM      9  C   UNL     1       7.638  47.371   9.504  1.00  0.00     0.008 C 
ATOM     10  C   UNL     1       6.387  49.501   9.102  1.00  0.00     0.008 C 
ENDBRANCH   5   8
ENDBRANCH   4   5
ENDBRANCH   1   3
BRANCH   1  11
ATOM     11  C   UNL     1       0.120  46.902   8.516  1.00  0.00     0.002 C 
ATOM     12  C   UNL     1      -0.476  45.935   7.466  1.00  0.00     0.005 C 
ATOM     13  C   UNL     1       0.180  46.003   9.822  1.00  0.00    -0.026 C 
ATOM     14  C   UNL     1       0.140  44.589   7.771  1.00  0.00     0.005 C 
ATOM     15  C   UNL     1       0.170  44.521   9.294  1.00  0.00    -0.001 C 
ATOM     16  C   UNL     1       1.386  46.262  10.768  1.00  0.00     0.007 C 
ATOM     17  C   UNL     1      -1.116  46.265  10.641  1.00  0.00     0.012 C 
ATOM     18  C   UNL     1       1.229  43.546   9.886  1.00  0.00     0.000 C 
ATOM     19  C   UNL     1       1.650  45.168  11.826  1.00  0.00     0.005 C 
ATOM     20  C   UNL     1       1.268  43.706  11.422  1.00  0.00     0.003 C 
ATOM     21  C   UNL     1       2.653  43.618   9.286  1.00  0.00     0.031 C 
ATOM     22  C   UNL     1       2.179  42.607  12.106  1.00  0.00    -0.008 C 
ATOM     23  C   UNL     1       3.688  42.884  10.101  1.00  0.00    -0.027 C 
ATOM     24  C   UNL     1       3.519  42.481  11.381  1.00  0.00    -0.065 C 
ATOM     25  C   UNL     1       1.518  41.193  12.046  1.00  0.00     0.014 C 
ATOM     26  C   UNL     1       2.395  42.977  13.606  1.00  0.00     0.016 C 
ATOM     27  C   UNL     1       4.489  41.464  11.939  1.00  0.00     0.063 C 
ATOM     28  C   UNL     1       2.449  40.043  12.511  1.00  0.00     0.033 C 
ATOM     29  C   UNL     1       3.839  40.075  11.834  1.00  0.00     0.118 C 
BRANCH  29  30
ATOM     30  O   UNL     1       4.666  39.113  12.441  1.00  0.00    -0.393 OA
ATOM     31  H   UNL     1       4.116  38.296  12.556  1.00  0.00     0.210 HD
ENDBRANCH  29  30
ENDBRANCH   1  11
TORSDOF 6
ENDMDL
MODEL 2
REMARK VINA RESULT:     1.734      1.079      1.879
REMARK INTER + INTRA:           2.225
REMARK INTER:                   2.534
REMARK INTRA:                  -0.308
REMARK UNBOUND:                -0.067
REMARK SMILES CC[C@H](C=C[C@@H](C)[C@H]1CC[C@H]2[C@H]3CC=C4C[C@@H](O)CC[C@]4(C)[C@H]3CC[C@@]12C)C(C)C
REMARK SMILES IDX 6 1 7 2 5 3 4 4 3 5 2 6 1 7 28 8 29 9 30 10 8 11 9 12 26 13
REMARK SMILES IDX 10 14 11 15 25 16 27 17 12 18 24 19 23 20 13 21 21 22 14 23
REMARK SMILES IDX 15 24 20 25 22 26 16 27 19 28 17 29 18 30
REMARK H PARENT 18 31
REMARK Flexibility Score: inf
ROOT
ATOM      1  C   UNL     1       1.566  47.892   8.816  1.00  0.00     0.012 C 
ATOM      2  C   UNL     1       1.278  49.220   8.070  1.00  0.00     0.012 C 
ENDROOT
BRANCH   1   3
ATOM      3  C   UNL     1       3.011  47.511   8.530  1.00  0.00    -0.028 C 
ATOM      4  C   UNL     1       3.989  48.429   8.425  1.00  0.00    -0.027 C 
BRANCH   4   5
ATOM      5  C   UNL     1       5.446  48.050   8.214  1.00  0.00     0.014 C 
BRANCH   5   6
ATOM      6  C   UNL     1       6.301  49.346   8.339  1.00  0.00     0.004 C 
ATOM      7  C   UNL     1       5.466  50.632   8.305  1.00  0.00     0.004 C 
ENDBRANCH   5   6
BRANCH   5   8
ATOM      8  C   UNL     1       5.837  46.930   9.236  1.00  0.00    -0.011 C 
ATOM      9  C   UNL     1       4.995  46.962  10.521  1.00  0.00     0.008 C 
ATOM     10  C   UNL     1       7.327  47.020   9.615  1.00  0.00     0.008 C 
ENDBRANCH   5   8
ENDBRANCH   4   5
ENDBRANCH   1   3
BRANCH   1  11
ATOM     11  C   UNL     1       0.558  46.740   8.435  1.00  0.00     0.002 C 
ATOM     12  C   UNL     1       0.961  46.029   7.121  1.00  0.00     0.005 C 
ATOM     13  C   UNL     1       0.382  45.530   9.446  1.00  0.00    -0.026 C 
ATOM     14  C   UNL     1       1.863  44.894   7.545  1.00  0.00     0.005 C 
ATOM     15  C   UNL     1       1.222  44.356   8.820  1.00  0.00    -0.001 C 
ATOM     16  C   UNL     1       0.799  45.808  10.917  1.00  0.00     0.007 C 
ATOM     17  C   UNL     1      -1.123  45.134   9.457  1.00  0.00     0.012 C 
ATOM     18  C   UNL     1       2.192  43.590   9.768  1.00  0.00     0.000 C 
ATOM     19  C   UNL     1       0.976  44.558  11.807  1.00  0.00     0.005 C 
ATOM     20  C   UNL     1       1.459  43.256  11.087  1.00  0.00     0.003 C 
ATOM     21  C   UNL     1       3.560  44.254  10.048  1.00  0.00     0.031 C 
ATOM     22  C   UNL     1       2.320  42.308  12.015  1.00  0.00    -0.008 C 
ATOM     23  C   UNL     1       4.310  43.629  11.198  1.00  0.00    -0.027 C 
ATOM     24  C   UNL     1       3.760  42.809  12.122  1.00  0.00    -0.065 C 
ATOM     25  C   UNL     1       2.406  40.859  11.437  1.00  0.00     0.014 C 
ATOM     26  C   UNL     1       1.657  42.226  13.426  1.00  0.00     0.016 C 
ATOM     27  C   UNL     1       4.691  41.991  12.988  1.00  0.00     0.063 C 
ATOM     28  C   UNL     1       3.404  39.939  12.188  1.00  0.00     0.033 C 
ATOM     29  C   UNL     1       4.796  40.583  12.380  1.00  0.00     0.118 C 
BRANCH  29  30
ATOM     30  O   UNL     1       5.569  39.757  13.217  1.00  0.00    -0.393 OA
ATOM     31  H   UNL     1       6.496  39.783  12.865  1.00  0.00     0.210 HD
ENDBRANCH  29  30
ENDBRANCH   1  11
TORSDOF 6
ENDMDL
MODEL 3
REMARK VINA RESULT:     1.815      3.117      7.582
REMARK INTER + INTRA:           2.332
REMARK INTER:                   1.411
REMARK INTRA:                   0.920
REMARK UNBOUND:                -0.067
REMARK SMILES CC[C@H](C=C[C@@H](C)[C@H]1CC[C@H]2[C@H]3CC=C4C[C@@H](O)CC[C@]4(C)[C@H]3CC[C@@]12C)C(C)C
REMARK SMILES IDX 6 1 7 2 5 3 4 4 3 5 2 6 1 7 28 8 29 9 30 10 8 11 9 12 26 13
REMARK SMILES IDX 10 14 11 15 25 16 27 17 12 18 24 19 23 20 13 21 21 22 14 23
REMARK SMILES IDX 15 24 20 25 22 26 16 27 19 28 17 29 18 30
REMARK H PARENT 18 31
REMARK Flexibility Score: inf
ROOT
ATOM      1  C   UNL     1       2.960  40.715  12.368  1.00  0.00     0.012 C 
ATOM      2  C   UNL     1       2.687  40.345  10.889  1.00  0.00     0.012 C 
ENDROOT
BRANCH   1   3
ATOM      3  C   UNL     1       1.615  40.795  13.076  1.00  0.00    -0.028 C 
ATOM      4  C   UNL     1       1.397  40.217  14.271  1.00  0.00    -0.027 C 
BRANCH   4   5
ATOM      5  C   UNL     1       0.079  40.358  15.017  1.00  0.00     0.014 C 
BRANCH   5   6
ATOM      6  C   UNL     1       0.173  41.626  15.918  1.00  0.00     0.004 C 
ATOM      7  C   UNL     1      -0.823  41.619  17.084  1.00  0.00     0.004 C 
ENDBRANCH   5   6
BRANCH   5   8
ATOM      8  C   UNL     1      -1.094  40.399  13.982  1.00  0.00    -0.011 C 
ATOM      9  C   UNL     1      -1.090  39.206  13.014  1.00  0.00     0.008 C 
ATOM     10  C   UNL     1      -1.066  41.704  13.164  1.00  0.00     0.008 C 
ENDBRANCH   5   8
ENDBRANCH   4   5
ENDBRANCH   1   3
BRANCH   1  11
ATOM     11  C   UNL     1       3.798  42.043  12.527  1.00  0.00     0.002 C 
ATOM     12  C   UNL     1       5.024  42.068  11.584  1.00  0.00     0.005 C 
ATOM     13  C   UNL     1       3.085  43.424  12.209  1.00  0.00    -0.026 C 
ATOM     14  C   UNL     1       4.531  42.711  10.308  1.00  0.00     0.005 C 
ATOM     15  C   UNL     1       3.604  43.827  10.779  1.00  0.00    -0.001 C 
ATOM     16  C   UNL     1       1.533  43.416  12.269  1.00  0.00     0.007 C 
ATOM     17  C   UNL     1       3.585  44.468  13.248  1.00  0.00     0.012 C 
ATOM     18  C   UNL     1       2.540  44.279   9.736  1.00  0.00     0.000 C 
ATOM     19  C   UNL     1       0.833  44.629  11.616  1.00  0.00     0.005 C 
ATOM     20  C   UNL     1       1.569  45.280  10.398  1.00  0.00     0.003 C 
ATOM     21  C   UNL     1       1.766  43.159   9.002  1.00  0.00     0.031 C 
ATOM     22  C   UNL     1       0.583  45.931   9.345  1.00  0.00    -0.008 C 
ATOM     23  C   UNL     1       0.555  43.655   8.252  1.00  0.00    -0.027 C 
ATOM     24  C   UNL     1      -0.025  44.863   8.435  1.00  0.00    -0.065 C 
ATOM     25  C   UNL     1       1.326  46.932   8.404  1.00  0.00     0.014 C 
ATOM     26  C   UNL     1      -0.534  46.715  10.100  1.00  0.00     0.016 C 
ATOM     27  C   UNL     1      -0.992  45.353   7.382  1.00  0.00     0.063 C 
ATOM     28  C   UNL     1       0.463  47.443   7.221  1.00  0.00     0.033 C 
ATOM     29  C   UNL     1      -0.234  46.303   6.441  1.00  0.00     0.118 C 
BRANCH  29  30
ATOM     30  O   UNL     1      -1.125  46.866   5.510  1.00  0.00    -0.393 OA
ATOM     31  H   UNL     1      -2.011  46.913   5.954  1.00  0.00     0.210 HD
ENDBRANCH  29  30
ENDBRANCH   1  11
TORSDOF 6
ENDMDL
MODEL 4
REMARK VINA RESULT:     2.165      2.954      7.666
REMARK INTER + INTRA:           2.795
REMARK INTER:                   2.620
REMARK INTRA:                   0.175
REMARK UNBOUND:                -0.067
REMARK SMILES CC[C@H](C=C[C@@H](C)[C@H]1CC[C@H]2[C@H]3CC=C4C[C@@H](O)CC[C@]4(C)[C@H]3CC[C@@]12C)C(C)C
REMARK SMILES IDX 6 1 7 2 5 3 4 4 3 5 2 6 1 7 28 8 29 9 30 10 8 11 9 12 26 13
REMARK SMILES IDX 10 14 11 15 25 16 27 17 12 18 24 19 23 20 13 21 21 22 14 23
REMARK SMILES IDX 15 24 20 25 22 26 16 27 19 28 17 29 18 30
REMARK H PARENT 18 31
REMARK Flexibility Score: inf
ROOT
ATOM      1  C   UNL     1       4.150  42.293  11.106  1.00  0.00     0.012 C 
ATOM      2  C   UNL     1       4.087  42.593   9.586  1.00  0.00     0.012 C 
ENDROOT
BRANCH   1   3
ATOM      3  C   UNL     1       4.283  40.786  11.270  1.00  0.00    -0.028 C 
ATOM      4  C   UNL     1       3.400  40.062  11.981  1.00  0.00    -0.027 C 
BRANCH   4   5
ATOM      5  C   UNL     1       3.484  38.547  12.086  1.00  0.00     0.014 C 
BRANCH   5   6
ATOM      6  C   UNL     1       4.810  38.191  12.824  1.00  0.00     0.004 C 
ATOM      7  C   UNL     1       5.169  39.179  13.940  1.00  0.00     0.004 C 
ENDBRANCH   5   6
BRANCH   5   8
ATOM      8  C   UNL     1       2.197  38.010  12.797  1.00  0.00    -0.011 C 
ATOM      9  C   UNL     1       1.431  36.973  11.962  1.00  0.00     0.008 C 
ATOM     10  C   UNL     1       1.241  39.163  13.157  1.00  0.00     0.008 C 
ENDBRANCH   5   8
ENDBRANCH   4   5
ENDBRANCH   1   3
BRANCH   1  11
ATOM     11  C   UNL     1       2.917  42.875  11.900  1.00  0.00     0.002 C 
ATOM     12  C   UNL     1       3.360  43.771  13.080  1.00  0.00     0.005 C 
ATOM     13  C   UNL     1       1.892  43.804  11.123  1.00  0.00    -0.026 C 
ATOM     14  C   UNL     1       3.455  45.166  12.506  1.00  0.00     0.005 C 
ATOM     15  C   UNL     1       2.263  45.269  11.562  1.00  0.00    -0.001 C 
ATOM     16  C   UNL     1       1.882  43.658   9.576  1.00  0.00     0.007 C 
ATOM     17  C   UNL     1       0.461  43.463  11.630  1.00  0.00     0.012 C 
ATOM     18  C   UNL     1       2.410  46.334  10.435  1.00  0.00     0.000 C 
ATOM     19  C   UNL     1       1.172  44.792   8.803  1.00  0.00     0.005 C 
ATOM     20  C   UNL     1       1.219  46.212   9.458  1.00  0.00     0.003 C 
ATOM     21  C   UNL     1       3.754  46.357   9.670  1.00  0.00     0.031 C 
ATOM     22  C   UNL     1       1.199  47.390   8.403  1.00  0.00    -0.008 C 
ATOM     23  C   UNL     1       3.716  47.184   8.409  1.00  0.00    -0.027 C 
ATOM     24  C   UNL     1       2.586  47.601   7.794  1.00  0.00    -0.065 C 
ATOM     25  C   UNL     1       0.805  48.749   9.064  1.00  0.00     0.014 C 
ATOM     26  C   UNL     1       0.151  47.071   7.292  1.00  0.00     0.016 C 
ATOM     27  C   UNL     1       2.704  48.700   6.762  1.00  0.00     0.063 C 
ATOM     28  C   UNL     1       0.970  49.976   8.130  1.00  0.00     0.033 C 
ATOM     29  C   UNL     1       2.353  50.033   7.441  1.00  0.00     0.118 C 
BRANCH  29  30
ATOM     30  O   UNL     1       2.346  51.068   6.489  1.00  0.00    -0.393 OA
ATOM     31  H   UNL     1       1.909  50.705   5.676  1.00  0.00     0.210 HD
ENDBRANCH  29  30
ENDBRANCH   1  11
TORSDOF 6
ENDMDL
MODEL 5
REMARK VINA RESULT:     2.776      1.022      1.792
REMARK INTER + INTRA:           3.601
REMARK INTER:                   3.375
REMARK INTRA:                   0.227
REMARK UNBOUND:                -0.067
REMARK SMILES CC[C@H](C=C[C@@H](C)[C@H]1CC[C@H]2[C@H]3CC=C4C[C@@H](O)CC[C@]4(C)[C@H]3CC[C@@]12C)C(C)C
REMARK SMILES IDX 6 1 7 2 5 3 4 4 3 5 2 6 1 7 28 8 29 9 30 10 8 11 9 12 26 13
REMARK SMILES IDX 10 14 11 15 25 16 27 17 12 18 24 19 23 20 13 21 21 22 14 23
REMARK SMILES IDX 15 24 20 25 22 26 16 27 19 28 17 29 18 30
REMARK H PARENT 18 31
REMARK Flexibility Score: inf
ROOT
ATOM      1  C   UNL     1       1.190  47.666   7.346  1.00  0.00     0.012 C 
ATOM      2  C   UNL     1       1.489  46.350   6.585  1.00  0.00     0.012 C 
ENDROOT
BRANCH   1   3
ATOM      3  C   UNL     1       2.499  48.151   7.952  1.00  0.00    -0.028 C 
ATOM      4  C   UNL     1       3.697  47.796   7.452  1.00  0.00    -0.027 C 
BRANCH   4   5
ATOM      5  C   UNL     1       5.006  48.337   8.006  1.00  0.00     0.014 C 
BRANCH   5   6
ATOM      6  C   UNL     1       4.824  49.864   8.257  1.00  0.00     0.004 C 
ATOM      7  C   UNL     1       6.144  50.601   8.509  1.00  0.00     0.004 C 
ENDBRANCH   5   6
BRANCH   5   8
ATOM      8  C   UNL     1       5.395  47.524   9.286  1.00  0.00    -0.011 C 
ATOM      9  C   UNL     1       6.912  47.453   9.520  1.00  0.00     0.008 C 
ATOM     10  C   UNL     1       4.833  46.091   9.225  1.00  0.00     0.008 C 
ENDBRANCH   5   8
ENDBRANCH   4   5
ENDBRANCH   1   3
BRANCH   1  11
ATOM     11  C   UNL     1       0.054  47.507   8.429  1.00  0.00     0.002 C 
ATOM     12  C   UNL     1      -1.125  46.651   7.910  1.00  0.00     0.005 C 
ATOM     13  C   UNL     1       0.417  46.802   9.803  1.00  0.00    -0.026 C 
ATOM     14  C   UNL     1      -0.778  45.229   8.284  1.00  0.00     0.005 C 
ATOM     15  C   UNL     1      -0.157  45.343   9.673  1.00  0.00    -0.001 C 
ATOM     16  C   UNL     1       1.925  46.788  10.181  1.00  0.00     0.007 C 
ATOM     17  C   UNL     1      -0.338  47.551  10.938  1.00  0.00     0.012 C 
ATOM     18  C   UNL     1       0.785  44.168  10.067  1.00  0.00     0.000 C 
ATOM     19  C   UNL     1       2.322  45.805  11.304  1.00  0.00     0.005 C 
ATOM     20  C   UNL     1       1.474  44.495  11.411  1.00  0.00     0.003 C 
ATOM     21  C   UNL     1       1.821  43.721   9.009  1.00  0.00     0.031 C 
ATOM     22  C   UNL     1       2.292  43.261  11.970  1.00  0.00    -0.008 C 
ATOM     23  C   UNL     1       2.889  42.809   9.559  1.00  0.00    -0.027 C 
ATOM     24  C   UNL     1       3.157  42.639  10.873  1.00  0.00    -0.065 C 
ATOM     25  C   UNL     1       1.347  42.125  12.476  1.00  0.00     0.014 C 
ATOM     26  C   UNL     1       3.173  43.727  13.170  1.00  0.00     0.016 C 
ATOM     27  C   UNL     1       3.996  41.448  11.279  1.00  0.00     0.063 C 
ATOM     28  C   UNL     1       2.083  40.810  12.841  1.00  0.00     0.033 C 
ATOM     29  C   UNL     1       3.048  40.327  11.733  1.00  0.00     0.118 C 
BRANCH  29  30
ATOM     30  O   UNL     1       3.794  39.238  12.220  1.00  0.00    -0.393 OA
ATOM     31  H   UNL     1       4.749  39.501  12.169  1.00  0.00     0.210 HD
ENDBRANCH  29  30
ENDBRANCH   1  11
TORSDOF 6
ENDMDL
MODEL 6
REMARK VINA RESULT:     3.215      1.278      1.986
REMARK INTER + INTRA:           4.182
REMARK INTER:                   3.879
REMARK INTRA:                   0.303
REMARK UNBOUND:                -0.067
REMARK SMILES CC[C@H](C=C[C@@H](C)[C@H]1CC[C@H]2[C@H]3CC=C4C[C@@H](O)CC[C@]4(C)[C@H]3CC[C@@]12C)C(C)C
REMARK SMILES IDX 6 1 7 2 5 3 4 4 3 5 2 6 1 7 28 8 29 9 30 10 8 11 9 12 26 13
REMARK SMILES IDX 10 14 11 15 25 16 27 17 12 18 24 19 23 20 13 21 21 22 14 23
REMARK SMILES IDX 15 24 20 25 22 26 16 27 19 28 17 29 18 30
REMARK H PARENT 18 31
REMARK Flexibility Score: inf
ROOT
ATOM      1  C   UNL     1       1.397  47.421   9.570  1.00  0.00     0.012 C 
ATOM      2  C   UNL     1       0.680  48.794   9.529  1.00  0.00     0.012 C 
ENDROOT
BRANCH   1   3
ATOM      3  C   UNL     1       2.716  47.572   8.827  1.00  0.00    -0.028 C 
ATOM      4  C   UNL     1       3.905  47.485   9.449  1.00  0.00    -0.027 C 
BRANCH   4   5
ATOM      5  C   UNL     1       5.227  47.560   8.700  1.00  0.00     0.014 C 
BRANCH   5   6
ATOM      6  C   UNL     1       5.057  48.575   7.530  1.00  0.00     0.004 C 
ATOM      7  C   UNL     1       3.653  48.563   6.913  1.00  0.00     0.004 C 
ENDBRANCH   5   6
BRANCH   5   8
ATOM      8  C   UNL     1       6.366  47.935   9.706  1.00  0.00    -0.011 C 
ATOM      9  C   UNL     1       6.672  49.440   9.741  1.00  0.00     0.008 C 
ATOM     10  C   UNL     1       7.664  47.170   9.385  1.00  0.00     0.008 C 
ENDBRANCH   5   8
ENDBRANCH   4   5
ENDBRANCH   1   3
BRANCH   1  11
ATOM     11  C   UNL     1       0.516  46.247   8.990  1.00  0.00     0.002 C 
ATOM     12  C   UNL     1       1.086  45.698   7.661  1.00  0.00     0.005 C 
ATOM     13  C   UNL     1       0.343  44.934   9.863  1.00  0.00    -0.026 C 
ATOM     14  C   UNL     1       2.030  44.589   8.062  1.00  0.00     0.005 C 
ATOM     15  C   UNL     1       1.321  43.886   9.215  1.00  0.00    -0.001 C 
ATOM     16  C   UNL     1       0.606  45.093  11.387  1.00  0.00     0.007 C 
ATOM     17  C   UNL     1      -1.123  44.440   9.695  1.00  0.00     0.012 C 
ATOM     18  C   UNL     1       2.258  43.097  10.177  1.00  0.00     0.000 C 
ATOM     19  C   UNL     1       0.798  43.777  12.171  1.00  0.00     0.005 C 
ATOM     20  C   UNL     1       1.439  42.587  11.383  1.00  0.00     0.003 C 
ATOM     21  C   UNL     1       3.543  43.820  10.646  1.00  0.00     0.031 C 
ATOM     22  C   UNL     1       2.283  41.610  12.298  1.00  0.00    -0.008 C 
ATOM     23  C   UNL     1       4.232  43.135  11.800  1.00  0.00    -0.027 C 
ATOM     24  C   UNL     1       3.667  42.194  12.588  1.00  0.00    -0.065 C 
ATOM     25  C   UNL     1       2.529  40.235  11.599  1.00  0.00     0.014 C 
ATOM     26  C   UNL     1       1.507  41.346  13.625  1.00  0.00     0.016 C 
ATOM     27  C   UNL     1       4.576  41.357  13.459  1.00  0.00     0.063 C 
ATOM     28  C   UNL     1       3.522  39.314  12.354  1.00  0.00     0.033 C 
ATOM     29  C   UNL     1       4.840  40.027  12.737  1.00  0.00     0.118 C 
BRANCH  29  30
ATOM     30  O   UNL     1       5.596  39.176  13.564  1.00  0.00    -0.393 OA
ATOM     31  H   UNL     1       5.987  38.479  12.975  1.00  0.00     0.210 HD
ENDBRANCH  29  30
ENDBRANCH   1  11
TORSDOF 6
ENDMDL
MODEL 7
REMARK VINA RESULT:     3.258      1.369      2.234
REMARK INTER + INTRA:           4.238
REMARK INTER:                   3.618
REMARK INTRA:                   0.620
REMARK UNBOUND:                -0.067
REMARK SMILES CC[C@H](C=C[C@@H](C)[C@H]1CC[C@H]2[C@H]3CC=C4C[C@@H](O)CC[C@]4(C)[C@H]3CC[C@@]12C)C(C)C
REMARK SMILES IDX 6 1 7 2 5 3 4 4 3 5 2 6 1 7 28 8 29 9 30 10 8 11 9 12 26 13
REMARK SMILES IDX 10 14 11 15 25 16 27 17 12 18 24 19 23 20 13 21 21 22 14 23
REMARK SMILES IDX 15 24 20 25 22 26 16 27 19 28 17 29 18 30
REMARK H PARENT 18 31
REMARK Flexibility Score: inf
ROOT
ATOM      1  C   UNL     1       2.703  46.815   7.676  1.00  0.00     0.012 C 
ATOM      2  C   UNL     1       3.768  45.939   8.383  1.00  0.00     0.012 C 
ENDROOT
BRANCH   1   3
ATOM      3  C   UNL     1       3.159  48.263   7.780  1.00  0.00    -0.028 C 
ATOM      4  C   UNL     1       4.451  48.619   7.662  1.00  0.00    -0.027 C 
BRANCH   4   5
ATOM      5  C   UNL     1       4.904  50.071   7.689  1.00  0.00     0.014 C 
BRANCH   5   6
ATOM      6  C   UNL     1       3.649  50.958   7.949  1.00  0.00     0.004 C 
ATOM      7  C   UNL     1       2.634  50.928   6.801  1.00  0.00     0.004 C 
ENDBRANCH   5   6
BRANCH   5   8
ATOM      8  C   UNL     1       6.032  50.236   8.761  1.00  0.00    -0.011 C 
ATOM      9  C   UNL     1       7.193  51.123   8.287  1.00  0.00     0.008 C 
ATOM     10  C   UNL     1       6.595  48.867   9.189  1.00  0.00     0.008 C 
ENDBRANCH   5   8
ENDBRANCH   4   5
ENDBRANCH   1   3
BRANCH   1  11
ATOM     11  C   UNL     1       1.250  46.604   8.253  1.00  0.00     0.002 C 
ATOM     12  C   UNL     1       0.384  45.715   7.329  1.00  0.00     0.005 C 
ATOM     13  C   UNL     1       1.096  45.893   9.663  1.00  0.00    -0.026 C 
ATOM     14  C   UNL     1       0.616  44.301   7.808  1.00  0.00     0.005 C 
ATOM     15  C   UNL     1       0.666  44.418   9.327  1.00  0.00    -0.001 C 
ATOM     16  C   UNL     1       2.351  45.926  10.579  1.00  0.00     0.007 C 
ATOM     17  C   UNL     1      -0.057  46.602  10.431  1.00  0.00     0.012 C 
ATOM     18  C   UNL     1       1.433  43.270  10.048  1.00  0.00     0.000 C 
ATOM     19  C   UNL     1       2.333  44.943  11.771  1.00  0.00     0.005 C 
ATOM     20  C   UNL     1       1.555  43.603  11.552  1.00  0.00     0.003 C 
ATOM     21  C   UNL     1       2.806  42.872   9.457  1.00  0.00     0.031 C 
ATOM     22  C   UNL     1       2.147  42.391  12.378  1.00  0.00    -0.008 C 
ATOM     23  C   UNL     1       3.622  41.990  10.368  1.00  0.00    -0.027 C 
ATOM     24  C   UNL     1       3.383  41.812  11.687  1.00  0.00    -0.065 C 
ATOM     25  C   UNL     1       1.123  41.217  12.493  1.00  0.00     0.014 C 
ATOM     26  C   UNL     1       2.496  42.871  13.821  1.00  0.00     0.016 C 
ATOM     27  C   UNL     1       4.051  40.645  12.379  1.00  0.00     0.063 C 
ATOM     28  C   UNL     1       1.715  39.923  13.109  1.00  0.00     0.033 C 
ATOM     29  C   UNL     1       3.043  39.487  12.445  1.00  0.00     0.118 C 
BRANCH  29  30
ATOM     30  O   UNL     1       3.590  38.418  13.178  1.00  0.00    -0.393 OA
ATOM     31  H   UNL     1       2.910  38.155  13.850  1.00  0.00     0.210 HD
ENDBRANCH  29  30
ENDBRANCH   1  11
TORSDOF 6
ENDMDL
MODEL 8
REMARK VINA RESULT:     3.640      1.872      3.534
REMARK INTER + INTRA:           4.744
REMARK INTER:                   4.593
REMARK INTRA:                   0.151
REMARK UNBOUND:                -0.067
REMARK SMILES CC[C@H](C=C[C@@H](C)[C@H]1CC[C@H]2[C@H]3CC=C4C[C@@H](O)CC[C@]4(C)[C@H]3CC[C@@]12C)C(C)C
REMARK SMILES IDX 6 1 7 2 5 3 4 4 3 5 2 6 1 7 28 8 29 9 30 10 8 11 9 12 26 13
REMARK SMILES IDX 10 14 11 15 25 16 27 17 12 18 24 19 23 20 13 21 21 22 14 23
REMARK SMILES IDX 15 24 20 25 22 26 16 27 19 28 17 29 18 30
REMARK H PARENT 18 31
REMARK Flexibility Score: inf
ROOT
ATOM      1  C   UNL     1       2.490  46.716   8.678  1.00  0.00     0.012 C 
ATOM      2  C   UNL     1       3.503  46.337   9.787  1.00  0.00     0.012 C 
ENDROOT
BRANCH   1   3
ATOM      3  C   UNL     1       2.300  48.225   8.727  1.00  0.00    -0.028 C 
ATOM      4  C   UNL     1       1.543  48.884   7.831  1.00  0.00    -0.027 C 
BRANCH   4   5
ATOM      5  C   UNL     1       1.289  50.381   7.920  1.00  0.00     0.014 C 
BRANCH   5   6
ATOM      6  C   UNL     1       2.227  51.087   6.896  1.00  0.00     0.004 C 
ATOM      7  C   UNL     1       3.709  51.025   7.285  1.00  0.00     0.004 C 
ENDBRANCH   5   6
BRANCH   5   8
ATOM      8  C   UNL     1      -0.234  50.657   7.683  1.00  0.00    -0.011 C 
ATOM      9  C   UNL     1      -1.124  49.440   7.979  1.00  0.00     0.008 C 
ATOM     10  C   UNL     1      -0.494  51.125   6.239  1.00  0.00     0.008 C 
ENDBRANCH   5   8
ENDBRANCH   4   5
ENDBRANCH   1   3
BRANCH   1  11
ATOM     11  C   UNL     1       1.122  45.939   8.801  1.00  0.00     0.002 C 
ATOM     12  C   UNL     1       0.862  45.028   7.578  1.00  0.00     0.005 C 
ATOM     13  C   UNL     1       0.930  44.944  10.022  1.00  0.00    -0.026 C 
ATOM     14  C   UNL     1       1.478  43.696   7.936  1.00  0.00     0.005 C 
ATOM     15  C   UNL     1       1.147  43.510   9.413  1.00  0.00    -0.001 C 
ATOM     16  C   UNL     1       1.854  45.188  11.248  1.00  0.00     0.007 C 
ATOM     17  C   UNL     1      -0.539  45.074  10.517  1.00  0.00     0.012 C 
ATOM     18  C   UNL     1       2.099  42.546  10.181  1.00  0.00     0.000 C 
ATOM     19  C   UNL     1       1.932  44.029  12.266  1.00  0.00     0.005 C 
ATOM     20  C   UNL     1       1.758  42.585  11.687  1.00  0.00     0.003 C 
ATOM     21  C   UNL     1       3.616  42.737   9.951  1.00  0.00     0.031 C 
ATOM     22  C   UNL     1       2.552  41.484  12.500  1.00  0.00    -0.008 C 
ATOM     23  C   UNL     1       4.475  41.995  10.945  1.00  0.00    -0.027 C 
ATOM     24  C   UNL     1       4.032  41.484  12.116  1.00  0.00    -0.065 C 
ATOM     25  C   UNL     1       2.023  40.047  12.191  1.00  0.00     0.014 C 
ATOM     26  C   UNL     1       2.378  41.745  14.028  1.00  0.00     0.016 C 
ATOM     27  C   UNL     1       4.908  40.476  12.827  1.00  0.00     0.063 C 
ATOM     28  C   UNL     1       2.892  38.912  12.793  1.00  0.00     0.033 C 
ATOM     29  C   UNL     1       4.398  39.069  12.478  1.00  0.00     0.118 C 
BRANCH  29  30
ATOM     30  O   UNL     1       5.120  38.105  13.205  1.00  0.00    -0.393 OA
ATOM     31  H   UNL     1       5.937  37.904  12.680  1.00  0.00     0.210 HD
ENDBRANCH  29  30
ENDBRANCH   1  11
TORSDOF 6
ENDMDL
