MODEL 1
REMARK VINA RESULT:    -0.987      0.000      0.000
REMARK INTER + INTRA:          -2.490
REMARK INTER:                  -1.852
REMARK INTRA:                  -0.638
REMARK UNBOUND:                -0.638
REMARK SMILES O=C([O-])CCCCCCCCCCCCCCC(=O)[O-]
REMARK SMILES IDX 10 1 9 2 8 3 7 4 6 5 5 6 4 7 2 8 1 9 3 10 11 11 12 12 13 13
REMARK SMILES IDX 14 14 15 15 16 16 17 17 18 18 19 19 20 20
REMARK H PARENT
REMARK Flexibility Score: inf
ROOT
ATOM      1  C   UNL     1      34.829  23.999  33.789  1.00  0.00     0.000 C 
ENDROOT
BRANCH   1   2
ATOM      2  C   UNL     1      35.666  25.020  32.997  1.00  0.00     0.000 C 
BRANCH   2   3
ATOM      3  C   UNL     1      36.824  24.420  32.174  1.00  0.00     0.000 C 
BRANCH   3   4
ATOM      4  C   UNL     1      37.104  25.123  30.832  1.00  0.00     0.000 C 
BRANCH   4   5
ATOM      5  C   UNL     1      36.949  24.232  29.584  1.00  0.00     0.000 C 
BRANCH   5   6
ATOM      6  C   UNL     1      36.187  24.877  28.414  1.00  0.00     0.006 C 
BRANCH   6   7
ATOM      7  C   UNL     1      34.684  24.567  28.439  1.00  0.00     0.053 C 
BRANCH   7   8
ATOM      8  C   UNL     1      34.369  23.429  27.522  1.00  0.00     0.041 C 
ATOM      9  O   UNL     1      35.229  22.536  27.301  1.00  0.00    -0.550 OA
ATOM     10  O   UNL     1      33.107  23.327  26.948  1.00  0.00    -0.550 OA
ENDBRANCH   7   8
ENDBRANCH   6   7
ENDBRANCH   5   6
ENDBRANCH   4   5
ENDBRANCH   3   4
ENDBRANCH   2   3
ENDBRANCH   1   2
BRANCH   1  11
ATOM     11  C   UNL     1      33.341  24.015  33.396  1.00  0.00     0.000 C 
BRANCH  11  12
ATOM     12  C   UNL     1      32.474  24.787  34.404  1.00  0.00     0.000 C 
BRANCH  12  13
ATOM     13  C   UNL     1      30.999  24.347  34.374  1.00  0.00     0.000 C 
BRANCH  13  14
ATOM     14  C   UNL     1      30.172  25.122  33.335  1.00  0.00     0.000 C 
BRANCH  14  15
ATOM     15  C   UNL     1      30.815  25.102  31.936  1.00  0.00     0.000 C 
BRANCH  15  16
ATOM     16  C   UNL     1      30.356  23.902  31.092  1.00  0.00     0.006 C 
BRANCH  16  17
ATOM     17  C   UNL     1      31.058  23.830  29.730  1.00  0.00     0.053 C 
BRANCH  17  18
ATOM     18  C   UNL     1      30.084  24.095  28.625  1.00  0.00     0.041 C 
ATOM     19  O   UNL     1      30.152  23.443  27.551  1.00  0.00    -0.550 OA
ATOM     20  O   UNL     1      29.073  25.033  28.800  1.00  0.00    -0.550 OA
ENDBRANCH  17  18
ENDBRANCH  16  17
ENDBRANCH  15  16
ENDBRANCH  14  15
ENDBRANCH  13  14
ENDBRANCH  12  13
ENDBRANCH  11  12
ENDBRANCH   1  11
TORSDOF 15
ENDMDL
MODEL 2
REMARK VINA RESULT:     1.364      2.782      4.717
REMARK INTER + INTRA:           1.921
REMARK INTER:                   0.100
REMARK INTRA:                   1.821
REMARK UNBOUND:                -0.638
REMARK SMILES O=C([O-])CCCCCCCCCCCCCCC(=O)[O-]
REMARK SMILES IDX 10 1 9 2 8 3 7 4 6 5 5 6 4 7 2 8 1 9 3 10 11 11 12 12 13 13
REMARK SMILES IDX 14 14 15 15 16 16 17 17 18 18 19 19 20 20
REMARK H PARENT
REMARK Flexibility Score: inf
ROOT
ATOM      1  C   UNL     1      32.668  21.766  28.662  1.00  0.00     0.000 C 
ENDROOT
BRANCH   1   2
ATOM      2  C   UNL     1      33.574  21.791  27.418  1.00  0.00     0.000 C 
BRANCH   2   3
ATOM      3  C   UNL     1      34.440  23.058  27.264  1.00  0.00     0.000 C 
BRANCH   3   4
ATOM      4  C   UNL     1      35.915  22.800  26.899  1.00  0.00     0.000 C 
BRANCH   4   5
ATOM      5  C   UNL     1      36.941  23.334  27.917  1.00  0.00     0.000 C 
BRANCH   5   6
ATOM      6  C   UNL     1      36.727  24.794  28.350  1.00  0.00     0.006 C 
BRANCH   6   7
ATOM      7  C   UNL     1      35.373  25.019  29.037  1.00  0.00     0.053 C 
BRANCH   7   8
ATOM      8  C   UNL     1      35.533  25.011  30.524  1.00  0.00     0.041 C 
ATOM      9  O   UNL     1      34.523  25.104  31.271  1.00  0.00    -0.550 OA
ATOM     10  O   UNL     1      36.793  24.850  31.088  1.00  0.00    -0.550 OA
ENDBRANCH   7   8
ENDBRANCH   6   7
ENDBRANCH   5   6
ENDBRANCH   4   5
ENDBRANCH   3   4
ENDBRANCH   2   3
ENDBRANCH   1   2
BRANCH   1  11
ATOM     11  C   UNL     1      31.694  22.956  28.715  1.00  0.00     0.000 C 
BRANCH  11  12
ATOM     12  C   UNL     1      31.947  23.974  27.591  1.00  0.00     0.000 C 
BRANCH  12  13
ATOM     13  C   UNL     1      30.644  24.581  27.037  1.00  0.00     0.000 C 
BRANCH  13  14
ATOM     14  C   UNL     1      29.389  23.868  27.566  1.00  0.00     0.000 C 
BRANCH  14  15
ATOM     15  C   UNL     1      28.381  24.842  28.202  1.00  0.00     0.000 C 
BRANCH  15  16
ATOM     16  C   UNL     1      28.684  25.123  29.682  1.00  0.00     0.006 C 
BRANCH  16  17
ATOM     17  C   UNL     1      30.187  25.115  29.994  1.00  0.00     0.053 C 
BRANCH  17  18
ATOM     18  C   UNL     1      30.417  24.839  31.447  1.00  0.00     0.041 C 
ATOM     19  O   UNL     1      31.584  24.863  31.918  1.00  0.00    -0.550 OA
ATOM     20  O   UNL     1      29.337  24.599  32.288  1.00  0.00    -0.550 OA
ENDBRANCH  17  18
ENDBRANCH  16  17
ENDBRANCH  15  16
ENDBRANCH  14  15
ENDBRANCH  13  14
ENDBRANCH  12  13
ENDBRANCH  11  12
ENDBRANCH   1  11
TORSDOF 15
ENDMDL
