MODEL 1
REMARK VINA RESULT:    -4.239      0.000      0.000
REMARK INTER + INTRA:          -7.433
REMARK INTER:                  -6.469
REMARK INTRA:                  -0.965
REMARK UNBOUND:                -0.965
REMARK SMILES O=C([O-])CCCCCCCCC(=O)[O-]
REMARK SMILES IDX 7 1 6 2 5 3 4 4 2 5 1 6 3 7 8 8 9 9 10 10 11 11 12 12 13 13
REMARK SMILES IDX 14 14
REMARK H PARENT
REMARK Flexibility Score: inf
ROOT
ATOM      1  C   UNL     1     -37.461  18.116 -29.297  1.00  0.00     0.000 C 
ENDROOT
BRANCH   1   2
ATOM      2  C   UNL     1     -38.276  18.520 -28.062  1.00  0.00     0.000 C 
BRANCH   2   3
ATOM      3  C   UNL     1     -39.469  19.404 -28.457  1.00  0.00     0.006 C 
BRANCH   3   4
ATOM      4  C   UNL     1     -39.164  20.278 -29.681  1.00  0.00     0.053 C 
BRANCH   4   5
ATOM      5  C   UNL     1     -39.468  21.721 -29.421  1.00  0.00     0.041 C 
ATOM      6  O   UNL     1     -38.638  22.446 -28.813  1.00  0.00    -0.550 OA
ATOM      7  O   UNL     1     -40.657  22.275 -29.880  1.00  0.00    -0.550 OA
ENDBRANCH   4   5
ENDBRANCH   3   4
ENDBRANCH   2   3
ENDBRANCH   1   2
BRANCH   1   8
ATOM      8  C   UNL     1     -35.982  18.480 -29.122  1.00  0.00     0.000 C 
BRANCH   8   9
ATOM      9  C   UNL     1     -35.826  19.784 -28.331  1.00  0.00     0.000 C 
BRANCH   9  10
ATOM     10  C   UNL     1     -35.032  20.823 -29.133  1.00  0.00     0.006 C 
BRANCH  10  11
ATOM     11  C   UNL     1     -35.223  20.619 -30.638  1.00  0.00     0.053 C 
BRANCH  11  12
ATOM     12  C   UNL     1     -36.058  21.719 -31.214  1.00  0.00     0.041 C 
ATOM     13  O   UNL     1     -36.898  21.469 -32.119  1.00  0.00    -0.550 OA
ATOM     14  O   UNL     1     -35.944  23.011 -30.718  1.00  0.00    -0.550 OA
ENDBRANCH  11  12
ENDBRANCH  10  11
ENDBRANCH   9  10
ENDBRANCH   8   9
ENDBRANCH   1   8
TORSDOF 9
ENDMDL
MODEL 2
REMARK VINA RESULT:    -4.158      1.348      3.666
REMARK INTER + INTRA:          -7.310
REMARK INTER:                  -6.256
REMARK INTRA:                  -1.054
REMARK UNBOUND:                -0.965
REMARK SMILES O=C([O-])CCCCCCCCC(=O)[O-]
REMARK SMILES IDX 7 1 6 2 5 3 4 4 2 5 1 6 3 7 8 8 9 9 10 10 11 11 12 12 13 13
REMARK SMILES IDX 14 14
REMARK H PARENT
REMARK Flexibility Score: inf
ROOT
ATOM      1  C   UNL     1     -37.068  17.540 -29.853  1.00  0.00     0.000 C 
ENDROOT
BRANCH   1   2
ATOM      2  C   UNL     1     -35.618  17.698 -30.329  1.00  0.00     0.000 C 
BRANCH   2   3
ATOM      3  C   UNL     1     -35.008  19.008 -29.806  1.00  0.00     0.006 C 
BRANCH   3   4
ATOM      4  C   UNL     1     -35.716  20.244 -30.376  1.00  0.00     0.053 C 
BRANCH   4   5
ATOM      5  C   UNL     1     -35.820  21.340 -29.360  1.00  0.00     0.041 C 
ATOM      6  O   UNL     1     -35.560  21.111 -28.150  1.00  0.00    -0.550 OA
ATOM      7  O   UNL     1     -36.176  22.624 -29.756  1.00  0.00    -0.550 OA
ENDBRANCH   4   5
ENDBRANCH   3   4
ENDBRANCH   2   3
ENDBRANCH   1   2
BRANCH   1   8
ATOM      8  C   UNL     1     -37.152  17.583 -28.322  1.00  0.00     0.000 C 
BRANCH   8   9
ATOM      9  C   UNL     1     -38.210  18.590 -27.857  1.00  0.00     0.000 C 
BRANCH   9  10
ATOM     10  C   UNL     1     -39.163  18.956 -29.001  1.00  0.00     0.006 C 
BRANCH  10  11
ATOM     11  C   UNL     1     -39.965  20.216 -28.667  1.00  0.00     0.053 C 
BRANCH  11  12
ATOM     12  C   UNL     1     -39.475  21.378 -29.471  1.00  0.00     0.041 C 
ATOM     13  O   UNL     1     -39.118  21.214 -30.668  1.00  0.00    -0.550 OA
ATOM     14  O   UNL     1     -39.459  22.651 -28.916  1.00  0.00    -0.550 OA
ENDBRANCH  11  12
ENDBRANCH  10  11
ENDBRANCH   9  10
ENDBRANCH   8   9
ENDBRANCH   1   8
TORSDOF 9
ENDMDL
MODEL 3
REMARK VINA RESULT:    -4.101      1.435      3.690
REMARK INTER + INTRA:          -7.224
REMARK INTER:                  -6.191
REMARK INTRA:                  -1.033
REMARK UNBOUND:                -0.965
REMARK SMILES O=C([O-])CCCCCCCCC(=O)[O-]
REMARK SMILES IDX 7 1 6 2 5 3 4 4 2 5 1 6 3 7 8 8 9 9 10 10 11 11 12 12 13 13
REMARK SMILES IDX 14 14
REMARK H PARENT
REMARK Flexibility Score: inf
ROOT
ATOM      1  C   UNL     1     -35.918  18.935 -27.635  1.00  0.00     0.000 C 
ENDROOT
BRANCH   1   2
ATOM      2  C   UNL     1     -35.267  19.111 -29.013  1.00  0.00     0.000 C 
BRANCH   2   3
ATOM      3  C   UNL     1     -35.185  20.596 -29.396  1.00  0.00     0.006 C 
BRANCH   3   4
ATOM      4  C   UNL     1     -35.440  21.520 -28.198  1.00  0.00     0.053 C 
BRANCH   4   5
ATOM      5  C   UNL     1     -35.917  22.872 -28.630  1.00  0.00     0.041 C 
ATOM      6  O   UNL     1     -36.007  23.810 -27.796  1.00  0.00    -0.550 OA
ATOM      7  O   UNL     1     -36.230  23.105 -29.964  1.00  0.00    -0.550 OA
ENDBRANCH   4   5
ENDBRANCH   3   4
ENDBRANCH   2   3
ENDBRANCH   1   2
BRANCH   1   8
ATOM      8  C   UNL     1     -37.312  18.308 -27.762  1.00  0.00     0.000 C 
BRANCH   8   9
ATOM      9  C   UNL     1     -37.588  17.867 -29.204  1.00  0.00     0.000 C 
BRANCH   9  10
ATOM     10  C   UNL     1     -38.802  18.605 -29.783  1.00  0.00     0.006 C 
BRANCH  10  11
ATOM     11  C   UNL     1     -39.248  19.740 -28.857  1.00  0.00     0.053 C 
BRANCH  11  12
ATOM     12  C   UNL     1     -39.125  21.060 -29.551  1.00  0.00     0.041 C 
ATOM     13  O   UNL     1     -39.330  22.129 -28.917  1.00  0.00    -0.550 OA
ATOM     14  O   UNL     1     -38.738  21.112 -30.883  1.00  0.00    -0.550 OA
ENDBRANCH  11  12
ENDBRANCH  10  11
ENDBRANCH   9  10
ENDBRANCH   8   9
ENDBRANCH   1   8
TORSDOF 9
ENDMDL
MODEL 4
REMARK VINA RESULT:    -4.100      2.268      3.910
REMARK INTER + INTRA:          -7.221
REMARK INTER:                  -6.256
REMARK INTRA:                  -0.965
REMARK UNBOUND:                -0.965
REMARK SMILES O=C([O-])CCCCCCCCC(=O)[O-]
REMARK SMILES IDX 7 1 6 2 5 3 4 4 2 5 1 6 3 7 8 8 9 9 10 10 11 11 12 12 13 13
REMARK SMILES IDX 14 14
REMARK H PARENT
REMARK Flexibility Score: inf
ROOT
ATOM      1  C   UNL     1     -39.177  19.034 -29.206  1.00  0.00     0.000 C 
ENDROOT
BRANCH   1   2
ATOM      2  C   UNL     1     -38.438  18.613 -27.930  1.00  0.00     0.000 C 
BRANCH   2   3
ATOM      3  C   UNL     1     -37.154  17.841 -28.268  1.00  0.00     0.006 C 
BRANCH   3   4
ATOM      4  C   UNL     1     -37.139  17.348 -29.721  1.00  0.00     0.053 C 
BRANCH   4   5
ATOM      5  C   UNL     1     -35.746  17.259 -30.263  1.00  0.00     0.041 C 
ATOM      6  O   UNL     1     -34.915  18.176 -30.030  1.00  0.00    -0.550 OA
ATOM      7  O   UNL     1     -35.355  16.148 -30.999  1.00  0.00    -0.550 OA
ENDBRANCH   4   5
ENDBRANCH   3   4
ENDBRANCH   2   3
ENDBRANCH   1   2
BRANCH   1   8
ATOM      8  C   UNL     1     -39.059  20.546 -29.437  1.00  0.00     0.000 C 
BRANCH   8   9
ATOM      9  C   UNL     1     -38.604  20.850 -30.869  1.00  0.00     0.000 C 
BRANCH   9  10
ATOM     10  C   UNL     1     -37.074  20.881 -30.965  1.00  0.00     0.006 C 
BRANCH  10  11
ATOM     11  C   UNL     1     -36.447  21.284 -29.627  1.00  0.00     0.053 C 
BRANCH  11  12
ATOM     12  C   UNL     1     -36.011  22.714 -29.663  1.00  0.00     0.041 C 
ATOM     13  O   UNL     1     -35.660  23.243 -30.751  1.00  0.00    -0.550 OA
ATOM     14  O   UNL     1     -36.041  23.479 -28.504  1.00  0.00    -0.550 OA
ENDBRANCH  11  12
ENDBRANCH  10  11
ENDBRANCH   9  10
ENDBRANCH   8   9
ENDBRANCH   1   8
TORSDOF 9
ENDMDL
MODEL 5
REMARK VINA RESULT:    -4.069      2.264      4.325
REMARK INTER + INTRA:          -7.175
REMARK INTER:                  -6.343
REMARK INTRA:                  -0.832
REMARK UNBOUND:                -0.965
REMARK SMILES O=C([O-])CCCCCCCCC(=O)[O-]
REMARK SMILES IDX 7 1 6 2 5 3 4 4 2 5 1 6 3 7 8 8 9 9 10 10 11 11 12 12 13 13
REMARK SMILES IDX 14 14
REMARK H PARENT
REMARK Flexibility Score: inf
ROOT
ATOM      1  C   UNL     1     -39.614  21.491 -28.843  1.00  0.00     0.000 C 
ENDROOT
BRANCH   1   2
ATOM      2  C   UNL     1     -38.619  22.622 -29.128  1.00  0.00     0.000 C 
BRANCH   2   3
ATOM      3  C   UNL     1     -37.176  22.161 -28.874  1.00  0.00     0.006 C 
BRANCH   3   4
ATOM      4  C   UNL     1     -36.215  22.627 -29.976  1.00  0.00     0.053 C 
BRANCH   4   5
ATOM      5  C   UNL     1     -36.026  21.577 -31.027  1.00  0.00     0.041 C 
ATOM      6  O   UNL     1     -35.064  20.769 -30.952  1.00  0.00    -0.550 OA
ATOM      7  O   UNL     1     -36.933  21.471 -32.075  1.00  0.00    -0.550 OA
ENDBRANCH   4   5
ENDBRANCH   3   4
ENDBRANCH   2   3
ENDBRANCH   1   2
BRANCH   1   8
ATOM      8  C   UNL     1     -39.128  20.166 -29.443  1.00  0.00     0.000 C 
BRANCH   8   9
ATOM      9  C   UNL     1     -39.288  19.016 -28.442  1.00  0.00     0.000 C 
BRANCH   9  10
ATOM     10  C   UNL     1     -37.931  18.391 -28.099  1.00  0.00     0.006 C 
BRANCH  10  11
ATOM     11  C   UNL     1     -37.014  18.361 -29.325  1.00  0.00     0.053 C 
BRANCH  11  12
ATOM     12  C   UNL     1     -37.330  17.179 -30.187  1.00  0.00     0.041 C 
ATOM     13  O   UNL     1     -36.806  16.060 -29.943  1.00  0.00    -0.550 OA
ATOM     14  O   UNL     1     -38.241  17.301 -31.227  1.00  0.00    -0.550 OA
ENDBRANCH  11  12
ENDBRANCH  10  11
ENDBRANCH   9  10
ENDBRANCH   8   9
ENDBRANCH   1   8
TORSDOF 9
ENDMDL
MODEL 6
REMARK VINA RESULT:    -4.061      2.067      4.209
REMARK INTER + INTRA:          -7.162
REMARK INTER:                  -6.308
REMARK INTRA:                  -0.854
REMARK UNBOUND:                -0.965
REMARK SMILES O=C([O-])CCCCCCCCC(=O)[O-]
REMARK SMILES IDX 7 1 6 2 5 3 4 4 2 5 1 6 3 7 8 8 9 9 10 10 11 11 12 12 13 13
REMARK SMILES IDX 14 14
REMARK H PARENT
REMARK Flexibility Score: inf
ROOT
ATOM      1  C   UNL     1     -39.139  21.248 -30.530  1.00  0.00     0.000 C 
ENDROOT
BRANCH   1   2
ATOM      2  C   UNL     1     -38.286  20.417 -31.496  1.00  0.00     0.000 C 
BRANCH   2   3
ATOM      3  C   UNL     1     -37.132  21.254 -32.070  1.00  0.00     0.006 C 
BRANCH   3   4
ATOM      4  C   UNL     1     -35.930  21.314 -31.119  1.00  0.00     0.053 C 
BRANCH   4   5
ATOM      5  C   UNL     1     -35.650  22.714 -30.666  1.00  0.00     0.041 C 
ATOM      6  O   UNL     1     -34.991  23.498 -31.399  1.00  0.00    -0.550 OA
ATOM      7  O   UNL     1     -36.145  23.164 -29.448  1.00  0.00    -0.550 OA
ENDBRANCH   4   5
ENDBRANCH   3   4
ENDBRANCH   2   3
ENDBRANCH   1   2
BRANCH   1   8
ATOM      8  C   UNL     1     -38.789  20.928 -29.072  1.00  0.00     0.000 C 
BRANCH   8   9
ATOM      9  C   UNL     1     -39.535  19.679 -28.588  1.00  0.00     0.000 C 
BRANCH   9  10
ATOM     10  C   UNL     1     -38.555  18.608 -28.094  1.00  0.00     0.006 C 
BRANCH  10  11
ATOM     11  C   UNL     1     -37.107  19.016 -28.380  1.00  0.00     0.053 C 
BRANCH  11  12
ATOM     12  C   UNL     1     -36.468  18.052 -29.329  1.00  0.00     0.041 C 
ATOM     13  O   UNL     1     -37.155  17.140 -29.863  1.00  0.00    -0.550 OA
ATOM     14  O   UNL     1     -35.127  18.188 -29.662  1.00  0.00    -0.550 OA
ENDBRANCH  11  12
ENDBRANCH  10  11
ENDBRANCH   9  10
ENDBRANCH   8   9
ENDBRANCH   1   8
TORSDOF 9
ENDMDL
MODEL 7
REMARK VINA RESULT:    -4.042      2.124      3.444
REMARK INTER + INTRA:          -7.134
REMARK INTER:                  -6.022
REMARK INTRA:                  -1.112
REMARK UNBOUND:                -0.965
REMARK SMILES O=C([O-])CCCCCCCCC(=O)[O-]
REMARK SMILES IDX 7 1 6 2 5 3 4 4 2 5 1 6 3 7 8 8 9 9 10 10 11 11 12 12 13 13
REMARK SMILES IDX 14 14
REMARK H PARENT
REMARK Flexibility Score: inf
ROOT
ATOM      1  C   UNL     1     -34.290  18.831 -29.607  1.00  0.00     0.000 C 
ENDROOT
BRANCH   1   2
ATOM      2  C   UNL     1     -35.033  17.676 -30.289  1.00  0.00     0.000 C 
BRANCH   2   3
ATOM      3  C   UNL     1     -36.553  17.895 -30.238  1.00  0.00     0.006 C 
BRANCH   3   4
ATOM      4  C   UNL     1     -37.204  17.167 -29.054  1.00  0.00     0.053 C 
BRANCH   4   5
ATOM      5  C   UNL     1     -37.544  18.111 -27.942  1.00  0.00     0.041 C 
ATOM      6  O   UNL     1     -36.697  18.370 -27.047  1.00  0.00    -0.550 OA
ATOM      7  O   UNL     1     -38.788  18.730 -27.911  1.00  0.00    -0.550 OA
ENDBRANCH   4   5
ENDBRANCH   3   4
ENDBRANCH   2   3
ENDBRANCH   1   2
BRANCH   1   8
ATOM      8  C   UNL     1     -34.868  20.186 -30.036  1.00  0.00     0.000 C 
BRANCH   8   9
ATOM      9  C   UNL     1     -35.306  21.007 -28.818  1.00  0.00     0.000 C 
BRANCH   9  10
ATOM     10  C   UNL     1     -36.728  21.551 -29.003  1.00  0.00     0.006 C 
BRANCH  10  11
ATOM     11  C   UNL     1     -37.099  21.625 -30.487  1.00  0.00     0.053 C 
BRANCH  11  12
ATOM     12  C   UNL     1     -38.449  21.026 -30.720  1.00  0.00     0.041 C 
ATOM     13  O   UNL     1     -39.412  21.321 -29.963  1.00  0.00    -0.550 OA
ATOM     14  O   UNL     1     -38.658  20.182 -31.803  1.00  0.00    -0.550 OA
ENDBRANCH  11  12
ENDBRANCH  10  11
ENDBRANCH   9  10
ENDBRANCH   8   9
ENDBRANCH   1   8
TORSDOF 9
ENDMDL
MODEL 8
REMARK VINA RESULT:    -3.979      2.365      3.700
REMARK INTER + INTRA:          -7.038
REMARK INTER:                  -6.051
REMARK INTRA:                  -0.987
REMARK UNBOUND:                -0.965
REMARK SMILES O=C([O-])CCCCCCCCC(=O)[O-]
REMARK SMILES IDX 7 1 6 2 5 3 4 4 2 5 1 6 3 7 8 8 9 9 10 10 11 11 12 12 13 13
REMARK SMILES IDX 14 14
REMARK H PARENT
REMARK Flexibility Score: inf
ROOT
ATOM      1  C   UNL     1     -38.409  19.388 -31.226  1.00  0.00     0.000 C 
ENDROOT
BRANCH   1   2
ATOM      2  C   UNL     1     -38.635  18.618 -29.920  1.00  0.00     0.000 C 
BRANCH   2   3
ATOM      3  C   UNL     1     -37.387  17.808 -29.536  1.00  0.00     0.006 C 
BRANCH   3   4
ATOM      4  C   UNL     1     -36.116  18.667 -29.538  1.00  0.00     0.053 C 
BRANCH   4   5
ATOM      5  C   UNL     1     -35.784  19.169 -28.166  1.00  0.00     0.041 C 
ATOM      6  O   UNL     1     -34.947  20.098 -28.016  1.00  0.00    -0.550 OA
ATOM      7  O   UNL     1     -36.424  18.633 -27.055  1.00  0.00    -0.550 OA
ENDBRANCH   4   5
ENDBRANCH   3   4
ENDBRANCH   2   3
ENDBRANCH   1   2
BRANCH   1   8
ATOM      8  C   UNL     1     -38.555  20.899 -31.006  1.00  0.00     0.000 C 
BRANCH   8   9
ATOM      9  C   UNL     1     -39.038  21.204 -29.584  1.00  0.00     0.000 C 
BRANCH   9  10
ATOM     10  C   UNL     1     -38.090  22.182 -28.878  1.00  0.00     0.006 C 
BRANCH  10  11
ATOM     11  C   UNL     1     -36.853  22.463 -29.735  1.00  0.00     0.053 C 
BRANCH  11  12
ATOM     12  C   UNL     1     -35.841  23.240 -28.955  1.00  0.00     0.041 C 
ATOM     13  O   UNL     1     -34.766  23.606 -29.501  1.00  0.00    -0.550 OA
ATOM     14  O   UNL     1     -36.105  23.604 -27.641  1.00  0.00    -0.550 OA
ENDBRANCH  11  12
ENDBRANCH  10  11
ENDBRANCH   9  10
ENDBRANCH   8   9
ENDBRANCH   1   8
TORSDOF 9
ENDMDL
MODEL 9
REMARK VINA RESULT:    -3.941      2.760      4.941
REMARK INTER + INTRA:          -6.980
REMARK INTER:                  -5.984
REMARK INTRA:                  -0.996
REMARK UNBOUND:                -0.965
REMARK SMILES O=C([O-])CCCCCCCCC(=O)[O-]
REMARK SMILES IDX 7 1 6 2 5 3 4 4 2 5 1 6 3 7 8 8 9 9 10 10 11 11 12 12 13 13
REMARK SMILES IDX 14 14
REMARK H PARENT
REMARK Flexibility Score: inf
ROOT
ATOM      1  C   UNL     1     -36.876  22.663 -29.111  1.00  0.00     0.000 C 
ENDROOT
BRANCH   1   2
ATOM      2  C   UNL     1     -36.297  21.860 -30.282  1.00  0.00     0.000 C 
BRANCH   2   3
ATOM      3  C   UNL     1     -35.097  21.014 -29.828  1.00  0.00     0.006 C 
BRANCH   3   4
ATOM      4  C   UNL     1     -35.037  20.864 -28.303  1.00  0.00     0.053 C 
BRANCH   4   5
ATOM      5  C   UNL     1     -34.741  19.453 -27.896  1.00  0.00     0.041 C 
ATOM      6  O   UNL     1     -35.203  18.993 -26.819  1.00  0.00    -0.550 OA
ATOM      7  O   UNL     1     -33.979  18.636 -28.722  1.00  0.00    -0.550 OA
ENDBRANCH   4   5
ENDBRANCH   3   4
ENDBRANCH   2   3
ENDBRANCH   1   2
BRANCH   1   8
ATOM      8  C   UNL     1     -38.356  22.325 -28.891  1.00  0.00     0.000 C 
BRANCH   8   9
ATOM      9  C   UNL     1     -38.817  21.223 -29.851  1.00  0.00     0.000 C 
BRANCH   9  10
ATOM     10  C   UNL     1     -39.390  20.026 -29.081  1.00  0.00     0.006 C 
BRANCH  10  11
ATOM     11  C   UNL     1     -38.288  19.027 -28.720  1.00  0.00     0.053 C 
BRANCH  11  12
ATOM     12  C   UNL     1     -37.971  18.151 -29.891  1.00  0.00     0.041 C 
ATOM     13  O   UNL     1     -36.935  17.435 -29.885  1.00  0.00    -0.550 OA
ATOM     14  O   UNL     1     -38.846  18.086 -30.968  1.00  0.00    -0.550 OA
ENDBRANCH  11  12
ENDBRANCH  10  11
ENDBRANCH   9  10
ENDBRANCH   8   9
ENDBRANCH   1   8
TORSDOF 9
ENDMDL
