MODEL 1
REMARK VINA RESULT:    -4.299      0.000      0.000
REMARK INTER + INTRA:         -10.947
REMARK INTER:                  -8.319
REMARK INTRA:                  -2.627
REMARK UNBOUND:                -2.627
REMARK SMILES CCCCCCCCCCCCCCCCCC(=O)[O-]
REMARK SMILES IDX 10 1 11 2 12 3 13 4 14 5 15 6 16 7 17 8 18 9 19 10 20 11
REMARK SMILES IDX 9 12 8 13 7 14 6 15 5 16 4 17 3 18 2 19 1 20
REMARK H PARENT
REMARK Flexibility Score: inf
ROOT
ATOM      1  C   UNL     1      13.277  25.559  51.382  1.00  0.00     0.000 C 
ENDROOT
BRANCH   1   2
ATOM      2  C   UNL     1      14.012  24.664  50.362  1.00  0.00     0.000 C 
BRANCH   2   3
ATOM      3  C   UNL     1      14.583  25.435  49.155  1.00  0.00     0.000 C 
BRANCH   3   4
ATOM      4  C   UNL     1      16.111  25.620  49.167  1.00  0.00     0.000 C 
BRANCH   4   5
ATOM      5  C   UNL     1      16.581  27.084  49.262  1.00  0.00     0.000 C 
BRANCH   5   6
ATOM      6  C   UNL     1      15.440  28.083  49.568  1.00  0.00     0.000 C 
BRANCH   6   7
ATOM      7  C   UNL     1      15.767  29.057  50.714  1.00  0.00     0.006 C 
BRANCH   7   8
ATOM      8  C   UNL     1      14.506  29.643  51.360  1.00  0.00     0.053 C 
BRANCH   8   9
ATOM      9  C   UNL     1      14.247  31.023  50.844  1.00  0.00     0.041 C 
ATOM     10  O   UNL     1      13.220  31.653  51.212  1.00  0.00    -0.550 OA
ATOM     11  O   UNL     1      15.163  31.633  49.997  1.00  0.00    -0.550 OA
ENDBRANCH   8   9
ENDBRANCH   7   8
ENDBRANCH   6   7
ENDBRANCH   5   6
ENDBRANCH   4   5
ENDBRANCH   3   4
ENDBRANCH   2   3
ENDBRANCH   1   2
BRANCH   1  12
ATOM     12  C   UNL     1      14.226  26.132  52.446  1.00  0.00     0.000 C 
BRANCH  12  13
ATOM     13  C   UNL     1      15.207  25.061  52.944  1.00  0.00    -0.000 C 
BRANCH  13  14
ATOM     14  C   UNL     1      16.677  25.510  52.858  1.00  0.00    -0.000 C 
BRANCH  14  15
ATOM     15  C   UNL     1      16.975  26.890  53.480  1.00  0.00    -0.000 C 
BRANCH  15  16
ATOM     16  C   UNL     1      16.478  27.076  54.928  1.00  0.00    -0.000 C 
BRANCH  16  17
ATOM     17  C   UNL     1      15.677  28.368  55.178  1.00  0.00    -0.000 C 
BRANCH  17  18
ATOM     18  C   UNL     1      16.305  29.644  54.586  1.00  0.00    -0.000 C 
BRANCH  18  19
ATOM     19  C   UNL     1      17.131  30.459  55.603  1.00  0.00    -0.003 C 
ATOM     20  C   UNL     1      16.402  30.652  56.934  1.00  0.00     0.004 C 
ENDBRANCH  18  19
ENDBRANCH  17  18
ENDBRANCH  16  17
ENDBRANCH  15  16
ENDBRANCH  14  15
ENDBRANCH  13  14
ENDBRANCH  12  13
ENDBRANCH   1  12
TORSDOF 16
ENDMDL
MODEL 2
REMARK VINA RESULT:    -4.234      1.323      2.046
REMARK INTER + INTRA:         -10.822
REMARK INTER:                  -8.758
REMARK INTRA:                  -2.065
REMARK UNBOUND:                -2.627
REMARK SMILES CCCCCCCCCCCCCCCCCC(=O)[O-]
REMARK SMILES IDX 10 1 11 2 12 3 13 4 14 5 15 6 16 7 17 8 18 9 19 10 20 11
REMARK SMILES IDX 9 12 8 13 7 14 6 15 5 16 4 17 3 18 2 19 1 20
REMARK H PARENT
REMARK Flexibility Score: inf
ROOT
ATOM      1  C   UNL     1      14.777  24.656  52.114  1.00  0.00     0.000 C 
ENDROOT
BRANCH   1   2
ATOM      2  C   UNL     1      13.752  25.807  52.043  1.00  0.00     0.000 C 
BRANCH   2   3
ATOM      3  C   UNL     1      13.771  26.577  50.708  1.00  0.00     0.000 C 
BRANCH   3   4
ATOM      4  C   UNL     1      15.162  27.053  50.252  1.00  0.00     0.000 C 
BRANCH   4   5
ATOM      5  C   UNL     1      15.295  28.577  50.076  1.00  0.00     0.000 C 
BRANCH   5   6
ATOM      6  C   UNL     1      15.525  29.337  51.404  1.00  0.00     0.000 C 
BRANCH   6   7
ATOM      7  C   UNL     1      14.860  30.724  51.441  1.00  0.00     0.006 C 
BRANCH   7   8
ATOM      8  C   UNL     1      15.773  31.793  52.056  1.00  0.00     0.053 C 
BRANCH   8   9
ATOM      9  C   UNL     1      15.536  33.120  51.407  1.00  0.00     0.041 C 
ATOM     10  O   UNL     1      14.492  33.774  51.668  1.00  0.00    -0.550 OA
ATOM     11  O   UNL     1      16.490  33.657  50.553  1.00  0.00    -0.550 OA
ENDBRANCH   8   9
ENDBRANCH   7   8
ENDBRANCH   6   7
ENDBRANCH   5   6
ENDBRANCH   4   5
ENDBRANCH   3   4
ENDBRANCH   2   3
ENDBRANCH   1   2
BRANCH   1  12
ATOM     12  C   UNL     1      15.669  24.746  53.363  1.00  0.00     0.000 C 
BRANCH  12  13
ATOM     13  C   UNL     1      16.985  25.470  53.049  1.00  0.00    -0.000 C 
BRANCH  13  14
ATOM     14  C   UNL     1      17.279  26.625  54.024  1.00  0.00    -0.000 C 
BRANCH  14  15
ATOM     15  C   UNL     1      16.112  27.000  54.961  1.00  0.00    -0.000 C 
BRANCH  15  16
ATOM     16  C   UNL     1      15.771  28.503  55.013  1.00  0.00    -0.000 C 
BRANCH  16  17
ATOM     17  C   UNL     1      16.951  29.448  54.714  1.00  0.00    -0.000 C 
BRANCH  17  18
ATOM     18  C   UNL     1      17.135  30.594  55.725  1.00  0.00    -0.000 C 
BRANCH  18  19
ATOM     19  C   UNL     1      16.043  30.643  56.815  1.00  0.00    -0.003 C 
ATOM     20  C   UNL     1      15.272  31.964  56.817  1.00  0.00     0.004 C 
ENDBRANCH  18  19
ENDBRANCH  17  18
ENDBRANCH  16  17
ENDBRANCH  15  16
ENDBRANCH  14  15
ENDBRANCH  13  14
ENDBRANCH  12  13
ENDBRANCH   1  12
TORSDOF 16
ENDMDL
MODEL 3
REMARK VINA RESULT:    -4.206      1.688      3.075
REMARK INTER + INTRA:         -10.767
REMARK INTER:                  -7.922
REMARK INTRA:                  -2.845
REMARK UNBOUND:                -2.627
REMARK SMILES CCCCCCCCCCCCCCCCCC(=O)[O-]
REMARK SMILES IDX 10 1 11 2 12 3 13 4 14 5 15 6 16 7 17 8 18 9 19 10 20 11
REMARK SMILES IDX 9 12 8 13 7 14 6 15 5 16 4 17 3 18 2 19 1 20
REMARK H PARENT
REMARK Flexibility Score: inf
ROOT
ATOM      1  C   UNL     1      14.408  24.990  51.041  1.00  0.00     0.000 C 
ENDROOT
BRANCH   1   2
ATOM      2  C   UNL     1      14.625  24.967  49.513  1.00  0.00     0.000 C 
BRANCH   2   3
ATOM      3  C   UNL     1      14.083  26.215  48.788  1.00  0.00     0.000 C 
BRANCH   3   4
ATOM      4  C   UNL     1      15.160  27.195  48.290  1.00  0.00     0.000 C 
BRANCH   4   5
ATOM      5  C   UNL     1      15.221  28.529  49.057  1.00  0.00     0.000 C 
BRANCH   5   6
ATOM      6  C   UNL     1      15.652  28.375  50.535  1.00  0.00     0.000 C 
BRANCH   6   7
ATOM      7  C   UNL     1      14.785  29.186  51.515  1.00  0.00     0.006 C 
BRANCH   7   8
ATOM      8  C   UNL     1      15.413  30.540  51.866  1.00  0.00     0.053 C 
BRANCH   8   9
ATOM      9  C   UNL     1      14.682  31.650  51.179  1.00  0.00     0.041 C 
ATOM     10  O   UNL     1      15.320  32.620  50.690  1.00  0.00    -0.550 OA
ATOM     11  O   UNL     1      13.302  31.590  51.035  1.00  0.00    -0.550 OA
ENDBRANCH   8   9
ENDBRANCH   7   8
ENDBRANCH   6   7
ENDBRANCH   5   6
ENDBRANCH   4   5
ENDBRANCH   3   4
ENDBRANCH   2   3
ENDBRANCH   1   2
BRANCH   1  12
ATOM     12  C   UNL     1      15.304  23.978  51.772  1.00  0.00     0.000 C 
BRANCH  12  13
ATOM     13  C   UNL     1      15.490  24.370  53.245  1.00  0.00    -0.000 C 
BRANCH  13  14
ATOM     14  C   UNL     1      15.366  25.886  53.480  1.00  0.00    -0.000 C 
BRANCH  14  15
ATOM     15  C   UNL     1      16.394  26.479  54.465  1.00  0.00    -0.000 C 
BRANCH  15  16
ATOM     16  C   UNL     1      17.185  27.692  53.935  1.00  0.00    -0.000 C 
BRANCH  16  17
ATOM     17  C   UNL     1      18.242  27.360  52.864  1.00  0.00    -0.000 C 
BRANCH  17  18
ATOM     18  C   UNL     1      18.942  26.000  53.045  1.00  0.00    -0.000 C 
BRANCH  18  19
ATOM     19  C   UNL     1      18.900  25.108  51.786  1.00  0.00    -0.003 C 
ATOM     20  C   UNL     1      18.300  25.825  50.576  1.00  0.00     0.004 C 
ENDBRANCH  18  19
ENDBRANCH  17  18
ENDBRANCH  16  17
ENDBRANCH  15  16
ENDBRANCH  14  15
ENDBRANCH  13  14
ENDBRANCH  12  13
ENDBRANCH   1  12
TORSDOF 16
ENDMDL
MODEL 4
REMARK VINA RESULT:    -4.162      2.291      5.489
REMARK INTER + INTRA:         -10.683
REMARK INTER:                  -9.061
REMARK INTRA:                  -1.622
REMARK UNBOUND:                -2.627
REMARK SMILES CCCCCCCCCCCCCCCCCC(=O)[O-]
REMARK SMILES IDX 10 1 11 2 12 3 13 4 14 5 15 6 16 7 17 8 18 9 19 10 20 11
REMARK SMILES IDX 9 12 8 13 7 14 6 15 5 16 4 17 3 18 2 19 1 20
REMARK H PARENT
REMARK Flexibility Score: inf
ROOT
ATOM      1  C   UNL     1      15.358  25.446  53.534  1.00  0.00     0.000 C 
ENDROOT
BRANCH   1   2
ATOM      2  C   UNL     1      16.732  25.927  54.047  1.00  0.00     0.000 C 
BRANCH   2   3
ATOM      3  C   UNL     1      16.916  27.456  53.996  1.00  0.00     0.000 C 
BRANCH   3   4
ATOM      4  C   UNL     1      16.206  28.234  55.118  1.00  0.00     0.000 C 
BRANCH   4   5
ATOM      5  C   UNL     1      16.086  29.750  54.875  1.00  0.00     0.000 C 
BRANCH   5   6
ATOM      6  C   UNL     1      17.353  30.543  55.273  1.00  0.00     0.000 C 
BRANCH   6   7
ATOM      7  C   UNL     1      17.310  31.086  56.712  1.00  0.00     0.006 C 
BRANCH   7   8
ATOM      8  C   UNL     1      15.877  31.319  57.207  1.00  0.00     0.053 C 
BRANCH   8   9
ATOM      9  C   UNL     1      15.505  32.762  57.072  1.00  0.00     0.041 C 
ATOM     10  O   UNL     1      16.165  33.645  57.681  1.00  0.00    -0.550 OA
ATOM     11  O   UNL     1      14.460  33.136  56.236  1.00  0.00    -0.550 OA
ENDBRANCH   8   9
ENDBRANCH   7   8
ENDBRANCH   6   7
ENDBRANCH   5   6
ENDBRANCH   4   5
ENDBRANCH   3   4
ENDBRANCH   2   3
ENDBRANCH   1   2
BRANCH   1  12
ATOM     12  C   UNL     1      15.433  24.060  52.875  1.00  0.00     0.000 C 
BRANCH  12  13
ATOM     13  C   UNL     1      14.409  23.933  51.739  1.00  0.00    -0.000 C 
BRANCH  13  14
ATOM     14  C   UNL     1      13.843  25.292  51.289  1.00  0.00    -0.000 C 
BRANCH  14  15
ATOM     15  C   UNL     1      14.244  25.726  49.865  1.00  0.00    -0.000 C 
BRANCH  15  16
ATOM     16  C   UNL     1      14.725  27.186  49.736  1.00  0.00    -0.000 C 
BRANCH  16  17
ATOM     17  C   UNL     1      14.853  27.948  51.068  1.00  0.00    -0.000 C 
BRANCH  17  18
ATOM     18  C   UNL     1      15.642  29.268  50.986  1.00  0.00    -0.000 C 
BRANCH  18  19
ATOM     19  C   UNL     1      14.751  30.513  50.788  1.00  0.00    -0.003 C 
ATOM     20  C   UNL     1      14.461  30.802  49.314  1.00  0.00     0.004 C 
ENDBRANCH  18  19
ENDBRANCH  17  18
ENDBRANCH  16  17
ENDBRANCH  15  16
ENDBRANCH  14  15
ENDBRANCH  13  14
ENDBRANCH  12  13
ENDBRANCH   1  12
TORSDOF 16
ENDMDL
MODEL 5
REMARK VINA RESULT:    -4.143      1.418      2.201
REMARK INTER + INTRA:         -10.646
REMARK INTER:                  -8.141
REMARK INTRA:                  -2.505
REMARK UNBOUND:                -2.627
REMARK SMILES CCCCCCCCCCCCCCCCCC(=O)[O-]
REMARK SMILES IDX 10 1 11 2 12 3 13 4 14 5 15 6 16 7 17 8 18 9 19 10 20 11
REMARK SMILES IDX 9 12 8 13 7 14 6 15 5 16 4 17 3 18 2 19 1 20
REMARK H PARENT
REMARK Flexibility Score: inf
ROOT
ATOM      1  C   UNL     1      14.181  25.239  51.984  1.00  0.00     0.000 C 
ENDROOT
BRANCH   1   2
ATOM      2  C   UNL     1      14.339  25.059  50.460  1.00  0.00     0.000 C 
BRANCH   2   3
ATOM      3  C   UNL     1      14.373  26.386  49.676  1.00  0.00     0.000 C 
BRANCH   3   4
ATOM      4  C   UNL     1      15.737  27.097  49.662  1.00  0.00     0.000 C 
BRANCH   4   5
ATOM      5  C   UNL     1      15.680  28.607  49.963  1.00  0.00     0.000 C 
BRANCH   5   6
ATOM      6  C   UNL     1      14.847  28.956  51.219  1.00  0.00     0.000 C 
BRANCH   6   7
ATOM      7  C   UNL     1      14.395  30.427  51.266  1.00  0.00     0.006 C 
BRANCH   7   8
ATOM      8  C   UNL     1      15.565  31.390  51.503  1.00  0.00     0.053 C 
BRANCH   8   9
ATOM      9  C   UNL     1      15.161  32.794  51.182  1.00  0.00     0.041 C 
ATOM     10  O   UNL     1      14.144  33.299  51.725  1.00  0.00    -0.550 OA
ATOM     11  O   UNL     1      15.935  33.561  50.319  1.00  0.00    -0.550 OA
ENDBRANCH   8   9
ENDBRANCH   7   8
ENDBRANCH   6   7
ENDBRANCH   5   6
ENDBRANCH   4   5
ENDBRANCH   3   4
ENDBRANCH   2   3
ENDBRANCH   1   2
BRANCH   1  12
ATOM     12  C   UNL     1      15.359  24.640  52.768  1.00  0.00     0.000 C 
BRANCH  12  13
ATOM     13  C   UNL     1      16.494  25.662  52.924  1.00  0.00    -0.000 C 
BRANCH  13  14
ATOM     14  C   UNL     1      16.618  26.203  54.361  1.00  0.00    -0.000 C 
BRANCH  14  15
ATOM     15  C   UNL     1      15.483  27.149  54.801  1.00  0.00    -0.000 C 
BRANCH  15  16
ATOM     16  C   UNL     1      15.943  28.440  55.508  1.00  0.00    -0.000 C 
BRANCH  16  17
ATOM     17  C   UNL     1      16.405  29.567  54.565  1.00  0.00    -0.000 C 
BRANCH  17  18
ATOM     18  C   UNL     1      17.915  29.576  54.259  1.00  0.00    -0.000 C 
BRANCH  18  19
ATOM     19  C   UNL     1      18.258  29.164  52.812  1.00  0.00    -0.003 C 
ATOM     20  C   UNL     1      19.404  28.153  52.743  1.00  0.00     0.004 C 
ENDBRANCH  18  19
ENDBRANCH  17  18
ENDBRANCH  16  17
ENDBRANCH  15  16
ENDBRANCH  14  15
ENDBRANCH  13  14
ENDBRANCH  12  13
ENDBRANCH   1  12
TORSDOF 16
ENDMDL
MODEL 6
REMARK VINA RESULT:    -4.137      1.586      2.821
REMARK INTER + INTRA:         -10.634
REMARK INTER:                  -7.748
REMARK INTRA:                  -2.885
REMARK UNBOUND:                -2.627
REMARK SMILES CCCCCCCCCCCCCCCCCC(=O)[O-]
REMARK SMILES IDX 10 1 11 2 12 3 13 4 14 5 15 6 16 7 17 8 18 9 19 10 20 11
REMARK SMILES IDX 9 12 8 13 7 14 6 15 5 16 4 17 3 18 2 19 1 20
REMARK H PARENT
REMARK Flexibility Score: inf
ROOT
ATOM      1  C   UNL     1      17.283  24.583  49.064  1.00  0.00     0.000 C 
ENDROOT
BRANCH   1   2
ATOM      2  C   UNL     1      16.807  23.879  50.352  1.00  0.00     0.000 C 
BRANCH   2   3
ATOM      3  C   UNL     1      15.301  24.049  50.634  1.00  0.00     0.000 C 
BRANCH   3   4
ATOM      4  C   UNL     1      14.633  25.229  49.906  1.00  0.00     0.000 C 
BRANCH   4   5
ATOM      5  C   UNL     1      14.241  26.408  50.816  1.00  0.00     0.000 C 
BRANCH   5   6
ATOM      6  C   UNL     1      15.044  27.700  50.538  1.00  0.00     0.000 C 
BRANCH   6   7
ATOM      7  C   UNL     1      14.605  28.895  51.402  1.00  0.00     0.006 C 
BRANCH   7   8
ATOM      8  C   UNL     1      15.763  29.854  51.705  1.00  0.00     0.053 C 
BRANCH   8   9
ATOM      9  C   UNL     1      15.458  31.223  51.185  1.00  0.00     0.041 C 
ATOM     10  O   UNL     1      14.972  31.368  50.032  1.00  0.00    -0.550 OA
ATOM     11  O   UNL     1      15.665  32.336  51.990  1.00  0.00    -0.550 OA
ENDBRANCH   8   9
ENDBRANCH   7   8
ENDBRANCH   6   7
ENDBRANCH   5   6
ENDBRANCH   4   5
ENDBRANCH   3   4
ENDBRANCH   2   3
ENDBRANCH   1   2
BRANCH   1  12
ATOM     12  C   UNL     1      18.491  25.500  49.313  1.00  0.00     0.000 C 
BRANCH  12  13
ATOM     13  C   UNL     1      18.780  25.636  50.815  1.00  0.00    -0.000 C 
BRANCH  13  14
ATOM     14  C   UNL     1      18.385  27.014  51.377  1.00  0.00    -0.000 C 
BRANCH  14  15
ATOM     15  C   UNL     1      18.282  27.087  52.914  1.00  0.00    -0.000 C 
BRANCH  15  16
ATOM     16  C   UNL     1      17.905  25.763  53.608  1.00  0.00    -0.000 C 
BRANCH  16  17
ATOM     17  C   UNL     1      16.392  25.510  53.747  1.00  0.00    -0.000 C 
BRANCH  17  18
ATOM     18  C   UNL     1      15.566  26.741  54.166  1.00  0.00    -0.000 C 
BRANCH  18  19
ATOM     19  C   UNL     1      16.053  27.399  55.475  1.00  0.00    -0.003 C 
ATOM     20  C   UNL     1      15.889  28.919  55.466  1.00  0.00     0.004 C 
ENDBRANCH  18  19
ENDBRANCH  17  18
ENDBRANCH  16  17
ENDBRANCH  15  16
ENDBRANCH  14  15
ENDBRANCH  13  14
ENDBRANCH  12  13
ENDBRANCH   1  12
TORSDOF 16
ENDMDL
MODEL 7
REMARK VINA RESULT:    -4.135      1.529      2.746
REMARK INTER + INTRA:         -10.630
REMARK INTER:                  -8.022
REMARK INTRA:                  -2.608
REMARK UNBOUND:                -2.627
REMARK SMILES CCCCCCCCCCCCCCCCCC(=O)[O-]
REMARK SMILES IDX 10 1 11 2 12 3 13 4 14 5 15 6 16 7 17 8 18 9 19 10 20 11
REMARK SMILES IDX 9 12 8 13 7 14 6 15 5 16 4 17 3 18 2 19 1 20
REMARK H PARENT
REMARK Flexibility Score: inf
ROOT
ATOM      1  C   UNL     1      15.740  24.156  53.383  1.00  0.00     0.000 C 
ENDROOT
BRANCH   1   2
ATOM      2  C   UNL     1      14.865  23.887  52.140  1.00  0.00     0.000 C 
BRANCH   2   3
ATOM      3  C   UNL     1      15.569  24.195  50.804  1.00  0.00     0.000 C 
BRANCH   3   4
ATOM      4  C   UNL     1      14.752  25.052  49.821  1.00  0.00     0.000 C 
BRANCH   4   5
ATOM      5  C   UNL     1      14.434  26.475  50.319  1.00  0.00     0.000 C 
BRANCH   5   6
ATOM      6  C   UNL     1      15.490  27.526  49.908  1.00  0.00     0.000 C 
BRANCH   6   7
ATOM      7  C   UNL     1      15.876  28.487  51.047  1.00  0.00     0.006 C 
BRANCH   7   8
ATOM      8  C   UNL     1      14.701  29.366  51.492  1.00  0.00     0.053 C 
BRANCH   8   9
ATOM      9  C   UNL     1      14.939  30.793  51.108  1.00  0.00     0.041 C 
ATOM     10  O   UNL     1      14.921  31.132  49.896  1.00  0.00    -0.550 OA
ATOM     11  O   UNL     1      15.133  31.755  52.091  1.00  0.00    -0.550 OA
ENDBRANCH   8   9
ENDBRANCH   7   8
ENDBRANCH   6   7
ENDBRANCH   5   6
ENDBRANCH   4   5
ENDBRANCH   3   4
ENDBRANCH   2   3
ENDBRANCH   1   2
BRANCH   1  12
ATOM     12  C   UNL     1      16.289  25.591  53.410  1.00  0.00     0.000 C 
BRANCH  12  13
ATOM     13  C   UNL     1      15.375  26.516  54.227  1.00  0.00    -0.000 C 
BRANCH  13  14
ATOM     14  C   UNL     1      16.160  27.493  55.121  1.00  0.00    -0.000 C 
BRANCH  14  15
ATOM     15  C   UNL     1      15.783  28.979  54.951  1.00  0.00    -0.000 C 
BRANCH  15  16
ATOM     16  C   UNL     1      16.937  29.977  55.174  1.00  0.00    -0.000 C 
BRANCH  16  17
ATOM     17  C   UNL     1      17.784  30.280  53.924  1.00  0.00    -0.000 C 
BRANCH  17  18
ATOM     18  C   UNL     1      19.102  29.489  53.827  1.00  0.00    -0.000 C 
BRANCH  18  19
ATOM     19  C   UNL     1      19.289  28.755  52.482  1.00  0.00    -0.003 C 
ATOM     20  C   UNL     1      19.365  27.236  52.645  1.00  0.00     0.004 C 
ENDBRANCH  18  19
ENDBRANCH  17  18
ENDBRANCH  16  17
ENDBRANCH  15  16
ENDBRANCH  14  15
ENDBRANCH  13  14
ENDBRANCH  12  13
ENDBRANCH   1  12
TORSDOF 16
ENDMDL
MODEL 8
REMARK VINA RESULT:    -4.123      2.160      4.885
REMARK INTER + INTRA:         -10.607
REMARK INTER:                  -8.079
REMARK INTRA:                  -2.528
REMARK UNBOUND:                -2.627
REMARK SMILES CCCCCCCCCCCCCCCCCC(=O)[O-]
REMARK SMILES IDX 10 1 11 2 12 3 13 4 14 5 15 6 16 7 17 8 18 9 19 10 20 11
REMARK SMILES IDX 9 12 8 13 7 14 6 15 5 16 4 17 3 18 2 19 1 20
REMARK H PARENT
REMARK Flexibility Score: inf
ROOT
ATOM      1  C   UNL     1      14.125  26.071  52.409  1.00  0.00     0.000 C 
ENDROOT
BRANCH   1   2
ATOM      2  C   UNL     1      15.304  25.217  52.921  1.00  0.00     0.000 C 
BRANCH   2   3
ATOM      3  C   UNL     1      16.683  25.875  52.719  1.00  0.00     0.000 C 
BRANCH   3   4
ATOM      4  C   UNL     1      17.263  26.566  53.966  1.00  0.00     0.000 C 
BRANCH   4   5
ATOM      5  C   UNL     1      16.218  26.963  55.026  1.00  0.00     0.000 C 
BRANCH   5   6
ATOM      6  C   UNL     1      15.716  28.419  54.886  1.00  0.00     0.000 C 
BRANCH   6   7
ATOM      7  C   UNL     1      16.851  29.450  54.756  1.00  0.00     0.006 C 
BRANCH   7   8
ATOM      8  C   UNL     1      16.414  30.857  55.183  1.00  0.00     0.053 C 
BRANCH   8   9
ATOM      9  C   UNL     1      15.936  30.848  56.601  1.00  0.00     0.041 C 
ATOM     10  O   UNL     1      16.746  30.624  57.540  1.00  0.00    -0.550 OA
ATOM     11  O   UNL     1      14.608  31.136  56.890  1.00  0.00    -0.550 OA
ENDBRANCH   8   9
ENDBRANCH   7   8
ENDBRANCH   6   7
ENDBRANCH   5   6
ENDBRANCH   4   5
ENDBRANCH   3   4
ENDBRANCH   2   3
ENDBRANCH   1   2
BRANCH   1  12
ATOM     12  C   UNL     1      13.210  25.289  51.454  1.00  0.00     0.000 C 
BRANCH  12  13
ATOM     13  C   UNL     1      14.032  24.453  50.463  1.00  0.00    -0.000 C 
BRANCH  13  14
ATOM     14  C   UNL     1      14.433  25.243  49.204  1.00  0.00    -0.000 C 
BRANCH  14  15
ATOM     15  C   UNL     1      15.925  25.620  49.117  1.00  0.00    -0.000 C 
BRANCH  15  16
ATOM     16  C   UNL     1      16.212  27.123  48.926  1.00  0.00    -0.000 C 
BRANCH  16  17
ATOM     17  C   UNL     1      15.201  28.068  49.602  1.00  0.00    -0.000 C 
BRANCH  17  18
ATOM     18  C   UNL     1      15.773  28.903  50.764  1.00  0.00    -0.000 C 
BRANCH  18  19
ATOM     19  C   UNL     1      14.786  29.951  51.319  1.00  0.00    -0.003 C 
ATOM     20  C   UNL     1      15.462  31.285  51.640  1.00  0.00     0.004 C 
ENDBRANCH  18  19
ENDBRANCH  17  18
ENDBRANCH  16  17
ENDBRANCH  15  16
ENDBRANCH  14  15
ENDBRANCH  13  14
ENDBRANCH  12  13
ENDBRANCH   1  12
TORSDOF 16
ENDMDL
MODEL 9
REMARK VINA RESULT:    -4.107      1.412      2.427
REMARK INTER + INTRA:         -10.577
REMARK INTER:                  -7.980
REMARK INTRA:                  -2.597
REMARK UNBOUND:                -2.627
REMARK SMILES CCCCCCCCCCCCCCCCCC(=O)[O-]
REMARK SMILES IDX 10 1 11 2 12 3 13 4 14 5 15 6 16 7 17 8 18 9 19 10 20 11
REMARK SMILES IDX 9 12 8 13 7 14 6 15 5 16 4 17 3 18 2 19 1 20
REMARK H PARENT
REMARK Flexibility Score: inf
ROOT
ATOM      1  C   UNL     1      15.383  26.196  53.914  1.00  0.00     0.000 C 
ENDROOT
BRANCH   1   2
ATOM      2  C   UNL     1      15.344  24.932  53.029  1.00  0.00     0.000 C 
BRANCH   2   3
ATOM      3  C   UNL     1      14.562  25.116  51.714  1.00  0.00     0.000 C 
BRANCH   3   4
ATOM      4  C   UNL     1      14.316  26.579  51.304  1.00  0.00     0.000 C 
BRANCH   4   5
ATOM      5  C   UNL     1      15.313  27.134  50.269  1.00  0.00     0.000 C 
BRANCH   5   6
ATOM      6  C   UNL     1      15.629  28.636  50.456  1.00  0.00     0.000 C 
BRANCH   6   7
ATOM      7  C   UNL     1      14.896  29.274  51.649  1.00  0.00     0.006 C 
BRANCH   7   8
ATOM      8  C   UNL     1      15.456  30.657  52.007  1.00  0.00     0.053 C 
BRANCH   8   9
ATOM      9  C   UNL     1      14.605  31.735  51.414  1.00  0.00     0.041 C 
ATOM     10  O   UNL     1      15.089  32.878  51.202  1.00  0.00    -0.550 OA
ATOM     11  O   UNL     1      13.292  31.465  51.051  1.00  0.00    -0.550 OA
ENDBRANCH   8   9
ENDBRANCH   7   8
ENDBRANCH   6   7
ENDBRANCH   5   6
ENDBRANCH   4   5
ENDBRANCH   3   4
ENDBRANCH   2   3
ENDBRANCH   1   2
BRANCH   1  12
ATOM     12  C   UNL     1      16.808  26.542  54.375  1.00  0.00     0.000 C 
BRANCH  12  13
ATOM     13  C   UNL     1      17.856  25.899  53.456  1.00  0.00    -0.000 C 
BRANCH  13  14
ATOM     14  C   UNL     1      18.800  26.931  52.812  1.00  0.00    -0.000 C 
BRANCH  14  15
ATOM     15  C   UNL     1      18.308  28.391  52.872  1.00  0.00    -0.000 C 
BRANCH  15  16
ATOM     16  C   UNL     1      19.162  29.335  53.741  1.00  0.00    -0.000 C 
BRANCH  16  17
ATOM     17  C   UNL     1      18.515  30.700  54.045  1.00  0.00    -0.000 C 
BRANCH  17  18
ATOM     18  C   UNL     1      17.865  30.812  55.437  1.00  0.00    -0.000 C 
BRANCH  18  19
ATOM     19  C   UNL     1      16.549  30.018  55.573  1.00  0.00    -0.003 C 
ATOM     20  C   UNL     1      15.569  30.665  56.553  1.00  0.00     0.004 C 
ENDBRANCH  18  19
ENDBRANCH  17  18
ENDBRANCH  16  17
ENDBRANCH  15  16
ENDBRANCH  14  15
ENDBRANCH  13  14
ENDBRANCH  12  13
ENDBRANCH   1  12
TORSDOF 16
ENDMDL
