MODEL 1
REMARK VINA RESULT:    -7.406      0.000      0.000
REMARK INTER + INTRA:          -7.406
REMARK INTER:                  -7.406
REMARK INTRA:                   0.000
REMARK UNBOUND:                 0.000
REMARK SMILES C=C1CCC[C@]2(C)C=C3OC(=O)C(C)=C3C[C@@H]12
REMARK SMILES IDX 14 1 13 2 15 3 16 4 17 5 2 6 1 7 3 8 4 9 5 10 6 11 8 12 9 13
REMARK SMILES IDX 10 14 11 15 12 16 7 17
REMARK H PARENT
REMARK Flexibility Score: inf
ROOT
ATOM      1  C   UNL     1      45.306  44.312  42.363  1.00  0.00     0.053 C 
ATOM      2  C   UNL     1      44.542  45.044  43.418  1.00  0.00     0.041 C 
ATOM      3  C   UNL     1      44.876  45.163  44.700  1.00  0.00     0.005 C 
ATOM      4  C   UNL     1      46.105  44.676  45.410  1.00  0.00     0.049 C 
ATOM      5  C   UNL     1      45.798  44.594  46.932  1.00  0.00     0.029 C 
ATOM      6  C   UNL     1      46.963  44.193  47.829  1.00  0.00    -0.073 C 
ATOM      7  C   UNL     1      48.198  43.918  47.373  1.00  0.00     0.008 C 
ATOM      8  C   UNL     1      46.644  44.030  49.298  1.00  0.00     0.031 C 
ATOM      9  C   UNL     1      45.924  45.271  49.843  1.00  0.00     0.005 C 
ATOM     10  C   UNL     1      44.726  45.683  48.965  1.00  0.00     0.012 C 
ATOM     11  C   UNL     1      45.118  45.903  47.478  1.00  0.00    -0.004 C 
ATOM     12  C   UNL     1      43.859  46.207  46.674  1.00  0.00     0.027 C 
ATOM     13  C   UNL     1      43.816  45.892  45.379  1.00  0.00     0.131 C 
ATOM     14  O   UNL     1      42.792  46.187  44.491  1.00  0.00    -0.423 OA
ATOM     15  C   UNL     1      43.222  45.667  43.276  1.00  0.00     0.339 C 
ATOM     16  O   UNL     1      42.552  45.726  42.212  1.00  0.00    -0.246 OA
ATOM     17  C   UNL     1      46.058  47.128  47.348  1.00  0.00     0.016 C 
ENDROOT
TORSDOF 0
ENDMDL
MODEL 2
REMARK VINA RESULT:    -6.947      2.034      3.321
REMARK INTER + INTRA:          -6.947
REMARK INTER:                  -6.947
REMARK INTRA:                   0.000
REMARK UNBOUND:                 0.000
REMARK SMILES C=C1CCC[C@]2(C)C=C3OC(=O)C(C)=C3C[C@@H]12
REMARK SMILES IDX 14 1 13 2 15 3 16 4 17 5 2 6 1 7 3 8 4 9 5 10 6 11 8 12 9 13
REMARK SMILES IDX 10 14 11 15 12 16 7 17
REMARK H PARENT
REMARK Flexibility Score: inf
ROOT
ATOM      1  C   UNL     1      41.427  45.046  42.268  1.00  0.00     0.053 C 
ATOM      2  C   UNL     1      42.897  45.311  42.333  1.00  0.00     0.041 C 
ATOM      3  C   UNL     1      43.601  45.610  43.421  1.00  0.00     0.005 C 
ATOM      4  C   UNL     1      43.151  45.691  44.850  1.00  0.00     0.049 C 
ATOM      5  C   UNL     1      44.171  46.556  45.642  1.00  0.00     0.029 C 
ATOM      6  C   UNL     1      43.921  46.683  47.139  1.00  0.00    -0.073 C 
ATOM      7  C   UNL     1      42.891  46.098  47.778  1.00  0.00     0.008 C 
ATOM      8  C   UNL     1      44.863  47.592  47.896  1.00  0.00     0.031 C 
ATOM      9  C   UNL     1      46.326  47.230  47.605  1.00  0.00     0.005 C 
ATOM     10  C   UNL     1      46.610  47.118  46.094  1.00  0.00     0.012 C 
ATOM     11  C   UNL     1      45.659  46.122  45.375  1.00  0.00    -0.004 C 
ATOM     12  C   UNL     1      45.949  46.154  43.879  1.00  0.00     0.027 C 
ATOM     13  C   UNL     1      44.976  45.859  43.017  1.00  0.00     0.131 C 
ATOM     14  O   UNL     1      45.098  45.748  41.639  1.00  0.00    -0.423 OA
ATOM     15  C   UNL     1      43.822  45.415  41.200  1.00  0.00     0.339 C 
ATOM     16  O   UNL     1      43.521  45.236  39.991  1.00  0.00    -0.246 OA
ATOM     17  C   UNL     1      45.927  44.677  45.868  1.00  0.00     0.016 C 
ENDROOT
TORSDOF 0
ENDMDL
MODEL 3
REMARK VINA RESULT:    -6.579     10.138     12.008
REMARK INTER + INTRA:          -6.579
REMARK INTER:                  -6.579
REMARK INTRA:                   0.000
REMARK UNBOUND:                 0.000
REMARK SMILES C=C1CCC[C@]2(C)C=C3OC(=O)C(C)=C3C[C@@H]12
REMARK SMILES IDX 14 1 13 2 15 3 16 4 17 5 2 6 1 7 3 8 4 9 5 10 6 11 8 12 9 13
REMARK SMILES IDX 10 14 11 15 12 16 7 17
REMARK H PARENT
REMARK Flexibility Score: inf
ROOT
ATOM      1  C   UNL     1      47.522  45.142  32.524  1.00  0.00     0.053 C 
ATOM      2  C   UNL     1      48.165  44.717  33.804  1.00  0.00     0.041 C 
ATOM      3  C   UNL     1      48.871  45.485  34.630  1.00  0.00     0.005 C 
ATOM      4  C   UNL     1      49.150  46.957  34.551  1.00  0.00     0.049 C 
ATOM      5  C   UNL     1      50.404  47.271  35.415  1.00  0.00     0.029 C 
ATOM      6  C   UNL     1      50.792  48.740  35.522  1.00  0.00    -0.073 C 
ATOM      7  C   UNL     1      50.119  49.738  34.921  1.00  0.00     0.008 C 
ATOM      8  C   UNL     1      52.060  49.038  36.292  1.00  0.00     0.031 C 
ATOM      9  C   UNL     1      52.032  48.367  37.672  1.00  0.00     0.005 C 
ATOM     10  C   UNL     1      51.663  46.873  37.589  1.00  0.00     0.012 C 
ATOM     11  C   UNL     1      50.321  46.626  36.848  1.00  0.00    -0.004 C 
ATOM     12  C   UNL     1      50.092  45.124  36.727  1.00  0.00     0.027 C 
ATOM     13  C   UNL     1      49.370  44.650  35.711  1.00  0.00     0.131 C 
ATOM     14  O   UNL     1      48.991  43.331  35.512  1.00  0.00    -0.423 OA
ATOM     15  C   UNL     1      48.249  43.353  34.336  1.00  0.00     0.339 C 
ATOM     16  O   UNL     1      47.734  42.331  33.812  1.00  0.00    -0.246 OA
ATOM     17  C   UNL     1      49.142  47.210  37.667  1.00  0.00     0.016 C 
ENDROOT
TORSDOF 0
ENDMDL
MODEL 4
REMARK VINA RESULT:    -6.523      3.193      4.473
REMARK INTER + INTRA:          -6.523
REMARK INTER:                  -6.523
REMARK INTRA:                   0.000
REMARK UNBOUND:                 0.000
REMARK SMILES C=C1CCC[C@]2(C)C=C3OC(=O)C(C)=C3C[C@@H]12
REMARK SMILES IDX 14 1 13 2 15 3 16 4 17 5 2 6 1 7 3 8 4 9 5 10 6 11 8 12 9 13
REMARK SMILES IDX 10 14 11 15 12 16 7 17
REMARK H PARENT
REMARK Flexibility Score: inf
ROOT
ATOM      1  C   UNL     1      46.200  41.771  44.062  1.00  0.00     0.053 C 
ATOM      2  C   UNL     1      46.611  41.912  45.492  1.00  0.00     0.041 C 
ATOM      3  C   UNL     1      46.374  42.952  46.286  1.00  0.00     0.005 C 
ATOM      4  C   UNL     1      45.594  44.202  46.005  1.00  0.00     0.049 C 
ATOM      5  C   UNL     1      46.034  45.299  47.015  1.00  0.00     0.029 C 
ATOM      6  C   UNL     1      45.285  46.623  46.934  1.00  0.00    -0.073 C 
ATOM      7  C   UNL     1      44.296  46.871  46.056  1.00  0.00     0.008 C 
ATOM      8  C   UNL     1      45.769  47.718  47.858  1.00  0.00     0.031 C 
ATOM      9  C   UNL     1      45.855  47.215  49.306  1.00  0.00     0.005 C 
ATOM     10  C   UNL     1      46.628  45.886  49.418  1.00  0.00     0.012 C 
ATOM     11  C   UNL     1      46.051  44.775  48.498  1.00  0.00    -0.004 C 
ATOM     12  C   UNL     1      46.936  43.539  48.601  1.00  0.00     0.027 C 
ATOM     13  C   UNL     1      47.012  42.698  47.569  1.00  0.00     0.131 C 
ATOM     14  O   UNL     1      47.689  41.488  47.537  1.00  0.00    -0.423 OA
ATOM     15  C   UNL     1      47.456  40.990  46.259  1.00  0.00     0.339 C 
ATOM     16  O   UNL     1      47.920  39.900  45.837  1.00  0.00    -0.246 OA
ATOM     17  C   UNL     1      44.633  44.371  48.975  1.00  0.00     0.016 C 
ENDROOT
TORSDOF 0
ENDMDL
MODEL 5
REMARK VINA RESULT:    -6.393     10.052     11.891
REMARK INTER + INTRA:          -6.393
REMARK INTER:                  -6.393
REMARK INTRA:                   0.000
REMARK UNBOUND:                 0.000
REMARK SMILES C=C1CCC[C@]2(C)C=C3OC(=O)C(C)=C3C[C@@H]12
REMARK SMILES IDX 14 1 13 2 15 3 16 4 17 5 2 6 1 7 3 8 4 9 5 10 6 11 8 12 9 13
REMARK SMILES IDX 10 14 11 15 12 16 7 17
REMARK H PARENT
REMARK Flexibility Score: inf
ROOT
ATOM      1  C   UNL     1      49.372  42.831  32.396  1.00  0.00     0.053 C 
ATOM      2  C   UNL     1      48.622  44.044  32.844  1.00  0.00     0.041 C 
ATOM      3  C   UNL     1      48.930  44.831  33.871  1.00  0.00     0.005 C 
ATOM      4  C   UNL     1      50.112  44.771  34.792  1.00  0.00     0.049 C 
ATOM      5  C   UNL     1      49.764  45.541  36.098  1.00  0.00     0.029 C 
ATOM      6  C   UNL     1      50.883  45.657  37.125  1.00  0.00    -0.073 C 
ATOM      7  C   UNL     1      52.113  45.140  36.954  1.00  0.00     0.008 C 
ATOM      8  C   UNL     1      50.519  46.331  38.429  1.00  0.00     0.031 C 
ATOM      9  C   UNL     1      49.852  47.690  38.176  1.00  0.00     0.005 C 
ATOM     10  C   UNL     1      48.701  47.594  37.156  1.00  0.00     0.012 C 
ATOM     11  C   UNL     1      49.141  46.957  35.810  1.00  0.00    -0.004 C 
ATOM     12  C   UNL     1      47.921  46.813  34.908  1.00  0.00     0.027 C 
ATOM     13  C   UNL     1      47.894  45.845  33.991  1.00  0.00     0.131 C 
ATOM     14  O   UNL     1      46.909  45.640  33.036  1.00  0.00    -0.423 OA
ATOM     15  C   UNL     1      47.341  44.528  32.321  1.00  0.00     0.339 C 
ATOM     16  O   UNL     1      46.702  44.020  31.363  1.00  0.00    -0.246 OA
ATOM     17  C   UNL     1      50.149  47.883  35.083  1.00  0.00     0.016 C 
ENDROOT
TORSDOF 0
ENDMDL
MODEL 6
REMARK VINA RESULT:    -6.387      9.814     11.445
REMARK INTER + INTRA:          -6.387
REMARK INTER:                  -6.387
REMARK INTRA:                   0.000
REMARK UNBOUND:                 0.000
REMARK SMILES C=C1CCC[C@]2(C)C=C3OC(=O)C(C)=C3C[C@@H]12
REMARK SMILES IDX 14 1 13 2 15 3 16 4 17 5 2 6 1 7 3 8 4 9 5 10 6 11 8 12 9 13
REMARK SMILES IDX 10 14 11 15 12 16 7 17
REMARK H PARENT
REMARK Flexibility Score: inf
ROOT
ATOM      1  C   UNL     1      48.630  42.124  34.615  1.00  0.00     0.053 C 
ATOM      2  C   UNL     1      48.538  43.577  34.277  1.00  0.00     0.041 C 
ATOM      3  C   UNL     1      49.016  44.590  34.995  1.00  0.00     0.005 C 
ATOM      4  C   UNL     1      49.816  44.559  36.264  1.00  0.00     0.049 C 
ATOM      5  C   UNL     1      49.683  45.940  36.967  1.00  0.00     0.029 C 
ATOM      6  C   UNL     1      50.500  46.124  38.239  1.00  0.00    -0.073 C 
ATOM      7  C   UNL     1      51.301  45.176  38.758  1.00  0.00     0.008 C 
ATOM      8  C   UNL     1      50.306  47.434  38.969  1.00  0.00     0.031 C 
ATOM      9  C   UNL     1      50.484  48.624  38.016  1.00  0.00     0.005 C 
ATOM     10  C   UNL     1      49.648  48.472  36.730  1.00  0.00     0.012 C 
ATOM     11  C   UNL     1      49.933  47.140  35.982  1.00  0.00    -0.004 C 
ATOM     12  C   UNL     1      48.994  47.034  34.786  1.00  0.00     0.027 C 
ATOM     13  C   UNL     1      48.641  45.831  34.335  1.00  0.00     0.131 C 
ATOM     14  O   UNL     1      47.879  45.563  33.207  1.00  0.00    -0.423 OA
ATOM     15  C   UNL     1      47.801  44.175  33.158  1.00  0.00     0.339 C 
ATOM     16  O   UNL     1      47.176  43.539  32.271  1.00  0.00    -0.246 OA
ATOM     17  C   UNL     1      51.383  47.134  35.435  1.00  0.00     0.016 C 
ENDROOT
TORSDOF 0
ENDMDL
MODEL 7
REMARK VINA RESULT:    -5.920      7.730      9.531
REMARK INTER + INTRA:          -5.920
REMARK INTER:                  -5.920
REMARK INTRA:                   0.000
REMARK UNBOUND:                 0.000
REMARK SMILES C=C1CCC[C@]2(C)C=C3OC(=O)C(C)=C3C[C@@H]12
REMARK SMILES IDX 14 1 13 2 15 3 16 4 17 5 2 6 1 7 3 8 4 9 5 10 6 11 8 12 9 13
REMARK SMILES IDX 10 14 11 15 12 16 7 17
REMARK H PARENT
REMARK Flexibility Score: inf
ROOT
ATOM      1  C   UNL     1      48.213  39.804  43.919  1.00  0.00     0.053 C 
ATOM      2  C   UNL     1      48.963  39.653  45.203  1.00  0.00     0.041 C 
ATOM      3  C   UNL     1      49.120  38.532  45.901  1.00  0.00     0.005 C 
ATOM      4  C   UNL     1      48.669  37.138  45.575  1.00  0.00     0.049 C 
ATOM      5  C   UNL     1      48.623  36.311  46.890  1.00  0.00     0.029 C 
ATOM      6  C   UNL     1      48.263  34.838  46.742  1.00  0.00    -0.073 C 
ATOM      7  C   UNL     1      47.993  34.248  45.563  1.00  0.00     0.008 C 
ATOM      8  C   UNL     1      48.134  34.053  48.028  1.00  0.00     0.031 C 
ATOM      9  C   UNL     1      49.378  34.236  48.907  1.00  0.00     0.005 C 
ATOM     10  C   UNL     1      49.751  35.720  49.092  1.00  0.00     0.012 C 
ATOM     11  C   UNL     1      49.937  36.465  47.741  1.00  0.00    -0.004 C 
ATOM     12  C   UNL     1      50.201  37.940  48.023  1.00  0.00     0.027 C 
ATOM     13  C   UNL     1      49.852  38.853  47.117  1.00  0.00     0.131 C 
ATOM     14  O   UNL     1      50.109  40.215  47.176  1.00  0.00    -0.423 OA
ATOM     15  C   UNL     1      49.562  40.726  46.003  1.00  0.00     0.339 C 
ATOM     16  O   UNL     1      49.584  41.945  45.692  1.00  0.00    -0.246 OA
ATOM     17  C   UNL     1      51.171  35.908  46.988  1.00  0.00     0.016 C 
ENDROOT
TORSDOF 0
ENDMDL
MODEL 8
REMARK VINA RESULT:    -5.908      9.432     11.707
REMARK INTER + INTRA:          -5.908
REMARK INTER:                  -5.908
REMARK INTRA:                   0.000
REMARK UNBOUND:                 0.000
REMARK SMILES C=C1CCC[C@]2(C)C=C3OC(=O)C(C)=C3C[C@@H]12
REMARK SMILES IDX 14 1 13 2 15 3 16 4 17 5 2 6 1 7 3 8 4 9 5 10 6 11 8 12 9 13
REMARK SMILES IDX 10 14 11 15 12 16 7 17
REMARK H PARENT
REMARK Flexibility Score: inf
ROOT
ATOM      1  C   UNL     1      52.745  45.304  41.670  1.00  0.00     0.053 C 
ATOM      2  C   UNL     1      52.881  44.748  40.289  1.00  0.00     0.041 C 
ATOM      3  C   UNL     1      52.252  45.176  39.198  1.00  0.00     0.005 C 
ATOM      4  C   UNL     1      51.320  46.340  39.034  1.00  0.00     0.049 C 
ATOM      5  C   UNL     1      50.470  46.118  37.751  1.00  0.00     0.029 C 
ATOM      6  C   UNL     1      49.517  47.246  37.376  1.00  0.00    -0.073 C 
ATOM      7  C   UNL     1      49.386  48.382  38.084  1.00  0.00     0.008 C 
ATOM      8  C   UNL     1      48.629  46.994  36.178  1.00  0.00     0.031 C 
ATOM      9  C   UNL     1      49.458  46.541  34.968  1.00  0.00     0.005 C 
ATOM     10  C   UNL     1      50.415  45.384  35.317  1.00  0.00     0.012 C 
ATOM     11  C   UNL     1      51.351  45.717  36.511  1.00  0.00    -0.004 C 
ATOM     12  C   UNL     1      52.185  44.485  36.844  1.00  0.00     0.027 C 
ATOM     13  C   UNL     1      52.622  44.307  38.091  1.00  0.00     0.131 C 
ATOM     14  O   UNL     1      53.465  43.299  38.534  1.00  0.00    -0.423 OA
ATOM     15  C   UNL     1      53.633  43.553  39.891  1.00  0.00     0.339 C 
ATOM     16  O   UNL     1      54.333  42.841  40.657  1.00  0.00    -0.246 OA
ATOM     17  C   UNL     1      52.333  46.850  36.121  1.00  0.00     0.016 C 
ENDROOT
TORSDOF 0
ENDMDL
MODEL 9
REMARK VINA RESULT:    -5.821     10.741     12.702
REMARK INTER + INTRA:          -5.821
REMARK INTER:                  -5.821
REMARK INTRA:                   0.000
REMARK UNBOUND:                 0.000
REMARK SMILES C=C1CCC[C@]2(C)C=C3OC(=O)C(C)=C3C[C@@H]12
REMARK SMILES IDX 14 1 13 2 15 3 16 4 17 5 2 6 1 7 3 8 4 9 5 10 6 11 8 12 9 13
REMARK SMILES IDX 10 14 11 15 12 16 7 17
REMARK H PARENT
REMARK Flexibility Score: inf
ROOT
ATOM      1  C   UNL     1      54.013  49.926  36.109  1.00  0.00     0.053 C 
ATOM      2  C   UNL     1      52.581  50.011  35.690  1.00  0.00     0.041 C 
ATOM      3  C   UNL     1      51.678  49.036  35.754  1.00  0.00     0.005 C 
ATOM      4  C   UNL     1      51.815  47.650  36.310  1.00  0.00     0.049 C 
ATOM      5  C   UNL     1      50.699  46.757  35.698  1.00  0.00     0.029 C 
ATOM      6  C   UNL     1      50.629  45.325  36.212  1.00  0.00    -0.073 C 
ATOM      7  C   UNL     1      51.464  44.822  37.140  1.00  0.00     0.008 C 
ATOM      8  C   UNL     1      49.599  44.433  35.557  1.00  0.00     0.031 C 
ATOM      9  C   UNL     1      48.215  45.096  35.566  1.00  0.00     0.005 C 
ATOM     10  C   UNL     1      48.255  46.540  35.028  1.00  0.00     0.012 C 
ATOM     11  C   UNL     1      49.280  47.433  35.779  1.00  0.00    -0.004 C 
ATOM     12  C   UNL     1      49.321  48.805  35.115  1.00  0.00     0.027 C 
ATOM     13  C   UNL     1      50.437  49.530  35.176  1.00  0.00     0.131 C 
ATOM     14  O   UNL     1      50.607  50.826  34.712  1.00  0.00    -0.423 OA
ATOM     15  C   UNL     1      51.927  51.138  35.018  1.00  0.00     0.339 C 
ATOM     16  O   UNL     1      52.469  52.240  34.741  1.00  0.00    -0.246 OA
ATOM     17  C   UNL     1      48.833  47.642  37.248  1.00  0.00     0.016 C 
ENDROOT
TORSDOF 0
ENDMDL
