MODEL 1
REMARK VINA RESULT:    -7.359      0.000      0.000
REMARK INTER + INTRA:          -8.913
REMARK INTER:                  -9.080
REMARK INTRA:                   0.167
REMARK UNBOUND:                 0.167
REMARK SMILES Oc1cc(O)c2cc(O)c(-c3cc(O)c(O)c(O)c3)[o+]c2c1
REMARK SMILES IDX 10 1 20 2 21 3 22 4 2 5 3 6 4 7 6 8 7 9 8 10 11 11 12 12
REMARK SMILES IDX 13 13 19 14 15 15 17 16 14 17 16 19 18 21 9 23 1 25 5 27
REMARK H PARENT 14 18 16 20 18 22 9 24 1 26 5 28
REMARK Flexibility Score: inf
ROOT
ATOM      1  C   UNL     1      48.263 -28.415   3.539  1.00  0.00     0.402 A 
ATOM      2  O   UNL     1      47.356 -27.462   3.345  1.00  0.00    -0.202 OA
ATOM      3  C   UNL     1      46.649 -27.344   2.226  1.00  0.00     0.368 A 
ATOM      4  C   UNL     1      45.716 -26.309   2.116  1.00  0.00     0.162 A 
ATOM      5  C   UNL     1      44.958 -26.163   0.954  1.00  0.00     0.128 A 
ATOM      6  C   UNL     1      45.132 -27.057  -0.108  1.00  0.00     0.093 A 
ATOM      7  C   UNL     1      46.059 -28.103  -0.023  1.00  0.00     0.136 A 
ATOM      8  C   UNL     1      46.835 -28.253   1.156  1.00  0.00     0.125 A 
ATOM      9  C   UNL     1      47.797 -29.261   1.325  1.00  0.00     0.078 A 
ATOM     10  C   UNL     1      48.525 -29.343   2.515  1.00  0.00     0.223 A 
ENDROOT
BRANCH   1  11
ATOM     11  C   UNL     1      48.979 -28.447   4.835  1.00  0.00     0.091 A 
ATOM     12  C   UNL     1      49.449 -29.651   5.381  1.00  0.00     0.068 A 
ATOM     13  C   UNL     1      50.103 -29.667   6.615  1.00  0.00     0.162 A 
ATOM     14  C   UNL     1      49.143 -27.261   5.562  1.00  0.00     0.068 A 
ATOM     15  C   UNL     1      50.289 -28.471   7.334  1.00  0.00     0.200 A 
ATOM     16  C   UNL     1      49.796 -27.256   6.800  1.00  0.00     0.162 A 
BRANCH  13  17
ATOM     17  O   UNL     1      50.560 -30.886   7.116  1.00  0.00    -0.504 OA
ATOM     18  H   UNL     1      50.585 -31.728   6.553  1.00  0.00     0.293 HD
ENDBRANCH  13  17
BRANCH  15  19
ATOM     19  O   UNL     1      50.956 -28.530   8.560  1.00  0.00    -0.502 OA
ATOM     20  H   UNL     1      51.397 -27.738   9.005  1.00  0.00     0.293 HD
ENDBRANCH  15  19
BRANCH  16  21
ATOM     21  O   UNL     1      49.931 -26.031   7.458  1.00  0.00    -0.504 OA
ATOM     22  H   UNL     1      50.702 -25.797   8.066  1.00  0.00     0.293 HD
ENDBRANCH  16  21
ENDBRANCH   1  11
BRANCH  10  23
ATOM     23  O   UNL     1      49.516 -30.314   2.663  1.00  0.00    -0.500 OA
ATOM     24  H   UNL     1      49.680 -31.021   1.955  1.00  0.00     0.294 HD
ENDBRANCH  10  23
BRANCH   5  25
ATOM     25  O   UNL     1      44.033 -25.125   0.864  1.00  0.00    -0.507 OA
ATOM     26  H   UNL     1      43.052 -25.304   0.685  1.00  0.00     0.293 HD
ENDBRANCH   5  25
BRANCH   7  27
ATOM     27  O   UNL     1      46.171 -28.956  -1.125  1.00  0.00    -0.507 OA
ATOM     28  H   UNL     1      45.842 -28.736  -2.053  1.00  0.00     0.293 HD
ENDBRANCH   7  27
TORSDOF 7
ENDMDL
MODEL 2
REMARK VINA RESULT:    -7.277      1.556      7.539
REMARK INTER + INTRA:          -8.812
REMARK INTER:                  -8.994
REMARK INTRA:                   0.181
REMARK UNBOUND:                 0.167
REMARK SMILES Oc1cc(O)c2cc(O)c(-c3cc(O)c(O)c(O)c3)[o+]c2c1
REMARK SMILES IDX 10 1 20 2 21 3 22 4 2 5 3 6 4 7 6 8 7 9 8 10 11 11 12 12
REMARK SMILES IDX 13 13 19 14 15 15 17 16 14 17 16 19 18 21 9 23 1 25 5 27
REMARK H PARENT 14 18 16 20 18 22 9 24 1 26 5 28
REMARK Flexibility Score: inf
ROOT
ATOM      1  C   UNL     1      48.825 -28.523   4.521  1.00  0.00     0.402 A 
ATOM      2  O   UNL     1      49.161 -29.794   4.719  1.00  0.00    -0.202 OA
ATOM      3  C   UNL     1      49.880 -30.205   5.758  1.00  0.00     0.368 A 
ATOM      4  C   UNL     1      50.181 -31.565   5.882  1.00  0.00     0.162 A 
ATOM      5  C   UNL     1      50.931 -32.025   6.964  1.00  0.00     0.128 A 
ATOM      6  C   UNL     1      51.386 -31.121   7.931  1.00  0.00     0.093 A 
ATOM      7  C   UNL     1      51.099 -29.755   7.830  1.00  0.00     0.136 A 
ATOM      8  C   UNL     1      50.338 -29.282   6.729  1.00  0.00     0.125 A 
ATOM      9  C   UNL     1      50.013 -27.930   6.539  1.00  0.00     0.078 A 
ATOM     10  C   UNL     1      49.262 -27.539   5.426  1.00  0.00     0.223 A 
ENDROOT
BRANCH   1  11
ATOM     11  C   UNL     1      48.010 -28.191   3.328  1.00  0.00     0.091 A 
ATOM     12  C   UNL     1      47.141 -27.091   3.321  1.00  0.00     0.068 A 
ATOM     13  C   UNL     1      46.363 -26.804   2.196  1.00  0.00     0.162 A 
ATOM     14  C   UNL     1      48.064 -29.024   2.203  1.00  0.00     0.068 A 
ATOM     15  C   UNL     1      46.435 -27.627   1.057  1.00  0.00     0.200 A 
ATOM     16  C   UNL     1      47.293 -28.753   1.067  1.00  0.00     0.162 A 
BRANCH  13  17
ATOM     17  O   UNL     1      45.517 -25.695   2.231  1.00  0.00    -0.504 OA
ATOM     18  H   UNL     1      45.056 -25.391   3.080  1.00  0.00     0.293 HD
ENDBRANCH  13  17
BRANCH  15  19
ATOM     19  O   UNL     1      45.647 -27.301  -0.050  1.00  0.00    -0.502 OA
ATOM     20  H   UNL     1      45.506 -26.360  -0.388  1.00  0.00     0.293 HD
ENDBRANCH  15  19
BRANCH  16  21
ATOM     21  O   UNL     1      47.410 -29.624  -0.019  1.00  0.00    -0.504 OA
ATOM     22  H   UNL     1      46.698 -30.285  -0.295  1.00  0.00     0.293 HD
ENDBRANCH  16  21
ENDBRANCH   1  11
BRANCH  10  23
ATOM     23  O   UNL     1      48.982 -26.189   5.210  1.00  0.00    -0.500 OA
ATOM     24  H   UNL     1      48.239 -25.713   5.708  1.00  0.00     0.294 HD
ENDBRANCH  10  23
BRANCH   5  25
ATOM     25  O   UNL     1      51.221 -33.384   7.071  1.00  0.00    -0.507 OA
ATOM     26  H   UNL     1      50.846 -34.058   6.414  1.00  0.00     0.293 HD
ENDBRANCH   5  25
BRANCH   7  27
ATOM     27  O   UNL     1      51.586 -28.918   8.838  1.00  0.00    -0.507 OA
ATOM     28  H   UNL     1      52.428 -28.367   8.764  1.00  0.00     0.293 HD
ENDBRANCH   7  27
TORSDOF 7
ENDMDL
MODEL 3
REMARK VINA RESULT:    -6.862      1.572      7.353
REMARK INTER + INTRA:          -8.300
REMARK INTER:                  -8.617
REMARK INTRA:                   0.316
REMARK UNBOUND:                 0.167
REMARK SMILES Oc1cc(O)c2cc(O)c(-c3cc(O)c(O)c(O)c3)[o+]c2c1
REMARK SMILES IDX 10 1 20 2 21 3 22 4 2 5 3 6 4 7 6 8 7 9 8 10 11 11 12 12
REMARK SMILES IDX 13 13 19 14 15 15 17 16 14 17 16 19 18 21 9 23 1 25 5 27
REMARK H PARENT 14 18 16 20 18 22 9 24 1 26 5 28
REMARK Flexibility Score: inf
ROOT
ATOM      1  C   UNL     1      48.812 -28.605   4.502  1.00  0.00     0.402 A 
ATOM      2  O   UNL     1      49.162 -29.872   4.701  1.00  0.00    -0.202 OA
ATOM      3  C   UNL     1      49.870 -30.277   5.750  1.00  0.00     0.368 A 
ATOM      4  C   UNL     1      50.187 -31.634   5.874  1.00  0.00     0.162 A 
ATOM      5  C   UNL     1      50.926 -32.088   6.966  1.00  0.00     0.128 A 
ATOM      6  C   UNL     1      51.354 -31.182   7.943  1.00  0.00     0.093 A 
ATOM      7  C   UNL     1      51.049 -29.819   7.842  1.00  0.00     0.136 A 
ATOM      8  C   UNL     1      50.300 -29.352   6.732  1.00  0.00     0.125 A 
ATOM      9  C   UNL     1      49.960 -28.003   6.541  1.00  0.00     0.078 A 
ATOM     10  C   UNL     1      49.221 -27.618   5.418  1.00  0.00     0.223 A 
ENDROOT
BRANCH   1  11
ATOM     11  C   UNL     1      48.012 -28.279   3.298  1.00  0.00     0.091 A 
ATOM     12  C   UNL     1      48.052 -29.089   2.154  1.00  0.00     0.068 A 
ATOM     13  C   UNL     1      47.310 -28.756   1.018  1.00  0.00     0.162 A 
ATOM     14  C   UNL     1      47.243 -27.108   3.276  1.00  0.00     0.068 A 
ATOM     15  C   UNL     1      46.517 -27.593   1.005  1.00  0.00     0.200 A 
ATOM     16  C   UNL     1      46.491 -26.759   2.149  1.00  0.00     0.162 A 
BRANCH  13  17
ATOM     17  O   UNL     1      47.374 -29.596  -0.095  1.00  0.00    -0.504 OA
ATOM     18  H   UNL     1      47.454 -29.238  -1.039  1.00  0.00     0.293 HD
ENDBRANCH  13  17
BRANCH  15  19
ATOM     19  O   UNL     1      45.783 -27.301  -0.147  1.00  0.00    -0.502 OA
ATOM     20  H   UNL     1      45.993 -27.672  -1.062  1.00  0.00     0.293 HD
ENDBRANCH  15  19
BRANCH  16  21
ATOM     21  O   UNL     1      45.741 -25.582   2.209  1.00  0.00    -0.504 OA
ATOM     22  H   UNL     1      46.138 -24.654   2.175  1.00  0.00     0.293 HD
ENDBRANCH  16  21
ENDBRANCH   1  11
BRANCH  10  23
ATOM     23  O   UNL     1      48.927 -26.272   5.202  1.00  0.00    -0.500 OA
ATOM     24  H   UNL     1      48.438 -25.716   5.894  1.00  0.00     0.294 HD
ENDBRANCH  10  23
BRANCH   5  25
ATOM     25  O   UNL     1      51.232 -33.443   7.072  1.00  0.00    -0.507 OA
ATOM     26  H   UNL     1      51.928 -33.877   6.479  1.00  0.00     0.293 HD
ENDBRANCH   5  25
BRANCH   7  27
ATOM     27  O   UNL     1      51.509 -28.979   8.861  1.00  0.00    -0.507 OA
ATOM     28  H   UNL     1      50.917 -28.386   9.423  1.00  0.00     0.293 HD
ENDBRANCH   7  27
TORSDOF 7
ENDMDL
MODEL 4
REMARK VINA RESULT:    -6.776      1.464      2.612
REMARK INTER + INTRA:          -8.194
REMARK INTER:                  -8.150
REMARK INTRA:                  -0.044
REMARK UNBOUND:                 0.167
REMARK SMILES Oc1cc(O)c2cc(O)c(-c3cc(O)c(O)c(O)c3)[o+]c2c1
REMARK SMILES IDX 10 1 20 2 21 3 22 4 2 5 3 6 4 7 6 8 7 9 8 10 11 11 12 12
REMARK SMILES IDX 13 13 19 14 15 15 17 16 14 17 16 19 18 21 9 23 1 25 5 27
REMARK H PARENT 14 18 16 20 18 22 9 24 1 26 5 28
REMARK Flexibility Score: inf
ROOT
ATOM      1  C   UNL     1      47.668 -27.815   3.265  1.00  0.00     0.402 A 
ATOM      2  O   UNL     1      46.960 -28.593   2.451  1.00  0.00    -0.202 OA
ATOM      3  C   UNL     1      46.170 -28.120   1.493  1.00  0.00     0.368 A 
ATOM      4  C   UNL     1      45.466 -29.018   0.685  1.00  0.00     0.162 A 
ATOM      5  C   UNL     1      44.632 -28.550  -0.330  1.00  0.00     0.128 A 
ATOM      6  C   UNL     1      44.498 -27.173  -0.541  1.00  0.00     0.093 A 
ATOM      7  C   UNL     1      45.192 -26.252   0.253  1.00  0.00     0.136 A 
ATOM      8  C   UNL     1      46.039 -26.725   1.289  1.00  0.00     0.125 A 
ATOM      9  C   UNL     1      46.762 -25.877   2.143  1.00  0.00     0.078 A 
ATOM     10  C   UNL     1      47.574 -26.416   3.145  1.00  0.00     0.223 A 
ENDROOT
BRANCH   1  11
ATOM     11  C   UNL     1      48.520 -28.464   4.288  1.00  0.00     0.091 A 
ATOM     12  C   UNL     1      49.416 -29.488   3.950  1.00  0.00     0.068 A 
ATOM     13  C   UNL     1      50.197 -30.105   4.930  1.00  0.00     0.162 A 
ATOM     14  C   UNL     1      48.391 -28.089   5.632  1.00  0.00     0.068 A 
ATOM     15  C   UNL     1      50.085 -29.712   6.277  1.00  0.00     0.200 A 
ATOM     16  C   UNL     1      49.165 -28.695   6.628  1.00  0.00     0.162 A 
BRANCH  13  17
ATOM     17  O   UNL     1      51.081 -31.115   4.547  1.00  0.00    -0.504 OA
ATOM     18  H   UNL     1      52.081 -30.966   4.491  1.00  0.00     0.293 HD
ENDBRANCH  13  17
BRANCH  15  19
ATOM     19  O   UNL     1      50.890 -30.348   7.225  1.00  0.00    -0.502 OA
ATOM     20  H   UNL     1      50.635 -31.196   7.709  1.00  0.00     0.293 HD
ENDBRANCH  15  19
BRANCH  16  21
ATOM     21  O   UNL     1      48.986 -28.258   7.943  1.00  0.00    -0.504 OA
ATOM     22  H   UNL     1      49.621 -27.637   8.425  1.00  0.00     0.293 HD
ENDBRANCH  16  21
ENDBRANCH   1  11
BRANCH  10  23
ATOM     23  O   UNL     1      48.253 -25.573   4.025  1.00  0.00    -0.500 OA
ATOM     24  H   UNL     1      47.767 -24.877   4.578  1.00  0.00     0.294 HD
ENDBRANCH  10  23
BRANCH   5  25
ATOM     25  O   UNL     1      43.940 -29.460  -1.125  1.00  0.00    -0.507 OA
ATOM     26  H   UNL     1      43.514 -29.182  -2.000  1.00  0.00     0.293 HD
ENDBRANCH   5  25
BRANCH   7  27
ATOM     27  O   UNL     1      45.008 -24.895  -0.023  1.00  0.00    -0.507 OA
ATOM     28  H   UNL     1      45.135 -24.153   0.649  1.00  0.00     0.293 HD
ENDBRANCH   7  27
TORSDOF 7
ENDMDL
MODEL 5
REMARK VINA RESULT:    -6.772      1.400      7.146
REMARK INTER + INTRA:          -8.188
REMARK INTER:                  -8.128
REMARK INTRA:                  -0.060
REMARK UNBOUND:                 0.167
REMARK SMILES Oc1cc(O)c2cc(O)c(-c3cc(O)c(O)c(O)c3)[o+]c2c1
REMARK SMILES IDX 10 1 20 2 21 3 22 4 2 5 3 6 4 7 6 8 7 9 8 10 11 11 12 12
REMARK SMILES IDX 13 13 19 14 15 15 17 16 14 17 16 19 18 21 9 23 1 25 5 27
REMARK H PARENT 14 18 16 20 18 22 9 24 1 26 5 28
REMARK Flexibility Score: inf
ROOT
ATOM      1  C   UNL     1      47.169 -28.026   2.689  1.00  0.00     0.402 A 
ATOM      2  O   UNL     1      47.058 -27.552   3.927  1.00  0.00    -0.202 OA
ATOM      3  C   UNL     1      47.908 -27.853   4.903  1.00  0.00     0.368 A 
ATOM      4  C   UNL     1      47.710 -27.302   6.173  1.00  0.00     0.162 A 
ATOM      5  C   UNL     1      48.588 -27.598   7.214  1.00  0.00     0.128 A 
ATOM      6  C   UNL     1      49.675 -28.450   6.989  1.00  0.00     0.093 A 
ATOM      7  C   UNL     1      49.896 -29.014   5.726  1.00  0.00     0.136 A 
ATOM      8  C   UNL     1      49.003 -28.718   4.664  1.00  0.00     0.125 A 
ATOM      9  C   UNL     1      49.139 -29.248   3.371  1.00  0.00     0.078 A 
ATOM     10  C   UNL     1      48.215 -28.913   2.376  1.00  0.00     0.223 A 
ENDROOT
BRANCH   1  11
ATOM     11  C   UNL     1      46.162 -27.609   1.686  1.00  0.00     0.091 A 
ATOM     12  C   UNL     1      45.852 -26.257   1.481  1.00  0.00     0.068 A 
ATOM     13  C   UNL     1      44.883 -25.881   0.547  1.00  0.00     0.162 A 
ATOM     14  C   UNL     1      45.460 -28.585   0.966  1.00  0.00     0.068 A 
ATOM     15  C   UNL     1      44.196 -26.861  -0.195  1.00  0.00     0.200 A 
ATOM     16  C   UNL     1      44.487 -28.228   0.026  1.00  0.00     0.162 A 
BRANCH  13  17
ATOM     17  O   UNL     1      44.613 -24.523   0.370  1.00  0.00    -0.504 OA
ATOM     18  H   UNL     1      44.442 -24.120  -0.543  1.00  0.00     0.293 HD
ENDBRANCH  13  17
BRANCH  15  19
ATOM     19  O   UNL     1      43.242 -26.442  -1.125  1.00  0.00    -0.502 OA
ATOM     20  H   UNL     1      42.247 -26.572  -1.014  1.00  0.00     0.293 HD
ENDBRANCH  15  19
BRANCH  16  21
ATOM     21  O   UNL     1      43.840 -29.259  -0.661  1.00  0.00    -0.504 OA
ATOM     22  H   UNL     1      43.185 -29.898  -0.235  1.00  0.00     0.293 HD
ENDBRANCH  16  21
ENDBRANCH   1  11
BRANCH  10  23
ATOM     23  O   UNL     1      48.321 -29.479   1.105  1.00  0.00    -0.500 OA
ATOM     24  H   UNL     1      49.133 -30.018   0.827  1.00  0.00     0.294 HD
ENDBRANCH  10  23
BRANCH   5  25
ATOM     25  O   UNL     1      48.374 -27.039   8.473  1.00  0.00    -0.507 OA
ATOM     26  H   UNL     1      48.681 -27.504   9.318  1.00  0.00     0.293 HD
ENDBRANCH   5  25
BRANCH   7  27
ATOM     27  O   UNL     1      51.006 -29.852   5.581  1.00  0.00    -0.507 OA
ATOM     28  H   UNL     1      51.519 -29.975   4.721  1.00  0.00     0.293 HD
ENDBRANCH   7  27
TORSDOF 7
ENDMDL
MODEL 6
REMARK VINA RESULT:    -6.703      1.491      2.986
REMARK INTER + INTRA:          -8.104
REMARK INTER:                  -8.011
REMARK INTRA:                  -0.093
REMARK UNBOUND:                 0.167
REMARK SMILES Oc1cc(O)c2cc(O)c(-c3cc(O)c(O)c(O)c3)[o+]c2c1
REMARK SMILES IDX 10 1 20 2 21 3 22 4 2 5 3 6 4 7 6 8 7 9 8 10 11 11 12 12
REMARK SMILES IDX 13 13 19 14 15 15 17 16 14 17 16 19 18 21 9 23 1 25 5 27
REMARK H PARENT 14 18 16 20 18 22 9 24 1 26 5 28
REMARK Flexibility Score: inf
ROOT
ATOM      1  C   UNL     1      47.581 -27.777   3.284  1.00  0.00     0.402 A 
ATOM      2  O   UNL     1      46.852 -28.552   2.486  1.00  0.00    -0.202 OA
ATOM      3  C   UNL     1      46.110 -28.080   1.490  1.00  0.00     0.368 A 
ATOM      4  C   UNL     1      45.378 -28.975   0.703  1.00  0.00     0.162 A 
ATOM      5  C   UNL     1      44.593 -28.508  -0.351  1.00  0.00     0.128 A 
ATOM      6  C   UNL     1      44.537 -27.136  -0.623  1.00  0.00     0.093 A 
ATOM      7  C   UNL     1      45.259 -26.219   0.150  1.00  0.00     0.136 A 
ATOM      8  C   UNL     1      46.057 -26.690   1.225  1.00  0.00     0.125 A 
ATOM      9  C   UNL     1      46.804 -25.844   2.061  1.00  0.00     0.078 A 
ATOM     10  C   UNL     1      47.564 -26.382   3.104  1.00  0.00     0.223 A 
ENDROOT
BRANCH   1  11
ATOM     11  C   UNL     1      48.375 -28.424   4.355  1.00  0.00     0.091 A 
ATOM     12  C   UNL     1      48.254 -28.028   5.694  1.00  0.00     0.068 A 
ATOM     13  C   UNL     1      49.027 -28.633   6.689  1.00  0.00     0.162 A 
ATOM     14  C   UNL     1      49.310 -29.413   4.019  1.00  0.00     0.068 A 
ATOM     15  C   UNL     1      49.948 -29.644   6.355  1.00  0.00     0.200 A 
ATOM     16  C   UNL     1      50.092 -30.030   5.001  1.00  0.00     0.162 A 
BRANCH  13  17
ATOM     17  O   UNL     1      48.868 -28.213   8.010  1.00  0.00    -0.504 OA
ATOM     18  H   UNL     1      47.970 -27.932   8.385  1.00  0.00     0.293 HD
ENDBRANCH  13  17
BRANCH  15  19
ATOM     19  O   UNL     1      50.694 -30.229   7.381  1.00  0.00    -0.502 OA
ATOM     20  H   UNL     1      50.413 -30.242   8.350  1.00  0.00     0.293 HD
ENDBRANCH  15  19
BRANCH  16  21
ATOM     21  O   UNL     1      50.992 -31.016   4.588  1.00  0.00    -0.504 OA
ATOM     22  H   UNL     1      51.961 -31.052   4.870  1.00  0.00     0.293 HD
ENDBRANCH  16  21
ENDBRANCH   1  11
BRANCH  10  23
ATOM     23  O   UNL     1      48.266 -25.538   3.965  1.00  0.00    -0.500 OA
ATOM     24  H   UNL     1      49.267 -25.406   3.883  1.00  0.00     0.294 HD
ENDBRANCH  10  23
BRANCH   5  25
ATOM     25  O   UNL     1      43.872 -29.415  -1.124  1.00  0.00    -0.507 OA
ATOM     26  H   UNL     1      44.300 -30.256  -1.490  1.00  0.00     0.293 HD
ENDBRANCH   5  25
BRANCH   7  27
ATOM     27  O   UNL     1      45.153 -24.867  -0.187  1.00  0.00    -0.507 OA
ATOM     28  H   UNL     1      45.416 -24.479  -1.081  1.00  0.00     0.293 HD
ENDBRANCH   7  27
TORSDOF 7
ENDMDL
MODEL 7
REMARK VINA RESULT:    -6.423      1.410      6.934
REMARK INTER + INTRA:          -7.758
REMARK INTER:                  -7.722
REMARK INTRA:                  -0.036
REMARK UNBOUND:                 0.167
REMARK SMILES Oc1cc(O)c2cc(O)c(-c3cc(O)c(O)c(O)c3)[o+]c2c1
REMARK SMILES IDX 10 1 20 2 21 3 22 4 2 5 3 6 4 7 6 8 7 9 8 10 11 11 12 12
REMARK SMILES IDX 13 13 19 14 15 15 17 16 14 17 16 19 18 21 9 23 1 25 5 27
REMARK H PARENT 14 18 16 20 18 22 9 24 1 26 5 28
REMARK Flexibility Score: inf
ROOT
ATOM      1  C   UNL     1      47.102 -27.941   2.799  1.00  0.00     0.402 A 
ATOM      2  O   UNL     1      46.982 -27.452   4.030  1.00  0.00    -0.202 OA
ATOM      3  C   UNL     1      47.839 -27.722   5.009  1.00  0.00     0.368 A 
ATOM      4  C   UNL     1      47.630 -27.157   6.271  1.00  0.00     0.162 A 
ATOM      5  C   UNL     1      48.515 -27.421   7.317  1.00  0.00     0.128 A 
ATOM      6  C   UNL     1      49.618 -28.255   7.103  1.00  0.00     0.093 A 
ATOM      7  C   UNL     1      49.850 -28.833   5.849  1.00  0.00     0.136 A 
ATOM      8  C   UNL     1      48.950 -28.569   4.783  1.00  0.00     0.125 A 
ATOM      9  C   UNL     1      49.096 -29.115   3.498  1.00  0.00     0.078 A 
ATOM     10  C   UNL     1      48.166 -28.813   2.498  1.00  0.00     0.223 A 
ENDROOT
BRANCH   1  11
ATOM     11  C   UNL     1      46.087 -27.558   1.791  1.00  0.00     0.091 A 
ATOM     12  C   UNL     1      45.445 -28.521   0.999  1.00  0.00     0.068 A 
ATOM     13  C   UNL     1      44.506 -28.142   0.036  1.00  0.00     0.162 A 
ATOM     14  C   UNL     1      45.801 -26.203   1.580  1.00  0.00     0.068 A 
ATOM     15  C   UNL     1      44.201 -26.781  -0.158  1.00  0.00     0.200 A 
ATOM     16  C   UNL     1      44.864 -25.803   0.621  1.00  0.00     0.162 A 
BRANCH  13  17
ATOM     17  O   UNL     1      43.885 -29.134  -0.723  1.00  0.00    -0.504 OA
ATOM     18  H   UNL     1      43.032 -29.591  -0.424  1.00  0.00     0.293 HD
ENDBRANCH  13  17
BRANCH  15  19
ATOM     19  O   UNL     1      43.249 -26.445  -1.125  1.00  0.00    -0.502 OA
ATOM     20  H   UNL     1      42.254 -26.431  -0.960  1.00  0.00     0.293 HD
ENDBRANCH  15  19
BRANCH  16  21
ATOM     21  O   UNL     1      44.625 -24.434   0.479  1.00  0.00    -0.504 OA
ATOM     22  H   UNL     1      43.725 -23.999   0.619  1.00  0.00     0.293 HD
ENDBRANCH  16  21
ENDBRANCH   1  11
BRANCH  10  23
ATOM     23  O   UNL     1      48.281 -29.394   1.235  1.00  0.00    -0.500 OA
ATOM     24  H   UNL     1      47.467 -29.623   0.678  1.00  0.00     0.294 HD
ENDBRANCH  10  23
BRANCH   5  25
ATOM     25  O   UNL     1      48.290 -26.848   8.567  1.00  0.00    -0.507 OA
ATOM     26  H   UNL     1      47.391 -26.454   8.816  1.00  0.00     0.293 HD
ENDBRANCH   5  25
BRANCH   7  27
ATOM     27  O   UNL     1      50.975 -29.651   5.715  1.00  0.00    -0.507 OA
ATOM     28  H   UNL     1      51.922 -29.311   5.640  1.00  0.00     0.293 HD
ENDBRANCH   7  27
TORSDOF 7
ENDMDL
MODEL 8
REMARK VINA RESULT:    -6.112      1.374      3.388
REMARK INTER + INTRA:          -7.375
REMARK INTER:                  -7.624
REMARK INTRA:                   0.249
REMARK UNBOUND:                 0.167
REMARK SMILES Oc1cc(O)c2cc(O)c(-c3cc(O)c(O)c(O)c3)[o+]c2c1
REMARK SMILES IDX 10 1 20 2 21 3 22 4 2 5 3 6 4 7 6 8 7 9 8 10 11 11 12 12
REMARK SMILES IDX 13 13 19 14 15 15 17 16 14 17 16 19 18 21 9 23 1 25 5 27
REMARK H PARENT 14 18 16 20 18 22 9 24 1 26 5 28
REMARK Flexibility Score: inf
ROOT
ATOM      1  C   UNL     1      48.628 -28.619   4.757  1.00  0.00     0.402 A 
ATOM      2  O   UNL     1      48.423 -29.145   3.553  1.00  0.00    -0.202 OA
ATOM      3  C   UNL     1      47.671 -28.567   2.622  1.00  0.00     0.368 A 
ATOM      4  C   UNL     1      47.516 -29.198   1.383  1.00  0.00     0.162 A 
ATOM      5  C   UNL     1      46.735 -28.613   0.387  1.00  0.00     0.128 A 
ATOM      6  C   UNL     1      46.103 -27.387   0.627  1.00  0.00     0.093 A 
ATOM      7  C   UNL     1      46.243 -26.735   1.858  1.00  0.00     0.136 A 
ATOM      8  C   UNL     1      47.034 -27.329   2.876  1.00  0.00     0.125 A 
ATOM      9  C   UNL     1      47.219 -26.755   4.144  1.00  0.00     0.078 A 
ATOM     10  C   UNL     1      48.010 -27.402   5.098  1.00  0.00     0.223 A 
ENDROOT
BRANCH   1  11
ATOM     11  C   UNL     1      49.496 -29.355   5.705  1.00  0.00     0.091 A 
ATOM     12  C   UNL     1      50.132 -28.703   6.771  1.00  0.00     0.068 A 
ATOM     13  C   UNL     1      50.965 -29.408   7.644  1.00  0.00     0.162 A 
ATOM     14  C   UNL     1      49.735 -30.721   5.503  1.00  0.00     0.068 A 
ATOM     15  C   UNL     1      51.185 -30.785   7.455  1.00  0.00     0.200 A 
ATOM     16  C   UNL     1      50.565 -31.444   6.367  1.00  0.00     0.162 A 
BRANCH  13  17
ATOM     17  O   UNL     1      51.571 -28.719   8.695  1.00  0.00    -0.504 OA
ATOM     18  H   UNL     1      51.127 -27.934   9.156  1.00  0.00     0.293 HD
ENDBRANCH  13  17
BRANCH  15  19
ATOM     19  O   UNL     1      52.018 -31.455   8.355  1.00  0.00    -0.502 OA
ATOM     20  H   UNL     1      52.836 -31.981   8.087  1.00  0.00     0.293 HD
ENDBRANCH  15  19
BRANCH  16  21
ATOM     21  O   UNL     1      50.743 -32.805   6.106  1.00  0.00    -0.504 OA
ATOM     22  H   UNL     1      49.993 -33.481   6.086  1.00  0.00     0.293 HD
ENDBRANCH  16  21
ENDBRANCH   1  11
BRANCH  10  23
ATOM     23  O   UNL     1      48.153 -26.857   6.374  1.00  0.00    -0.500 OA
ATOM     24  H   UNL     1      47.681 -27.254   7.178  1.00  0.00     0.294 HD
ENDBRANCH  10  23
BRANCH   5  25
ATOM     25  O   UNL     1      46.593 -29.256  -0.841  1.00  0.00    -0.507 OA
ATOM     26  H   UNL     1      46.375 -28.742  -1.685  1.00  0.00     0.293 HD
ENDBRANCH   5  25
BRANCH   7  27
ATOM     27  O   UNL     1      45.583 -25.513   2.018  1.00  0.00    -0.507 OA
ATOM     28  H   UNL     1      45.697 -24.719   1.407  1.00  0.00     0.293 HD
ENDBRANCH   7  27
TORSDOF 7
ENDMDL
