MODEL 1
REMARK VINA RESULT:    -3.826      0.000      0.000
REMARK INTER + INTRA:          -5.906
REMARK INTER:                  -5.839
REMARK INTRA:                  -0.068
REMARK UNBOUND:                -0.068
REMARK SMILES CC1=CCC[C@@H](C)C(=O)C[C@@H](C(C)C)C(=O)C1
REMARK SMILES IDX 8 1 9 2 6 3 7 4 5 5 4 6 3 7 2 8 1 9 10 11 11 12 15 13 16 14
REMARK SMILES IDX 17 15 12 17 13 18 14 19
REMARK H PARENT
REMARK Flexibility Score: 70.00
ROOT
ATOM      1  C   UNL     1      17.006  -1.066  58.521  1.00  0.00     0.136 C 
ATOM      2  O   UNL     1      17.963  -0.407  58.902  1.00  0.00    -0.299 OA
ENDROOT
BRANCH   1   3
ATOM      3  C   UNL     1      16.192  -0.603  57.323  1.00  0.00     0.053 C 
ATOM      4  C   UNL     1      16.899  -0.903  55.992  1.00  0.00     0.016 C 
BRANCH   3   5
ATOM      5  C   UNL     1      15.807   0.891  57.422  1.00  0.00     0.015 C 
BRANCH   5   6
ATOM      6  C   UNL     1      14.759   1.210  58.517  1.00  0.00     0.028 C 
BRANCH   6   7
ATOM      7  C   UNL     1      15.398   1.937  59.678  1.00  0.00    -0.028 C 
ATOM      8  C   UNL     1      15.348   1.547  60.976  1.00  0.00    -0.070 CG0
ATOM      9  C   UNL     1      15.922   2.476  62.014  1.00  0.00     0.039 C 
ATOM     10  G   UNL     1      14.750   0.225  61.432  1.00  0.00     0.000 G0
ENDBRANCH   6   7
ENDBRANCH   5   6
ENDBRANCH   3   5
ENDBRANCH   1   3
BRANCH   1  11
ATOM     11  C   UNL     1      16.638  -2.316  59.289  1.00  0.00     0.087 C 
BRANCH  11  12
ATOM     12  C   UNL     1      15.418  -2.106  60.225  1.00  0.00     0.066 C 
BRANCH  12  13
ATOM     13  C   UNL     1      15.676  -1.005  61.250  1.00  0.00     0.140 C 
ATOM     14  O   UNL     1      16.674  -1.079  61.951  1.00  0.00    -0.299 OA
BRANCH  13  15
ATOM     15  C   UNL     1      14.779   0.204  61.441  1.00  0.00     0.106 CG0
ATOM     16  G   UNL     1      15.351   1.534  60.973  1.00  0.00     0.000 G0
ENDBRANCH  13  15
ENDBRANCH  12  13
BRANCH  12  17
ATOM     17  C   UNL     1      14.914  -3.413  60.916  1.00  0.00    -0.006 C 
ATOM     18  C   UNL     1      13.709  -3.215  61.853  1.00  0.00     0.008 C 
ATOM     19  C   UNL     1      16.046  -4.128  61.671  1.00  0.00     0.008 C 
ENDBRANCH  12  17
ENDBRANCH  11  12
ENDBRANCH   1  11
TORSDOF 1
ENDMDL
MODEL 2
REMARK VINA RESULT:    -3.803      2.616      4.726
REMARK INTER + INTRA:          -5.871
REMARK INTER:                  -5.401
REMARK INTRA:                  -0.470
REMARK UNBOUND:                -0.068
REMARK SMILES CC1=CCC[C@@H](C)C(=O)C[C@@H](C(C)C)C(=O)C1
REMARK SMILES IDX 8 1 9 2 6 3 7 4 5 5 4 6 3 7 2 8 1 9 10 11 11 12 15 13 16 14
REMARK SMILES IDX 17 15 12 17 13 18 14 19
REMARK H PARENT
REMARK Flexibility Score: 70.00
ROOT
ATOM      1  C   UNL     1      18.519  -0.624  59.284  1.00  0.00     0.136 C 
ATOM      2  O   UNL     1      19.021  -0.344  58.205  1.00  0.00    -0.299 OA
ENDROOT
BRANCH   1   3
ATOM      3  C   UNL     1      19.223  -0.233  60.574  1.00  0.00     0.053 C 
ATOM      4  C   UNL     1      20.044   1.057  60.419  1.00  0.00     0.016 C 
BRANCH   3   5
ATOM      5  C   UNL     1      20.095  -1.381  61.133  1.00  0.00     0.015 C 
BRANCH   5   6
ATOM      6  C   UNL     1      19.452  -2.161  62.306  1.00  0.00     0.028 C 
BRANCH   6   7
ATOM      7  C   UNL     1      18.840  -3.454  61.821  1.00  0.00    -0.028 C 
ATOM      8  C   UNL     1      17.523  -3.775  61.879  1.00  0.00    -0.070 CG0
ATOM      9  C   UNL     1      17.117  -5.170  61.479  1.00  0.00     0.039 C 
ATOM     10  G   UNL     1      16.442  -2.800  62.322  1.00  0.00     0.000 G0
ENDBRANCH   6   7
ENDBRANCH   5   6
ENDBRANCH   3   5
ENDBRANCH   1   3
BRANCH   1  11
ATOM     11  C   UNL     1      17.215  -1.391  59.299  1.00  0.00     0.087 C 
BRANCH  11  12
ATOM     12  C   UNL     1      16.251  -0.910  60.416  1.00  0.00     0.066 C 
BRANCH  12  13
ATOM     13  C   UNL     1      15.674  -2.080  61.208  1.00  0.00     0.140 C 
ATOM     14  O   UNL     1      14.555  -2.483  60.927  1.00  0.00    -0.299 OA
BRANCH  13  15
ATOM     15  C   UNL     1      16.417  -2.804  62.315  1.00  0.00     0.106 CG0
ATOM     16  G   UNL     1      17.492  -3.780  61.864  1.00  0.00     0.000 G0
ENDBRANCH  13  15
ENDBRANCH  12  13
BRANCH  12  17
ATOM     17  C   UNL     1      15.120   0.042  59.912  1.00  0.00    -0.006 C 
ATOM     18  C   UNL     1      14.991   0.123  58.380  1.00  0.00     0.008 C 
ATOM     19  C   UNL     1      15.266   1.456  60.496  1.00  0.00     0.008 C 
ENDBRANCH  12  17
ENDBRANCH  11  12
ENDBRANCH   1  11
TORSDOF 1
ENDMDL
MODEL 3
REMARK VINA RESULT:    -3.674      2.752      4.526
REMARK INTER + INTRA:          -5.675
REMARK INTER:                  -5.101
REMARK INTRA:                  -0.575
REMARK UNBOUND:                -0.068
REMARK SMILES CC1=CCC[C@@H](C)C(=O)C[C@@H](C(C)C)C(=O)C1
REMARK SMILES IDX 8 1 9 2 6 3 7 4 5 5 4 6 3 7 2 8 1 9 10 11 11 12 15 13 16 14
REMARK SMILES IDX 17 15 12 17 13 18 14 19
REMARK H PARENT
REMARK Flexibility Score: 70.00
ROOT
ATOM      1  C   UNL     1      17.171   1.682  57.173  1.00  0.00     0.136 C 
ATOM      2  O   UNL     1      16.633   2.576  56.535  1.00  0.00    -0.299 OA
ENDROOT
BRANCH   1   3
ATOM      3  C   UNL     1      16.650   0.257  57.072  1.00  0.00     0.053 C 
ATOM      4  C   UNL     1      16.786  -0.311  55.651  1.00  0.00     0.016 C 
BRANCH   3   5
ATOM      5  C   UNL     1      15.196   0.131  57.583  1.00  0.00     0.015 C 
BRANCH   5   6
ATOM      6  C   UNL     1      15.037   0.319  59.112  1.00  0.00     0.028 C 
BRANCH   6   7
ATOM      7  C   UNL     1      15.658  -0.834  59.864  1.00  0.00    -0.028 C 
ATOM      8  C   UNL     1      16.836  -0.794  60.536  1.00  0.00    -0.070 CG0
ATOM      9  C   UNL     1      17.368  -2.084  61.105  1.00  0.00     0.039 C 
ATOM     10  G   UNL     1      17.639   0.481  60.745  1.00  0.00     0.000 G0
ENDBRANCH   6   7
ENDBRANCH   5   6
ENDBRANCH   3   5
ENDBRANCH   1   3
BRANCH   1  11
ATOM     11  C   UNL     1      18.329   2.037  58.080  1.00  0.00     0.087 C 
BRANCH  11  12
ATOM     12  C   UNL     1      19.132   0.791  58.538  1.00  0.00     0.066 C 
BRANCH  12  13
ATOM     13  C   UNL     1      18.990   0.547  60.038  1.00  0.00     0.140 C 
ATOM     14  O   UNL     1      20.003   0.423  60.710  1.00  0.00    -0.299 OA
BRANCH  13  15
ATOM     15  C   UNL     1      17.660   0.475  60.765  1.00  0.00     0.106 CG0
ATOM     16  G   UNL     1      16.840  -0.783  60.523  1.00  0.00     0.000 G0
ENDBRANCH  13  15
ENDBRANCH  12  13
BRANCH  12  17
ATOM     17  C   UNL     1      20.633   0.810  58.109  1.00  0.00    -0.006 C 
ATOM     18  C   UNL     1      21.032   2.013  57.237  1.00  0.00     0.008 C 
ATOM     19  C   UNL     1      21.039  -0.496  57.408  1.00  0.00     0.008 C 
ENDBRANCH  12  17
ENDBRANCH  11  12
ENDBRANCH   1  11
TORSDOF 1
ENDMDL
MODEL 4
REMARK VINA RESULT:    -3.648     11.741     13.779
REMARK INTER + INTRA:          -5.635
REMARK INTER:                  -5.067
REMARK INTRA:                  -0.568
REMARK UNBOUND:                -0.068
REMARK SMILES CC1=CCC[C@@H](C)C(=O)C[C@@H](C(C)C)C(=O)C1
REMARK SMILES IDX 8 1 9 2 6 3 7 4 5 5 4 6 3 7 2 8 1 9 10 11 11 12 15 13 16 14
REMARK SMILES IDX 17 15 12 17 13 18 14 19
REMARK H PARENT
REMARK Flexibility Score: 70.00
ROOT
ATOM      1  C   UNL     1      27.925  -2.402  54.011  1.00  0.00     0.136 C 
ATOM      2  O   UNL     1      28.063  -1.292  54.503  1.00  0.00    -0.299 OA
ENDROOT
BRANCH   1   3
ATOM      3  C   UNL     1      26.778  -2.670  53.049  1.00  0.00     0.053 C 
ATOM      4  C   UNL     1      26.909  -1.860  51.750  1.00  0.00     0.016 C 
BRANCH   3   5
ATOM      5  C   UNL     1      25.398  -2.441  53.710  1.00  0.00     0.015 C 
BRANCH   5   6
ATOM      6  C   UNL     1      24.752  -3.718  54.301  1.00  0.00     0.028 C 
BRANCH   6   7
ATOM      7  C   UNL     1      25.110  -3.876  55.760  1.00  0.00    -0.028 C 
ATOM      8  C   UNL     1      25.820  -4.902  56.291  1.00  0.00    -0.070 CG0
ATOM      9  C   UNL     1      25.956  -4.966  57.791  1.00  0.00     0.039 C 
ATOM     10  G   UNL     1      26.485  -5.984  55.453  1.00  0.00     0.000 G0
ENDBRANCH   6   7
ENDBRANCH   5   6
ENDBRANCH   3   5
ENDBRANCH   1   3
BRANCH   1  11
ATOM     11  C   UNL     1      28.892  -3.496  54.408  1.00  0.00     0.087 C 
BRANCH  11  12
ATOM     12  C   UNL     1      28.434  -4.901  53.934  1.00  0.00     0.066 C 
BRANCH  12  13
ATOM     13  C   UNL     1      27.955  -5.762  55.100  1.00  0.00     0.140 C 
ATOM     14  O   UNL     1      28.789  -6.292  55.818  1.00  0.00    -0.299 OA
BRANCH  13  15
ATOM     15  C   UNL     1      26.495  -5.984  55.448  1.00  0.00     0.106 CG0
ATOM     16  G   UNL     1      25.839  -4.894  56.281  1.00  0.00     0.000 G0
ENDBRANCH  13  15
ENDBRANCH  12  13
BRANCH  12  17
ATOM     17  C   UNL     1      29.493  -5.657  53.072  1.00  0.00    -0.006 C 
ATOM     18  C   UNL     1      30.941  -5.174  53.272  1.00  0.00     0.008 C 
ATOM     19  C   UNL     1      29.137  -5.623  51.577  1.00  0.00     0.008 C 
ENDBRANCH  12  17
ENDBRANCH  11  12
ENDBRANCH   1  11
TORSDOF 1
ENDMDL
MODEL 5
REMARK VINA RESULT:    -3.648      2.452      3.720
REMARK INTER + INTRA:          -5.635
REMARK INTER:                  -5.166
REMARK INTRA:                  -0.468
REMARK UNBOUND:                -0.068
REMARK SMILES CC1=CCC[C@@H](C)C(=O)C[C@@H](C(C)C)C(=O)C1
REMARK SMILES IDX 8 1 9 2 6 3 7 4 5 5 4 6 3 7 2 8 1 9 10 11 11 12 15 13 16 14
REMARK SMILES IDX 17 15 12 17 13 18 14 19
REMARK H PARENT
REMARK Flexibility Score: 70.00
ROOT
ATOM      1  C   UNL     1      17.154  -1.031  58.801  1.00  0.00     0.136 C 
ATOM      2  O   UNL     1      16.663  -0.959  57.683  1.00  0.00    -0.299 OA
ENDROOT
BRANCH   1   3
ATOM      3  C   UNL     1      16.317  -1.531  59.968  1.00  0.00     0.053 C 
ATOM      4  C   UNL     1      16.174  -3.061  59.965  1.00  0.00     0.016 C 
BRANCH   3   5
ATOM      5  C   UNL     1      14.933  -0.844  60.029  1.00  0.00     0.015 C 
BRANCH   5   6
ATOM      6  C   UNL     1      14.846   0.334  61.029  1.00  0.00     0.028 C 
BRANCH   6   7
ATOM      7  C   UNL     1      15.285   1.625  60.378  1.00  0.00    -0.028 C 
ATOM      8  C   UNL     1      16.439   2.288  60.639  1.00  0.00    -0.070 CG0
ATOM      9  C   UNL     1      16.640   3.637  59.998  1.00  0.00     0.039 C 
ATOM     10  G   UNL     1      17.536   1.738  61.538  1.00  0.00     0.000 G0
ENDBRANCH   6   7
ENDBRANCH   5   6
ENDBRANCH   3   5
ENDBRANCH   1   3
BRANCH   1  11
ATOM     11  C   UNL     1      18.585  -0.579  58.993  1.00  0.00     0.087 C 
BRANCH  11  12
ATOM     12  C   UNL     1      18.929  -0.299  60.480  1.00  0.00     0.066 C 
BRANCH  12  13
ATOM     13  C   UNL     1      18.760   1.176  60.831  1.00  0.00     0.140 C 
ATOM     14  O   UNL     1      19.635   1.962  60.498  1.00  0.00    -0.299 OA
BRANCH  13  15
ATOM     15  C   UNL     1      17.551   1.746  61.551  1.00  0.00     0.106 CG0
ATOM     16  G   UNL     1      16.445   2.289  60.660  1.00  0.00     0.000 G0
ENDBRANCH  13  15
ENDBRANCH  12  13
BRANCH  12  17
ATOM     17  C   UNL     1      20.332  -0.827  60.918  1.00  0.00    -0.006 C 
ATOM     18  C   UNL     1      21.355  -0.941  59.774  1.00  0.00     0.008 C 
ATOM     19  C   UNL     1      20.227  -2.170  61.657  1.00  0.00     0.008 C 
ENDBRANCH  12  17
ENDBRANCH  11  12
ENDBRANCH   1  11
TORSDOF 1
ENDMDL
MODEL 6
REMARK VINA RESULT:    -3.624     11.680     13.822
REMARK INTER + INTRA:          -5.598
REMARK INTER:                  -5.031
REMARK INTRA:                  -0.567
REMARK UNBOUND:                -0.068
REMARK SMILES CC1=CCC[C@@H](C)C(=O)C[C@@H](C(C)C)C(=O)C1
REMARK SMILES IDX 8 1 9 2 6 3 7 4 5 5 4 6 3 7 2 8 1 9 10 11 11 12 15 13 16 14
REMARK SMILES IDX 17 15 12 17 13 18 14 19
REMARK H PARENT
REMARK Flexibility Score: 70.00
ROOT
ATOM      1  C   UNL     1      26.026  -4.904  56.189  1.00  0.00     0.136 C 
ATOM      2  O   UNL     1      25.308  -5.379  57.058  1.00  0.00    -0.299 OA
ENDROOT
BRANCH   1   3
ATOM      3  C   UNL     1      25.980  -3.413  55.897  1.00  0.00     0.053 C 
ATOM      4  C   UNL     1      26.220  -2.567  57.157  1.00  0.00     0.016 C 
BRANCH   3   5
ATOM      5  C   UNL     1      24.669  -2.997  55.191  1.00  0.00     0.015 C 
BRANCH   5   6
ATOM      6  C   UNL     1      24.487  -3.597  53.775  1.00  0.00     0.028 C 
BRANCH   6   7
ATOM      7  C   UNL     1      25.402  -2.920  52.782  1.00  0.00    -0.028 C 
ATOM      8  C   UNL     1      26.441  -3.509  52.139  1.00  0.00    -0.070 CG0
ATOM      9  C   UNL     1      27.333  -2.637  51.292  1.00  0.00     0.039 C 
ATOM     10  G   UNL     1      26.747  -4.996  52.226  1.00  0.00     0.000 G0
ENDBRANCH   6   7
ENDBRANCH   5   6
ENDBRANCH   3   5
ENDBRANCH   1   3
BRANCH   1  11
ATOM     11  C   UNL     1      26.920  -5.835  55.401  1.00  0.00     0.087 C 
BRANCH  11  12
ATOM     12  C   UNL     1      28.008  -5.079  54.594  1.00  0.00     0.066 C 
BRANCH  12  13
ATOM     13  C   UNL     1      27.927  -5.392  53.103  1.00  0.00     0.140 C 
ATOM     14  O   UNL     1      28.845  -6.007  52.582  1.00  0.00    -0.299 OA
BRANCH  13  15
ATOM     15  C   UNL     1      26.754  -5.011  52.218  1.00  0.00     0.106 CG0
ATOM     16  G   UNL     1      26.456  -3.523  52.117  1.00  0.00     0.000 G0
ENDBRANCH  13  15
ENDBRANCH  12  13
BRANCH  12  17
ATOM     17  C   UNL     1      29.459  -5.284  55.135  1.00  0.00    -0.006 C 
ATOM     18  C   UNL     1      29.629  -6.507  56.055  1.00  0.00     0.008 C 
ATOM     19  C   UNL     1      29.984  -4.026  55.844  1.00  0.00     0.008 C 
ENDBRANCH  12  17
ENDBRANCH  11  12
ENDBRANCH   1  11
TORSDOF 1
ENDMDL
MODEL 7
REMARK VINA RESULT:    -3.610      1.689      2.407
REMARK INTER + INTRA:          -5.577
REMARK INTER:                  -5.051
REMARK INTRA:                  -0.526
REMARK UNBOUND:                -0.068
REMARK SMILES CC1=CCC[C@@H](C)C(=O)C[C@@H](C(C)C)C(=O)C1
REMARK SMILES IDX 8 1 9 2 6 3 7 4 5 5 4 6 3 7 2 8 1 9 10 11 11 12 15 13 16 14
REMARK SMILES IDX 17 15 12 17 13 18 14 19
REMARK H PARENT
REMARK Flexibility Score: 70.00
ROOT
ATOM      1  C   UNL     1      17.792   0.372  58.344  1.00  0.00     0.136 C 
ATOM      2  O   UNL     1      18.897   0.518  57.841  1.00  0.00    -0.299 OA
ENDROOT
BRANCH   1   3
ATOM      3  C   UNL     1      16.541   0.614  57.513  1.00  0.00     0.053 C 
ATOM      4  C   UNL     1      16.490  -0.283  56.266  1.00  0.00     0.016 C 
BRANCH   3   5
ATOM      5  C   UNL     1      16.374   2.104  57.132  1.00  0.00     0.015 C 
BRANCH   5   6
ATOM      6  C   UNL     1      15.474   2.914  58.097  1.00  0.00     0.028 C 
BRANCH   6   7
ATOM      7  C   UNL     1      16.305   3.825  58.969  1.00  0.00    -0.028 C 
ATOM      8  C   UNL     1      16.327   3.814  60.325  1.00  0.00    -0.070 CG0
ATOM      9  C   UNL     1      17.108   4.895  61.028  1.00  0.00     0.039 C 
ATOM     10  G   UNL     1      15.611   2.769  61.167  1.00  0.00     0.000 G0
ENDBRANCH   6   7
ENDBRANCH   5   6
ENDBRANCH   3   5
ENDBRANCH   1   3
BRANCH   1  11
ATOM     11  C   UNL     1      17.706  -0.012  59.804  1.00  0.00     0.087 C 
BRANCH  11  12
ATOM     12  C   UNL     1      16.313   0.287  60.421  1.00  0.00     0.066 C 
BRANCH  12  13
ATOM     13  C   UNL     1      16.365   1.464  61.391  1.00  0.00     0.140 C 
ATOM     14  O   UNL     1      17.064   1.370  62.388  1.00  0.00    -0.299 OA
BRANCH  13  15
ATOM     15  C   UNL     1      15.620   2.769  61.183  1.00  0.00     0.106 CG0
ATOM     16  G   UNL     1      16.329   3.808  60.327  1.00  0.00     0.000 G0
ENDBRANCH  13  15
ENDBRANCH  12  13
BRANCH  12  17
ATOM     17  C   UNL     1      15.629  -0.954  61.076  1.00  0.00    -0.006 C 
ATOM     18  C   UNL     1      15.820  -2.271  60.302  1.00  0.00     0.008 C 
ATOM     19  C   UNL     1      14.131  -0.711  61.324  1.00  0.00     0.008 C 
ENDBRANCH  12  17
ENDBRANCH  11  12
ENDBRANCH   1  11
TORSDOF 1
ENDMDL
MODEL 8
REMARK VINA RESULT:    -3.584     11.369     13.386
REMARK INTER + INTRA:          -5.537
REMARK INTER:                  -5.032
REMARK INTRA:                  -0.505
REMARK UNBOUND:                -0.068
REMARK SMILES CC1=CCC[C@@H](C)C(=O)C[C@@H](C(C)C)C(=O)C1
REMARK SMILES IDX 8 1 9 2 6 3 7 4 5 5 4 6 3 7 2 8 1 9 10 11 11 12 15 13 16 14
REMARK SMILES IDX 17 15 12 17 13 18 14 19
REMARK H PARENT
REMARK Flexibility Score: 70.00
ROOT
ATOM      1  C   UNL     1      27.025  -2.799  52.350  1.00  0.00     0.136 C 
ATOM      2  O   UNL     1      26.970  -2.026  51.405  1.00  0.00    -0.299 OA
ENDROOT
BRANCH   1   3
ATOM      3  C   UNL     1      26.000  -3.916  52.480  1.00  0.00     0.053 C 
ATOM      4  C   UNL     1      25.635  -4.529  51.119  1.00  0.00     0.016 C 
BRANCH   3   5
ATOM      5  C   UNL     1      24.734  -3.459  53.240  1.00  0.00     0.015 C 
BRANCH   5   6
ATOM      6  C   UNL     1      24.630  -3.993  54.690  1.00  0.00     0.028 C 
BRANCH   6   7
ATOM      7  C   UNL     1      24.942  -2.904  55.689  1.00  0.00    -0.028 C 
ATOM      8  C   UNL     1      25.980  -2.908  56.561  1.00  0.00    -0.070 CG0
ATOM      9  C   UNL     1      26.049  -1.801  57.582  1.00  0.00     0.039 C 
ATOM     10  G   UNL     1      27.074  -3.965  56.558  1.00  0.00     0.000 G0
ENDBRANCH   6   7
ENDBRANCH   5   6
ENDBRANCH   3   5
ENDBRANCH   1   3
BRANCH   1  11
ATOM     11  C   UNL     1      28.103  -2.593  53.391  1.00  0.00     0.087 C 
BRANCH  11  12
ATOM     12  C   UNL     1      28.391  -3.877  54.215  1.00  0.00     0.066 C 
BRANCH  12  13
ATOM     13  C   UNL     1      28.295  -3.618  55.716  1.00  0.00     0.140 C 
ATOM     14  O   UNL     1      29.242  -3.093  56.283  1.00  0.00    -0.299 OA
BRANCH  13  15
ATOM     15  C   UNL     1      27.076  -3.948  56.558  1.00  0.00     0.106 CG0
ATOM     16  G   UNL     1      25.979  -2.896  56.577  1.00  0.00     0.000 G0
ENDBRANCH  13  15
ENDBRANCH  12  13
BRANCH  12  17
ATOM     17  C   UNL     1      29.738  -4.578  53.849  1.00  0.00    -0.006 C 
ATOM     18  C   UNL     1      30.822  -3.631  53.304  1.00  0.00     0.008 C 
ATOM     19  C   UNL     1      29.523  -5.740  52.867  1.00  0.00     0.008 C 
ENDBRANCH  12  17
ENDBRANCH  11  12
ENDBRANCH   1  11
TORSDOF 1
ENDMDL
MODEL 9
REMARK VINA RESULT:    -3.440     11.823     13.702
REMARK INTER + INTRA:          -5.317
REMARK INTER:                  -5.049
REMARK INTRA:                  -0.268
REMARK UNBOUND:                -0.068
REMARK SMILES CC1=CCC[C@@H](C)C(=O)C[C@@H](C(C)C)C(=O)C1
REMARK SMILES IDX 8 1 9 2 6 3 7 4 5 5 4 6 3 7 2 8 1 9 10 11 11 12 15 13 16 14
REMARK SMILES IDX 17 15 12 17 13 18 14 19
REMARK H PARENT
REMARK Flexibility Score: 70.00
ROOT
ATOM      1  C   UNL     1      25.509  -3.937  53.400  1.00  0.00     0.136 C 
ATOM      2  O   UNL     1      24.676  -3.108  53.738  1.00  0.00    -0.299 OA
ENDROOT
BRANCH   1   3
ATOM      3  C   UNL     1      25.996  -3.982  51.960  1.00  0.00     0.053 C 
ATOM      4  C   UNL     1      26.753  -5.281  51.644  1.00  0.00     0.016 C 
BRANCH   3   5
ATOM      5  C   UNL     1      26.844  -2.742  51.593  1.00  0.00     0.015 C 
BRANCH   5   6
ATOM      6  C   UNL     1      28.368  -2.928  51.795  1.00  0.00     0.028 C 
BRANCH   6   7
ATOM      7  C   UNL     1      28.854  -2.137  52.986  1.00  0.00    -0.028 C 
ATOM      8  C   UNL     1      29.258  -2.661  54.170  1.00  0.00    -0.070 CG0
ATOM      9  C   UNL     1      29.573  -1.708  55.294  1.00  0.00     0.039 C 
ATOM     10  G   UNL     1      29.412  -4.154  54.416  1.00  0.00     0.000 G0
ENDBRANCH   6   7
ENDBRANCH   5   6
ENDBRANCH   3   5
ENDBRANCH   1   3
BRANCH   1  11
ATOM     11  C   UNL     1      26.004  -4.927  54.431  1.00  0.00     0.087 C 
BRANCH  11  12
ATOM     12  C   UNL     1      26.942  -4.276  55.482  1.00  0.00     0.066 C 
BRANCH  12  13
ATOM     13  C   UNL     1      28.376  -4.781  55.350  1.00  0.00     0.140 C 
ATOM     14  O   UNL     1      28.715  -5.759  55.999  1.00  0.00    -0.299 OA
BRANCH  13  15
ATOM     15  C   UNL     1      29.415  -4.160  54.435  1.00  0.00     0.106 CG0
ATOM     16  G   UNL     1      29.264  -2.669  54.176  1.00  0.00     0.000 G0
ENDBRANCH  13  15
ENDBRANCH  12  13
BRANCH  12  17
ATOM     17  C   UNL     1      26.433  -4.402  56.953  1.00  0.00    -0.006 C 
ATOM     18  C   UNL     1      24.970  -4.863  57.083  1.00  0.00     0.008 C 
ATOM     19  C   UNL     1      26.637  -3.096  57.738  1.00  0.00     0.008 C 
ENDBRANCH  12  17
ENDBRANCH  11  12
ENDBRANCH   1  11
TORSDOF 1
ENDMDL
