MODEL 1
REMARK VINA RESULT:    -5.611      0.000      0.000
REMARK INTER + INTRA:          -6.901
REMARK INTER:                  -6.595
REMARK INTRA:                  -0.306
REMARK UNBOUND:                -0.306
REMARK SMILES COc1cc2ccc(=O)oc2c(OC)c1OC
REMARK SMILES IDX 3 1 15 2 12 3 11 4 5 5 4 6 6 7 7 8 8 9 9 10 10 11 2 12 1 13
REMARK SMILES IDX 16 14 17 15 13 16 14 17
REMARK H PARENT
REMARK Flexibility Score: inf
ROOT
ATOM      1  C   UNL     1      10.252 -15.930   6.152  1.00  0.00     0.165 A 
ATOM      2  C   UNL     1       9.703 -16.529   7.322  1.00  0.00     0.207 A 
ATOM      3  C   UNL     1       8.364 -16.224   7.698  1.00  0.00     0.208 A 
ATOM      4  C   UNL     1       7.606 -15.342   6.917  1.00  0.00     0.184 A 
ATOM      5  C   UNL     1       8.156 -14.755   5.763  1.00  0.00     0.025 A 
ATOM      6  C   UNL     1       9.466 -15.049   5.388  1.00  0.00     0.062 A 
ATOM      7  C   UNL     1       7.364 -13.880   5.011  1.00  0.00     0.020 A 
ATOM      8  C   UNL     1       6.058 -13.614   5.422  1.00  0.00     0.094 A 
ATOM      9  C   UNL     1       5.575 -14.230   6.578  1.00  0.00     0.336 A 
ATOM     10  O   UNL     1       4.400 -14.005   6.968  1.00  0.00    -0.246 OA
ATOM     11  O   UNL     1       6.353 -15.058   7.272  1.00  0.00    -0.419 OA
ENDROOT
BRANCH   1  12
ATOM     12  O   UNL     1      11.571 -16.222   5.768  1.00  0.00    -0.493 OA
ATOM     13  C   UNL     1      12.728 -15.507   6.193  1.00  0.00     0.278 C 
ENDBRANCH   1  12
BRANCH   2  14
ATOM     14  O   UNL     1      10.435 -17.419   8.131  1.00  0.00    -0.490 OA
ATOM     15  C   UNL     1      11.292 -17.091   9.219  1.00  0.00     0.278 C 
ENDBRANCH   2  14
BRANCH   3  16
ATOM     16  O   UNL     1       7.724 -16.759   8.834  1.00  0.00    -0.490 OA
ATOM     17  C   UNL     1       7.781 -16.257  10.165  1.00  0.00     0.278 C 
ENDBRANCH   3  16
TORSDOF 3
ENDMDL
MODEL 2
REMARK VINA RESULT:    -5.359      2.419      5.410
REMARK INTER + INTRA:          -6.604
REMARK INTER:                  -6.316
REMARK INTRA:                  -0.289
REMARK UNBOUND:                -0.306
REMARK SMILES COc1cc2ccc(=O)oc2c(OC)c1OC
REMARK SMILES IDX 3 1 15 2 12 3 11 4 5 5 4 6 6 7 7 8 8 9 9 10 10 11 2 12 1 13
REMARK SMILES IDX 16 14 17 15 13 16 14 17
REMARK H PARENT
REMARK Flexibility Score: inf
ROOT
ATOM      1  C   UNL     1       3.767 -14.712   8.495  1.00  0.00     0.165 A 
ATOM      2  C   UNL     1       4.730 -15.486   9.204  1.00  0.00     0.207 A 
ATOM      3  C   UNL     1       6.034 -15.649   8.656  1.00  0.00     0.208 A 
ATOM      4  C   UNL     1       6.353 -15.049   7.431  1.00  0.00     0.184 A 
ATOM      5  C   UNL     1       5.397 -14.287   6.737  1.00  0.00     0.025 A 
ATOM      6  C   UNL     1       4.118 -14.122   7.266  1.00  0.00     0.062 A 
ATOM      7  C   UNL     1       5.758 -13.705   5.516  1.00  0.00     0.020 A 
ATOM      8  C   UNL     1       7.048 -13.894   5.022  1.00  0.00     0.094 A 
ATOM      9  C   UNL     1       7.948 -14.664   5.763  1.00  0.00     0.336 A 
ATOM     10  O   UNL     1       9.118 -14.849   5.337  1.00  0.00    -0.246 OA
ATOM     11  O   UNL     1       7.575 -15.204   6.920  1.00  0.00    -0.419 OA
ENDROOT
BRANCH   1  12
ATOM     12  O   UNL     1       2.477 -14.542   9.023  1.00  0.00    -0.493 OA
ATOM     13  C   UNL     1       1.391 -15.447   8.847  1.00  0.00     0.278 C 
ENDBRANCH   1  12
BRANCH   2  14
ATOM     14  O   UNL     1       4.444 -16.103  10.437  1.00  0.00    -0.490 OA
ATOM     15  C   UNL     1       3.995 -17.437  10.652  1.00  0.00     0.278 C 
ENDBRANCH   2  14
BRANCH   3  16
ATOM     16  O   UNL     1       7.060 -16.393   9.273  1.00  0.00    -0.490 OA
ATOM     17  C   UNL     1       7.942 -15.948  10.297  1.00  0.00     0.278 C 
ENDBRANCH   3  16
TORSDOF 3
ENDMDL
MODEL 3
REMARK VINA RESULT:    -5.081      2.089      2.948
REMARK INTER + INTRA:          -6.278
REMARK INTER:                  -6.012
REMARK INTRA:                  -0.267
REMARK UNBOUND:                -0.306
REMARK SMILES COc1cc2ccc(=O)oc2c(OC)c1OC
REMARK SMILES IDX 3 1 15 2 12 3 11 4 5 5 4 6 6 7 7 8 8 9 9 10 10 11 2 12 1 13
REMARK SMILES IDX 16 14 17 15 13 16 14 17
REMARK H PARENT
REMARK Flexibility Score: inf
ROOT
ATOM      1  C   UNL     1       7.631 -15.142   6.295  1.00  0.00     0.165 A 
ATOM      2  C   UNL     1       8.036 -15.831   7.474  1.00  0.00     0.207 A 
ATOM      3  C   UNL     1       7.070 -16.124   8.477  1.00  0.00     0.208 A 
ATOM      4  C   UNL     1       5.737 -15.735   8.294  1.00  0.00     0.184 A 
ATOM      5  C   UNL     1       5.344 -15.055   7.127  1.00  0.00     0.025 A 
ATOM      6  C   UNL     1       6.285 -14.763   6.140  1.00  0.00     0.062 A 
ATOM      7  C   UNL     1       4.002 -14.684   6.984  1.00  0.00     0.020 A 
ATOM      8  C   UNL     1       3.094 -14.995   7.995  1.00  0.00     0.094 A 
ATOM      9  C   UNL     1       3.552 -15.671   9.129  1.00  0.00     0.336 A 
ATOM     10  O   UNL     1       2.751 -15.962  10.054  1.00  0.00    -0.246 OA
ATOM     11  O   UNL     1       4.834 -16.011   9.235  1.00  0.00    -0.419 OA
ENDROOT
BRANCH   1  12
ATOM     12  O   UNL     1       8.573 -14.846   5.297  1.00  0.00    -0.493 OA
ATOM     13  C   UNL     1       9.061 -13.544   4.987  1.00  0.00     0.278 C 
ENDBRANCH   1  12
BRANCH   2  14
ATOM     14  O   UNL     1       9.366 -16.237   7.692  1.00  0.00    -0.490 OA
ATOM     15  C   UNL     1       9.966 -17.471   7.312  1.00  0.00     0.278 C 
ENDBRANCH   2  14
BRANCH   3  16
ATOM     16  O   UNL     1       7.363 -16.799   9.680  1.00  0.00    -0.490 OA
ATOM     17  C   UNL     1       7.911 -16.236  10.866  1.00  0.00     0.278 C 
ENDBRANCH   3  16
TORSDOF 3
ENDMDL
MODEL 4
REMARK VINA RESULT:    -4.923      1.496      4.950
REMARK INTER + INTRA:          -6.093
REMARK INTER:                  -5.798
REMARK INTRA:                  -0.294
REMARK UNBOUND:                -0.306
REMARK SMILES COc1cc2ccc(=O)oc2c(OC)c1OC
REMARK SMILES IDX 3 1 15 2 12 3 11 4 5 5 4 6 6 7 7 8 8 9 9 10 10 11 2 12 1 13
REMARK SMILES IDX 16 14 17 15 13 16 14 17
REMARK H PARENT
REMARK Flexibility Score: inf
ROOT
ATOM      1  C   UNL     1       8.577 -15.505   5.951  1.00  0.00     0.165 A 
ATOM      2  C   UNL     1       8.214 -15.969   7.247  1.00  0.00     0.207 A 
ATOM      3  C   UNL     1       9.229 -16.429   8.133  1.00  0.00     0.208 A 
ATOM      4  C   UNL     1      10.568 -16.419   7.721  1.00  0.00     0.184 A 
ATOM      5  C   UNL     1      10.919 -15.959   6.439  1.00  0.00     0.025 A 
ATOM      6  C   UNL     1       9.930 -15.508   5.565  1.00  0.00     0.062 A 
ATOM      7  C   UNL     1      12.268 -15.967   6.068  1.00  0.00     0.020 A 
ATOM      8  C   UNL     1      13.224 -16.426   6.972  1.00  0.00     0.094 A 
ATOM      9  C   UNL     1      12.807 -16.870   8.229  1.00  0.00     0.336 A 
ATOM     10  O   UNL     1      13.652 -17.289   9.061  1.00  0.00    -0.246 OA
ATOM     11  O   UNL     1      11.517 -16.850   8.553  1.00  0.00    -0.419 OA
ENDROOT
BRANCH   1  12
ATOM     12  O   UNL     1       7.586 -15.048   5.066  1.00  0.00    -0.493 OA
ATOM     13  C   UNL     1       7.084 -13.716   5.012  1.00  0.00     0.278 C 
ENDBRANCH   1  12
BRANCH   2  14
ATOM     14  O   UNL     1       6.879 -15.993   7.695  1.00  0.00    -0.490 OA
ATOM     15  C   UNL     1       6.174 -14.955   8.367  1.00  0.00     0.278 C 
ENDBRANCH   2  14
BRANCH   3  16
ATOM     16  O   UNL     1       8.980 -16.908   9.435  1.00  0.00    -0.490 OA
ATOM     17  C   UNL     1       8.871 -16.136  10.625  1.00  0.00     0.278 C 
ENDBRANCH   3  16
TORSDOF 3
ENDMDL
MODEL 5
REMARK VINA RESULT:    -4.890      1.421      4.814
REMARK INTER + INTRA:          -6.054
REMARK INTER:                  -5.776
REMARK INTRA:                  -0.278
REMARK UNBOUND:                -0.306
REMARK SMILES COc1cc2ccc(=O)oc2c(OC)c1OC
REMARK SMILES IDX 3 1 15 2 12 3 11 4 5 5 4 6 6 7 7 8 8 9 9 10 10 11 2 12 1 13
REMARK SMILES IDX 16 14 17 15 13 16 14 17
REMARK H PARENT
REMARK Flexibility Score: inf
ROOT
ATOM      1  C   UNL     1       6.292 -15.183   7.295  1.00  0.00     0.165 A 
ATOM      2  C   UNL     1       6.586 -15.995   8.428  1.00  0.00     0.207 A 
ATOM      3  C   UNL     1       7.877 -16.584   8.548  1.00  0.00     0.208 A 
ATOM      4  C   UNL     1       8.838 -16.360   7.554  1.00  0.00     0.184 A 
ATOM      5  C   UNL     1       8.540 -15.557   6.437  1.00  0.00     0.025 A 
ATOM      6  C   UNL     1       7.278 -14.977   6.313  1.00  0.00     0.062 A 
ATOM      7  C   UNL     1       9.529 -15.360   5.468  1.00  0.00     0.020 A 
ATOM      8  C   UNL     1      10.778 -15.958   5.631  1.00  0.00     0.094 A 
ATOM      9  C   UNL     1      11.007 -16.744   6.763  1.00  0.00     0.336 A 
ATOM     10  O   UNL     1      12.126 -17.294   6.932  1.00  0.00    -0.246 OA
ATOM     11  O   UNL     1      10.046 -16.913   7.668  1.00  0.00    -0.419 OA
ENDROOT
BRANCH   1  12
ATOM     12  O   UNL     1       5.023 -14.595   7.164  1.00  0.00    -0.493 OA
ATOM     13  C   UNL     1       3.859 -15.254   6.675  1.00  0.00     0.278 C 
ENDBRANCH   1  12
BRANCH   2  14
ATOM     14  O   UNL     1       5.646 -16.241   9.446  1.00  0.00    -0.490 OA
ATOM     15  C   UNL     1       5.346 -15.413  10.565  1.00  0.00     0.278 C 
ENDBRANCH   2  14
BRANCH   3  16
ATOM     16  O   UNL     1       8.273 -17.402   9.625  1.00  0.00    -0.490 OA
ATOM     17  C   UNL     1       8.771 -16.973  10.887  1.00  0.00     0.278 C 
ENDBRANCH   3  16
TORSDOF 3
ENDMDL
MODEL 6
REMARK VINA RESULT:    -4.822      2.990      4.579
REMARK INTER + INTRA:          -5.974
REMARK INTER:                  -5.669
REMARK INTRA:                  -0.305
REMARK UNBOUND:                -0.306
REMARK SMILES COc1cc2ccc(=O)oc2c(OC)c1OC
REMARK SMILES IDX 3 1 15 2 12 3 11 4 5 5 4 6 6 7 7 8 8 9 9 10 10 11 2 12 1 13
REMARK SMILES IDX 16 14 17 15 13 16 14 17
REMARK H PARENT
REMARK Flexibility Score: inf
ROOT
ATOM      1  C   UNL     1       5.965 -14.345   7.324  1.00  0.00     0.165 A 
ATOM      2  C   UNL     1       6.588 -15.274   8.207  1.00  0.00     0.207 A 
ATOM      3  C   UNL     1       5.790 -15.984   9.147  1.00  0.00     0.208 A 
ATOM      4  C   UNL     1       4.408 -15.763   9.194  1.00  0.00     0.184 A 
ATOM      5  C   UNL     1       3.800 -14.845   8.319  1.00  0.00     0.025 A 
ATOM      6  C   UNL     1       4.574 -14.145   7.395  1.00  0.00     0.062 A 
ATOM      7  C   UNL     1       2.416 -14.654   8.400  1.00  0.00     0.020 A 
ATOM      8  C   UNL     1       1.679 -15.374   9.338  1.00  0.00     0.094 A 
ATOM      9  C   UNL     1       2.346 -16.270  10.177  1.00  0.00     0.336 A 
ATOM     10  O   UNL     1       1.702 -16.931  11.032  1.00  0.00    -0.246 OA
ATOM     11  O   UNL     1       3.663 -16.430  10.077  1.00  0.00    -0.419 OA
ENDROOT
BRANCH   1  12
ATOM     12  O   UNL     1       6.739 -13.638   6.390  1.00  0.00    -0.493 OA
ATOM     13  C   UNL     1       7.003 -14.057   5.054  1.00  0.00     0.278 C 
ENDBRANCH   1  12
BRANCH   2  14
ATOM     14  O   UNL     1       7.974 -15.521   8.188  1.00  0.00    -0.490 OA
ATOM     15  C   UNL     1       8.666 -16.505   7.426  1.00  0.00     0.278 C 
ENDBRANCH   2  14
BRANCH   3  16
ATOM     16  O   UNL     1       6.304 -16.923  10.065  1.00  0.00    -0.490 OA
ATOM     17  C   UNL     1       6.937 -16.647  11.308  1.00  0.00     0.278 C 
ENDBRANCH   3  16
TORSDOF 3
ENDMDL
MODEL 7
REMARK VINA RESULT:    -4.766      1.551      2.286
REMARK INTER + INTRA:          -5.908
REMARK INTER:                  -5.614
REMARK INTRA:                  -0.294
REMARK UNBOUND:                -0.306
REMARK SMILES COc1cc2ccc(=O)oc2c(OC)c1OC
REMARK SMILES IDX 3 1 15 2 12 3 11 4 5 5 4 6 6 7 7 8 8 9 9 10 10 11 2 12 1 13
REMARK SMILES IDX 16 14 17 15 13 16 14 17
REMARK H PARENT
REMARK Flexibility Score: inf
ROOT
ATOM      1  C   UNL     1      12.200 -16.799   7.339  1.00  0.00     0.165 A 
ATOM      2  C   UNL     1      11.511 -17.052   8.560  1.00  0.00     0.207 A 
ATOM      3  C   UNL     1      10.126 -16.737   8.657  1.00  0.00     0.208 A 
ATOM      4  C   UNL     1       9.460 -16.184   7.555  1.00  0.00     0.184 A 
ATOM      5  C   UNL     1      10.147 -15.937   6.353  1.00  0.00     0.025 A 
ATOM      6  C   UNL     1      11.504 -16.243   6.250  1.00  0.00     0.062 A 
ATOM      7  C   UNL     1       9.444 -15.384   5.278  1.00  0.00     0.020 A 
ATOM      8  C   UNL     1       8.088 -15.093   5.423  1.00  0.00     0.094 A 
ATOM      9  C   UNL     1       7.467 -15.363   6.645  1.00  0.00     0.336 A 
ATOM     10  O   UNL     1       6.245 -15.109   6.800  1.00  0.00    -0.246 OA
ATOM     11  O   UNL     1       8.163 -15.890   7.649  1.00  0.00    -0.419 OA
ENDROOT
BRANCH   1  12
ATOM     12  O   UNL     1      13.566 -17.106   7.229  1.00  0.00    -0.493 OA
ATOM     13  C   UNL     1      14.625 -16.152   7.225  1.00  0.00     0.278 C 
ENDBRANCH   1  12
BRANCH   2  14
ATOM     14  O   UNL     1      12.148 -17.606   9.687  1.00  0.00    -0.490 OA
ATOM     15  C   UNL     1      12.818 -16.908  10.731  1.00  0.00     0.278 C 
ENDBRANCH   2  14
BRANCH   3  16
ATOM     16  O   UNL     1       9.350 -16.946   9.815  1.00  0.00    -0.490 OA
ATOM     17  C   UNL     1       8.790 -18.176  10.260  1.00  0.00     0.278 C 
ENDBRANCH   3  16
TORSDOF 3
ENDMDL
MODEL 8
REMARK VINA RESULT:    -4.734      1.462      3.376
REMARK INTER + INTRA:          -5.870
REMARK INTER:                  -5.557
REMARK INTRA:                  -0.313
REMARK UNBOUND:                -0.306
REMARK SMILES COc1cc2ccc(=O)oc2c(OC)c1OC
REMARK SMILES IDX 3 1 15 2 12 3 11 4 5 5 4 6 6 7 7 8 8 9 9 10 10 11 2 12 1 13
REMARK SMILES IDX 16 14 17 15 13 16 14 17
REMARK H PARENT
REMARK Flexibility Score: inf
ROOT
ATOM      1  C   UNL     1       9.020 -16.747   8.435  1.00  0.00     0.165 A 
ATOM      2  C   UNL     1       8.933 -16.191   7.126  1.00  0.00     0.207 A 
ATOM      3  C   UNL     1       7.744 -15.512   6.734  1.00  0.00     0.208 A 
ATOM      4  C   UNL     1       6.678 -15.399   7.637  1.00  0.00     0.184 A 
ATOM      5  C   UNL     1       6.772 -15.951   8.928  1.00  0.00     0.025 A 
ATOM      6  C   UNL     1       7.933 -16.617   9.318  1.00  0.00     0.062 A 
ATOM      7  C   UNL     1       5.684 -15.814   9.797  1.00  0.00     0.020 A 
ATOM      8  C   UNL     1       4.543 -15.141   9.366  1.00  0.00     0.094 A 
ATOM      9  C   UNL     1       4.516 -14.618   8.071  1.00  0.00     0.336 A 
ATOM     10  O   UNL     1       3.497 -14.005   7.660  1.00  0.00    -0.246 OA
ATOM     11  O   UNL     1       5.567 -14.763   7.267  1.00  0.00    -0.419 OA
ENDROOT
BRANCH   1  12
ATOM     12  O   UNL     1      10.186 -17.419   8.835  1.00  0.00    -0.493 OA
ATOM     13  C   UNL     1      11.271 -16.830   9.546  1.00  0.00     0.278 C 
ENDBRANCH   1  12
BRANCH   2  14
ATOM     14  O   UNL     1       9.983 -16.286   6.193  1.00  0.00    -0.490 OA
ATOM     15  C   UNL     1      11.117 -15.432   6.080  1.00  0.00     0.278 C 
ENDBRANCH   2  14
BRANCH   3  16
ATOM     16  O   UNL     1       7.553 -14.927   5.466  1.00  0.00    -0.490 OA
ATOM     17  C   UNL     1       7.978 -13.635   5.047  1.00  0.00     0.278 C 
ENDBRANCH   3  16
TORSDOF 3
ENDMDL
