MODEL 1
REMARK VINA RESULT:    -4.350      0.000      0.000
REMARK INTER + INTRA:          -4.477
REMARK INTER:                  -4.477
REMARK INTRA:                   0.000
REMARK UNBOUND:                 0.000
REMARK SMILES Oc1ccc2[nH]ccc2c1
REMARK SMILES IDX 3 1 4 2 5 3 9 4 8 5 7 6 6 7 10 8 2 9 1 11
REMARK H PARENT 6 10 1 12
REMARK Flexibility Score: inf
ROOT
ATOM      1  C   UNL     1     100.391 130.829 129.310  1.00  0.00     0.048 A 
ATOM      2  C   UNL     1     101.227 130.568 128.209  1.00  0.00     0.030 A 
ATOM      3  C   UNL     1     102.586 130.376 128.455  1.00  0.00     0.046 A 
ATOM      4  C   UNL     1     103.103 130.435 129.721  1.00  0.00     0.003 A 
ATOM      5  C   UNL     1     104.458 130.204 129.624  1.00  0.00     0.028 A 
ATOM      6  C   UNL     1     104.698 130.011 128.267  1.00  0.00     0.083 A 
ATOM      7  N   UNL     1     103.551 130.117 127.557  1.00  0.00    -0.361 N 
ATOM      8  C   UNL     1     102.303 130.692 130.832  1.00  0.00     0.056 A 
ATOM      9  C   UNL     1     100.923 130.891 130.619  1.00  0.00     0.116 A 
ATOM     10  H   UNL     1     103.442 130.018 126.523  1.00  0.00     0.166 HD
ENDROOT
BRANCH   9  11
ATOM     11  O   UNL     1     100.074 131.151 131.691  1.00  0.00    -0.508 OA
ATOM     12  H   UNL     1      99.210 131.668 131.568  1.00  0.00     0.293 HD
ENDBRANCH   9  11
TORSDOF 1
ENDMDL
MODEL 2
REMARK VINA RESULT:    -4.348      2.709      4.047
REMARK INTER + INTRA:          -4.475
REMARK INTER:                  -4.475
REMARK INTRA:                   0.000
REMARK UNBOUND:                 0.000
REMARK SMILES Oc1ccc2[nH]ccc2c1
REMARK SMILES IDX 3 1 4 2 5 3 9 4 8 5 7 6 6 7 10 8 2 9 1 11
REMARK H PARENT 6 10 1 12
REMARK Flexibility Score: inf
ROOT
ATOM      1  C   UNL     1     103.608 131.553 132.015  1.00  0.00     0.048 A 
ATOM      2  C   UNL     1     102.230 131.601 132.292  1.00  0.00     0.030 A 
ATOM      3  C   UNL     1     101.362 130.994 131.385  1.00  0.00     0.046 A 
ATOM      4  C   UNL     1     101.823 130.366 130.259  1.00  0.00     0.003 A 
ATOM      5  C   UNL     1     100.727 129.875 129.583  1.00  0.00     0.028 A 
ATOM      6  C   UNL     1      99.630 130.240 130.356  1.00  0.00     0.083 A 
ATOM      7  N   UNL     1     100.023 130.924 131.456  1.00  0.00    -0.361 N 
ATOM      8  C   UNL     1     103.181 130.301 129.955  1.00  0.00     0.056 A 
ATOM      9  C   UNL     1     104.087 130.906 130.852  1.00  0.00     0.116 A 
ATOM     10  H   UNL     1      99.409 131.315 132.204  1.00  0.00     0.166 HD
ENDROOT
BRANCH   9  11
ATOM     11  O   UNL     1     105.457 130.873 130.601  1.00  0.00    -0.508 OA
ATOM     12  H   UNL     1     105.838 130.358 129.816  1.00  0.00     0.293 HD
ENDBRANCH   9  11
TORSDOF 1
ENDMDL
MODEL 3
REMARK VINA RESULT:    -4.276      5.230      6.039
REMARK INTER + INTRA:          -4.401
REMARK INTER:                  -4.401
REMARK INTRA:                   0.000
REMARK UNBOUND:                 0.000
REMARK SMILES Oc1ccc2[nH]ccc2c1
REMARK SMILES IDX 3 1 4 2 5 3 9 4 8 5 7 6 6 7 10 8 2 9 1 11
REMARK H PARENT 6 10 1 12
REMARK Flexibility Score: inf
ROOT
ATOM      1  C   UNL     1     101.010 135.899 125.460  1.00  0.00     0.048 A 
ATOM      2  C   UNL     1     102.237 135.214 125.544  1.00  0.00     0.030 A 
ATOM      3  C   UNL     1     102.237 133.846 125.279  1.00  0.00     0.046 A 
ATOM      4  C   UNL     1     101.090 133.177 124.945  1.00  0.00     0.003 A 
ATOM      5  C   UNL     1     101.425 131.856 124.748  1.00  0.00     0.028 A 
ATOM      6  C   UNL     1     102.796 131.790 124.978  1.00  0.00     0.083 A 
ATOM      7  N   UNL     1     103.287 133.009 125.302  1.00  0.00    -0.361 N 
ATOM      8  C   UNL     1      99.860 133.825 124.854  1.00  0.00     0.056 A 
ATOM      9  C   UNL     1      99.823 135.210 125.116  1.00  0.00     0.116 A 
ATOM     10  H   UNL     1     104.279 133.246 125.525  1.00  0.00     0.166 HD
ENDROOT
BRANCH   9  11
ATOM     11  O   UNL     1      98.623 135.912 125.041  1.00  0.00    -0.508 OA
ATOM     12  H   UNL     1      97.888 135.634 124.401  1.00  0.00     0.293 HD
ENDBRANCH   9  11
TORSDOF 1
ENDMDL
MODEL 4
REMARK VINA RESULT:    -4.243      1.136      2.433
REMARK INTER + INTRA:          -4.367
REMARK INTER:                  -4.367
REMARK INTRA:                   0.000
REMARK UNBOUND:                 0.000
REMARK SMILES Oc1ccc2[nH]ccc2c1
REMARK SMILES IDX 3 1 4 2 5 3 9 4 8 5 7 6 6 7 10 8 2 9 1 11
REMARK H PARENT 6 10 1 12
REMARK Flexibility Score: inf
ROOT
ATOM      1  C   UNL     1     102.131 130.359 130.381  1.00  0.00     0.048 A 
ATOM      2  C   UNL     1     103.002 130.201 129.288  1.00  0.00     0.030 A 
ATOM      3  C   UNL     1     102.541 130.577 128.028  1.00  0.00     0.046 A 
ATOM      4  C   UNL     1     101.283 131.088 127.845  1.00  0.00     0.003 A 
ATOM      5  C   UNL     1     101.139 131.357 126.502  1.00  0.00     0.028 A 
ATOM      6  C   UNL     1     102.349 130.986 125.924  1.00  0.00     0.083 A 
ATOM      7  N   UNL     1     103.202 130.511 126.861  1.00  0.00    -0.361 N 
ATOM      8  C   UNL     1     100.396 131.257 128.906  1.00  0.00     0.056 A 
ATOM      9  C   UNL     1     100.831 130.886 130.195  1.00  0.00     0.116 A 
ATOM     10  H   UNL     1     104.174 130.163 126.705  1.00  0.00     0.166 HD
ENDROOT
BRANCH   9  11
ATOM     11  O   UNL     1      99.988 131.032 131.294  1.00  0.00    -0.508 OA
ATOM     12  H   UNL     1     100.339 131.348 132.191  1.00  0.00     0.293 HD
ENDBRANCH   9  11
TORSDOF 1
ENDMDL
MODEL 5
REMARK VINA RESULT:    -4.160      5.868      6.724
REMARK INTER + INTRA:          -4.281
REMARK INTER:                  -4.281
REMARK INTRA:                   0.000
REMARK UNBOUND:                 0.000
REMARK SMILES Oc1ccc2[nH]ccc2c1
REMARK SMILES IDX 3 1 4 2 5 3 9 4 8 5 7 6 6 7 10 8 2 9 1 11
REMARK H PARENT 6 10 1 12
REMARK Flexibility Score: inf
ROOT
ATOM      1  C   UNL     1     101.741 135.811 124.344  1.00  0.00     0.048 A 
ATOM      2  C   UNL     1     101.492 134.999 123.222  1.00  0.00     0.030 A 
ATOM      3  C   UNL     1     100.909 133.752 123.438  1.00  0.00     0.046 A 
ATOM      4  C   UNL     1     100.583 133.318 124.695  1.00  0.00     0.003 A 
ATOM      5  C   UNL     1     100.031 132.062 124.568  1.00  0.00     0.028 A 
ATOM      6  C   UNL     1     100.052 131.792 123.203  1.00  0.00     0.083 A 
ATOM      7  N   UNL     1     100.590 132.828 122.517  1.00  0.00    -0.361 N 
ATOM      8  C   UNL     1     100.816 134.097 125.826  1.00  0.00     0.056 A 
ATOM      9  C   UNL     1     101.405 135.365 125.644  1.00  0.00     0.116 A 
ATOM     10  H   UNL     1     100.727 132.892 121.484  1.00  0.00     0.166 HD
ENDROOT
BRANCH   9  11
ATOM     11  O   UNL     1     101.662 136.189 126.737  1.00  0.00    -0.508 OA
ATOM     12  H   UNL     1     100.985 136.304 127.483  1.00  0.00     0.293 HD
ENDBRANCH   9  11
TORSDOF 1
ENDMDL
MODEL 6
REMARK VINA RESULT:    -4.152      5.731      6.743
REMARK INTER + INTRA:          -4.273
REMARK INTER:                  -4.273
REMARK INTRA:                   0.000
REMARK UNBOUND:                 0.000
REMARK SMILES Oc1ccc2[nH]ccc2c1
REMARK SMILES IDX 3 1 4 2 5 3 9 4 8 5 7 6 6 7 10 8 2 9 1 11
REMARK H PARENT 6 10 1 12
REMARK Flexibility Score: inf
ROOT
ATOM      1  C   UNL     1     101.469 132.071 124.666  1.00  0.00     0.048 A 
ATOM      2  C   UNL     1     100.131 132.493 124.564  1.00  0.00     0.030 A 
ATOM      3  C   UNL     1      99.848 133.830 124.839  1.00  0.00     0.046 A 
ATOM      4  C   UNL     1     100.831 134.715 125.197  1.00  0.00     0.003 A 
ATOM      5  C   UNL     1     100.230 135.939 125.397  1.00  0.00     0.028 A 
ATOM      6  C   UNL     1      98.879 135.727 125.142  1.00  0.00     0.083 A 
ATOM      7  N   UNL     1      98.651 134.437 124.802  1.00  0.00    -0.361 N 
ATOM      8  C   UNL     1     102.164 134.329 125.308  1.00  0.00     0.056 A 
ATOM      9  C   UNL     1     102.486 132.982 125.036  1.00  0.00     0.116 A 
ATOM     10  H   UNL     1      97.731 134.005 124.561  1.00  0.00     0.166 HD
ENDROOT
BRANCH   9  11
ATOM     11  O   UNL     1     103.802 132.538 125.130  1.00  0.00    -0.508 OA
ATOM     12  H   UNL     1     104.025 131.620 125.499  1.00  0.00     0.293 HD
ENDBRANCH   9  11
TORSDOF 1
ENDMDL
MODEL 7
REMARK VINA RESULT:    -4.143     12.192     13.253
REMARK INTER + INTRA:          -4.264
REMARK INTER:                  -4.264
REMARK INTRA:                   0.000
REMARK UNBOUND:                 0.000
REMARK SMILES Oc1ccc2[nH]ccc2c1
REMARK SMILES IDX 3 1 4 2 5 3 9 4 8 5 7 6 6 7 10 8 2 9 1 11
REMARK H PARENT 6 10 1 12
REMARK Flexibility Score: inf
ROOT
ATOM      1  C   UNL     1      97.988 141.738 133.972  1.00  0.00     0.048 A 
ATOM      2  C   UNL     1      98.039 140.338 134.111  1.00  0.00     0.030 A 
ATOM      3  C   UNL     1      97.150 139.740 135.002  1.00  0.00     0.046 A 
ATOM      4  C   UNL     1      96.250 140.478 135.725  1.00  0.00     0.003 A 
ATOM      5  C   UNL     1      95.527 139.600 136.502  1.00  0.00     0.028 A 
ATOM      6  C   UNL     1      96.039 138.341 136.202  1.00  0.00     0.083 A 
ATOM      7  N   UNL     1      97.030 138.433 135.285  1.00  0.00    -0.361 N 
ATOM      8  C   UNL     1      96.174 141.864 135.612  1.00  0.00     0.056 A 
ATOM      9  C   UNL     1      97.060 142.502 134.718  1.00  0.00     0.116 A 
ATOM     10  H   UNL     1      97.586 137.646 134.882  1.00  0.00     0.166 HD
ENDROOT
BRANCH   9  11
ATOM     11  O   UNL     1      97.031 143.885 134.562  1.00  0.00    -0.508 OA
ATOM     12  H   UNL     1      97.347 144.328 133.706  1.00  0.00     0.293 HD
ENDBRANCH   9  11
TORSDOF 1
ENDMDL
MODEL 8
REMARK VINA RESULT:    -4.097     12.484     13.744
REMARK INTER + INTRA:          -4.217
REMARK INTER:                  -4.217
REMARK INTRA:                   0.000
REMARK UNBOUND:                 0.000
REMARK SMILES Oc1ccc2[nH]ccc2c1
REMARK SMILES IDX 3 1 4 2 5 3 9 4 8 5 7 6 6 7 10 8 2 9 1 11
REMARK H PARENT 6 10 1 12
REMARK Flexibility Score: inf
ROOT
ATOM      1  C   UNL     1      98.010 139.971 134.286  1.00  0.00     0.048 A 
ATOM      2  C   UNL     1      97.983 141.301 133.827  1.00  0.00     0.030 A 
ATOM      3  C   UNL     1      97.076 142.176 134.422  1.00  0.00     0.046 A 
ATOM      4  C   UNL     1      96.234 141.770 135.423  1.00  0.00     0.003 A 
ATOM      5  C   UNL     1      95.476 142.860 135.791  1.00  0.00     0.028 A 
ATOM      6  C   UNL     1      95.909 143.898 134.972  1.00  0.00     0.083 A 
ATOM      7  N   UNL     1      96.887 143.475 134.138  1.00  0.00    -0.361 N 
ATOM      8  C   UNL     1      96.235 140.461 135.900  1.00  0.00     0.056 A 
ATOM      9  C   UNL     1      97.140 139.548 135.319  1.00  0.00     0.116 A 
ATOM     10  H   UNL     1      97.389 144.045 133.421  1.00  0.00     0.166 HD
ENDROOT
BRANCH   9  11
ATOM     11  O   UNL     1      97.187 138.227 135.755  1.00  0.00    -0.508 OA
ATOM     12  H   UNL     1      96.685 137.924 136.581  1.00  0.00     0.293 HD
ENDBRANCH   9  11
TORSDOF 1
ENDMDL
MODEL 9
REMARK VINA RESULT:    -4.087      2.646      4.113
REMARK INTER + INTRA:          -4.206
REMARK INTER:                  -4.206
REMARK INTRA:                   0.000
REMARK UNBOUND:                 0.000
REMARK SMILES Oc1ccc2[nH]ccc2c1
REMARK SMILES IDX 3 1 4 2 5 3 9 4 8 5 7 6 6 7 10 8 2 9 1 11
REMARK H PARENT 6 10 1 12
REMARK Flexibility Score: inf
ROOT
ATOM      1  C   UNL     1     104.083 130.264 130.123  1.00  0.00     0.048 A 
ATOM      2  C   UNL     1     103.222 130.218 131.235  1.00  0.00     0.030 A 
ATOM      3  C   UNL     1     101.850 130.162 130.993  1.00  0.00     0.046 A 
ATOM      4  C   UNL     1     101.343 130.149 129.721  1.00  0.00     0.003 A 
ATOM      5  C   UNL     1      99.971 130.090 129.825  1.00  0.00     0.028 A 
ATOM      6  C   UNL     1      99.710 130.068 131.192  1.00  0.00     0.083 A 
ATOM      7  N   UNL     1     100.861 130.112 131.901  1.00  0.00    -0.361 N 
ATOM      8  C   UNL     1     102.168 130.195 128.599  1.00  0.00     0.056 A 
ATOM      9  C   UNL     1     103.562 130.252 128.807  1.00  0.00     0.116 A 
ATOM     10  H   UNL     1     100.958 130.108 132.941  1.00  0.00     0.166 HD
ENDROOT
BRANCH   9  11
ATOM     11  O   UNL     1     104.436 130.299 127.725  1.00  0.00    -0.508 OA
ATOM     12  H   UNL     1     104.143 130.661 126.824  1.00  0.00     0.293 HD
ENDBRANCH   9  11
TORSDOF 1
ENDMDL
