MODEL 1
REMARK VINA RESULT:    -4.265      0.000      0.000
REMARK INTER + INTRA:          -4.874
REMARK INTER:                  -4.639
REMARK INTRA:                  -0.235
REMARK UNBOUND:                -0.235
REMARK SMILES O=C([O-])c1ccccc1O
REMARK SMILES IDX 4 1 9 2 5 3 8 4 6 5 7 6 2 7 1 8 3 9 10 10
REMARK H PARENT 10 11
REMARK Flexibility Score: inf
ROOT
ATOM      1  C   UNL     1      27.732 -52.318  -9.835  1.00  0.00     0.039 A 
ATOM      2  C   UNL     1      27.459 -53.627 -10.300  1.00  0.00     0.124 A 
ATOM      3  C   UNL     1      28.955 -51.714 -10.187  1.00  0.00     0.014 A 
ATOM      4  C   UNL     1      28.400 -54.297 -11.096  1.00  0.00     0.047 A 
ATOM      5  C   UNL     1      29.883 -52.392 -10.980  1.00  0.00     0.001 A 
ATOM      6  C   UNL     1      29.607 -53.682 -11.434  1.00  0.00     0.004 A 
ENDROOT
BRANCH   1   7
ATOM      7  C   UNL     1      26.769 -51.567  -8.990  1.00  0.00     0.075 C 
ATOM      8  O   UNL     1      27.093 -51.154  -7.845  1.00  0.00    -0.545 OA
ATOM      9  O   UNL     1      25.485 -51.305  -9.454  1.00  0.00    -0.545 OA
ENDBRANCH   1   7
BRANCH   2  10
ATOM     10  O   UNL     1      26.261 -54.264  -9.975  1.00  0.00    -0.507 OA
ATOM     11  H   UNL     1      25.365 -53.804 -10.091  1.00  0.00     0.293 HD
ENDBRANCH   2  10
TORSDOF 2
ENDMDL
MODEL 2
REMARK VINA RESULT:    -4.258      1.961      3.785
REMARK INTER + INTRA:          -4.867
REMARK INTER:                  -4.629
REMARK INTRA:                  -0.237
REMARK UNBOUND:                -0.235
REMARK SMILES O=C([O-])c1ccccc1O
REMARK SMILES IDX 4 1 9 2 5 3 8 4 6 5 7 6 2 7 1 8 3 9 10 10
REMARK H PARENT 10 11
REMARK Flexibility Score: inf
ROOT
ATOM      1  C   UNL     1      28.454 -54.223 -10.867  1.00  0.00     0.039 A 
ATOM      2  C   UNL     1      27.371 -53.947  -9.999  1.00  0.00     0.124 A 
ATOM      3  C   UNL     1      29.163 -53.145 -11.432  1.00  0.00     0.014 A 
ATOM      4  C   UNL     1      27.022 -52.617  -9.716  1.00  0.00     0.047 A 
ATOM      5  C   UNL     1      28.807 -51.826 -11.141  1.00  0.00     0.001 A 
ATOM      6  C   UNL     1      27.738 -51.562 -10.285  1.00  0.00     0.004 A 
ENDROOT
BRANCH   1   7
ATOM      7  C   UNL     1      28.863 -55.612 -11.198  1.00  0.00     0.075 C 
ATOM      8  O   UNL     1      28.058 -56.413 -11.744  1.00  0.00    -0.545 OA
ATOM      9  O   UNL     1      30.150 -56.052 -10.910  1.00  0.00    -0.545 OA
ENDBRANCH   1   7
BRANCH   2  10
ATOM     10  O   UNL     1      26.640 -54.984  -9.419  1.00  0.00    -0.507 OA
ATOM     11  H   UNL     1      26.056 -55.600  -9.974  1.00  0.00     0.293 HD
ENDBRANCH   2  10
TORSDOF 2
ENDMDL
MODEL 3
REMARK VINA RESULT:    -4.161      1.855      3.187
REMARK INTER + INTRA:          -4.760
REMARK INTER:                  -4.537
REMARK INTRA:                  -0.224
REMARK UNBOUND:                -0.235
REMARK SMILES O=C([O-])c1ccccc1O
REMARK SMILES IDX 4 1 9 2 5 3 8 4 6 5 7 6 2 7 1 8 3 9 10 10
REMARK H PARENT 10 11
REMARK Flexibility Score: inf
ROOT
ATOM      1  C   UNL     1      27.768 -52.298  -9.803  1.00  0.00     0.039 A 
ATOM      2  C   UNL     1      29.050 -51.968 -10.304  1.00  0.00     0.124 A 
ATOM      3  C   UNL     1      27.433 -51.914  -8.491  1.00  0.00     0.014 A 
ATOM      4  C   UNL     1      29.960 -51.271  -9.494  1.00  0.00     0.047 A 
ATOM      5  C   UNL     1      28.347 -51.219  -7.695  1.00  0.00     0.001 A 
ATOM      6  C   UNL     1      29.609 -50.899  -8.195  1.00  0.00     0.004 A 
ENDROOT
BRANCH   1   7
ATOM      7  C   UNL     1      26.770 -53.034 -10.620  1.00  0.00     0.075 C 
ATOM      8  O   UNL     1      26.992 -54.210 -11.012  1.00  0.00    -0.545 OA
ATOM      9  O   UNL     1      25.565 -52.432 -10.966  1.00  0.00    -0.545 OA
ENDBRANCH   1   7
BRANCH   2  10
ATOM     10  O   UNL     1      29.425 -52.330 -11.598  1.00  0.00    -0.507 OA
ATOM     11  H   UNL     1      30.399 -52.391 -11.873  1.00  0.00     0.293 HD
ENDBRANCH   2  10
TORSDOF 2
ENDMDL
MODEL 4
REMARK VINA RESULT:    -4.150      2.280      2.823
REMARK INTER + INTRA:          -4.748
REMARK INTER:                  -4.522
REMARK INTRA:                  -0.226
REMARK UNBOUND:                -0.235
REMARK SMILES O=C([O-])c1ccccc1O
REMARK SMILES IDX 4 1 9 2 5 3 8 4 6 5 7 6 2 7 1 8 3 9 10 10
REMARK H PARENT 10 11
REMARK Flexibility Score: inf
ROOT
ATOM      1  C   UNL     1      27.710 -51.228  -7.996  1.00  0.00     0.039 A 
ATOM      2  C   UNL     1      26.721 -51.125  -9.004  1.00  0.00     0.124 A 
ATOM      3  C   UNL     1      29.067 -51.172  -8.369  1.00  0.00     0.014 A 
ATOM      4  C   UNL     1      27.102 -50.969 -10.345  1.00  0.00     0.047 A 
ATOM      5  C   UNL     1      29.433 -51.016  -9.708  1.00  0.00     0.001 A 
ATOM      6  C   UNL     1      28.453 -50.915 -10.695  1.00  0.00     0.004 A 
ENDROOT
BRANCH   1   7
ATOM      7  C   UNL     1      27.358 -51.394  -6.563  1.00  0.00     0.075 C 
ATOM      8  O   UNL     1      28.126 -52.003  -5.772  1.00  0.00    -0.545 OA
ATOM      9  O   UNL     1      26.167 -50.875  -6.069  1.00  0.00    -0.545 OA
ENDBRANCH   1   7
BRANCH   2  10
ATOM     10  O   UNL     1      25.365 -51.177  -8.680  1.00  0.00    -0.507 OA
ATOM     11  H   UNL     1      25.011 -51.810  -7.971  1.00  0.00     0.293 HD
ENDBRANCH   2  10
TORSDOF 2
ENDMDL
MODEL 5
REMARK VINA RESULT:    -4.097      3.120      4.261
REMARK INTER + INTRA:          -4.691
REMARK INTER:                  -4.441
REMARK INTRA:                  -0.250
REMARK UNBOUND:                -0.235
REMARK SMILES O=C([O-])c1ccccc1O
REMARK SMILES IDX 4 1 9 2 5 3 8 4 6 5 7 6 2 7 1 8 3 9 10 10
REMARK H PARENT 10 11
REMARK Flexibility Score: inf
ROOT
ATOM      1  C   UNL     1      28.074 -54.890 -10.808  1.00  0.00     0.039 A 
ATOM      2  C   UNL     1      29.080 -54.082 -11.391  1.00  0.00     0.124 A 
ATOM      3  C   UNL     1      27.097 -54.279  -9.998  1.00  0.00     0.014 A 
ATOM      4  C   UNL     1      29.090 -52.699 -11.156  1.00  0.00     0.047 A 
ATOM      5  C   UNL     1      27.119 -52.900  -9.773  1.00  0.00     0.001 A 
ATOM      6  C   UNL     1      28.113 -52.111 -10.350  1.00  0.00     0.004 A 
ENDROOT
BRANCH   1   7
ATOM      7  C   UNL     1      28.019 -56.358 -11.027  1.00  0.00     0.075 C 
ATOM      8  O   UNL     1      28.086 -56.845 -12.186  1.00  0.00    -0.545 OA
ATOM      9  O   UNL     1      27.893 -57.223  -9.946  1.00  0.00    -0.545 OA
ENDBRANCH   1   7
BRANCH   2  10
ATOM     10  O   UNL     1      30.068 -54.646 -12.199  1.00  0.00    -0.507 OA
ATOM     11  H   UNL     1      30.858 -54.103 -12.531  1.00  0.00     0.293 HD
ENDBRANCH   2  10
TORSDOF 2
ENDMDL
MODEL 6
REMARK VINA RESULT:    -4.080      1.544      2.203
REMARK INTER + INTRA:          -4.673
REMARK INTER:                  -4.433
REMARK INTRA:                  -0.240
REMARK UNBOUND:                -0.235
REMARK SMILES O=C([O-])c1ccccc1O
REMARK SMILES IDX 4 1 9 2 5 3 8 4 6 5 7 6 2 7 1 8 3 9 10 10
REMARK H PARENT 10 11
REMARK Flexibility Score: inf
ROOT
ATOM      1  C   UNL     1      28.333 -53.326 -10.857  1.00  0.00     0.039 A 
ATOM      2  C   UNL     1      27.583 -54.443 -10.416  1.00  0.00     0.124 A 
ATOM      3  C   UNL     1      29.629 -53.538 -11.365  1.00  0.00     0.014 A 
ATOM      4  C   UNL     1      28.135 -55.731 -10.492  1.00  0.00     0.047 A 
ATOM      5  C   UNL     1      30.167 -54.825 -11.434  1.00  0.00     0.001 A 
ATOM      6  C   UNL     1      29.422 -55.920 -10.999  1.00  0.00     0.004 A 
ENDROOT
BRANCH   1   7
ATOM      7  C   UNL     1      27.794 -51.943 -10.798  1.00  0.00     0.075 C 
ATOM      8  O   UNL     1      26.579 -51.710 -11.030  1.00  0.00    -0.545 OA
ATOM      9  O   UNL     1      28.630 -50.878 -10.482  1.00  0.00    -0.545 OA
ENDBRANCH   1   7
BRANCH   2  10
ATOM     10  O   UNL     1      26.295 -54.280  -9.905  1.00  0.00    -0.507 OA
ATOM     11  H   UNL     1      25.702 -55.074  -9.692  1.00  0.00     0.293 HD
ENDBRANCH   2  10
TORSDOF 2
ENDMDL
MODEL 7
REMARK VINA RESULT:    -3.845      2.070      3.370
REMARK INTER + INTRA:          -4.417
REMARK INTER:                  -4.164
REMARK INTRA:                  -0.253
REMARK UNBOUND:                -0.235
REMARK SMILES O=C([O-])c1ccccc1O
REMARK SMILES IDX 4 1 9 2 5 3 8 4 6 5 7 6 2 7 1 8 3 9 10 10
REMARK H PARENT 10 11
REMARK Flexibility Score: inf
ROOT
ATOM      1  C   UNL     1      28.169 -54.595 -11.057  1.00  0.00     0.039 A 
ATOM      2  C   UNL     1      29.545 -54.269 -11.122  1.00  0.00     0.124 A 
ATOM      3  C   UNL     1      27.737 -55.823 -11.595  1.00  0.00     0.014 A 
ATOM      4  C   UNL     1      30.449 -55.163 -11.715  1.00  0.00     0.047 A 
ATOM      5  C   UNL     1      28.648 -56.705 -12.182  1.00  0.00     0.001 A 
ATOM      6  C   UNL     1      30.001 -56.376 -12.243  1.00  0.00     0.004 A 
ENDROOT
BRANCH   1   7
ATOM      7  C   UNL     1      27.173 -53.683 -10.440  1.00  0.00     0.075 C 
ATOM      8  O   UNL     1      26.120 -53.363 -11.052  1.00  0.00    -0.545 OA
ATOM      9  O   UNL     1      27.389 -53.166  -9.168  1.00  0.00    -0.545 OA
ENDBRANCH   1   7
BRANCH   2  10
ATOM     10  O   UNL     1      30.017 -53.063 -10.603  1.00  0.00    -0.507 OA
ATOM     11  H   UNL     1      29.451 -52.222 -10.610  1.00  0.00     0.293 HD
ENDBRANCH   2  10
TORSDOF 2
ENDMDL
MODEL 8
REMARK VINA RESULT:    -3.827      2.561      3.841
REMARK INTER + INTRA:          -4.398
REMARK INTER:                  -4.157
REMARK INTRA:                  -0.241
REMARK UNBOUND:                -0.235
REMARK SMILES O=C([O-])c1ccccc1O
REMARK SMILES IDX 4 1 9 2 5 3 8 4 6 5 7 6 2 7 1 8 3 9 10 10
REMARK H PARENT 10 11
REMARK Flexibility Score: inf
ROOT
ATOM      1  C   UNL     1      28.777 -51.521  -9.786  1.00  0.00     0.039 A 
ATOM      2  C   UNL     1      28.141 -51.492  -8.522  1.00  0.00     0.124 A 
ATOM      3  C   UNL     1      27.994 -51.355 -10.944  1.00  0.00     0.014 A 
ATOM      4  C   UNL     1      26.753 -51.300  -8.442  1.00  0.00     0.047 A 
ATOM      5  C   UNL     1      26.614 -51.164 -10.851  1.00  0.00     0.001 A 
ATOM      6  C   UNL     1      25.993 -51.137  -9.602  1.00  0.00     0.004 A 
ENDROOT
BRANCH   1   7
ATOM      7  C   UNL     1      30.243 -51.720  -9.924  1.00  0.00     0.075 C 
ATOM      8  O   UNL     1      31.048 -51.207  -9.103  1.00  0.00    -0.545 OA
ATOM      9  O   UNL     1      30.751 -52.483 -10.970  1.00  0.00    -0.545 OA
ENDBRANCH   1   7
BRANCH   2  10
ATOM     10  O   UNL     1      28.877 -51.653  -7.349  1.00  0.00    -0.507 OA
ATOM     11  H   UNL     1      29.555 -52.400  -7.243  1.00  0.00     0.293 HD
ENDBRANCH   2  10
TORSDOF 2
ENDMDL
MODEL 9
REMARK VINA RESULT:    -3.791      2.009      2.851
REMARK INTER + INTRA:          -4.358
REMARK INTER:                  -4.112
REMARK INTRA:                  -0.246
REMARK UNBOUND:                -0.235
REMARK SMILES O=C([O-])c1ccccc1O
REMARK SMILES IDX 4 1 9 2 5 3 8 4 6 5 7 6 2 7 1 8 3 9 10 10
REMARK H PARENT 10 11
REMARK Flexibility Score: inf
ROOT
ATOM      1  C   UNL     1      27.837 -53.505 -10.600  1.00  0.00     0.039 A 
ATOM      2  C   UNL     1      29.001 -53.792 -11.351  1.00  0.00     0.124 A 
ATOM      3  C   UNL     1      27.231 -54.541  -9.863  1.00  0.00     0.014 A 
ATOM      4  C   UNL     1      29.531 -55.092 -11.351  1.00  0.00     0.047 A 
ATOM      5  C   UNL     1      27.769 -55.830  -9.871  1.00  0.00     0.001 A 
ATOM      6  C   UNL     1      28.916 -56.106 -10.614  1.00  0.00     0.004 A 
ENDROOT
BRANCH   1   7
ATOM      7  C   UNL     1      27.237 -52.146 -10.567  1.00  0.00     0.075 C 
ATOM      8  O   UNL     1      25.988 -51.987 -10.555  1.00  0.00    -0.545 OA
ATOM      9  O   UNL     1      28.053 -51.021 -10.547  1.00  0.00    -0.545 OA
ENDBRANCH   1   7
BRANCH   2  10
ATOM     10  O   UNL     1      29.633 -52.797 -12.096  1.00  0.00    -0.507 OA
ATOM     11  H   UNL     1      29.400 -51.816 -11.981  1.00  0.00     0.293 HD
ENDBRANCH   2  10
TORSDOF 2
ENDMDL
