MODEL 1
REMARK VINA RESULT:    -3.723      0.000      0.000
REMARK INTER + INTRA:          -9.428
REMARK INTER:                  -6.989
REMARK INTRA:                  -2.440
REMARK UNBOUND:                -2.440
REMARK SMILES CCCCCCCCC=CCCCCCCCC(=O)[O-]
REMARK SMILES IDX 10 1 9 2 11 3 12 4 13 5 14 6 15 7 16 8 17 9 18 10 19 11
REMARK SMILES IDX 20 12 8 13 7 14 6 15 5 16 4 17 3 18 2 19 1 20
REMARK H PARENT
REMARK Flexibility Score: inf
ROOT
ATOM      1  C   UNL     1       7.736  -4.617  -6.207  1.00  0.00    -0.031 C 
ATOM      2  C   UNL     1       7.929  -5.813  -6.794  1.00  0.00    -0.031 C 
ENDROOT
BRANCH   1   3
ATOM      3  C   UNL     1       6.446  -3.839  -6.258  1.00  0.00     0.027 C 
BRANCH   3   4
ATOM      4  C   UNL     1       6.722  -2.330  -6.213  1.00  0.00     0.004 C 
BRANCH   4   5
ATOM      5  C   UNL     1       5.611  -1.500  -6.881  1.00  0.00     0.000 C 
BRANCH   5   6
ATOM      6  C   UNL     1       6.100  -0.238  -7.620  1.00  0.00     0.000 C 
BRANCH   6   7
ATOM      7  C   UNL     1       4.982   0.666  -8.176  1.00  0.00     0.000 C 
BRANCH   7   8
ATOM      8  C   UNL     1       4.559   0.361  -9.627  1.00  0.00     0.006 C 
BRANCH   8   9
ATOM      9  C   UNL     1       3.747   1.479 -10.300  1.00  0.00     0.053 C 
BRANCH   9  10
ATOM     10  C   UNL     1       3.964   1.512 -11.782  1.00  0.00     0.041 C 
ATOM     11  O   UNL     1       3.474   0.613 -12.515  1.00  0.00    -0.550 OA
ATOM     12  O   UNL     1       4.735   2.518 -12.349  1.00  0.00    -0.550 OA
ENDBRANCH   9  10
ENDBRANCH   8   9
ENDBRANCH   7   8
ENDBRANCH   6   7
ENDBRANCH   5   6
ENDBRANCH   4   5
ENDBRANCH   3   4
ENDBRANCH   1   3
BRANCH   2  13
ATOM     13  C   UNL     1       6.917  -6.513  -7.667  1.00  0.00     0.027 C 
BRANCH  13  14
ATOM     14  C   UNL     1       6.918  -5.964  -9.103  1.00  0.00     0.004 C 
BRANCH  14  15
ATOM     15  C   UNL     1       8.337  -5.620  -9.588  1.00  0.00     0.000 C 
BRANCH  15  16
ATOM     16  C   UNL     1       8.375  -4.336 -10.432  1.00  0.00     0.000 C 
BRANCH  16  17
ATOM     17  C   UNL     1       7.690  -3.148  -9.734  1.00  0.00    -0.000 C 
BRANCH  17  18
ATOM     18  C   UNL     1       6.750  -2.367 -10.670  1.00  0.00    -0.000 C 
BRANCH  18  19
ATOM     19  C   UNL     1       5.454  -3.107 -11.044  1.00  0.00    -0.003 C 
ATOM     20  C   UNL     1       4.554  -3.383  -9.840  1.00  0.00     0.004 C 
ENDBRANCH  18  19
ENDBRANCH  17  18
ENDBRANCH  16  17
ENDBRANCH  15  16
ENDBRANCH  14  15
ENDBRANCH  13  14
ENDBRANCH   2  13
TORSDOF 15
ENDMDL
MODEL 2
REMARK VINA RESULT:    -3.707      2.177      2.830
REMARK INTER + INTRA:          -9.398
REMARK INTER:                  -6.693
REMARK INTRA:                  -2.704
REMARK UNBOUND:                -2.440
REMARK SMILES CCCCCCCCC=CCCCCCCCC(=O)[O-]
REMARK SMILES IDX 10 1 9 2 11 3 12 4 13 5 14 6 15 7 16 8 17 9 18 10 19 11
REMARK SMILES IDX 20 12 8 13 7 14 6 15 5 16 4 17 3 18 2 19 1 20
REMARK H PARENT
REMARK Flexibility Score: inf
ROOT
ATOM      1  C   UNL     1       7.459  -4.016  -5.990  1.00  0.00    -0.031 C 
ATOM      2  C   UNL     1       7.671  -4.768  -7.086  1.00  0.00    -0.031 C 
ENDROOT
BRANCH   1   3
ATOM      3  C   UNL     1       6.183  -3.270  -5.698  1.00  0.00     0.027 C 
BRANCH   3   4
ATOM      4  C   UNL     1       6.415  -1.754  -5.758  1.00  0.00     0.004 C 
BRANCH   4   5
ATOM      5  C   UNL     1       5.912  -1.124  -7.068  1.00  0.00     0.000 C 
BRANCH   5   6
ATOM      6  C   UNL     1       4.579  -1.695  -7.592  1.00  0.00     0.000 C 
BRANCH   6   7
ATOM      7  C   UNL     1       3.821  -0.784  -8.578  1.00  0.00     0.000 C 
BRANCH   7   8
ATOM      8  C   UNL     1       4.608   0.452  -9.060  1.00  0.00     0.006 C 
BRANCH   8   9
ATOM      9  C   UNL     1       3.818   1.769  -9.001  1.00  0.00     0.053 C 
BRANCH   9  10
ATOM     10  C   UNL     1       3.743   2.314  -7.608  1.00  0.00     0.041 C 
ATOM     11  O   UNL     1       4.658   3.058  -7.168  1.00  0.00    -0.550 OA
ATOM     12  O   UNL     1       2.678   1.973  -6.785  1.00  0.00    -0.550 OA
ENDBRANCH   9  10
ENDBRANCH   8   9
ENDBRANCH   7   8
ENDBRANCH   6   7
ENDBRANCH   5   6
ENDBRANCH   4   5
ENDBRANCH   3   4
ENDBRANCH   1   3
BRANCH   2  13
ATOM     13  C   UNL     1       6.699  -4.903  -8.233  1.00  0.00     0.027 C 
BRANCH  13  14
ATOM     14  C   UNL     1       7.339  -4.524  -9.577  1.00  0.00     0.004 C 
BRANCH  14  15
ATOM     15  C   UNL     1       7.606  -3.013  -9.683  1.00  0.00     0.000 C 
BRANCH  15  16
ATOM     16  C   UNL     1       6.599  -2.300 -10.600  1.00  0.00     0.000 C 
BRANCH  16  17
ATOM     17  C   UNL     1       5.660  -3.280 -11.324  1.00  0.00    -0.000 C 
BRANCH  17  18
ATOM     18  C   UNL     1       4.290  -2.660 -11.652  1.00  0.00    -0.000 C 
BRANCH  18  19
ATOM     19  C   UNL     1       4.352  -1.272 -12.312  1.00  0.00    -0.003 C 
ATOM     20  C   UNL     1       2.976  -0.631 -12.488  1.00  0.00     0.004 C 
ENDBRANCH  18  19
ENDBRANCH  17  18
ENDBRANCH  16  17
ENDBRANCH  15  16
ENDBRANCH  14  15
ENDBRANCH  13  14
ENDBRANCH   2  13
TORSDOF 15
ENDMDL
MODEL 3
REMARK VINA RESULT:    -3.650      8.765     11.717
REMARK INTER + INTRA:          -9.290
REMARK INTER:                  -6.566
REMARK INTRA:                  -2.724
REMARK UNBOUND:                -2.440
REMARK SMILES CCCCCCCCC=CCCCCCCCC(=O)[O-]
REMARK SMILES IDX 10 1 9 2 11 3 12 4 13 5 14 6 15 7 16 8 17 9 18 10 19 11
REMARK SMILES IDX 20 12 8 13 7 14 6 15 5 16 4 17 3 18 2 19 1 20
REMARK H PARENT
REMARK Flexibility Score: inf
ROOT
ATOM      1  C   UNL     1       2.391   8.469 -14.385  1.00  0.00    -0.031 C 
ATOM      2  C   UNL     1       3.494   7.878 -14.880  1.00  0.00    -0.031 C 
ENDROOT
BRANCH   1   3
ATOM      3  C   UNL     1       1.515   7.879 -13.310  1.00  0.00     0.027 C 
BRANCH   3   4
ATOM      4  C   UNL     1       1.323   8.877 -12.159  1.00  0.00     0.004 C 
BRANCH   4   5
ATOM      5  C   UNL     1       2.653   9.314 -11.521  1.00  0.00     0.000 C 
BRANCH   5   6
ATOM      6  C   UNL     1       3.236   8.325 -10.492  1.00  0.00     0.000 C 
BRANCH   6   7
ATOM      7  C   UNL     1       4.480   7.548 -10.965  1.00  0.00     0.000 C 
BRANCH   7   8
ATOM      8  C   UNL     1       4.361   6.013 -10.885  1.00  0.00     0.006 C 
BRANCH   8   9
ATOM      9  C   UNL     1       2.919   5.493 -10.774  1.00  0.00     0.053 C 
BRANCH   9  10
ATOM     10  C   UNL     1       2.633   4.420 -11.780  1.00  0.00     0.041 C 
ATOM     11  O   UNL     1       3.559   3.674 -12.192  1.00  0.00    -0.550 OA
ATOM     12  O   UNL     1       1.348   4.267 -12.286  1.00  0.00    -0.550 OA
ENDBRANCH   9  10
ENDBRANCH   8   9
ENDBRANCH   7   8
ENDBRANCH   6   7
ENDBRANCH   5   6
ENDBRANCH   4   5
ENDBRANCH   3   4
ENDBRANCH   1   3
BRANCH   2  13
ATOM     13  C   UNL     1       3.969   6.496 -14.503  1.00  0.00     0.027 C 
BRANCH  13  14
ATOM     14  C   UNL     1       3.889   5.517 -15.685  1.00  0.00     0.004 C 
BRANCH  14  15
ATOM     15  C   UNL     1       2.623   4.645 -15.627  1.00  0.00     0.000 C 
BRANCH  15  16
ATOM     16  C   UNL     1       2.133   4.225 -17.023  1.00  0.00     0.000 C 
BRANCH  16  17
ATOM     17  C   UNL     1       0.661   4.598 -17.271  1.00  0.00    -0.000 C 
BRANCH  17  18
ATOM     18  C   UNL     1       0.192   5.781 -16.406  1.00  0.00    -0.000 C 
BRANCH  18  19
ATOM     19  C   UNL     1      -0.682   6.811 -17.143  1.00  0.00    -0.003 C 
ATOM     20  C   UNL     1      -0.393   8.252 -16.722  1.00  0.00     0.004 C 
ENDBRANCH  18  19
ENDBRANCH  17  18
ENDBRANCH  16  17
ENDBRANCH  15  16
ENDBRANCH  14  15
ENDBRANCH  13  14
ENDBRANCH   2  13
TORSDOF 15
ENDMDL
MODEL 4
REMARK VINA RESULT:    -3.605      9.118     11.512
REMARK INTER + INTRA:          -9.206
REMARK INTER:                  -6.824
REMARK INTRA:                  -2.382
REMARK UNBOUND:                -2.440
REMARK SMILES CCCCCCCCC=CCCCCCCCC(=O)[O-]
REMARK SMILES IDX 10 1 9 2 11 3 12 4 13 5 14 6 15 7 16 8 17 9 18 10 19 11
REMARK SMILES IDX 20 12 8 13 7 14 6 15 5 16 4 17 3 18 2 19 1 20
REMARK H PARENT
REMARK Flexibility Score: inf
ROOT
ATOM      1  C   UNL     1       3.971   6.707 -15.371  1.00  0.00    -0.031 C 
ATOM      2  C   UNL     1       4.199   5.398 -15.158  1.00  0.00    -0.031 C 
ENDROOT
BRANCH   1   3
ATOM      3  C   UNL     1       3.720   7.719 -14.284  1.00  0.00     0.027 C 
BRANCH   3   4
ATOM      4  C   UNL     1       2.792   8.834 -14.785  1.00  0.00     0.004 C 
BRANCH   4   5
ATOM      5  C   UNL     1       2.811  10.078 -13.881  1.00  0.00     0.000 C 
BRANCH   5   6
ATOM      6  C   UNL     1       2.429   9.817 -12.410  1.00  0.00     0.000 C 
BRANCH   6   7
ATOM      7  C   UNL     1       3.510  10.194 -11.377  1.00  0.00     0.000 C 
BRANCH   7   8
ATOM      8  C   UNL     1       3.796   9.117 -10.312  1.00  0.00     0.006 C 
BRANCH   8   9
ATOM      9  C   UNL     1       4.162   7.738 -10.883  1.00  0.00     0.053 C 
BRANCH   9  10
ATOM     10  C   UNL     1       3.163   6.690 -10.499  1.00  0.00     0.041 C 
ATOM     11  O   UNL     1       3.515   5.485 -10.399  1.00  0.00    -0.550 OA
ATOM     12  O   UNL     1       1.837   7.040 -10.283  1.00  0.00    -0.550 OA
ENDBRANCH   9  10
ENDBRANCH   8   9
ENDBRANCH   7   8
ENDBRANCH   6   7
ENDBRANCH   5   6
ENDBRANCH   4   5
ENDBRANCH   3   4
ENDBRANCH   1   3
BRANCH   2  13
ATOM     13  C   UNL     1       4.147   4.728 -13.806  1.00  0.00     0.027 C 
BRANCH  13  14
ATOM     14  C   UNL     1       2.882   3.872 -13.637  1.00  0.00     0.004 C 
BRANCH  14  15
ATOM     15  C   UNL     1       1.637   4.731 -13.355  1.00  0.00     0.000 C 
BRANCH  15  16
ATOM     16  C   UNL     1       0.533   4.529 -14.405  1.00  0.00     0.000 C 
BRANCH  16  17
ATOM     17  C   UNL     1       0.464   5.683 -15.421  1.00  0.00    -0.000 C 
BRANCH  17  18
ATOM     18  C   UNL     1       0.442   5.192 -16.880  1.00  0.00    -0.000 C 
BRANCH  18  19
ATOM     19  C   UNL     1       1.577   4.221 -17.250  1.00  0.00    -0.003 C 
ATOM     20  C   UNL     1       1.128   3.108 -18.196  1.00  0.00     0.004 C 
ENDBRANCH  18  19
ENDBRANCH  17  18
ENDBRANCH  16  17
ENDBRANCH  15  16
ENDBRANCH  14  15
ENDBRANCH  13  14
ENDBRANCH   2  13
TORSDOF 15
ENDMDL
MODEL 5
REMARK VINA RESULT:    -3.585      7.589     11.304
REMARK INTER + INTRA:          -9.169
REMARK INTER:                  -6.306
REMARK INTRA:                  -2.863
REMARK UNBOUND:                -2.440
REMARK SMILES CCCCCCCCC=CCCCCCCCC(=O)[O-]
REMARK SMILES IDX 10 1 9 2 11 3 12 4 13 5 14 6 15 7 16 8 17 9 18 10 19 11
REMARK SMILES IDX 20 12 8 13 7 14 6 15 5 16 4 17 3 18 2 19 1 20
REMARK H PARENT
REMARK Flexibility Score: inf
ROOT
ATOM      1  C   UNL     1       0.436   5.552 -12.952  1.00  0.00    -0.031 C 
ATOM      2  C   UNL     1       0.471   4.896 -14.127  1.00  0.00    -0.031 C 
ENDROOT
BRANCH   1   3
ATOM      3  C   UNL     1       0.489   7.051 -12.808  1.00  0.00     0.027 C 
BRANCH   3   4
ATOM      4  C   UNL     1       0.749   7.447 -11.348  1.00  0.00     0.004 C 
BRANCH   4   5
ATOM      5  C   UNL     1       2.208   7.859 -11.091  1.00  0.00     0.000 C 
BRANCH   5   6
ATOM      6  C   UNL     1       3.095   6.758 -10.476  1.00  0.00     0.000 C 
BRANCH   6   7
ATOM      7  C   UNL     1       4.456   6.551 -11.171  1.00  0.00     0.000 C 
BRANCH   7   8
ATOM      8  C   UNL     1       4.633   5.185 -11.862  1.00  0.00     0.006 C 
BRANCH   8   9
ATOM      9  C   UNL     1       3.502   4.182 -11.588  1.00  0.00     0.053 C 
BRANCH   9  10
ATOM     10  C   UNL     1       3.637   2.944 -12.420  1.00  0.00     0.041 C 
ATOM     11  O   UNL     1       2.612   2.336 -12.824  1.00  0.00    -0.550 OA
ATOM     12  O   UNL     1       4.898   2.444 -12.723  1.00  0.00    -0.550 OA
ENDBRANCH   9  10
ENDBRANCH   8   9
ENDBRANCH   7   8
ENDBRANCH   6   7
ENDBRANCH   5   6
ENDBRANCH   4   5
ENDBRANCH   3   4
ENDBRANCH   1   3
BRANCH   2  13
ATOM     13  C   UNL     1       0.660   5.556 -15.471  1.00  0.00     0.027 C 
BRANCH  13  14
ATOM     14  C   UNL     1       1.912   5.035 -16.195  1.00  0.00     0.004 C 
BRANCH  14  15
ATOM     15  C   UNL     1       3.157   5.068 -15.292  1.00  0.00     0.000 C 
BRANCH  15  16
ATOM     16  C   UNL     1       4.005   6.333 -15.504  1.00  0.00     0.000 C 
BRANCH  16  17
ATOM     17  C   UNL     1       3.679   7.441 -14.488  1.00  0.00    -0.000 C 
BRANCH  17  18
ATOM     18  C   UNL     1       3.125   8.715 -15.153  1.00  0.00    -0.000 C 
BRANCH  18  19
ATOM     19  C   UNL     1       2.661   9.804 -14.170  1.00  0.00    -0.003 C 
ATOM     20  C   UNL     1       3.001  11.218 -14.641  1.00  0.00     0.004 C 
ENDBRANCH  18  19
ENDBRANCH  17  18
ENDBRANCH  16  17
ENDBRANCH  15  16
ENDBRANCH  14  15
ENDBRANCH  13  14
ENDBRANCH   2  13
TORSDOF 15
ENDMDL
MODEL 6
REMARK VINA RESULT:    -3.582      6.081     11.451
REMARK INTER + INTRA:          -9.163
REMARK INTER:                  -7.329
REMARK INTRA:                  -1.834
REMARK UNBOUND:                -2.440
REMARK SMILES CCCCCCCCC=CCCCCCCCC(=O)[O-]
REMARK SMILES IDX 10 1 9 2 11 3 12 4 13 5 14 6 15 7 16 8 17 9 18 10 19 11
REMARK SMILES IDX 20 12 8 13 7 14 6 15 5 16 4 17 3 18 2 19 1 20
REMARK H PARENT
REMARK Flexibility Score: inf
ROOT
ATOM      1  C   UNL     1       3.068   7.476 -10.882  1.00  0.00    -0.031 C 
ATOM      2  C   UNL     1       2.876   8.779 -10.606  1.00  0.00    -0.031 C 
ENDROOT
BRANCH   1   3
ATOM      3  C   UNL     1       4.408   6.853 -11.180  1.00  0.00     0.027 C 
BRANCH   3   4
ATOM      4  C   UNL     1       4.348   5.329 -11.008  1.00  0.00     0.004 C 
BRANCH   4   5
ATOM      5  C   UNL     1       4.743   4.569 -12.285  1.00  0.00     0.000 C 
BRANCH   5   6
ATOM      6  C   UNL     1       4.012   3.227 -12.493  1.00  0.00     0.000 C 
BRANCH   6   7
ATOM      7  C   UNL     1       3.289   2.677 -11.248  1.00  0.00     0.000 C 
BRANCH   7   8
ATOM      8  C   UNL     1       3.904   1.396 -10.651  1.00  0.00     0.006 C 
BRANCH   8   9
ATOM      9  C   UNL     1       3.433   1.070  -9.225  1.00  0.00     0.053 C 
BRANCH   9  10
ATOM     10  C   UNL     1       4.437   1.487  -8.195  1.00  0.00     0.041 C 
ATOM     11  O   UNL     1       5.436   0.762  -7.952  1.00  0.00    -0.550 OA
ATOM     12  O   UNL     1       4.250   2.663  -7.479  1.00  0.00    -0.550 OA
ENDBRANCH   9  10
ENDBRANCH   8   9
ENDBRANCH   7   8
ENDBRANCH   6   7
ENDBRANCH   5   6
ENDBRANCH   4   5
ENDBRANCH   3   4
ENDBRANCH   1   3
BRANCH   2  13
ATOM     13  C   UNL     1       3.957   9.831 -10.644  1.00  0.00     0.027 C 
BRANCH  13  14
ATOM     14  C   UNL     1       3.638  10.948 -11.650  1.00  0.00     0.004 C 
BRANCH  14  15
ATOM     15  C   UNL     1       2.452  10.584 -12.559  1.00  0.00     0.000 C 
BRANCH  15  16
ATOM     16  C   UNL     1       2.768  10.788 -14.050  1.00  0.00     0.000 C 
BRANCH  16  17
ATOM     17  C   UNL     1       2.560   9.509 -14.880  1.00  0.00    -0.000 C 
BRANCH  17  18
ATOM     18  C   UNL     1       3.534   8.381 -14.491  1.00  0.00    -0.000 C 
BRANCH  18  19
ATOM     19  C   UNL     1       2.975   6.959 -14.669  1.00  0.00    -0.003 C 
ATOM     20  C   UNL     1       3.956   6.013 -15.360  1.00  0.00     0.004 C 
ENDBRANCH  18  19
ENDBRANCH  17  18
ENDBRANCH  16  17
ENDBRANCH  15  16
ENDBRANCH  14  15
ENDBRANCH  13  14
ENDBRANCH   2  13
TORSDOF 15
ENDMDL
MODEL 7
REMARK VINA RESULT:    -3.553      3.434      5.622
REMARK INTER + INTRA:          -9.108
REMARK INTER:                  -6.885
REMARK INTRA:                  -2.224
REMARK UNBOUND:                -2.440
REMARK SMILES CCCCCCCCC=CCCCCCCCC(=O)[O-]
REMARK SMILES IDX 10 1 9 2 11 3 12 4 13 5 14 6 15 7 16 8 17 9 18 10 19 11
REMARK SMILES IDX 20 12 8 13 7 14 6 15 5 16 4 17 3 18 2 19 1 20
REMARK H PARENT
REMARK Flexibility Score: inf
ROOT
ATOM      1  C   UNL     1       7.904  -4.562  -9.508  1.00  0.00    -0.031 C 
ATOM      2  C   UNL     1       7.856  -3.456 -10.273  1.00  0.00    -0.031 C 
ENDROOT
BRANCH   1   3
ATOM      3  C   UNL     1       7.019  -4.815  -8.314  1.00  0.00     0.027 C 
BRANCH   3   4
ATOM      4  C   UNL     1       7.860  -4.978  -7.041  1.00  0.00     0.004 C 
BRANCH   4   5
ATOM      5  C   UNL     1       7.267  -4.230  -5.834  1.00  0.00     0.000 C 
BRANCH   5   6
ATOM      6  C   UNL     1       6.907  -2.755  -6.098  1.00  0.00     0.000 C 
BRANCH   6   7
ATOM      7  C   UNL     1       5.776  -2.190  -5.217  1.00  0.00     0.000 C 
BRANCH   7   8
ATOM      8  C   UNL     1       4.443  -2.961  -5.294  1.00  0.00     0.006 C 
BRANCH   8   9
ATOM      9  C   UNL     1       3.688  -3.061  -3.959  1.00  0.00     0.053 C 
BRANCH   9  10
ATOM     10  C   UNL     1       3.186  -1.726  -3.500  1.00  0.00     0.041 C 
ATOM     11  O   UNL     1       2.608  -0.953  -4.308  1.00  0.00    -0.550 OA
ATOM     12  O   UNL     1       3.386  -1.323  -2.186  1.00  0.00    -0.550 OA
ENDBRANCH   9  10
ENDBRANCH   8   9
ENDBRANCH   7   8
ENDBRANCH   6   7
ENDBRANCH   5   6
ENDBRANCH   4   5
ENDBRANCH   3   4
ENDBRANCH   1   3
BRANCH   2  13
ATOM     13  C   UNL     1       6.975  -2.261  -9.999  1.00  0.00     0.027 C 
BRANCH  13  14
ATOM     14  C   UNL     1       5.822  -2.154 -11.009  1.00  0.00     0.004 C 
BRANCH  14  15
ATOM     15  C   UNL     1       4.472  -1.899 -10.317  1.00  0.00     0.000 C 
BRANCH  15  16
ATOM     16  C   UNL     1       4.585  -1.905  -8.784  1.00  0.00     0.000 C 
BRANCH  16  17
ATOM     17  C   UNL     1       4.141  -0.573  -8.153  1.00  0.00    -0.000 C 
BRANCH  17  18
ATOM     18  C   UNL     1       4.741   0.653  -8.865  1.00  0.00    -0.000 C 
BRANCH  18  19
ATOM     19  C   UNL     1       3.704   1.633  -9.441  1.00  0.00    -0.003 C 
ATOM     20  C   UNL     1       3.814   1.799 -10.956  1.00  0.00     0.004 C 
ENDBRANCH  18  19
ENDBRANCH  17  18
ENDBRANCH  16  17
ENDBRANCH  15  16
ENDBRANCH  14  15
ENDBRANCH  13  14
ENDBRANCH   2  13
TORSDOF 15
ENDMDL
MODEL 8
REMARK VINA RESULT:    -3.543      7.257     11.793
REMARK INTER + INTRA:          -9.090
REMARK INTER:                  -6.886
REMARK INTRA:                  -2.205
REMARK UNBOUND:                -2.440
REMARK SMILES CCCCCCCCC=CCCCCCCCC(=O)[O-]
REMARK SMILES IDX 10 1 9 2 11 3 12 4 13 5 14 6 15 7 16 8 17 9 18 10 19 11
REMARK SMILES IDX 20 12 8 13 7 14 6 15 5 16 4 17 3 18 2 19 1 20
REMARK H PARENT
REMARK Flexibility Score: inf
ROOT
ATOM      1  C   UNL     1       2.313  10.567 -11.472  1.00  0.00    -0.031 C 
ATOM      2  C   UNL     1       1.862  10.617 -12.739  1.00  0.00    -0.031 C 
ENDROOT
BRANCH   1   3
ATOM      3  C   UNL     1       3.767  10.474 -11.085  1.00  0.00     0.027 C 
BRANCH   3   4
ATOM      4  C   UNL     1       4.007   9.274 -10.160  1.00  0.00     0.004 C 
BRANCH   4   5
ATOM      5  C   UNL     1       3.819   7.924 -10.874  1.00  0.00     0.000 C 
BRANCH   5   6
ATOM      6  C   UNL     1       2.660   7.061 -10.334  1.00  0.00     0.000 C 
BRANCH   6   7
ATOM      7  C   UNL     1       2.339   5.804 -11.167  1.00  0.00     0.000 C 
BRANCH   7   8
ATOM      8  C   UNL     1       3.440   4.725 -11.171  1.00  0.00     0.006 C 
BRANCH   8   9
ATOM      9  C   UNL     1       3.050   3.422 -11.885  1.00  0.00     0.053 C 
BRANCH   9  10
ATOM     10  C   UNL     1       4.245   2.704 -12.432  1.00  0.00     0.041 C 
ATOM     11  O   UNL     1       5.176   3.350 -12.982  1.00  0.00    -0.550 OA
ATOM     12  O   UNL     1       4.316   1.319 -12.364  1.00  0.00    -0.550 OA
ENDBRANCH   9  10
ENDBRANCH   8   9
ENDBRANCH   7   8
ENDBRANCH   6   7
ENDBRANCH   5   6
ENDBRANCH   4   5
ENDBRANCH   3   4
ENDBRANCH   1   3
BRANCH   2  13
ATOM     13  C   UNL     1       2.734  10.496 -13.965  1.00  0.00     0.027 C 
BRANCH  13  14
ATOM     14  C   UNL     1       2.309   9.322 -14.860  1.00  0.00     0.004 C 
BRANCH  14  15
ATOM     15  C   UNL     1       3.477   8.364 -15.149  1.00  0.00     0.000 C 
BRANCH  15  16
ATOM     16  C   UNL     1       3.484   7.145 -14.213  1.00  0.00     0.000 C 
BRANCH  16  17
ATOM     17  C   UNL     1       4.187   5.925 -14.834  1.00  0.00    -0.000 C 
BRANCH  17  18
ATOM     18  C   UNL     1       3.251   5.090 -15.727  1.00  0.00    -0.000 C 
BRANCH  18  19
ATOM     19  C   UNL     1       1.844   4.861 -15.149  1.00  0.00    -0.003 C 
ATOM     20  C   UNL     1       0.732   5.398 -16.049  1.00  0.00     0.004 C 
ENDBRANCH  18  19
ENDBRANCH  17  18
ENDBRANCH  16  17
ENDBRANCH  15  16
ENDBRANCH  14  15
ENDBRANCH  13  14
ENDBRANCH   2  13
TORSDOF 15
ENDMDL
MODEL 9
REMARK VINA RESULT:    -3.482      2.469      4.724
REMARK INTER + INTRA:          -8.976
REMARK INTER:                  -6.858
REMARK INTRA:                  -2.118
REMARK UNBOUND:                -2.440
REMARK SMILES CCCCCCCCC=CCCCCCCCC(=O)[O-]
REMARK SMILES IDX 10 1 9 2 11 3 12 4 13 5 14 6 15 7 16 8 17 9 18 10 19 11
REMARK SMILES IDX 20 12 8 13 7 14 6 15 5 16 4 17 3 18 2 19 1 20
REMARK H PARENT
REMARK Flexibility Score: inf
ROOT
ATOM      1  C   UNL     1       8.270  -5.919  -8.774  1.00  0.00    -0.031 C 
ATOM      2  C   UNL     1       7.927  -5.712  -7.489  1.00  0.00    -0.031 C 
ENDROOT
BRANCH   1   3
ATOM      3  C   UNL     1       7.600  -5.261  -9.954  1.00  0.00     0.027 C 
BRANCH   3   4
ATOM      4  C   UNL     1       8.350  -3.985 -10.360  1.00  0.00     0.004 C 
BRANCH   4   5
ATOM      5  C   UNL     1       7.554  -2.704 -10.058  1.00  0.00     0.000 C 
BRANCH   5   6
ATOM      6  C   UNL     1       6.073  -2.744 -10.485  1.00  0.00     0.000 C 
BRANCH   6   7
ATOM      7  C   UNL     1       5.083  -2.149  -9.465  1.00  0.00     0.000 C 
BRANCH   7   8
ATOM      8  C   UNL     1       4.548  -0.746  -9.817  1.00  0.00     0.006 C 
BRANCH   8   9
ATOM      9  C   UNL     1       3.702  -0.092  -8.713  1.00  0.00     0.053 C 
BRANCH   9  10
ATOM     10  C   UNL     1       4.458   0.979  -7.989  1.00  0.00     0.041 C 
ATOM     11  O   UNL     1       5.688   0.840  -7.756  1.00  0.00    -0.550 OA
ATOM     12  O   UNL     1       3.797   2.116  -7.544  1.00  0.00    -0.550 OA
ENDBRANCH   9  10
ENDBRANCH   8   9
ENDBRANCH   7   8
ENDBRANCH   6   7
ENDBRANCH   5   6
ENDBRANCH   4   5
ENDBRANCH   3   4
ENDBRANCH   1   3
BRANCH   2  13
ATOM     13  C   UNL     1       6.763  -4.864  -7.038  1.00  0.00     0.027 C 
BRANCH  13  14
ATOM     14  C   UNL     1       7.166  -3.873  -5.936  1.00  0.00     0.004 C 
BRANCH  14  15
ATOM     15  C   UNL     1       6.858  -2.418  -6.328  1.00  0.00     0.000 C 
BRANCH  15  16
ATOM     16  C   UNL     1       5.715  -1.813  -5.495  1.00  0.00     0.000 C 
BRANCH  16  17
ATOM     17  C   UNL     1       4.384  -2.563  -5.684  1.00  0.00    -0.000 C 
BRANCH  17  18
ATOM     18  C   UNL     1       3.412  -2.356  -4.509  1.00  0.00    -0.000 C 
BRANCH  18  19
ATOM     19  C   UNL     1       4.053  -1.774  -3.237  1.00  0.00    -0.003 C 
ATOM     20  C   UNL     1       3.042  -1.517  -2.120  1.00  0.00     0.004 C 
ENDBRANCH  18  19
ENDBRANCH  17  18
ENDBRANCH  16  17
ENDBRANCH  15  16
ENDBRANCH  14  15
ENDBRANCH  13  14
ENDBRANCH   2  13
TORSDOF 15
ENDMDL
