MODEL 1
REMARK VINA RESULT:    -3.086      0.000      0.000
REMARK INTER + INTRA:          -3.485
REMARK INTER:                  -3.447
REMARK INTRA:                  -0.038
REMARK UNBOUND:                -0.038
REMARK SMILES CCCC(=O)[O-]
REMARK SMILES IDX 3 1 4 2 5 3 6 4 2 5 1 6
REMARK H PARENT
REMARK Flexibility Score: inf
ROOT
ATOM      1  C   UNL     1       8.013   4.180  22.220  1.00  0.00     0.052 C 
ENDROOT
BRANCH   1   2
ATOM      2  C   UNL     1       7.062   5.306  22.479  1.00  0.00     0.041 C 
ATOM      3  O   UNL     1       6.370   5.322  23.531  1.00  0.00    -0.550 OA
ATOM      4  O   UNL     1       6.964   6.357  21.575  1.00  0.00    -0.550 OA
ENDBRANCH   1   2
BRANCH   1   5
ATOM      5  C   UNL     1       8.892   4.447  20.991  1.00  0.00     0.003 C 
ATOM      6  C   UNL     1       8.446   3.643  19.771  1.00  0.00     0.004 C 
ENDBRANCH   1   5
TORSDOF 2
ENDMDL
MODEL 2
REMARK VINA RESULT:    -3.069      2.867      3.473
REMARK INTER + INTRA:          -3.466
REMARK INTER:                  -3.434
REMARK INTRA:                  -0.033
REMARK UNBOUND:                -0.038
REMARK SMILES CCCC(=O)[O-]
REMARK SMILES IDX 3 1 4 2 5 3 6 4 2 5 1 6
REMARK H PARENT
REMARK Flexibility Score: inf
ROOT
ATOM      1  C   UNL     1       7.366   5.312  18.770  1.00  0.00     0.052 C 
ENDROOT
BRANCH   1   2
ATOM      2  C   UNL     1       7.731   5.620  20.189  1.00  0.00     0.041 C 
ATOM      3  O   UNL     1       7.088   6.488  20.834  1.00  0.00    -0.550 OA
ATOM      4  O   UNL     1       8.761   4.923  20.810  1.00  0.00    -0.550 OA
ENDBRANCH   1   2
BRANCH   1   5
ATOM      5  C   UNL     1       6.718   6.516  18.073  1.00  0.00     0.003 C 
ATOM      6  C   UNL     1       7.679   7.218  17.115  1.00  0.00     0.004 C 
ENDBRANCH   1   5
TORSDOF 2
ENDMDL
MODEL 3
REMARK VINA RESULT:    -3.058      3.071      3.953
REMARK INTER + INTRA:          -3.454
REMARK INTER:                  -3.449
REMARK INTRA:                  -0.005
REMARK UNBOUND:                -0.038
REMARK SMILES CCCC(=O)[O-]
REMARK SMILES IDX 3 1 4 2 5 3 6 4 2 5 1 6
REMARK H PARENT
REMARK Flexibility Score: inf
ROOT
ATOM      1  C   UNL     1       7.527   5.383  18.723  1.00  0.00     0.052 C 
ENDROOT
BRANCH   1   2
ATOM      2  C   UNL     1       6.978   6.577  18.004  1.00  0.00     0.041 C 
ATOM      3  O   UNL     1       5.769   6.898  18.141  1.00  0.00    -0.550 OA
ATOM      4  O   UNL     1       7.811   7.356  17.211  1.00  0.00    -0.550 OA
ENDBRANCH   1   2
BRANCH   1   5
ATOM      5  C   UNL     1       7.783   5.679  20.207  1.00  0.00     0.003 C 
ATOM      6  C   UNL     1       8.639   4.604  20.874  1.00  0.00     0.004 C 
ENDBRANCH   1   5
TORSDOF 2
ENDMDL
MODEL 4
REMARK VINA RESULT:    -3.043      0.776      1.608
REMARK INTER + INTRA:          -3.437
REMARK INTER:                  -3.367
REMARK INTRA:                  -0.069
REMARK UNBOUND:                -0.038
REMARK SMILES CCCC(=O)[O-]
REMARK SMILES IDX 3 1 4 2 5 3 6 4 2 5 1 6
REMARK H PARENT
REMARK Flexibility Score: inf
ROOT
ATOM      1  C   UNL     1       8.843   4.780  21.470  1.00  0.00     0.052 C 
ENDROOT
BRANCH   1   2
ATOM      2  C   UNL     1       7.622   5.478  21.983  1.00  0.00     0.041 C 
ATOM      3  O   UNL     1       7.090   6.400  21.311  1.00  0.00    -0.550 OA
ATOM      4  O   UNL     1       7.050   5.085  23.187  1.00  0.00    -0.550 OA
ENDBRANCH   1   2
BRANCH   1   5
ATOM      5  C   UNL     1       8.582   4.087  20.125  1.00  0.00     0.003 C 
ATOM      6  C   UNL     1       7.467   3.047  20.215  1.00  0.00     0.004 C 
ENDBRANCH   1   5
TORSDOF 2
ENDMDL
MODEL 5
REMARK VINA RESULT:    -3.038     17.353     18.327
REMARK INTER + INTRA:          -3.431
REMARK INTER:                  -3.410
REMARK INTRA:                  -0.021
REMARK UNBOUND:                -0.038
REMARK SMILES CCCC(=O)[O-]
REMARK SMILES IDX 3 1 4 2 5 3 6 4 2 5 1 6
REMARK H PARENT
REMARK Flexibility Score: inf
ROOT
ATOM      1  C   UNL     1      13.316  -3.139   6.219  1.00  0.00     0.052 C 
ENDROOT
BRANCH   1   2
ATOM      2  C   UNL     1      14.563  -3.768   6.759  1.00  0.00     0.041 C 
ATOM      3  O   UNL     1      15.271  -4.504   6.023  1.00  0.00    -0.550 OA
ATOM      4  O   UNL     1      14.962  -3.514   8.066  1.00  0.00    -0.550 OA
ENDBRANCH   1   2
BRANCH   1   5
ATOM      5  C   UNL     1      12.333  -2.769   7.338  1.00  0.00     0.003 C 
ATOM      6  C   UNL     1      11.025  -3.552   7.243  1.00  0.00     0.004 C 
ENDBRANCH   1   5
TORSDOF 2
ENDMDL
MODEL 6
REMARK VINA RESULT:    -3.017     17.836     18.657
REMARK INTER + INTRA:          -3.408
REMARK INTER:                  -3.374
REMARK INTRA:                  -0.034
REMARK UNBOUND:                -0.038
REMARK SMILES CCCC(=O)[O-]
REMARK SMILES IDX 3 1 4 2 5 3 6 4 2 5 1 6
REMARK H PARENT
REMARK Flexibility Score: inf
ROOT
ATOM      1  C   UNL     1      15.345  -3.396   8.176  1.00  0.00     0.052 C 
ENDROOT
BRANCH   1   2
ATOM      2  C   UNL     1      14.545  -3.821   6.983  1.00  0.00     0.041 C 
ATOM      3  O   UNL     1      15.085  -4.489   6.063  1.00  0.00    -0.550 OA
ATOM      4  O   UNL     1      13.193  -3.508   6.903  1.00  0.00    -0.550 OA
ENDBRANCH   1   2
BRANCH   1   5
ATOM      5  C   UNL     1      16.509  -4.357   8.453  1.00  0.00     0.003 C 
ATOM      6  C   UNL     1      17.864  -3.743   8.107  1.00  0.00     0.004 C 
ENDBRANCH   1   5
TORSDOF 2
ENDMDL
MODEL 7
REMARK VINA RESULT:    -3.015      2.229      3.355
REMARK INTER + INTRA:          -3.406
REMARK INTER:                  -3.398
REMARK INTRA:                  -0.008
REMARK UNBOUND:                -0.038
REMARK SMILES CCCC(=O)[O-]
REMARK SMILES IDX 3 1 4 2 5 3 6 4 2 5 1 6
REMARK H PARENT
REMARK Flexibility Score: inf
ROOT
ATOM      1  C   UNL     1       7.369   5.925  21.634  1.00  0.00     0.052 C 
ENDROOT
BRANCH   1   2
ATOM      2  C   UNL     1       7.960   5.340  20.389  1.00  0.00     0.041 C 
ATOM      3  O   UNL     1       7.700   5.846  19.266  1.00  0.00    -0.550 OA
ATOM      4  O   UNL     1       8.825   4.256  20.471  1.00  0.00    -0.550 OA
ENDBRANCH   1   2
BRANCH   1   5
ATOM      5  C   UNL     1       7.321   4.902  22.777  1.00  0.00     0.003 C 
ATOM      6  C   UNL     1       6.176   5.175  23.752  1.00  0.00     0.004 C 
ENDBRANCH   1   5
TORSDOF 2
ENDMDL
MODEL 8
REMARK VINA RESULT:    -2.941     18.302     19.113
REMARK INTER + INTRA:          -3.323
REMARK INTER:                  -3.254
REMARK INTRA:                  -0.069
REMARK UNBOUND:                -0.038
REMARK SMILES CCCC(=O)[O-]
REMARK SMILES IDX 3 1 4 2 5 3 6 4 2 5 1 6
REMARK H PARENT
REMARK Flexibility Score: inf
ROOT
ATOM      1  C   UNL     1      16.420  -4.012   8.103  1.00  0.00     0.052 C 
ENDROOT
BRANCH   1   2
ATOM      2  C   UNL     1      16.406  -4.236   6.622  1.00  0.00     0.041 C 
ATOM      3  O   UNL     1      17.477  -4.174   5.962  1.00  0.00    -0.550 OA
ATOM      4  O   UNL     1      15.216  -4.547   5.976  1.00  0.00    -0.550 OA
ENDBRANCH   1   2
BRANCH   1   5
ATOM      5  C   UNL     1      15.385  -2.962   8.530  1.00  0.00     0.003 C 
ATOM      6  C   UNL     1      15.657  -1.592   7.909  1.00  0.00     0.004 C 
ENDBRANCH   1   5
TORSDOF 2
ENDMDL
MODEL 9
REMARK VINA RESULT:    -2.908     12.921     13.379
REMARK INTER + INTRA:          -3.286
REMARK INTER:                  -3.248
REMARK INTRA:                  -0.038
REMARK UNBOUND:                -0.038
REMARK SMILES CCCC(=O)[O-]
REMARK SMILES IDX 3 1 4 2 5 3 6 4 2 5 1 6
REMARK H PARENT
REMARK Flexibility Score: inf
ROOT
ATOM      1  C   UNL     1      19.328   8.680  20.967  1.00  0.00     0.052 C 
ENDROOT
BRANCH   1   2
ATOM      2  C   UNL     1      20.614   8.605  20.203  1.00  0.00     0.041 C 
ATOM      3  O   UNL     1      21.524   7.818  20.571  1.00  0.00    -0.550 OA
ATOM      4  O   UNL     1      20.794   9.382  19.065  1.00  0.00    -0.550 OA
ENDBRANCH   1   2
BRANCH   1   5
ATOM      5  C   UNL     1      19.267   7.630  22.085  1.00  0.00     0.003 C 
ATOM      6  C   UNL     1      19.357   8.258  23.475  1.00  0.00     0.004 C 
ENDBRANCH   1   5
TORSDOF 2
ENDMDL
