MODEL 1
REMARK VINA RESULT:    -4.126      0.000      0.000
REMARK INTER + INTRA:          -4.806
REMARK INTER:                  -4.729
REMARK INTRA:                  -0.076
REMARK UNBOUND:                -0.076
REMARK SMILES COc1cc(C(=O)[O-])ccc1O
REMARK SMILES IDX 5 1 9 2 4 3 10 4 3 5 11 6 6 7 7 8 8 9 2 10 1 11 12 12
REMARK H PARENT 12 13
REMARK Flexibility Score: inf
ROOT
ATOM      1  C   UNL     1      69.897 -60.985 200.811  1.00  0.00     0.001 A 
ATOM      2  C   UNL     1      70.463 -61.238 202.070  1.00  0.00     0.014 A 
ATOM      3  C   UNL     1      70.363 -59.891 200.060  1.00  0.00     0.060 A 
ATOM      4  C   UNL     1      71.474 -60.417 202.569  1.00  0.00     0.051 A 
ATOM      5  C   UNL     1      71.385 -59.057 200.559  1.00  0.00     0.161 A 
ATOM      6  C   UNL     1      71.937 -59.329 201.823  1.00  0.00     0.157 A 
ENDROOT
BRANCH   1   7
ATOM      7  C   UNL     1      68.825 -61.860 200.286  1.00  0.00     0.072 C 
ATOM      8  O   UNL     1      68.913 -63.113 200.385  1.00  0.00    -0.545 OA
ATOM      9  O   UNL     1      67.704 -61.311 199.673  1.00  0.00    -0.545 OA
ENDBRANCH   1   7
BRANCH   5  10
ATOM     10  O   UNL     1      71.870 -57.958 199.832  1.00  0.00    -0.493 OA
ATOM     11  C   UNL     1      71.355 -57.528 198.576  1.00  0.00     0.278 C 
ENDBRANCH   5  10
BRANCH   6  12
ATOM     12  O   UNL     1      72.950 -58.531 202.356  1.00  0.00    -0.504 OA
ATOM     13  H   UNL     1      73.918 -58.825 202.366  1.00  0.00     0.293 HD
ENDBRANCH   6  12
TORSDOF 3
ENDMDL
MODEL 2
REMARK VINA RESULT:    -4.086     11.411     13.066
REMARK INTER + INTRA:          -4.760
REMARK INTER:                  -4.671
REMARK INTRA:                  -0.089
REMARK UNBOUND:                -0.076
REMARK SMILES COc1cc(C(=O)[O-])ccc1O
REMARK SMILES IDX 5 1 9 2 4 3 10 4 3 5 11 6 6 7 7 8 8 9 2 10 1 11 12 12
REMARK H PARENT 12 13
REMARK Flexibility Score: inf
ROOT
ATOM      1  C   UNL     1      70.068 -62.188 189.106  1.00  0.00     0.001 A 
ATOM      2  C   UNL     1      70.117 -63.532 188.703  1.00  0.00     0.014 A 
ATOM      3  C   UNL     1      68.909 -61.436 188.840  1.00  0.00     0.060 A 
ATOM      4  C   UNL     1      69.031 -64.113 188.048  1.00  0.00     0.051 A 
ATOM      5  C   UNL     1      67.809 -62.019 188.178  1.00  0.00     0.161 A 
ATOM      6  C   UNL     1      67.880 -63.366 187.783  1.00  0.00     0.157 A 
ENDROOT
BRANCH   1   7
ATOM      7  C   UNL     1      71.223 -61.576 189.801  1.00  0.00     0.072 C 
ATOM      8  O   UNL     1      71.484 -60.352 189.656  1.00  0.00    -0.545 OA
ATOM      9  O   UNL     1      72.037 -62.345 190.626  1.00  0.00    -0.545 OA
ENDBRANCH   1   7
BRANCH   5  10
ATOM     10  O   UNL     1      66.640 -61.292 187.898  1.00  0.00    -0.493 OA
ATOM     11  C   UNL     1      65.889 -60.564 188.865  1.00  0.00     0.278 C 
ENDBRANCH   5  10
BRANCH   6  12
ATOM     12  O   UNL     1      66.814 -63.983 187.126  1.00  0.00    -0.504 OA
ATOM     13  H   UNL     1      65.957 -64.230 187.604  1.00  0.00     0.293 HD
ENDBRANCH   6  12
TORSDOF 3
ENDMDL
MODEL 3
REMARK VINA RESULT:    -3.972     10.423     11.601
REMARK INTER + INTRA:          -4.629
REMARK INTER:                  -4.550
REMARK INTRA:                  -0.079
REMARK UNBOUND:                -0.076
REMARK SMILES COc1cc(C(=O)[O-])ccc1O
REMARK SMILES IDX 5 1 9 2 4 3 10 4 3 5 11 6 6 7 7 8 8 9 2 10 1 11 12 12
REMARK H PARENT 12 13
REMARK Flexibility Score: inf
ROOT
ATOM      1  C   UNL     1      69.310 -62.238 188.726  1.00  0.00     0.001 A 
ATOM      2  C   UNL     1      70.427 -63.078 188.852  1.00  0.00     0.014 A 
ATOM      3  C   UNL     1      69.268 -61.042 189.465  1.00  0.00     0.060 A 
ATOM      4  C   UNL     1      71.481 -62.731 189.697  1.00  0.00     0.051 A 
ATOM      5  C   UNL     1      70.331 -60.686 190.320  1.00  0.00     0.161 A 
ATOM      6  C   UNL     1      71.440 -61.542 190.431  1.00  0.00     0.157 A 
ENDROOT
BRANCH   1   7
ATOM      7  C   UNL     1      68.194 -62.611 187.828  1.00  0.00     0.072 C 
ATOM      8  O   UNL     1      67.385 -61.739 187.413  1.00  0.00    -0.545 OA
ATOM      9  O   UNL     1      68.022 -63.932 187.428  1.00  0.00    -0.545 OA
ENDBRANCH   1   7
BRANCH   5  10
ATOM     10  O   UNL     1      70.316 -59.498 191.070  1.00  0.00    -0.493 OA
ATOM     11  C   UNL     1      69.256 -58.547 191.059  1.00  0.00     0.278 C 
ENDBRANCH   5  10
BRANCH   6  12
ATOM     12  O   UNL     1      72.513 -61.229 191.265  1.00  0.00    -0.504 OA
ATOM     13  H   UNL     1      73.164 -61.933 191.593  1.00  0.00     0.293 HD
ENDBRANCH   6  12
TORSDOF 3
ENDMDL
MODEL 4
REMARK VINA RESULT:    -3.886      1.599      3.962
REMARK INTER + INTRA:          -4.530
REMARK INTER:                  -4.443
REMARK INTRA:                  -0.087
REMARK UNBOUND:                -0.076
REMARK SMILES COc1cc(C(=O)[O-])ccc1O
REMARK SMILES IDX 5 1 9 2 4 3 10 4 3 5 11 6 6 7 7 8 8 9 2 10 1 11 12 12
REMARK H PARENT 12 13
REMARK Flexibility Score: inf
ROOT
ATOM      1  C   UNL     1      71.033 -59.026 199.624  1.00  0.00     0.001 A 
ATOM      2  C   UNL     1      71.790 -58.583 200.719  1.00  0.00     0.014 A 
ATOM      3  C   UNL     1      70.321 -60.235 199.729  1.00  0.00     0.060 A 
ATOM      4  C   UNL     1      71.835 -59.331 201.897  1.00  0.00     0.051 A 
ATOM      5  C   UNL     1      70.363 -60.995 200.916  1.00  0.00     0.161 A 
ATOM      6  C   UNL     1      71.128 -60.532 202.001  1.00  0.00     0.157 A 
ENDROOT
BRANCH   1   7
ATOM      7  C   UNL     1      70.989 -58.229 198.378  1.00  0.00     0.072 C 
ATOM      8  O   UNL     1      70.293 -58.608 197.397  1.00  0.00    -0.545 OA
ATOM      9  O   UNL     1      71.716 -57.048 198.269  1.00  0.00    -0.545 OA
ENDBRANCH   1   7
BRANCH   5  10
ATOM     10  O   UNL     1      69.663 -62.205 201.049  1.00  0.00    -0.493 OA
ATOM     11  C   UNL     1      69.607 -63.222 200.054  1.00  0.00     0.278 C 
ENDBRANCH   5  10
BRANCH   6  12
ATOM     12  O   UNL     1      71.197 -61.252 203.194  1.00  0.00    -0.504 OA
ATOM     13  H   UNL     1      71.988 -61.841 203.423  1.00  0.00     0.293 HD
ENDBRANCH   6  12
TORSDOF 3
ENDMDL
MODEL 5
REMARK VINA RESULT:    -3.829      1.386      4.187
REMARK INTER + INTRA:          -4.465
REMARK INTER:                  -4.388
REMARK INTRA:                  -0.076
REMARK UNBOUND:                -0.076
REMARK SMILES COc1cc(C(=O)[O-])ccc1O
REMARK SMILES IDX 5 1 9 2 4 3 10 4 3 5 11 6 6 7 7 8 8 9 2 10 1 11 12 12
REMARK H PARENT 12 13
REMARK Flexibility Score: inf
ROOT
ATOM      1  C   UNL     1      71.851 -59.105 201.295  1.00  0.00     0.001 A 
ATOM      2  C   UNL     1      71.474 -60.052 202.259  1.00  0.00     0.014 A 
ATOM      3  C   UNL     1      71.132 -59.036 200.087  1.00  0.00     0.060 A 
ATOM      4  C   UNL     1      70.402 -60.913 202.025  1.00  0.00     0.051 A 
ATOM      5  C   UNL     1      70.047 -59.905 199.844  1.00  0.00     0.161 A 
ATOM      6  C   UNL     1      69.688 -60.845 200.825  1.00  0.00     0.157 A 
ENDROOT
BRANCH   1   7
ATOM      7  C   UNL     1      72.988 -58.193 201.549  1.00  0.00     0.072 C 
ATOM      8  O   UNL     1      73.126 -57.636 202.671  1.00  0.00    -0.545 OA
ATOM      9  O   UNL     1      73.923 -57.937 200.552  1.00  0.00    -0.545 OA
ENDBRANCH   1   7
BRANCH   5  10
ATOM     10  O   UNL     1      69.312 -59.859 198.648  1.00  0.00    -0.493 OA
ATOM     11  C   UNL     1      69.582 -58.975 197.566  1.00  0.00     0.278 C 
ENDBRANCH   5  10
BRANCH   6  12
ATOM     12  O   UNL     1      68.622 -61.724 200.626  1.00  0.00    -0.504 OA
ATOM     13  H   UNL     1      67.665 -61.465 200.833  1.00  0.00     0.293 HD
ENDBRANCH   6  12
TORSDOF 3
ENDMDL
MODEL 6
REMARK VINA RESULT:    -3.787      1.983      3.198
REMARK INTER + INTRA:          -4.417
REMARK INTER:                  -4.318
REMARK INTRA:                  -0.100
REMARK UNBOUND:                -0.076
REMARK SMILES COc1cc(C(=O)[O-])ccc1O
REMARK SMILES IDX 5 1 9 2 4 3 10 4 3 5 11 6 6 7 7 8 8 9 2 10 1 11 12 12
REMARK H PARENT 12 13
REMARK Flexibility Score: inf
ROOT
ATOM      1  C   UNL     1      71.168 -59.659 200.976  1.00  0.00     0.001 A 
ATOM      2  C   UNL     1      70.783 -59.314 199.672  1.00  0.00     0.014 A 
ATOM      3  C   UNL     1      72.292 -59.033 201.545  1.00  0.00     0.060 A 
ATOM      4  C   UNL     1      71.504 -58.364 198.949  1.00  0.00     0.051 A 
ATOM      5  C   UNL     1      73.025 -58.072 200.819  1.00  0.00     0.161 A 
ATOM      6  C   UNL     1      72.622 -57.742 199.514  1.00  0.00     0.157 A 
ENDROOT
BRANCH   1   7
ATOM      7  C   UNL     1      70.399 -60.667 201.739  1.00  0.00     0.072 C 
ATOM      8  O   UNL     1      70.710 -60.949 202.927  1.00  0.00    -0.545 OA
ATOM      9  O   UNL     1      69.319 -61.321 201.154  1.00  0.00    -0.545 OA
ENDBRANCH   1   7
BRANCH   5  10
ATOM     10  O   UNL     1      74.152 -57.431 201.361  1.00  0.00    -0.493 OA
ATOM     11  C   UNL     1      75.478 -57.947 201.312  1.00  0.00     0.278 C 
ENDBRANCH   5  10
BRANCH   6  12
ATOM     12  O   UNL     1      73.318 -56.796 198.760  1.00  0.00    -0.504 OA
ATOM     13  H   UNL     1      74.301 -56.606 198.909  1.00  0.00     0.293 HD
ENDBRANCH   6  12
TORSDOF 3
ENDMDL
MODEL 7
REMARK VINA RESULT:    -3.774      2.039      4.444
REMARK INTER + INTRA:          -4.402
REMARK INTER:                  -4.304
REMARK INTRA:                  -0.098
REMARK UNBOUND:                -0.076
REMARK SMILES COc1cc(C(=O)[O-])ccc1O
REMARK SMILES IDX 5 1 9 2 4 3 10 4 3 5 11 6 6 7 7 8 8 9 2 10 1 11 12 12
REMARK H PARENT 12 13
REMARK Flexibility Score: inf
ROOT
ATOM      1  C   UNL     1      70.054 -60.660 201.393  1.00  0.00     0.001 A 
ATOM      2  C   UNL     1      69.884 -61.908 200.774  1.00  0.00     0.014 A 
ATOM      3  C   UNL     1      69.108 -59.646 201.158  1.00  0.00     0.060 A 
ATOM      4  C   UNL     1      68.791 -62.140 199.939  1.00  0.00     0.051 A 
ATOM      5  C   UNL     1      68.001 -59.875 200.315  1.00  0.00     0.161 A 
ATOM      6  C   UNL     1      67.851 -61.132 199.705  1.00  0.00     0.157 A 
ENDROOT
BRANCH   1   7
ATOM      7  C   UNL     1      71.215 -60.419 202.279  1.00  0.00     0.072 C 
ATOM      8  O   UNL     1      71.367 -61.091 203.335  1.00  0.00    -0.545 OA
ATOM      9  O   UNL     1      72.156 -59.447 201.960  1.00  0.00    -0.545 OA
ENDBRANCH   1   7
BRANCH   5  10
ATOM     10  O   UNL     1      67.041 -58.881 200.062  1.00  0.00    -0.493 OA
ATOM     11  C   UNL     1      65.973 -58.545 200.943  1.00  0.00     0.278 C 
ENDBRANCH   5  10
BRANCH   6  12
ATOM     12  O   UNL     1      66.771 -61.402 198.863  1.00  0.00    -0.504 OA
ATOM     13  H   UNL     1      66.030 -60.731 198.706  1.00  0.00     0.293 HD
ENDBRANCH   6  12
TORSDOF 3
ENDMDL
MODEL 8
REMARK VINA RESULT:    -3.770      1.804      2.699
REMARK INTER + INTRA:          -4.397
REMARK INTER:                  -4.319
REMARK INTRA:                  -0.078
REMARK UNBOUND:                -0.076
REMARK SMILES COc1cc(C(=O)[O-])ccc1O
REMARK SMILES IDX 5 1 9 2 4 3 10 4 3 5 11 6 6 7 7 8 8 9 2 10 1 11 12 12
REMARK H PARENT 12 13
REMARK Flexibility Score: inf
ROOT
ATOM      1  C   UNL     1      69.946 -59.753 199.757  1.00  0.00     0.001 A 
ATOM      2  C   UNL     1      69.592 -60.959 200.381  1.00  0.00     0.014 A 
ATOM      3  C   UNL     1      70.944 -58.950 200.339  1.00  0.00     0.060 A 
ATOM      4  C   UNL     1      70.222 -61.357 201.560  1.00  0.00     0.051 A 
ATOM      5  C   UNL     1      71.584 -59.347 201.531  1.00  0.00     0.161 A 
ATOM      6  C   UNL     1      71.214 -60.559 202.139  1.00  0.00     0.157 A 
ENDROOT
BRANCH   1   7
ATOM      7  C   UNL     1      69.276 -59.336 198.506  1.00  0.00     0.072 C 
ATOM      8  O   UNL     1      68.019 -59.352 198.415  1.00  0.00    -0.545 OA
ATOM      9  O   UNL     1      70.024 -58.920 197.410  1.00  0.00    -0.545 OA
ENDBRANCH   1   7
BRANCH   5  10
ATOM     10  O   UNL     1      72.584 -58.566 202.135  1.00  0.00    -0.493 OA
ATOM     11  C   UNL     1      72.665 -57.147 202.047  1.00  0.00     0.278 C 
ENDBRANCH   5  10
BRANCH   6  12
ATOM     12  O   UNL     1      71.821 -60.991 203.319  1.00  0.00    -0.504 OA
ATOM     13  H   UNL     1      72.827 -61.030 203.424  1.00  0.00     0.293 HD
ENDBRANCH   6  12
TORSDOF 3
ENDMDL
MODEL 9
REMARK VINA RESULT:    -3.703      8.801     11.261
REMARK INTER + INTRA:          -4.320
REMARK INTER:                  -4.218
REMARK INTRA:                  -0.102
REMARK UNBOUND:                -0.076
REMARK SMILES COc1cc(C(=O)[O-])ccc1O
REMARK SMILES IDX 5 1 9 2 4 3 10 4 3 5 11 6 6 7 7 8 8 9 2 10 1 11 12 12
REMARK H PARENT 12 13
REMARK Flexibility Score: inf
ROOT
ATOM      1  C   UNL     1      77.358 -54.704 195.768  1.00  0.00     0.001 A 
ATOM      2  C   UNL     1      78.379 -54.441 196.694  1.00  0.00     0.014 A 
ATOM      3  C   UNL     1      77.506 -54.258 194.442  1.00  0.00     0.060 A 
ATOM      4  C   UNL     1      79.526 -53.748 196.304  1.00  0.00     0.051 A 
ATOM      5  C   UNL     1      78.662 -53.556 194.043  1.00  0.00     0.161 A 
ATOM      6  C   UNL     1      79.672 -53.304 194.986  1.00  0.00     0.157 A 
ENDROOT
BRANCH   1   7
ATOM      7  C   UNL     1      76.144 -55.440 196.187  1.00  0.00     0.072 C 
ATOM      8  O   UNL     1      75.408 -56.004 195.333  1.00  0.00    -0.545 OA
ATOM      9  O   UNL     1      75.797 -55.521 197.531  1.00  0.00    -0.545 OA
ENDBRANCH   1   7
BRANCH   5  10
ATOM     10  O   UNL     1      78.837 -53.099 192.726  1.00  0.00    -0.493 OA
ATOM     11  C   UNL     1      78.209 -51.943 192.181  1.00  0.00     0.278 C 
ENDBRANCH   5  10
BRANCH   6  12
ATOM     12  O   UNL     1      80.833 -52.614 194.635  1.00  0.00    -0.504 OA
ATOM     13  H   UNL     1      81.733 -52.831 195.043  1.00  0.00     0.293 HD
ENDBRANCH   6  12
TORSDOF 3
ENDMDL
