MODEL 1
REMARK VINA RESULT:    -5.019      0.000      0.000
REMARK INTER + INTRA:          -6.930
REMARK INTER:                  -6.340
REMARK INTRA:                  -0.590
REMARK UNBOUND:                -0.590
REMARK SMILES Oc1ccc(CCc2cc(O)cc(O)c2)cc1
REMARK SMILES IDX 6 1 5 2 4 3 3 4 2 5 16 6 17 7 1 8 7 10 8 11 15 12 9 13 13 14
REMARK SMILES IDX 10 15 12 16 14 17 11 19
REMARK H PARENT 1 9 14 18 11 20
REMARK Flexibility Score: inf
ROOT
ATOM      1  C   UNL     1      28.905  36.349  71.097  1.00  0.00     0.040 C 
ENDROOT
BRANCH   1   2
ATOM      2  C   UNL     1      28.621  34.975  71.649  1.00  0.00    -0.047 A 
ATOM      3  C   UNL     1      29.668  34.175  72.135  1.00  0.00     0.007 A 
ATOM      4  C   UNL     1      29.396  32.921  72.691  1.00  0.00     0.046 A 
ATOM      5  C   UNL     1      28.080  32.458  72.772  1.00  0.00     0.115 A 
ATOM      6  C   UNL     1      27.299  34.510  71.739  1.00  0.00     0.007 A 
ATOM      7  C   UNL     1      27.031  33.255  72.294  1.00  0.00     0.046 A 
BRANCH   5   8
ATOM      8  O   UNL     1      27.824  31.207  73.329  1.00  0.00    -0.508 OA
ATOM      9  H   UNL     1      28.215  30.360  72.934  1.00  0.00     0.293 HD
ENDBRANCH   5   8
ENDBRANCH   1   2
BRANCH   1  10
ATOM     10  C   UNL     1      28.823  37.429  72.185  1.00  0.00     0.040 C 
BRANCH  10  11
ATOM     11  C   UNL     1      30.191  37.897  72.614  1.00  0.00    -0.040 A 
ATOM     12  C   UNL     1      30.347  38.628  73.802  1.00  0.00     0.050 A 
ATOM     13  C   UNL     1      31.309  37.661  71.798  1.00  0.00     0.050 A 
ATOM     14  C   UNL     1      31.607  39.105  74.179  1.00  0.00     0.119 A 
ATOM     15  C   UNL     1      32.570  38.138  72.169  1.00  0.00     0.119 A 
ATOM     16  C   UNL     1      32.719  38.857  73.363  1.00  0.00     0.092 A 
BRANCH  14  17
ATOM     17  O   UNL     1      31.743  39.825  75.364  1.00  0.00    -0.508 OA
ATOM     18  H   UNL     1      32.645  40.162  75.678  1.00  0.00     0.293 HD
ENDBRANCH  14  17
BRANCH  15  19
ATOM     19  O   UNL     1      33.667  37.894  71.346  1.00  0.00    -0.508 OA
ATOM     20  H   UNL     1      34.599  38.202  71.599  1.00  0.00     0.293 HD
ENDBRANCH  15  19
ENDBRANCH  10  11
ENDBRANCH   1  10
TORSDOF 6
ENDMDL
MODEL 2
REMARK VINA RESULT:    -4.948     12.965     16.213
REMARK INTER + INTRA:          -6.839
REMARK INTER:                  -6.311
REMARK INTRA:                  -0.528
REMARK UNBOUND:                -0.590
REMARK SMILES Oc1ccc(CCc2cc(O)cc(O)c2)cc1
REMARK SMILES IDX 6 1 5 2 4 3 3 4 2 5 16 6 17 7 1 8 7 10 8 11 15 12 9 13 13 14
REMARK SMILES IDX 10 15 12 16 14 17 11 19
REMARK H PARENT 1 9 14 18 11 20
REMARK Flexibility Score: inf
ROOT
ATOM      1  C   UNL     1      29.008  46.442  85.048  1.00  0.00     0.040 C 
ENDROOT
BRANCH   1   2
ATOM      2  C   UNL     1      28.571  46.193  86.470  1.00  0.00    -0.047 A 
ATOM      3  C   UNL     1      28.673  44.909  87.029  1.00  0.00     0.007 A 
ATOM      4  C   UNL     1      28.314  44.691  88.363  1.00  0.00     0.046 A 
ATOM      5  C   UNL     1      27.855  45.750  89.150  1.00  0.00     0.115 A 
ATOM      6  C   UNL     1      28.118  47.257  87.266  1.00  0.00     0.007 A 
ATOM      7  C   UNL     1      27.757  47.036  88.599  1.00  0.00     0.046 A 
BRANCH   5   8
ATOM      8  O   UNL     1      27.501  45.519  90.478  1.00  0.00    -0.508 OA
ATOM      9  H   UNL     1      28.029  44.884  91.063  1.00  0.00     0.293 HD
ENDBRANCH   5   8
ENDBRANCH   1   2
BRANCH   1  10
ATOM     10  C   UNL     1      29.555  45.168  84.389  1.00  0.00     0.040 C 
BRANCH  10  11
ATOM     11  C   UNL     1      28.789  44.812  83.140  1.00  0.00    -0.040 A 
ATOM     12  C   UNL     1      29.465  44.636  81.922  1.00  0.00     0.050 A 
ATOM     13  C   UNL     1      27.388  44.717  83.169  1.00  0.00     0.050 A 
ATOM     14  C   UNL     1      28.754  44.353  80.751  1.00  0.00     0.119 A 
ATOM     15  C   UNL     1      26.672  44.437  82.001  1.00  0.00     0.119 A 
ATOM     16  C   UNL     1      27.357  44.251  80.793  1.00  0.00     0.092 A 
BRANCH  14  17
ATOM     17  O   UNL     1      29.443  44.178  79.553  1.00  0.00    -0.508 OA
ATOM     18  H   UNL     1      29.715  43.258  79.229  1.00  0.00     0.293 HD
ENDBRANCH  14  17
BRANCH  15  19
ATOM     19  O   UNL     1      25.283  44.347  82.051  1.00  0.00    -0.508 OA
ATOM     20  H   UNL     1      24.813  43.457  82.162  1.00  0.00     0.293 HD
ENDBRANCH  15  19
ENDBRANCH  10  11
ENDBRANCH   1  10
TORSDOF 6
ENDMDL
MODEL 3
REMARK VINA RESULT:    -4.930      1.384      6.260
REMARK INTER + INTRA:          -6.817
REMARK INTER:                  -6.257
REMARK INTRA:                  -0.560
REMARK UNBOUND:                -0.590
REMARK SMILES Oc1ccc(CCc2cc(O)cc(O)c2)cc1
REMARK SMILES IDX 6 1 5 2 4 3 3 4 2 5 16 6 17 7 1 8 7 10 8 11 15 12 9 13 13 14
REMARK SMILES IDX 10 15 12 16 14 17 11 19
REMARK H PARENT 1 9 14 18 11 20
REMARK Flexibility Score: inf
ROOT
ATOM      1  C   UNL     1      30.349  36.722  70.875  1.00  0.00     0.040 C 
ENDROOT
BRANCH   1   2
ATOM      2  C   UNL     1      30.749  37.604  72.031  1.00  0.00    -0.047 A 
ATOM      3  C   UNL     1      29.817  37.931  73.029  1.00  0.00     0.007 A 
ATOM      4  C   UNL     1      30.203  38.709  74.125  1.00  0.00     0.046 A 
ATOM      5  C   UNL     1      31.520  39.162  74.237  1.00  0.00     0.115 A 
ATOM      6  C   UNL     1      32.073  38.054  72.151  1.00  0.00     0.007 A 
ATOM      7  C   UNL     1      32.456  38.833  73.247  1.00  0.00     0.046 A 
BRANCH   5   8
ATOM      8  O   UNL     1      31.891  39.935  75.336  1.00  0.00    -0.508 OA
ATOM      9  H   UNL     1      32.193  40.896  75.229  1.00  0.00     0.293 HD
ENDBRANCH   5   8
ENDBRANCH   1   2
BRANCH   1  10
ATOM     10  C   UNL     1      28.886  36.270  70.982  1.00  0.00     0.040 C 
BRANCH  10  11
ATOM     11  C   UNL     1      28.773  34.863  71.513  1.00  0.00    -0.040 A 
ATOM     12  C   UNL     1      27.517  34.334  71.849  1.00  0.00     0.050 A 
ATOM     13  C   UNL     1      29.927  34.094  71.736  1.00  0.00     0.050 A 
ATOM     14  C   UNL     1      27.412  33.046  72.386  1.00  0.00     0.119 A 
ATOM     15  C   UNL     1      29.827  32.808  72.275  1.00  0.00     0.119 A 
ATOM     16  C   UNL     1      28.569  32.283  72.597  1.00  0.00     0.092 A 
BRANCH  14  17
ATOM     17  O   UNL     1      26.157  32.536  72.710  1.00  0.00    -0.508 OA
ATOM     18  H   UNL     1      25.306  33.034  72.476  1.00  0.00     0.293 HD
ENDBRANCH  14  17
BRANCH  15  19
ATOM     19  O   UNL     1      30.983  32.061  72.490  1.00  0.00    -0.508 OA
ATOM     20  H   UNL     1      30.944  31.073  72.709  1.00  0.00     0.293 HD
ENDBRANCH  15  19
ENDBRANCH  10  11
ENDBRANCH   1  10
TORSDOF 6
ENDMDL
MODEL 4
REMARK VINA RESULT:    -4.924     12.900     16.048
REMARK INTER + INTRA:          -6.809
REMARK INTER:                  -6.303
REMARK INTRA:                  -0.507
REMARK UNBOUND:                -0.590
REMARK SMILES Oc1ccc(CCc2cc(O)cc(O)c2)cc1
REMARK SMILES IDX 6 1 5 2 4 3 3 4 2 5 16 6 17 7 1 8 7 10 8 11 15 12 9 13 13 14
REMARK SMILES IDX 10 15 12 16 14 17 11 19
REMARK H PARENT 1 9 14 18 11 20
REMARK Flexibility Score: inf
ROOT
ATOM      1  C   UNL     1      29.029  46.392  84.999  1.00  0.00     0.040 C 
ENDROOT
BRANCH   1   2
ATOM      2  C   UNL     1      28.593  46.153  86.422  1.00  0.00    -0.047 A 
ATOM      3  C   UNL     1      28.697  44.874  86.991  1.00  0.00     0.007 A 
ATOM      4  C   UNL     1      28.337  44.665  88.326  1.00  0.00     0.046 A 
ATOM      5  C   UNL     1      27.876  45.730  89.105  1.00  0.00     0.115 A 
ATOM      6  C   UNL     1      28.137  47.222  87.210  1.00  0.00     0.007 A 
ATOM      7  C   UNL     1      27.776  47.011  88.544  1.00  0.00     0.046 A 
BRANCH   5   8
ATOM      8  O   UNL     1      27.522  45.508  90.434  1.00  0.00    -0.508 OA
ATOM      9  H   UNL     1      26.557  45.548  90.739  1.00  0.00     0.293 HD
ENDBRANCH   5   8
ENDBRANCH   1   2
BRANCH   1  10
ATOM     10  C   UNL     1      29.489  45.094  84.318  1.00  0.00     0.040 C 
BRANCH  10  11
ATOM     11  C   UNL     1      28.748  44.847  83.028  1.00  0.00    -0.040 A 
ATOM     12  C   UNL     1      27.348  44.735  83.029  1.00  0.00     0.050 A 
ATOM     13  C   UNL     1      29.453  44.663  81.828  1.00  0.00     0.050 A 
ATOM     14  C   UNL     1      26.660  44.458  81.843  1.00  0.00     0.119 A 
ATOM     15  C   UNL     1      28.769  44.384  80.641  1.00  0.00     0.119 A 
ATOM     16  C   UNL     1      27.372  44.285  80.649  1.00  0.00     0.092 A 
BRANCH  14  17
ATOM     17  O   UNL     1      25.271  44.354  81.863  1.00  0.00    -0.508 OA
ATOM     18  H   UNL     1      24.787  43.618  81.363  1.00  0.00     0.293 HD
ENDBRANCH  14  17
BRANCH  15  19
ATOM     19  O   UNL     1      29.487  44.205  79.461  1.00  0.00    -0.508 OA
ATOM     20  H   UNL     1      30.102  43.410  79.329  1.00  0.00     0.293 HD
ENDBRANCH  15  19
ENDBRANCH  10  11
ENDBRANCH   1  10
TORSDOF 6
ENDMDL
MODEL 5
REMARK VINA RESULT:    -4.878      0.551      2.403
REMARK INTER + INTRA:          -6.751
REMARK INTER:                  -6.298
REMARK INTRA:                  -0.453
REMARK UNBOUND:                -0.590
REMARK SMILES Oc1ccc(CCc2cc(O)cc(O)c2)cc1
REMARK SMILES IDX 6 1 5 2 4 3 3 4 2 5 16 6 17 7 1 8 7 10 8 11 15 12 9 13 13 14
REMARK SMILES IDX 10 15 12 16 14 17 11 19
REMARK H PARENT 1 9 14 18 11 20
REMARK Flexibility Score: inf
ROOT
ATOM      1  C   UNL     1      29.496  35.627  71.173  1.00  0.00     0.040 C 
ENDROOT
BRANCH   1   2
ATOM      2  C   UNL     1      28.766  34.465  71.799  1.00  0.00    -0.047 A 
ATOM      3  C   UNL     1      27.368  34.369  71.699  1.00  0.00     0.007 A 
ATOM      4  C   UNL     1      26.698  33.266  72.236  1.00  0.00     0.046 A 
ATOM      5  C   UNL     1      27.415  32.250  72.874  1.00  0.00     0.115 A 
ATOM      6  C   UNL     1      29.483  33.438  72.432  1.00  0.00     0.007 A 
ATOM      7  C   UNL     1      28.810  32.338  72.971  1.00  0.00     0.046 A 
BRANCH   5   8
ATOM      8  O   UNL     1      26.734  31.156  73.405  1.00  0.00    -0.508 OA
ATOM      9  H   UNL     1      27.208  30.283  73.603  1.00  0.00     0.293 HD
ENDBRANCH   5   8
ENDBRANCH   1   2
BRANCH   1  10
ATOM     10  C   UNL     1      29.163  36.953  71.872  1.00  0.00     0.040 C 
BRANCH  10  11
ATOM     11  C   UNL     1      30.407  37.658  72.353  1.00  0.00    -0.040 A 
ATOM     12  C   UNL     1      31.605  37.546  71.630  1.00  0.00     0.050 A 
ATOM     13  C   UNL     1      30.393  38.379  73.558  1.00  0.00     0.050 A 
ATOM     14  C   UNL     1      32.773  38.159  72.096  1.00  0.00     0.119 A 
ATOM     15  C   UNL     1      31.558  38.992  74.029  1.00  0.00     0.119 A 
ATOM     16  C   UNL     1      32.748  38.884  73.296  1.00  0.00     0.092 A 
BRANCH  14  17
ATOM     17  O   UNL     1      33.952  38.040  71.364  1.00  0.00    -0.508 OA
ATOM     18  H   UNL     1      33.941  37.938  70.356  1.00  0.00     0.293 HD
ENDBRANCH  14  17
BRANCH  15  19
ATOM     19  O   UNL     1      31.525  39.702  75.227  1.00  0.00    -0.508 OA
ATOM     20  H   UNL     1      30.734  40.283  75.478  1.00  0.00     0.293 HD
ENDBRANCH  15  19
ENDBRANCH  10  11
ENDBRANCH   1  10
TORSDOF 6
ENDMDL
MODEL 6
REMARK VINA RESULT:    -4.814      1.559      6.683
REMARK INTER + INTRA:          -6.670
REMARK INTER:                  -6.172
REMARK INTRA:                  -0.498
REMARK UNBOUND:                -0.590
REMARK SMILES Oc1ccc(CCc2cc(O)cc(O)c2)cc1
REMARK SMILES IDX 6 1 5 2 4 3 3 4 2 5 16 6 17 7 1 8 7 10 8 11 15 12 9 13 13 14
REMARK SMILES IDX 10 15 12 16 14 17 11 19
REMARK H PARENT 1 9 14 18 11 20
REMARK Flexibility Score: inf
ROOT
ATOM      1  C   UNL     1      29.997  35.046  70.875  1.00  0.00     0.040 C 
ENDROOT
BRANCH   1   2
ATOM      2  C   UNL     1      30.966  36.118  71.305  1.00  0.00    -0.047 A 
ATOM      3  C   UNL     1      32.342  35.965  71.074  1.00  0.00     0.007 A 
ATOM      4  C   UNL     1      33.234  36.982  71.429  1.00  0.00     0.046 A 
ATOM      5  C   UNL     1      32.760  38.160  72.012  1.00  0.00     0.115 A 
ATOM      6  C   UNL     1      30.493  37.307  71.883  1.00  0.00     0.007 A 
ATOM      7  C   UNL     1      31.386  38.321  72.240  1.00  0.00     0.046 A 
BRANCH   5   8
ATOM      8  O   UNL     1      33.660  39.166  72.361  1.00  0.00    -0.508 OA
ATOM      9  H   UNL     1      34.047  39.794  71.666  1.00  0.00     0.293 HD
ENDBRANCH   5   8
ENDBRANCH   1   2
BRANCH   1  10
ATOM     10  C   UNL     1      28.930  34.779  71.947  1.00  0.00     0.040 C 
BRANCH  10  11
ATOM     11  C   UNL     1      28.892  33.325  72.347  1.00  0.00    -0.040 A 
ATOM     12  C   UNL     1      27.680  32.730  72.731  1.00  0.00     0.050 A 
ATOM     13  C   UNL     1      30.076  32.572  72.399  1.00  0.00     0.050 A 
ATOM     14  C   UNL     1      27.648  31.395  73.149  1.00  0.00     0.119 A 
ATOM     15  C   UNL     1      30.049  31.238  72.818  1.00  0.00     0.119 A 
ATOM     16  C   UNL     1      28.833  30.649  73.189  1.00  0.00     0.092 A 
BRANCH  14  17
ATOM     17  O   UNL     1      26.435  30.821  73.523  1.00  0.00    -0.508 OA
ATOM     18  H   UNL     1      26.141  29.922  73.161  1.00  0.00     0.293 HD
ENDBRANCH  14  17
BRANCH  15  19
ATOM     19  O   UNL     1      31.234  30.508  72.864  1.00  0.00    -0.508 OA
ATOM     20  H   UNL     1      32.112  30.937  73.136  1.00  0.00     0.293 HD
ENDBRANCH  15  19
ENDBRANCH  10  11
ENDBRANCH   1  10
TORSDOF 6
ENDMDL
MODEL 7
REMARK VINA RESULT:    -4.782     16.253     17.374
REMARK INTER + INTRA:          -6.629
REMARK INTER:                  -6.115
REMARK INTRA:                  -0.514
REMARK UNBOUND:                -0.590
REMARK SMILES Oc1ccc(CCc2cc(O)cc(O)c2)cc1
REMARK SMILES IDX 6 1 5 2 4 3 3 4 2 5 16 6 17 7 1 8 7 10 8 11 15 12 9 13 13 14
REMARK SMILES IDX 10 15 12 16 14 17 11 19
REMARK H PARENT 1 9 14 18 11 20
REMARK Flexibility Score: inf
ROOT
ATOM      1  C   UNL     1      22.710  34.103  89.576  1.00  0.00     0.040 C 
ENDROOT
BRANCH   1   2
ATOM      2  C   UNL     1      23.309  32.728  89.727  1.00  0.00    -0.047 A 
ATOM      3  C   UNL     1      22.665  31.609  89.175  1.00  0.00     0.007 A 
ATOM      4  C   UNL     1      23.246  30.341  89.273  1.00  0.00     0.046 A 
ATOM      5  C   UNL     1      24.476  30.180  89.918  1.00  0.00     0.115 A 
ATOM      6  C   UNL     1      24.548  32.563  90.366  1.00  0.00     0.007 A 
ATOM      7  C   UNL     1      25.126  31.294  90.465  1.00  0.00     0.046 A 
BRANCH   5   8
ATOM      8  O   UNL     1      25.045  28.911  90.008  1.00  0.00    -0.508 OA
ATOM      9  H   UNL     1      24.817  28.180  89.344  1.00  0.00     0.293 HD
ENDBRANCH   5   8
ENDBRANCH   1   2
BRANCH   1  10
ATOM     10  C   UNL     1      23.779  35.159  89.257  1.00  0.00     0.040 C 
BRANCH  10  11
ATOM     11  C   UNL     1      23.483  35.881  87.966  1.00  0.00    -0.040 A 
ATOM     12  C   UNL     1      23.367  37.280  87.951  1.00  0.00     0.050 A 
ATOM     13  C   UNL     1      23.258  35.157  86.784  1.00  0.00     0.050 A 
ATOM     14  C   UNL     1      23.045  37.950  86.766  1.00  0.00     0.119 A 
ATOM     15  C   UNL     1      22.934  35.823  85.597  1.00  0.00     0.119 A 
ATOM     16  C   UNL     1      22.831  37.220  85.588  1.00  0.00     0.092 A 
BRANCH  14  17
ATOM     17  O   UNL     1      22.938  39.339  86.769  1.00  0.00    -0.508 OA
ATOM     18  H   UNL     1      23.741  39.932  86.946  1.00  0.00     0.293 HD
ENDBRANCH  14  17
BRANCH  15  19
ATOM     19  O   UNL     1      22.714  35.088  84.435  1.00  0.00    -0.508 OA
ATOM     20  H   UNL     1      23.474  34.836  83.814  1.00  0.00     0.293 HD
ENDBRANCH  15  19
ENDBRANCH  10  11
ENDBRANCH   1  10
TORSDOF 6
ENDMDL
MODEL 8
REMARK VINA RESULT:    -4.756      1.597      3.119
REMARK INTER + INTRA:          -6.597
REMARK INTER:                  -6.078
REMARK INTRA:                  -0.519
REMARK UNBOUND:                -0.590
REMARK SMILES Oc1ccc(CCc2cc(O)cc(O)c2)cc1
REMARK SMILES IDX 6 1 5 2 4 3 3 4 2 5 16 6 17 7 1 8 7 10 8 11 15 12 9 13 13 14
REMARK SMILES IDX 10 15 12 16 14 17 11 19
REMARK H PARENT 1 9 14 18 11 20
REMARK Flexibility Score: inf
ROOT
ATOM      1  C   UNL     1      28.775  34.281  71.762  1.00  0.00     0.040 C 
ENDROOT
BRANCH   1   2
ATOM      2  C   UNL     1      28.996  32.887  72.292  1.00  0.00    -0.047 A 
ATOM      3  C   UNL     1      27.902  32.057  72.584  1.00  0.00     0.007 A 
ATOM      4  C   UNL     1      28.110  30.748  73.030  1.00  0.00     0.046 A 
ATOM      5  C   UNL     1      29.409  30.255  73.182  1.00  0.00     0.115 A 
ATOM      6  C   UNL     1      30.300  32.385  72.438  1.00  0.00     0.007 A 
ATOM      7  C   UNL     1      30.505  31.077  72.886  1.00  0.00     0.046 A 
BRANCH   5   8
ATOM      8  O   UNL     1      29.602  28.948  73.626  1.00  0.00    -0.508 OA
ATOM      9  H   UNL     1      29.270  28.642  74.533  1.00  0.00     0.293 HD
ENDBRANCH   5   8
ENDBRANCH   1   2
BRANCH   1  10
ATOM     10  C   UNL     1      29.976  34.777  70.943  1.00  0.00     0.040 C 
BRANCH  10  11
ATOM     11  C   UNL     1      30.532  36.067  71.492  1.00  0.00    -0.040 A 
ATOM     12  C   UNL     1      31.837  36.468  71.166  1.00  0.00     0.050 A 
ATOM     13  C   UNL     1      29.774  36.844  72.383  1.00  0.00     0.050 A 
ATOM     14  C   UNL     1      32.374  37.639  71.710  1.00  0.00     0.119 A 
ATOM     15  C   UNL     1      30.308  38.014  72.932  1.00  0.00     0.119 A 
ATOM     16  C   UNL     1      31.607  38.413  72.592  1.00  0.00     0.092 A 
BRANCH  14  17
ATOM     17  O   UNL     1      33.670  38.024  71.372  1.00  0.00    -0.508 OA
ATOM     18  H   UNL     1      34.109  38.834  71.793  1.00  0.00     0.293 HD
ENDBRANCH  14  17
BRANCH  15  19
ATOM     19  O   UNL     1      29.541  38.771  73.814  1.00  0.00    -0.508 OA
ATOM     20  H   UNL     1      29.521  39.783  73.767  1.00  0.00     0.293 HD
ENDBRANCH  15  19
ENDBRANCH  10  11
ENDBRANCH   1  10
TORSDOF 6
ENDMDL
MODEL 9
REMARK VINA RESULT:    -4.726     16.229     17.443
REMARK INTER + INTRA:          -6.559
REMARK INTER:                  -6.054
REMARK INTRA:                  -0.505
REMARK UNBOUND:                -0.590
REMARK SMILES Oc1ccc(CCc2cc(O)cc(O)c2)cc1
REMARK SMILES IDX 6 1 5 2 4 3 3 4 2 5 16 6 17 7 1 8 7 10 8 11 15 12 9 13 13 14
REMARK SMILES IDX 10 15 12 16 14 17 11 19
REMARK H PARENT 1 9 14 18 11 20
REMARK Flexibility Score: inf
ROOT
ATOM      1  C   UNL     1      22.719  34.063  89.577  1.00  0.00     0.040 C 
ENDROOT
BRANCH   1   2
ATOM      2  C   UNL     1      23.315  32.686  89.726  1.00  0.00    -0.047 A 
ATOM      3  C   UNL     1      22.673  31.570  89.166  1.00  0.00     0.007 A 
ATOM      4  C   UNL     1      23.253  30.302  89.262  1.00  0.00     0.046 A 
ATOM      5  C   UNL     1      24.478  30.136  89.913  1.00  0.00     0.115 A 
ATOM      6  C   UNL     1      24.551  32.518  90.371  1.00  0.00     0.007 A 
ATOM      7  C   UNL     1      25.127  31.248  90.468  1.00  0.00     0.046 A 
BRANCH   5   8
ATOM      8  O   UNL     1      25.046  28.867  90.001  1.00  0.00    -0.508 OA
ATOM      9  H   UNL     1      25.979  28.728  90.369  1.00  0.00     0.293 HD
ENDBRANCH   5   8
ENDBRANCH   1   2
BRANCH   1  10
ATOM     10  C   UNL     1      23.776  35.104  89.181  1.00  0.00     0.040 C 
BRANCH  10  11
ATOM     11  C   UNL     1      23.403  35.825  87.911  1.00  0.00    -0.040 A 
ATOM     12  C   UNL     1      23.167  35.101  86.732  1.00  0.00     0.050 A 
ATOM     13  C   UNL     1      23.349  37.228  87.881  1.00  0.00     0.050 A 
ATOM     14  C   UNL     1      22.866  35.768  85.539  1.00  0.00     0.119 A 
ATOM     15  C   UNL     1      23.052  37.900  86.691  1.00  0.00     0.119 A 
ATOM     16  C   UNL     1      22.807  37.169  85.521  1.00  0.00     0.092 A 
BRANCH  14  17
ATOM     17  O   UNL     1      22.631  35.033  84.380  1.00  0.00    -0.508 OA
ATOM     18  H   UNL     1      22.314  34.071  84.418  1.00  0.00     0.293 HD
ENDBRANCH  14  17
BRANCH  15  19
ATOM     19  O   UNL     1      23.005  39.291  86.681  1.00  0.00    -0.508 OA
ATOM     20  H   UNL     1      22.576  39.802  85.918  1.00  0.00     0.293 HD
ENDBRANCH  15  19
ENDBRANCH  10  11
ENDBRANCH   1  10
TORSDOF 6
ENDMDL
