MODEL 1
REMARK VINA RESULT:    -6.897      0.000      0.000
REMARK INTER + INTRA:          -8.627
REMARK INTER:                  -8.309
REMARK INTRA:                  -0.318
REMARK UNBOUND:                -0.318
REMARK SMILES O=c1c(O)c(-c2ccc(O)c(O)c2)oc2cc(O)cc(O)c12
REMARK SMILES IDX 5 1 3 2 2 3 1 4 22 5 20 6 19 7 17 8 16 9 15 10 14 11 6 12
REMARK SMILES IDX 7 13 8 14 9 15 13 16 11 17 10 18 12 20 4 22 21 24 18 26
REMARK H PARENT 10 19 12 21 4 23 21 25 18 27
REMARK Flexibility Score: inf
ROOT
ATOM      1  C   UNL     1      17.829  33.081  66.257  1.00  0.00     0.180 A 
ATOM      2  C   UNL     1      17.667  32.109  65.255  1.00  0.00     0.208 A 
ATOM      3  C   UNL     1      16.641  31.158  65.388  1.00  0.00     0.238 A 
ATOM      4  O   UNL     1      16.466  30.324  64.462  1.00  0.00    -0.285 OA
ATOM      5  C   UNL     1      15.802  31.183  66.527  1.00  0.00     0.111 A 
ATOM      6  C   UNL     1      14.756  30.245  66.785  1.00  0.00     0.134 A 
ATOM      7  C   UNL     1      13.904  30.444  67.878  1.00  0.00     0.093 A 
ATOM      8  C   UNL     1      14.100  31.510  68.760  1.00  0.00     0.123 A 
ATOM      9  C   UNL     1      15.154  32.396  68.551  1.00  0.00     0.094 A 
ATOM     10  C   UNL     1      15.999  32.246  67.448  1.00  0.00     0.146 A 
ATOM     11  O   UNL     1      16.985  33.118  67.280  1.00  0.00    -0.452 OA
ENDROOT
BRANCH   1  12
ATOM     12  C   UNL     1      18.902  34.099  66.199  1.00  0.00     0.025 A 
ATOM     13  C   UNL     1      18.731  35.305  65.496  1.00  0.00     0.016 A 
ATOM     14  C   UNL     1      19.767  36.240  65.435  1.00  0.00     0.051 A 
ATOM     15  C   UNL     1      20.990  35.984  66.061  1.00  0.00     0.157 A 
ATOM     16  C   UNL     1      20.140  33.835  66.810  1.00  0.00     0.062 A 
ATOM     17  C   UNL     1      21.181  34.774  66.750  1.00  0.00     0.158 A 
BRANCH  15  18
ATOM     18  O   UNL     1      22.005  36.937  65.984  1.00  0.00    -0.504 OA
ATOM     19  H   UNL     1      22.765  36.969  66.653  1.00  0.00     0.293 HD
ENDBRANCH  15  18
BRANCH  17  20
ATOM     20  O   UNL     1      22.400  34.507  67.370  1.00  0.00    -0.504 OA
ATOM     21  H   UNL     1      22.446  34.115  68.304  1.00  0.00     0.293 HD
ENDBRANCH  17  20
ENDBRANCH   1  12
BRANCH   2  22
ATOM     22  O   UNL     1      18.493  32.115  64.127  1.00  0.00    -0.502 OA
ATOM     23  H   UNL     1      18.168  31.827  63.213  1.00  0.00     0.293 HD
ENDBRANCH   2  22
BRANCH   6  24
ATOM     24  O   UNL     1      14.533  29.097  66.019  1.00  0.00    -0.507 OA
ATOM     25  H   UNL     1      13.895  28.357  66.266  1.00  0.00     0.293 HD
ENDBRANCH   6  24
BRANCH   8  26
ATOM     26  O   UNL     1      13.257  31.690  69.855  1.00  0.00    -0.508 OA
ATOM     27  H   UNL     1      13.427  32.416  70.541  1.00  0.00     0.293 HD
ENDBRANCH   8  26
TORSDOF 6
ENDMDL
MODEL 2
REMARK VINA RESULT:    -6.728      3.722      5.386
REMARK INTER + INTRA:          -8.422
REMARK INTER:                  -8.690
REMARK INTRA:                   0.267
REMARK UNBOUND:                -0.318
REMARK SMILES O=c1c(O)c(-c2ccc(O)c(O)c2)oc2cc(O)cc(O)c12
REMARK SMILES IDX 5 1 3 2 2 3 1 4 22 5 20 6 19 7 17 8 16 9 15 10 14 11 6 12
REMARK SMILES IDX 7 13 8 14 9 15 13 16 11 17 10 18 12 20 4 22 21 24 18 26
REMARK H PARENT 10 19 12 21 4 23 21 25 18 27
REMARK Flexibility Score: inf
ROOT
ATOM      1  C   UNL     1      15.882  30.659  66.247  1.00  0.00     0.180 A 
ATOM      2  C   UNL     1      14.568  30.783  66.732  1.00  0.00     0.208 A 
ATOM      3  C   UNL     1      14.358  30.856  68.118  1.00  0.00     0.238 A 
ATOM      4  O   UNL     1      13.186  31.022  68.545  1.00  0.00    -0.285 OA
ATOM      5  C   UNL     1      15.462  30.790  69.002  1.00  0.00     0.111 A 
ATOM      6  C   UNL     1      15.364  30.815  70.426  1.00  0.00     0.134 A 
ATOM      7  C   UNL     1      16.530  30.875  71.198  1.00  0.00     0.093 A 
ATOM      8  C   UNL     1      17.793  30.845  70.600  1.00  0.00     0.123 A 
ATOM      9  C   UNL     1      17.900  30.760  69.214  1.00  0.00     0.094 A 
ATOM     10  C   UNL     1      16.754  30.736  68.415  1.00  0.00     0.146 A 
ATOM     11  O   UNL     1      16.901  30.665  67.097  1.00  0.00    -0.452 OA
ENDROOT
BRANCH   1  12
ATOM     12  C   UNL     1      16.180  30.550  64.800  1.00  0.00     0.025 A 
ATOM     13  C   UNL     1      15.250  29.999  63.901  1.00  0.00     0.016 A 
ATOM     14  C   UNL     1      15.563  29.884  62.544  1.00  0.00     0.051 A 
ATOM     15  C   UNL     1      16.808  30.304  62.067  1.00  0.00     0.157 A 
ATOM     16  C   UNL     1      17.438  30.951  64.322  1.00  0.00     0.062 A 
ATOM     17  C   UNL     1      17.754  30.837  62.959  1.00  0.00     0.158 A 
BRANCH  15  18
ATOM     18  O   UNL     1      17.091  30.177  60.707  1.00  0.00    -0.504 OA
ATOM     19  H   UNL     1      17.964  29.786  60.373  1.00  0.00     0.293 HD
ENDBRANCH  15  18
BRANCH  17  20
ATOM     20  O   UNL     1      19.000  31.250  62.492  1.00  0.00    -0.504 OA
ATOM     21  H   UNL     1      19.412  30.853  61.656  1.00  0.00     0.293 HD
ENDBRANCH  17  20
ENDBRANCH   1  12
BRANCH   2  22
ATOM     22  O   UNL     1      13.494  30.868  65.841  1.00  0.00    -0.502 OA
ATOM     23  H   UNL     1      12.890  30.081  65.640  1.00  0.00     0.293 HD
ENDBRANCH   2  22
BRANCH   6  24
ATOM     24  O   UNL     1      14.154  30.755  71.125  1.00  0.00    -0.507 OA
ATOM     25  H   UNL     1      13.462  31.487  71.139  1.00  0.00     0.293 HD
ENDBRANCH   6  24
BRANCH   8  26
ATOM     26  O   UNL     1      18.948  30.889  71.377  1.00  0.00    -0.508 OA
ATOM     27  H   UNL     1      19.037  31.526  72.160  1.00  0.00     0.293 HD
ENDBRANCH   8  26
TORSDOF 6
ENDMDL
MODEL 3
REMARK VINA RESULT:    -6.637      2.030      6.954
REMARK INTER + INTRA:          -8.313
REMARK INTER:                  -8.000
REMARK INTRA:                  -0.313
REMARK UNBOUND:                -0.318
REMARK SMILES O=c1c(O)c(-c2ccc(O)c(O)c2)oc2cc(O)cc(O)c12
REMARK SMILES IDX 5 1 3 2 2 3 1 4 22 5 20 6 19 7 17 8 16 9 15 10 14 11 6 12
REMARK SMILES IDX 7 13 8 14 9 15 13 16 11 17 10 18 12 20 4 22 21 24 18 26
REMARK H PARENT 10 19 12 21 4 23 21 25 18 27
REMARK Flexibility Score: inf
ROOT
ATOM      1  C   UNL     1      15.654  32.832  66.889  1.00  0.00     0.180 A 
ATOM      2  C   UNL     1      16.649  31.848  67.019  1.00  0.00     0.208 A 
ATOM      3  C   UNL     1      17.985  32.190  66.754  1.00  0.00     0.238 A 
ATOM      4  O   UNL     1      18.878  31.321  66.925  1.00  0.00    -0.285 OA
ATOM      5  C   UNL     1      18.307  33.508  66.348  1.00  0.00     0.111 A 
ATOM      6  C   UNL     1      19.621  33.956  66.016  1.00  0.00     0.134 A 
ATOM      7  C   UNL     1      19.842  35.313  65.754  1.00  0.00     0.093 A 
ATOM      8  C   UNL     1      18.786  36.228  65.748  1.00  0.00     0.123 A 
ATOM      9  C   UNL     1      17.491  35.790  66.012  1.00  0.00     0.094 A 
ATOM     10  C   UNL     1      17.244  34.448  66.313  1.00  0.00     0.146 A 
ATOM     11  O   UNL     1      15.996  34.075  66.570  1.00  0.00    -0.452 OA
ENDROOT
BRANCH   1  12
ATOM     12  C   UNL     1      14.222  32.540  67.126  1.00  0.00     0.025 A 
ATOM     13  C   UNL     1      13.349  32.246  66.063  1.00  0.00     0.016 A 
ATOM     14  C   UNL     1      11.996  31.998  66.308  1.00  0.00     0.051 A 
ATOM     15  C   UNL     1      11.492  32.052  67.611  1.00  0.00     0.157 A 
ATOM     16  C   UNL     1      13.708  32.615  68.431  1.00  0.00     0.062 A 
ATOM     17  C   UNL     1      12.350  32.365  68.679  1.00  0.00     0.158 A 
BRANCH  15  18
ATOM     18  O   UNL     1      10.137  31.798  67.824  1.00  0.00    -0.504 OA
ATOM     19  H   UNL     1       9.555  32.416  68.378  1.00  0.00     0.293 HD
ENDBRANCH  15  18
BRANCH  17  20
ATOM     20  O   UNL     1      11.852  32.428  69.979  1.00  0.00    -0.504 OA
ATOM     21  H   UNL     1      12.151  33.147  70.628  1.00  0.00     0.293 HD
ENDBRANCH  17  20
ENDBRANCH   1  12
BRANCH   2  22
ATOM     22  O   UNL     1      16.313  30.559  67.442  1.00  0.00    -0.502 OA
ATOM     23  H   UNL     1      15.852  29.890  66.837  1.00  0.00     0.293 HD
ENDBRANCH   2  22
BRANCH   6  24
ATOM     24  O   UNL     1      20.728  33.109  65.904  1.00  0.00    -0.507 OA
ATOM     25  H   UNL     1      20.993  32.618  65.064  1.00  0.00     0.293 HD
ENDBRANCH   6  24
BRANCH   8  26
ATOM     26  O   UNL     1      19.013  37.574  65.470  1.00  0.00    -0.508 OA
ATOM     27  H   UNL     1      19.635  37.864  64.724  1.00  0.00     0.293 HD
ENDBRANCH   8  26
TORSDOF 6
ENDMDL
MODEL 4
REMARK VINA RESULT:    -6.489      3.148      7.474
REMARK INTER + INTRA:          -8.135
REMARK INTER:                  -7.891
REMARK INTRA:                  -0.244
REMARK UNBOUND:                -0.318
REMARK SMILES O=c1c(O)c(-c2ccc(O)c(O)c2)oc2cc(O)cc(O)c12
REMARK SMILES IDX 5 1 3 2 2 3 1 4 22 5 20 6 19 7 17 8 16 9 15 10 14 11 6 12
REMARK SMILES IDX 7 13 8 14 9 15 13 16 11 17 10 18 12 20 4 22 21 24 18 26
REMARK H PARENT 10 19 12 21 4 23 21 25 18 27
REMARK Flexibility Score: inf
ROOT
ATOM      1  C   UNL     1      14.834  31.247  67.495  1.00  0.00     0.180 A 
ATOM      2  C   UNL     1      15.612  31.247  68.666  1.00  0.00     0.208 A 
ATOM      3  C   UNL     1      17.010  31.167  68.555  1.00  0.00     0.238 A 
ATOM      4  O   UNL     1      17.704  31.222  69.604  1.00  0.00    -0.285 OA
ATOM      5  C   UNL     1      17.611  31.073  67.277  1.00  0.00     0.111 A 
ATOM      6  C   UNL     1      19.015  30.947  67.048  1.00  0.00     0.134 A 
ATOM      7  C   UNL     1      19.507  30.993  65.739  1.00  0.00     0.093 A 
ATOM      8  C   UNL     1      18.642  31.095  64.646  1.00  0.00     0.123 A 
ATOM      9  C   UNL     1      17.267  31.158  64.856  1.00  0.00     0.094 A 
ATOM     10  C   UNL     1      16.747  31.151  66.153  1.00  0.00     0.146 A 
ATOM     11  O   UNL     1      15.431  31.223  66.309  1.00  0.00    -0.452 OA
ENDROOT
BRANCH   1  12
ATOM     12  C   UNL     1      13.355  31.303  67.532  1.00  0.00     0.025 A 
ATOM     13  C   UNL     1      12.659  32.480  67.203  1.00  0.00     0.016 A 
ATOM     14  C   UNL     1      11.264  32.516  67.269  1.00  0.00     0.051 A 
ATOM     15  C   UNL     1      10.544  31.388  67.675  1.00  0.00     0.157 A 
ATOM     16  C   UNL     1      12.631  30.178  67.960  1.00  0.00     0.062 A 
ATOM     17  C   UNL     1      11.230  30.213  68.025  1.00  0.00     0.158 A 
BRANCH  15  18
ATOM     18  O   UNL     1       9.153  31.455  67.729  1.00  0.00    -0.504 OA
ATOM     19  H   UNL     1       8.625  32.130  67.187  1.00  0.00     0.293 HD
ENDBRANCH  15  18
BRANCH  17  20
ATOM     20  O   UNL     1      10.520  29.087  68.438  1.00  0.00    -0.504 OA
ATOM     21  H   UNL     1       9.563  29.152  68.763  1.00  0.00     0.293 HD
ENDBRANCH  17  20
ENDBRANCH   1  12
BRANCH   2  22
ATOM     22  O   UNL     1      15.000  31.362  69.917  1.00  0.00    -0.502 OA
ATOM     23  H   UNL     1      14.443  30.620  70.322  1.00  0.00     0.293 HD
ENDBRANCH   2  22
BRANCH   6  24
ATOM     24  O   UNL     1      19.955  30.749  68.064  1.00  0.00    -0.507 OA
ATOM     25  H   UNL     1      20.398  29.867  68.272  1.00  0.00     0.293 HD
ENDBRANCH   6  24
BRANCH   8  26
ATOM     26  O   UNL     1      19.141  31.124  63.345  1.00  0.00    -0.508 OA
ATOM     27  H   UNL     1      18.844  31.827  62.679  1.00  0.00     0.293 HD
ENDBRANCH   8  26
TORSDOF 6
ENDMDL
MODEL 5
REMARK VINA RESULT:    -6.465      3.509      4.726
REMARK INTER + INTRA:          -8.106
REMARK INTER:                  -7.887
REMARK INTRA:                  -0.219
REMARK UNBOUND:                -0.318
REMARK SMILES O=c1c(O)c(-c2ccc(O)c(O)c2)oc2cc(O)cc(O)c12
REMARK SMILES IDX 5 1 3 2 2 3 1 4 22 5 20 6 19 7 17 8 16 9 15 10 14 11 6 12
REMARK SMILES IDX 7 13 8 14 9 15 13 16 11 17 10 18 12 20 4 22 21 24 18 26
REMARK H PARENT 10 19 12 21 4 23 21 25 18 27
REMARK Flexibility Score: inf
ROOT
ATOM      1  C   UNL     1      18.092  31.680  67.895  1.00  0.00     0.180 A 
ATOM      2  C   UNL     1      18.366  32.737  67.011  1.00  0.00     0.208 A 
ATOM      3  C   UNL     1      17.327  33.613  66.655  1.00  0.00     0.238 A 
ATOM      4  O   UNL     1      17.589  34.590  65.907  1.00  0.00    -0.285 OA
ATOM      5  C   UNL     1      16.026  33.411  67.175  1.00  0.00     0.111 A 
ATOM      6  C   UNL     1      14.890  34.213  66.852  1.00  0.00     0.134 A 
ATOM      7  C   UNL     1      13.681  34.002  67.527  1.00  0.00     0.093 A 
ATOM      8  C   UNL     1      13.550  32.976  68.466  1.00  0.00     0.123 A 
ATOM      9  C   UNL     1      14.636  32.150  68.745  1.00  0.00     0.094 A 
ATOM     10  C   UNL     1      15.865  32.359  68.115  1.00  0.00     0.146 A 
ATOM     11  O   UNL     1      16.878  31.555  68.417  1.00  0.00    -0.452 OA
ENDROOT
BRANCH   1  12
ATOM     12  C   UNL     1      19.129  30.701  68.297  1.00  0.00     0.025 A 
ATOM     13  C   UNL     1      19.674  29.792  67.372  1.00  0.00     0.016 A 
ATOM     14  C   UNL     1      20.633  28.861  67.780  1.00  0.00     0.051 A 
ATOM     15  C   UNL     1      21.053  28.814  69.112  1.00  0.00     0.157 A 
ATOM     16  C   UNL     1      19.536  30.637  69.639  1.00  0.00     0.062 A 
ATOM     17  C   UNL     1      20.500  29.703  70.049  1.00  0.00     0.158 A 
BRANCH  15  18
ATOM     18  O   UNL     1      22.013  27.875  69.488  1.00  0.00    -0.504 OA
ATOM     19  H   UNL     1      22.921  28.148  69.846  1.00  0.00     0.293 HD
ENDBRANCH  15  18
BRANCH  17  20
ATOM     20  O   UNL     1      20.907  29.657  71.381  1.00  0.00    -0.504 OA
ATOM     21  H   UNL     1      20.837  30.467  71.987  1.00  0.00     0.293 HD
ENDBRANCH  17  20
ENDBRANCH   1  12
BRANCH   2  22
ATOM     22  O   UNL     1      19.662  32.932  66.525  1.00  0.00    -0.502 OA
ATOM     23  H   UNL     1      20.467  32.457  66.916  1.00  0.00     0.293 HD
ENDBRANCH   2  22
BRANCH   6  24
ATOM     24  O   UNL     1      14.889  35.202  65.864  1.00  0.00    -0.507 OA
ATOM     25  H   UNL     1      15.368  35.131  64.979  1.00  0.00     0.293 HD
ENDBRANCH   6  24
BRANCH   8  26
ATOM     26  O   UNL     1      12.338  32.762  69.121  1.00  0.00    -0.508 OA
ATOM     27  H   UNL     1      12.247  32.888  70.122  1.00  0.00     0.293 HD
ENDBRANCH   8  26
TORSDOF 6
ENDMDL
MODEL 6
REMARK VINA RESULT:    -6.390      2.949      7.832
REMARK INTER + INTRA:          -8.015
REMARK INTER:                  -7.690
REMARK INTRA:                  -0.326
REMARK UNBOUND:                -0.318
REMARK SMILES O=c1c(O)c(-c2ccc(O)c(O)c2)oc2cc(O)cc(O)c12
REMARK SMILES IDX 5 1 3 2 2 3 1 4 22 5 20 6 19 7 17 8 16 9 15 10 14 11 6 12
REMARK SMILES IDX 7 13 8 14 9 15 13 16 11 17 10 18 12 20 4 22 21 24 18 26
REMARK H PARENT 10 19 12 21 4 23 21 25 18 27
REMARK Flexibility Score: inf
ROOT
ATOM      1  C   UNL     1      14.661  30.819  68.641  1.00  0.00     0.180 A 
ATOM      2  C   UNL     1      15.063  30.808  69.988  1.00  0.00     0.208 A 
ATOM      3  C   UNL     1      16.422  30.980  70.295  1.00  0.00     0.238 A 
ATOM      4  O   UNL     1      16.769  31.024  71.504  1.00  0.00    -0.285 OA
ATOM      5  C   UNL     1      17.365  31.144  69.252  1.00  0.00     0.111 A 
ATOM      6  C   UNL     1      18.772  31.287  69.445  1.00  0.00     0.134 A 
ATOM      7  C   UNL     1      19.594  31.574  68.348  1.00  0.00     0.093 A 
ATOM      8  C   UNL     1      19.068  31.660  67.056  1.00  0.00     0.123 A 
ATOM      9  C   UNL     1      17.705  31.464  66.850  1.00  0.00     0.094 A 
ATOM     10  C   UNL     1      16.854  31.211  67.928  1.00  0.00     0.146 A 
ATOM     11  O   UNL     1      15.559  31.040  67.689  1.00  0.00    -0.452 OA
ENDROOT
BRANCH   1  12
ATOM     12  C   UNL     1      13.251  30.619  68.238  1.00  0.00     0.025 A 
ATOM     13  C   UNL     1      12.705  29.330  68.099  1.00  0.00     0.016 A 
ATOM     14  C   UNL     1      11.378  29.165  67.694  1.00  0.00     0.051 A 
ATOM     15  C   UNL     1      10.581  30.278  67.410  1.00  0.00     0.157 A 
ATOM     16  C   UNL     1      12.454  31.734  67.931  1.00  0.00     0.062 A 
ATOM     17  C   UNL     1      11.121  31.570  67.525  1.00  0.00     0.158 A 
BRANCH  15  18
ATOM     18  O   UNL     1       9.260  30.082  67.009  1.00  0.00    -0.504 OA
ATOM     19  H   UNL     1       8.785  30.726  66.387  1.00  0.00     0.293 HD
ENDBRANCH  15  18
BRANCH  17  20
ATOM     20  O   UNL     1      10.335  32.684  67.236  1.00  0.00    -0.504 OA
ATOM     21  H   UNL     1       9.808  32.753  66.374  1.00  0.00     0.293 HD
ENDBRANCH  17  20
ENDBRANCH   1  12
BRANCH   2  22
ATOM     22  O   UNL     1      14.113  30.666  71.004  1.00  0.00    -0.502 OA
ATOM     23  H   UNL     1      14.329  30.838  71.979  1.00  0.00     0.293 HD
ENDBRANCH   2  22
BRANCH   6  24
ATOM     24  O   UNL     1      19.409  31.129  70.679  1.00  0.00    -0.507 OA
ATOM     25  H   UNL     1      18.962  31.243  71.575  1.00  0.00     0.293 HD
ENDBRANCH   6  24
BRANCH   8  26
ATOM     26  O   UNL     1      19.896  31.931  65.969  1.00  0.00    -0.508 OA
ATOM     27  H   UNL     1      19.893  32.835  65.512  1.00  0.00     0.293 HD
ENDBRANCH   8  26
TORSDOF 6
ENDMDL
MODEL 7
REMARK VINA RESULT:    -6.388      3.766      7.267
REMARK INTER + INTRA:          -8.013
REMARK INTER:                  -7.786
REMARK INTRA:                  -0.228
REMARK UNBOUND:                -0.318
REMARK SMILES O=c1c(O)c(-c2ccc(O)c(O)c2)oc2cc(O)cc(O)c12
REMARK SMILES IDX 5 1 3 2 2 3 1 4 22 5 20 6 19 7 17 8 16 9 15 10 14 11 6 12
REMARK SMILES IDX 7 13 8 14 9 15 13 16 11 17 10 18 12 20 4 22 21 24 18 26
REMARK H PARENT 10 19 12 21 4 23 21 25 18 27
REMARK Flexibility Score: inf
ROOT
ATOM      1  C   UNL     1      14.080  31.424  68.098  1.00  0.00     0.180 A 
ATOM      2  C   UNL     1      15.222  31.952  67.470  1.00  0.00     0.208 A 
ATOM      3  C   UNL     1      16.472  31.801  68.093  1.00  0.00     0.238 A 
ATOM      4  O   UNL     1      17.498  32.227  67.502  1.00  0.00    -0.285 OA
ATOM      5  C   UNL     1      16.562  31.139  69.341  1.00  0.00     0.111 A 
ATOM      6  C   UNL     1      17.770  30.963  70.081  1.00  0.00     0.134 A 
ATOM      7  C   UNL     1      17.762  30.178  71.240  1.00  0.00     0.093 A 
ATOM      8  C   UNL     1      16.577  29.616  71.722  1.00  0.00     0.123 A 
ATOM      9  C   UNL     1      15.382  29.832  71.040  1.00  0.00     0.094 A 
ATOM     10  C   UNL     1      15.364  30.580  69.860  1.00  0.00     0.146 A 
ATOM     11  O   UNL     1      14.205  30.752  69.235  1.00  0.00    -0.452 OA
ENDROOT
BRANCH   1  12
ATOM     12  C   UNL     1      12.726  31.566  67.516  1.00  0.00     0.025 A 
ATOM     13  C   UNL     1      12.088  32.818  67.441  1.00  0.00     0.016 A 
ATOM     14  C   UNL     1      10.800  32.923  66.910  1.00  0.00     0.051 A 
ATOM     15  C   UNL     1      10.125  31.785  66.458  1.00  0.00     0.157 A 
ATOM     16  C   UNL     1      12.037  30.422  67.080  1.00  0.00     0.062 A 
ATOM     17  C   UNL     1      10.744  30.527  66.546  1.00  0.00     0.158 A 
BRANCH  15  18
ATOM     18  O   UNL     1       8.841  31.923  65.932  1.00  0.00    -0.504 OA
ATOM     19  H   UNL     1       8.613  31.636  64.987  1.00  0.00     0.293 HD
ENDBRANCH  15  18
BRANCH  17  20
ATOM     20  O   UNL     1      10.074  29.387  66.105  1.00  0.00    -0.504 OA
ATOM     21  H   UNL     1      10.548  28.496  66.010  1.00  0.00     0.293 HD
ENDBRANCH  17  20
ENDBRANCH   1  12
BRANCH   2  22
ATOM     22  O   UNL     1      15.115  32.584  66.228  1.00  0.00    -0.502 OA
ATOM     23  H   UNL     1      15.867  32.584  65.550  1.00  0.00     0.293 HD
ENDBRANCH   2  22
BRANCH   6  24
ATOM     24  O   UNL     1      18.988  31.557  69.737  1.00  0.00    -0.507 OA
ATOM     25  H   UNL     1      19.429  31.482  68.833  1.00  0.00     0.293 HD
ENDBRANCH   6  24
BRANCH   8  26
ATOM     26  O   UNL     1      16.575  28.850  72.886  1.00  0.00    -0.508 OA
ATOM     27  H   UNL     1      16.410  27.851  72.863  1.00  0.00     0.293 HD
ENDBRANCH   8  26
TORSDOF 6
ENDMDL
MODEL 8
REMARK VINA RESULT:    -6.387      3.172      7.038
REMARK INTER + INTRA:          -8.013
REMARK INTER:                  -7.766
REMARK INTRA:                  -0.247
REMARK UNBOUND:                -0.318
REMARK SMILES O=c1c(O)c(-c2ccc(O)c(O)c2)oc2cc(O)cc(O)c12
REMARK SMILES IDX 5 1 3 2 2 3 1 4 22 5 20 6 19 7 17 8 16 9 15 10 14 11 6 12
REMARK SMILES IDX 7 13 8 14 9 15 13 16 11 17 10 18 12 20 4 22 21 24 18 26
REMARK H PARENT 10 19 12 21 4 23 21 25 18 27
REMARK Flexibility Score: inf
ROOT
ATOM      1  C   UNL     1      14.722  31.149  67.190  1.00  0.00     0.180 A 
ATOM      2  C   UNL     1      15.395  31.018  65.963  1.00  0.00     0.208 A 
ATOM      3  C   UNL     1      16.798  30.977  65.957  1.00  0.00     0.238 A 
ATOM      4  O   UNL     1      17.394  30.806  64.862  1.00  0.00    -0.285 OA
ATOM      5  C   UNL     1      17.511  31.082  67.176  1.00  0.00     0.111 A 
ATOM      6  C   UNL     1      18.935  31.092  67.285  1.00  0.00     0.134 A 
ATOM      7  C   UNL     1      19.530  31.069  68.552  1.00  0.00     0.093 A 
ATOM      8  C   UNL     1      18.755  31.102  69.714  1.00  0.00     0.123 A 
ATOM      9  C   UNL     1      17.367  31.153  69.617  1.00  0.00     0.094 A 
ATOM     10  C   UNL     1      16.742  31.140  68.368  1.00  0.00     0.146 A 
ATOM     11  O   UNL     1      15.415  31.179  68.321  1.00  0.00    -0.452 OA
ENDROOT
BRANCH   1  12
ATOM     12  C   UNL     1      13.245  31.225  67.274  1.00  0.00     0.025 A 
ATOM     13  C   UNL     1      12.544  32.360  66.830  1.00  0.00     0.016 A 
ATOM     14  C   UNL     1      11.153  32.420  66.941  1.00  0.00     0.051 A 
ATOM     15  C   UNL     1      10.442  31.357  67.507  1.00  0.00     0.157 A 
ATOM     16  C   UNL     1      12.531  30.168  67.861  1.00  0.00     0.062 A 
ATOM     17  C   UNL     1      11.133  30.226  67.973  1.00  0.00     0.158 A 
BRANCH  15  18
ATOM     18  O   UNL     1       9.054  31.445  67.603  1.00  0.00    -0.504 OA
ATOM     19  H   UNL     1       8.455  31.409  66.787  1.00  0.00     0.293 HD
ENDBRANCH  15  18
BRANCH  17  20
ATOM     20  O   UNL     1      10.432  29.166  68.545  1.00  0.00    -0.504 OA
ATOM     21  H   UNL     1       9.618  29.320  69.129  1.00  0.00     0.293 HD
ENDBRANCH  17  20
ENDBRANCH   1  12
BRANCH   2  22
ATOM     22  O   UNL     1      14.672  30.895  64.773  1.00  0.00    -0.502 OA
ATOM     23  H   UNL     1      13.995  30.157  64.621  1.00  0.00     0.293 HD
ENDBRANCH   2  22
BRANCH   6  24
ATOM     24  O   UNL     1      19.800  31.152  66.188  1.00  0.00    -0.507 OA
ATOM     25  H   UNL     1      20.765  30.862  66.201  1.00  0.00     0.293 HD
ENDBRANCH   6  24
BRANCH   8  26
ATOM     26  O   UNL     1      19.357  31.095  70.970  1.00  0.00    -0.508 OA
ATOM     27  H   UNL     1      20.341  30.884  71.085  1.00  0.00     0.293 HD
ENDBRANCH   8  26
TORSDOF 6
ENDMDL
MODEL 9
REMARK VINA RESULT:    -6.349      2.467      3.117
REMARK INTER + INTRA:          -7.966
REMARK INTER:                  -7.929
REMARK INTRA:                  -0.038
REMARK UNBOUND:                -0.318
REMARK SMILES O=c1c(O)c(-c2ccc(O)c(O)c2)oc2cc(O)cc(O)c12
REMARK SMILES IDX 5 1 3 2 2 3 1 4 22 5 20 6 19 7 17 8 16 9 15 10 14 11 6 12
REMARK SMILES IDX 7 13 8 14 9 15 13 16 11 17 10 18 12 20 4 22 21 24 18 26
REMARK H PARENT 10 19 12 21 4 23 21 25 18 27
REMARK Flexibility Score: inf
ROOT
ATOM      1  C   UNL     1      16.511  32.065  67.701  1.00  0.00     0.180 A 
ATOM      2  C   UNL     1      15.331  31.561  67.129  1.00  0.00     0.208 A 
ATOM      3  C   UNL     1      14.618  30.559  67.808  1.00  0.00     0.238 A 
ATOM      4  O   UNL     1      13.533  30.150  67.318  1.00  0.00    -0.285 OA
ATOM      5  C   UNL     1      15.103  30.064  69.042  1.00  0.00     0.111 A 
ATOM      6  C   UNL     1      14.484  29.023  69.798  1.00  0.00     0.134 A 
ATOM      7  C   UNL     1      14.978  28.704  71.068  1.00  0.00     0.093 A 
ATOM      8  C   UNL     1      16.109  29.343  71.583  1.00  0.00     0.123 A 
ATOM      9  C   UNL     1      16.756  30.318  70.828  1.00  0.00     0.094 A 
ATOM     10  C   UNL     1      16.265  30.685  69.573  1.00  0.00     0.146 A 
ATOM     11  O   UNL     1      16.905  31.627  68.891  1.00  0.00    -0.452 OA
ENDROOT
BRANCH   1  12
ATOM     12  C   UNL     1      17.330  33.103  67.033  1.00  0.00     0.025 A 
ATOM     13  C   UNL     1      16.768  34.324  66.620  1.00  0.00     0.016 A 
ATOM     14  C   UNL     1      17.554  35.278  65.969  1.00  0.00     0.051 A 
ATOM     15  C   UNL     1      18.905  35.026  65.710  1.00  0.00     0.157 A 
ATOM     16  C   UNL     1      18.681  32.843  66.752  1.00  0.00     0.062 A 
ATOM     17  C   UNL     1      19.472  33.801  66.100  1.00  0.00     0.158 A 
BRANCH  15  18
ATOM     18  O   UNL     1      19.664  35.998  65.060  1.00  0.00    -0.504 OA
ATOM     19  H   UNL     1      19.412  36.980  65.080  1.00  0.00     0.293 HD
ENDBRANCH  15  18
BRANCH  17  20
ATOM     20  O   UNL     1      20.816  33.539  65.838  1.00  0.00    -0.504 OA
ATOM     21  H   UNL     1      21.556  33.977  66.373  1.00  0.00     0.293 HD
ENDBRANCH  17  20
ENDBRANCH   1  12
BRANCH   2  22
ATOM     22  O   UNL     1      14.858  32.079  65.919  1.00  0.00    -0.502 OA
ATOM     23  H   UNL     1      15.169  31.733  65.020  1.00  0.00     0.293 HD
ENDBRANCH   2  22
BRANCH   6  24
ATOM     24  O   UNL     1      13.407  28.260  69.336  1.00  0.00    -0.507 OA
ATOM     25  H   UNL     1      13.480  27.320  68.979  1.00  0.00     0.293 HD
ENDBRANCH   6  24
BRANCH   8  26
ATOM     26  O   UNL     1      16.604  29.007  72.841  1.00  0.00    -0.508 OA
ATOM     27  H   UNL     1      17.346  29.541  73.279  1.00  0.00     0.293 HD
ENDBRANCH   8  26
TORSDOF 6
ENDMDL
