MODEL 1
REMARK VINA RESULT:    -3.453      0.000      0.000
REMARK INTER + INTRA:          -4.788
REMARK INTER:                  -4.664
REMARK INTRA:                  -0.125
REMARK UNBOUND:                -0.125
REMARK SMILES CCCCCCCC(=O)[O-]
REMARK SMILES IDX 5 1 6 2 7 3 8 4 9 5 10 6 4 7 3 8 2 9 1 10
REMARK H PARENT
REMARK Flexibility Score: inf
ROOT
ATOM      1  C   UNL     1       8.311   0.394  46.028  1.00  0.00     0.000 C 
ENDROOT
BRANCH   1   2
ATOM      2  C   UNL     1       7.668   1.171  44.864  1.00  0.00     0.006 C 
BRANCH   2   3
ATOM      3  C   UNL     1       6.239   0.725  44.518  1.00  0.00     0.053 C 
BRANCH   3   4
ATOM      4  C   UNL     1       5.364   1.882  44.146  1.00  0.00     0.041 C 
ATOM      5  O   UNL     1       4.122   1.828  44.347  1.00  0.00    -0.550 OA
ATOM      6  O   UNL     1       5.925   3.035  43.610  1.00  0.00    -0.550 OA
ENDBRANCH   3   4
ENDBRANCH   2   3
ENDBRANCH   1   2
BRANCH   1   7
ATOM      7  C   UNL     1       9.818   0.661  46.162  1.00  0.00     0.000 C 
BRANCH   7   8
ATOM      8  C   UNL     1      10.615  -0.191  45.167  1.00  0.00    -0.000 C 
BRANCH   8   9
ATOM      9  C   UNL     1      12.106  -0.206  45.527  1.00  0.00    -0.003 C 
ATOM     10  C   UNL     1      12.948  -0.731  44.369  1.00  0.00     0.004 C 
ENDBRANCH   8   9
ENDBRANCH   7   8
ENDBRANCH   1   7
TORSDOF 6
ENDMDL
MODEL 2
REMARK VINA RESULT:    -3.227     10.025     11.989
REMARK INTER + INTRA:          -4.483
REMARK INTER:                  -4.097
REMARK INTRA:                  -0.386
REMARK UNBOUND:                -0.125
REMARK SMILES CCCCCCCC(=O)[O-]
REMARK SMILES IDX 5 1 6 2 7 3 8 4 9 5 10 6 4 7 3 8 2 9 1 10
REMARK H PARENT
REMARK Flexibility Score: inf
ROOT
ATOM      1  C   UNL     1      16.364   2.386  36.497  1.00  0.00     0.000 C 
ENDROOT
BRANCH   1   2
ATOM      2  C   UNL     1      16.012   1.780  35.126  1.00  0.00     0.006 C 
BRANCH   2   3
ATOM      3  C   UNL     1      15.325   0.408  35.198  1.00  0.00     0.053 C 
BRANCH   3   4
ATOM      4  C   UNL     1      15.128  -0.194  33.840  1.00  0.00     0.041 C 
ATOM      5  O   UNL     1      14.003  -0.132  33.277  1.00  0.00    -0.550 OA
ATOM      6  O   UNL     1      16.196  -0.793  33.183  1.00  0.00    -0.550 OA
ENDBRANCH   3   4
ENDBRANCH   2   3
ENDBRANCH   1   2
BRANCH   1   7
ATOM      7  C   UNL     1      15.206   3.187  37.109  1.00  0.00     0.000 C 
BRANCH   7   8
ATOM      8  C   UNL     1      14.954   2.764  38.561  1.00  0.00    -0.000 C 
BRANCH   8   9
ATOM      9  C   UNL     1      14.825   1.240  38.675  1.00  0.00    -0.003 C 
ATOM     10  C   UNL     1      13.430   0.772  38.272  1.00  0.00     0.004 C 
ENDBRANCH   8   9
ENDBRANCH   7   8
ENDBRANCH   1   7
TORSDOF 6
ENDMDL
MODEL 3
REMARK VINA RESULT:    -3.191     10.300     11.945
REMARK INTER + INTRA:          -4.434
REMARK INTER:                  -3.990
REMARK INTRA:                  -0.444
REMARK UNBOUND:                -0.125
REMARK SMILES CCCCCCCC(=O)[O-]
REMARK SMILES IDX 5 1 6 2 7 3 8 4 9 5 10 6 4 7 3 8 2 9 1 10
REMARK H PARENT
REMARK Flexibility Score: inf
ROOT
ATOM      1  C   UNL     1      15.677   0.730  37.585  1.00  0.00     0.000 C 
ENDROOT
BRANCH   1   2
ATOM      2  C   UNL     1      15.281  -0.050  36.318  1.00  0.00     0.006 C 
BRANCH   2   3
ATOM      3  C   UNL     1      15.407   0.754  35.014  1.00  0.00     0.053 C 
BRANCH   3   4
ATOM      4  C   UNL     1      15.220  -0.107  33.803  1.00  0.00     0.041 C 
ATOM      5  O   UNL     1      14.080  -0.229  33.282  1.00  0.00    -0.550 OA
ATOM      6  O   UNL     1      16.312  -0.746  33.228  1.00  0.00    -0.550 OA
ENDBRANCH   3   4
ENDBRANCH   2   3
ENDBRANCH   1   2
BRANCH   1   7
ATOM      7  C   UNL     1      14.462   1.221  38.386  1.00  0.00     0.000 C 
BRANCH   7   8
ATOM      8  C   UNL     1      14.261   2.730  38.206  1.00  0.00    -0.000 C 
BRANCH   8   9
ATOM      9  C   UNL     1      15.559   3.408  37.752  1.00  0.00    -0.003 C 
ATOM     10  C   UNL     1      15.322   4.294  36.534  1.00  0.00     0.004 C 
ENDBRANCH   8   9
ENDBRANCH   7   8
ENDBRANCH   1   7
TORSDOF 6
ENDMDL
MODEL 4
REMARK VINA RESULT:    -3.166     10.701     11.479
REMARK INTER + INTRA:          -4.400
REMARK INTER:                  -4.131
REMARK INTRA:                  -0.270
REMARK UNBOUND:                -0.125
REMARK SMILES CCCCCCCC(=O)[O-]
REMARK SMILES IDX 5 1 6 2 7 3 8 4 9 5 10 6 4 7 3 8 2 9 1 10
REMARK H PARENT
REMARK Flexibility Score: inf
ROOT
ATOM      1  C   UNL     1       5.635  11.742  41.652  1.00  0.00     0.000 C 
ENDROOT
BRANCH   1   2
ATOM      2  C   UNL     1       4.250  11.173  41.293  1.00  0.00     0.006 C 
BRANCH   2   3
ATOM      3  C   UNL     1       4.246   9.670  40.974  1.00  0.00     0.053 C 
BRANCH   3   4
ATOM      4  C   UNL     1       4.458   9.404  39.515  1.00  0.00     0.041 C 
ATOM      5  O   UNL     1       4.947   8.307  39.135  1.00  0.00    -0.550 OA
ATOM      6  O   UNL     1       4.083  10.354  38.573  1.00  0.00    -0.550 OA
ENDBRANCH   3   4
ENDBRANCH   2   3
ENDBRANCH   1   2
BRANCH   1   7
ATOM      7  C   UNL     1       6.402  12.261  40.427  1.00  0.00     0.000 C 
BRANCH   7   8
ATOM      8  C   UNL     1       7.904  11.989  40.565  1.00  0.00    -0.000 C 
BRANCH   8   9
ATOM      9  C   UNL     1       8.377  12.226  42.004  1.00  0.00    -0.003 C 
ATOM     10  C   UNL     1       9.855  11.887  42.162  1.00  0.00     0.004 C 
ENDBRANCH   8   9
ENDBRANCH   7   8
ENDBRANCH   1   7
TORSDOF 6
ENDMDL
MODEL 5
REMARK VINA RESULT:    -3.143      9.996     11.604
REMARK INTER + INTRA:          -4.369
REMARK INTER:                  -4.002
REMARK INTRA:                  -0.367
REMARK UNBOUND:                -0.125
REMARK SMILES CCCCCCCC(=O)[O-]
REMARK SMILES IDX 5 1 6 2 7 3 8 4 9 5 10 6 4 7 3 8 2 9 1 10
REMARK H PARENT
REMARK Flexibility Score: inf
ROOT
ATOM      1  C   UNL     1      14.469   0.600  37.041  1.00  0.00     0.000 C 
ENDROOT
BRANCH   1   2
ATOM      2  C   UNL     1      14.768   1.408  38.316  1.00  0.00     0.006 C 
BRANCH   2   3
ATOM      3  C   UNL     1      14.386   2.894  38.229  1.00  0.00     0.053 C 
BRANCH   3   4
ATOM      4  C   UNL     1      15.327   3.666  37.356  1.00  0.00     0.041 C 
ATOM      5  O   UNL     1      16.562   3.425  37.386  1.00  0.00    -0.550 OA
ATOM      6  O   UNL     1      14.835   4.628  36.482  1.00  0.00    -0.550 OA
ENDBRANCH   3   4
ENDBRANCH   2   3
ENDBRANCH   1   2
BRANCH   1   7
ATOM      7  C   UNL     1      15.740   0.065  36.363  1.00  0.00     0.000 C 
BRANCH   7   8
ATOM      8  C   UNL     1      15.898   0.651  34.955  1.00  0.00    -0.000 C 
BRANCH   8   9
ATOM      9  C   UNL     1      15.505  -0.375  33.885  1.00  0.00    -0.003 C 
ATOM     10  C   UNL     1      14.156  -0.031  33.260  1.00  0.00     0.004 C 
ENDBRANCH   8   9
ENDBRANCH   7   8
ENDBRANCH   1   7
TORSDOF 6
ENDMDL
MODEL 6
REMARK VINA RESULT:    -3.115     10.103     12.186
REMARK INTER + INTRA:          -4.332
REMARK INTER:                  -3.919
REMARK INTRA:                  -0.413
REMARK UNBOUND:                -0.125
REMARK SMILES CCCCCCCC(=O)[O-]
REMARK SMILES IDX 5 1 6 2 7 3 8 4 9 5 10 6 4 7 3 8 2 9 1 10
REMARK H PARENT
REMARK Flexibility Score: inf
ROOT
ATOM      1  C   UNL     1      16.754   2.357  35.146  1.00  0.00     0.000 C 
ENDROOT
BRANCH   1   2
ATOM      2  C   UNL     1      15.753   2.399  36.315  1.00  0.00     0.006 C 
BRANCH   2   3
ATOM      3  C   UNL     1      15.169   1.030  36.699  1.00  0.00     0.053 C 
BRANCH   3   4
ATOM      4  C   UNL     1      14.511   1.056  38.045  1.00  0.00     0.041 C 
ATOM      5  O   UNL     1      13.281   0.813  38.153  1.00  0.00    -0.550 OA
ATOM      6  O   UNL     1      15.265   1.315  39.183  1.00  0.00    -0.550 OA
ENDBRANCH   3   4
ENDBRANCH   2   3
ENDBRANCH   1   2
BRANCH   1   7
ATOM      7  C   UNL     1      16.115   1.886  33.831  1.00  0.00     0.000 C 
BRANCH   7   8
ATOM      8  C   UNL     1      16.778   0.598  33.331  1.00  0.00    -0.000 C 
BRANCH   8   9
ATOM      9  C   UNL     1      15.814  -0.591  33.429  1.00  0.00    -0.003 C 
ATOM     10  C   UNL     1      14.362  -0.133  33.350  1.00  0.00     0.004 C 
ENDBRANCH   8   9
ENDBRANCH   7   8
ENDBRANCH   1   7
TORSDOF 6
ENDMDL
MODEL 7
REMARK VINA RESULT:    -3.052     10.021     11.297
REMARK INTER + INTRA:          -4.248
REMARK INTER:                  -3.981
REMARK INTRA:                  -0.266
REMARK UNBOUND:                -0.125
REMARK SMILES CCCCCCCC(=O)[O-]
REMARK SMILES IDX 5 1 6 2 7 3 8 4 9 5 10 6 4 7 3 8 2 9 1 10
REMARK H PARENT
REMARK Flexibility Score: inf
ROOT
ATOM      1  C   UNL     1      14.666   0.886  38.022  1.00  0.00     0.000 C 
ENDROOT
BRANCH   1   2
ATOM      2  C   UNL     1      14.452   0.359  36.591  1.00  0.00     0.006 C 
BRANCH   2   3
ATOM      3  C   UNL     1      15.699   0.436  35.695  1.00  0.00     0.053 C 
BRANCH   3   4
ATOM      4  C   UNL     1      15.455  -0.156  34.340  1.00  0.00     0.041 C 
ATOM      5  O   UNL     1      16.408  -0.656  33.687  1.00  0.00    -0.550 OA
ATOM      6  O   UNL     1      14.169  -0.186  33.815  1.00  0.00    -0.550 OA
ENDBRANCH   3   4
ENDBRANCH   2   3
ENDBRANCH   1   2
BRANCH   1   7
ATOM      7  C   UNL     1      14.397   2.393  38.148  1.00  0.00     0.000 C 
BRANCH   7   8
ATOM      8  C   UNL     1      15.343   3.034  39.169  1.00  0.00    -0.000 C 
BRANCH   8   9
ATOM      9  C   UNL     1      16.193   1.971  39.876  1.00  0.00    -0.003 C 
ATOM     10  C   UNL     1      16.486   2.368  41.319  1.00  0.00     0.004 C 
ENDBRANCH   8   9
ENDBRANCH   7   8
ENDBRANCH   1   7
TORSDOF 6
ENDMDL
MODEL 8
REMARK VINA RESULT:    -3.048      9.747     11.676
REMARK INTER + INTRA:          -4.242
REMARK INTER:                  -4.017
REMARK INTRA:                  -0.225
REMARK UNBOUND:                -0.125
REMARK SMILES CCCCCCCC(=O)[O-]
REMARK SMILES IDX 5 1 6 2 7 3 8 4 9 5 10 6 4 7 3 8 2 9 1 10
REMARK H PARENT
REMARK Flexibility Score: inf
ROOT
ATOM      1  C   UNL     1      15.297   1.025  36.317  1.00  0.00     0.000 C 
ENDROOT
BRANCH   1   2
ATOM      2  C   UNL     1      14.525   1.045  37.649  1.00  0.00     0.006 C 
BRANCH   2   3
ATOM      3  C   UNL     1      14.214   2.454  38.179  1.00  0.00     0.053 C 
BRANCH   3   4
ATOM      4  C   UNL     1      15.420   3.107  38.782  1.00  0.00     0.041 C 
ATOM      5  O   UNL     1      16.023   4.021  38.161  1.00  0.00    -0.550 OA
ATOM      6  O   UNL     1      15.857   2.729  40.046  1.00  0.00    -0.550 OA
ENDBRANCH   3   4
ENDBRANCH   2   3
ENDBRANCH   1   2
BRANCH   1   7
ATOM      7  C   UNL     1      15.199  -0.326  35.593  1.00  0.00     0.000 C 
BRANCH   7   8
ATOM      8  C   UNL     1      14.751  -0.138  34.139  1.00  0.00    -0.000 C 
BRANCH   8   9
ATOM      9  C   UNL     1      15.918   0.325  33.259  1.00  0.00    -0.003 C 
ATOM     10  C   UNL     1      17.036  -0.712  33.235  1.00  0.00     0.004 C 
ENDBRANCH   8   9
ENDBRANCH   7   8
ENDBRANCH   1   7
TORSDOF 6
ENDMDL
MODEL 9
REMARK VINA RESULT:    -3.044     10.223     11.263
REMARK INTER + INTRA:          -4.236
REMARK INTER:                  -4.124
REMARK INTRA:                  -0.112
REMARK UNBOUND:                -0.125
REMARK SMILES CCCCCCCC(=O)[O-]
REMARK SMILES IDX 5 1 6 2 7 3 8 4 9 5 10 6 4 7 3 8 2 9 1 10
REMARK H PARENT
REMARK Flexibility Score: inf
ROOT
ATOM      1  C   UNL     1       7.128  12.021  41.282  1.00  0.00     0.000 C 
ENDROOT
BRANCH   1   2
ATOM      2  C   UNL     1       6.423  11.603  39.978  1.00  0.00     0.006 C 
BRANCH   2   3
ATOM      3  C   UNL     1       5.211  10.682  40.181  1.00  0.00     0.053 C 
BRANCH   3   4
ATOM      4  C   UNL     1       5.053   9.704  39.056  1.00  0.00     0.041 C 
ATOM      5  O   UNL     1       5.077  10.103  37.862  1.00  0.00    -0.550 OA
ATOM      6  O   UNL     1       4.915   8.349  39.327  1.00  0.00    -0.550 OA
ENDBRANCH   3   4
ENDBRANCH   2   3
ENDBRANCH   1   2
BRANCH   1   7
ATOM      7  C   UNL     1       8.659  11.980  41.171  1.00  0.00     0.000 C 
BRANCH   7   8
ATOM      8  C   UNL     1       9.314  12.242  42.532  1.00  0.00    -0.000 C 
BRANCH   8   9
ATOM      9  C   UNL     1      10.771  11.762  42.543  1.00  0.00    -0.003 C 
ATOM     10  C   UNL     1      11.047  10.863  43.743  1.00  0.00     0.004 C 
ENDBRANCH   8   9
ENDBRANCH   7   8
ENDBRANCH   1   7
TORSDOF 6
ENDMDL
