MODEL 1
REMARK VINA RESULT:    -3.341      0.000      0.000
REMARK INTER + INTRA:          -4.518
REMARK INTER:                  -4.708
REMARK INTRA:                   0.191
REMARK UNBOUND:                 0.191
REMARK SMILES CC1=CCC(=C(C)C)C(=O)CC(C)=CCC1
REMARK SMILES IDX 12 1 14 2 13 3 15 4 16 5 2 6 1 7 3 8 11 10 9 11 10 12 5 13
REMARK SMILES IDX 6 14 7 15 8 16 4 17
REMARK H PARENT
REMARK Flexibility Score: 60.00
ROOT
ATOM      1  C   UNL     1       0.854   7.721  -8.354  1.00  0.00    -0.070 C 
ATOM      2  C   UNL     1      -0.295   7.164  -8.795  1.00  0.00    -0.027 C 
ATOM      3  C   UNL     1       1.875   6.817  -7.709  1.00  0.00     0.039 C 
ENDROOT
BRANCH   2   4
ATOM      4  C   UNL     1      -1.474   7.913  -9.378  1.00  0.00     0.032 C 
BRANCH   4   5
ATOM      5  C   UNL     1      -1.300   8.353 -10.846  1.00  0.00     0.034 C 
BRANCH   5   6
ATOM      6  C   UNL     1      -1.646   9.813 -11.077  1.00  0.00    -0.077 C 
ATOM      7  C   UNL     1      -3.086  10.226 -10.911  1.00  0.00     0.039 C 
ATOM      8  C   UNL     1      -0.760  10.752 -11.490  1.00  0.00    -0.023 CG0
ATOM      9  G   UNL     1       0.730  10.573 -11.704  1.00  0.00     0.000 G0
ENDBRANCH   5   6
ENDBRANCH   4   5
ENDBRANCH   2   4
BRANCH   1  10
ATOM     10  C   UNL     1       1.124   9.211  -8.390  1.00  0.00     0.111 C 
BRANCH  10  11
ATOM     11  C   UNL     1       1.900   9.606  -9.618  1.00  0.00     0.163 C 
ATOM     12  O   UNL     1       2.909   8.918  -9.929  1.00  0.00    -0.294 OA
BRANCH  11  13
ATOM     13  C   UNL     1       1.553  10.808 -10.433  1.00  0.00    -0.002 C 
ATOM     14  C   UNL     1       1.876  12.063 -10.000  1.00  0.00    -0.069 C 
ATOM     15  C   UNL     1       1.400  13.306 -10.720  1.00  0.00     0.039 C 
ATOM     16  C   UNL     1       2.729  12.272  -8.768  1.00  0.00     0.039 C 
BRANCH  13  17
ATOM     17  C   UNL     1       0.748  10.580 -11.702  1.00  0.00     0.066 CG0
ATOM     18  G   UNL     1      -0.741  10.751 -11.479  1.00  0.00     0.000 G0
ENDBRANCH  13  17
ENDBRANCH  11  13
ENDBRANCH  10  11
ENDBRANCH   1  10
TORSDOF 0
ENDMDL
MODEL 2
REMARK VINA RESULT:    -3.287      1.889      4.004
REMARK INTER + INTRA:          -4.442
REMARK INTER:                  -4.803
REMARK INTRA:                   0.361
REMARK UNBOUND:                 0.191
REMARK SMILES CC1=CCC(=C(C)C)C(=O)CC(C)=CCC1
REMARK SMILES IDX 12 1 14 2 13 3 15 4 16 5 2 6 1 7 3 8 11 10 9 11 10 12 5 13
REMARK SMILES IDX 6 14 7 15 8 16 4 17
REMARK H PARENT
REMARK Flexibility Score: 60.00
ROOT
ATOM      1  C   UNL     1      -0.666   7.694  -8.388  1.00  0.00    -0.070 C 
ATOM      2  C   UNL     1       0.517   8.183  -7.957  1.00  0.00    -0.027 C 
ATOM      3  C   UNL     1      -1.923   8.196  -7.723  1.00  0.00     0.039 C 
ENDROOT
BRANCH   2   4
ATOM      4  C   UNL     1       1.884   7.735  -8.428  1.00  0.00     0.032 C 
BRANCH   4   5
ATOM      5  C   UNL     1       2.390   8.436  -9.705  1.00  0.00     0.034 C 
BRANCH   5   6
ATOM      6  C   UNL     1       1.754   9.796  -9.933  1.00  0.00    -0.077 C 
ATOM      7  C   UNL     1       2.280  10.958  -9.129  1.00  0.00     0.039 C 
ATOM      8  C   UNL     1       0.702  10.019 -10.757  1.00  0.00    -0.023 CG0
ATOM      9  G   UNL     1       0.025   9.015 -11.670  1.00  0.00     0.000 G0
ENDBRANCH   5   6
ENDBRANCH   4   5
ENDBRANCH   2   4
BRANCH   1  10
ATOM     10  C   UNL     1      -0.783   6.604  -9.435  1.00  0.00     0.111 C 
BRANCH  10  11
ATOM     11  C   UNL     1      -1.425   7.114 -10.698  1.00  0.00     0.163 C 
ATOM     12  O   UNL     1      -2.015   6.283 -11.441  1.00  0.00    -0.294 OA
BRANCH  11  13
ATOM     13  C   UNL     1      -1.332   8.542 -11.125  1.00  0.00    -0.002 C 
ATOM     14  C   UNL     1      -2.432   9.352 -11.099  1.00  0.00    -0.069 C 
ATOM     15  C   UNL     1      -2.409  10.752 -11.672  1.00  0.00     0.039 C 
ATOM     16  C   UNL     1      -3.737   8.883 -10.494  1.00  0.00     0.039 C 
BRANCH  13  17
ATOM     17  C   UNL     1       0.003   9.018 -11.673  1.00  0.00     0.066 CG0
ATOM     18  G   UNL     1       0.690  10.001 -10.744  1.00  0.00     0.000 G0
ENDBRANCH  13  17
ENDBRANCH  11  13
ENDBRANCH  10  11
ENDBRANCH   1  10
TORSDOF 0
ENDMDL
MODEL 3
REMARK VINA RESULT:    -2.993      8.623     10.613
REMARK INTER + INTRA:          -4.027
REMARK INTER:                  -4.556
REMARK INTRA:                   0.529
REMARK UNBOUND:                 0.191
REMARK SMILES CC1=CCC(=C(C)C)C(=O)CC(C)=CCC1
REMARK SMILES IDX 12 1 14 2 13 3 15 4 16 5 2 6 1 7 3 8 11 10 9 11 10 12 5 13
REMARK SMILES IDX 6 14 7 15 8 16 4 17
REMARK H PARENT
REMARK Flexibility Score: 60.00
ROOT
ATOM      1  C   UNL     1      11.606   9.712  -5.411  1.00  0.00    -0.070 C 
ATOM      2  C   UNL     1      12.503   9.732  -6.421  1.00  0.00    -0.027 C 
ATOM      3  C   UNL     1      11.428   8.422  -4.649  1.00  0.00     0.039 C 
ENDROOT
BRANCH   2   4
ATOM      4  C   UNL     1      12.753  10.893  -7.359  1.00  0.00     0.032 C 
BRANCH   4   5
ATOM      5  C   UNL     1      12.252  10.678  -8.802  1.00  0.00     0.034 C 
BRANCH   5   6
ATOM      6  C   UNL     1      10.963   9.880  -8.875  1.00  0.00    -0.077 C 
ATOM      7  C   UNL     1      11.047   8.458  -9.372  1.00  0.00     0.039 C 
ATOM      8  C   UNL     1       9.736  10.380  -8.589  1.00  0.00    -0.023 CG0
ATOM      9  G   UNL     1       9.413  11.764  -8.060  1.00  0.00     0.000 G0
ENDBRANCH   5   6
ENDBRANCH   4   5
ENDBRANCH   2   4
BRANCH   1  10
ATOM     10  C   UNL     1      10.710  10.886  -5.072  1.00  0.00     0.111 C 
BRANCH  10  11
ATOM     11  C   UNL     1       9.345  10.740  -5.692  1.00  0.00     0.163 C 
ATOM     12  O   UNL     1       8.675   9.709  -5.417  1.00  0.00    -0.294 OA
BRANCH  11  13
ATOM     13  C   UNL     1       8.794  11.736  -6.659  1.00  0.00    -0.002 C 
ATOM     14  C   UNL     1       7.725  12.518  -6.324  1.00  0.00    -0.069 C 
ATOM     15  C   UNL     1       7.045  13.420  -7.331  1.00  0.00     0.039 C 
ATOM     16  C   UNL     1       7.163  12.519  -4.919  1.00  0.00     0.039 C 
BRANCH  13  17
ATOM     17  C   UNL     1       9.409  11.769  -8.049  1.00  0.00     0.066 CG0
ATOM     18  G   UNL     1       9.727  10.381  -8.571  1.00  0.00     0.000 G0
ENDBRANCH  13  17
ENDBRANCH  11  13
ENDBRANCH  10  11
ENDBRANCH   1  10
TORSDOF 0
ENDMDL
MODEL 4
REMARK VINA RESULT:    -2.912      8.799     10.324
REMARK INTER + INTRA:          -3.913
REMARK INTER:                  -4.118
REMARK INTRA:                   0.205
REMARK UNBOUND:                 0.191
REMARK SMILES CC1=CCC(=C(C)C)C(=O)CC(C)=CCC1
REMARK SMILES IDX 12 1 14 2 13 3 15 4 16 5 2 6 1 7 3 8 11 10 9 11 10 12 5 13
REMARK SMILES IDX 6 14 7 15 8 16 4 17
REMARK H PARENT
REMARK Flexibility Score: 60.00
ROOT
ATOM      1  C   UNL     1       7.923  12.375  -5.832  1.00  0.00    -0.070 C 
ATOM      2  C   UNL     1       7.438  12.972  -6.943  1.00  0.00    -0.027 C 
ATOM      3  C   UNL     1       7.039  12.334  -4.610  1.00  0.00     0.039 C 
ENDROOT
BRANCH   2   4
ATOM      4  C   UNL     1       8.202  13.198  -8.230  1.00  0.00     0.032 C 
BRANCH   4   5
ATOM      5  C   UNL     1       8.269  11.975  -9.167  1.00  0.00     0.034 C 
BRANCH   5   6
ATOM      6  C   UNL     1       9.676  11.663  -9.643  1.00  0.00    -0.077 C 
ATOM      7  C   UNL     1      10.315  12.622 -10.615  1.00  0.00     0.039 C 
ATOM      8  C   UNL     1      10.367  10.546  -9.308  1.00  0.00    -0.023 CG0
ATOM      9  G   UNL     1       9.936   9.460  -8.341  1.00  0.00     0.000 G0
ENDBRANCH   5   6
ENDBRANCH   4   5
ENDBRANCH   2   4
BRANCH   1  10
ATOM     10  C   UNL     1       9.334  11.834  -5.727  1.00  0.00     0.111 C 
BRANCH  10  11
ATOM     11  C   UNL     1       9.381  10.351  -5.981  1.00  0.00     0.163 C 
ATOM     12  O   UNL     1       8.578   9.614  -5.348  1.00  0.00    -0.294 OA
BRANCH  11  13
ATOM     13  C   UNL     1      10.378   9.727  -6.902  1.00  0.00    -0.002 C 
ATOM     14  C   UNL     1      11.662   9.501  -6.492  1.00  0.00    -0.069 C 
ATOM     15  C   UNL     1      12.734   9.019  -7.445  1.00  0.00     0.039 C 
ATOM     16  C   UNL     1      12.077   9.725  -5.054  1.00  0.00     0.039 C 
BRANCH  13  17
ATOM     17  C   UNL     1       9.929   9.448  -8.327  1.00  0.00     0.066 CG0
ATOM     18  G   UNL     1      10.372  10.531  -9.292  1.00  0.00     0.000 G0
ENDBRANCH  13  17
ENDBRANCH  11  13
ENDBRANCH  10  11
ENDBRANCH   1  10
TORSDOF 0
ENDMDL
MODEL 5
REMARK VINA RESULT:    -2.671      9.908     11.769
REMARK INTER + INTRA:          -3.574
REMARK INTER:                  -4.093
REMARK INTRA:                   0.519
REMARK UNBOUND:                 0.191
REMARK SMILES CC1=CCC(=C(C)C)C(=O)CC(C)=CCC1
REMARK SMILES IDX 12 1 14 2 13 3 15 4 16 5 2 6 1 7 3 8 11 10 9 11 10 12 5 13
REMARK SMILES IDX 6 14 7 15 8 16 4 17
REMARK H PARENT
REMARK Flexibility Score: 60.00
ROOT
ATOM      1  C   UNL     1       9.304  11.480  -7.698  1.00  0.00    -0.070 C 
ATOM      2  C   UNL     1       9.103  11.117  -6.412  1.00  0.00    -0.027 C 
ATOM      3  C   UNL     1       9.173  12.941  -8.048  1.00  0.00     0.039 C 
ENDROOT
BRANCH   2   4
ATOM      4  C   UNL     1       9.094   9.699  -5.884  1.00  0.00     0.032 C 
BRANCH   4   5
ATOM      5  C   UNL     1      10.245   9.361  -4.915  1.00  0.00     0.034 C 
BRANCH   5   6
ATOM      6  C   UNL     1      11.581   9.935  -5.352  1.00  0.00    -0.077 C 
ATOM      7  C   UNL     1      12.176  11.040  -4.515  1.00  0.00     0.039 C 
ATOM      8  C   UNL     1      12.240   9.568  -6.479  1.00  0.00    -0.023 CG0
ATOM      9  G   UNL     1      11.846   8.476  -7.454  1.00  0.00     0.000 G0
ENDBRANCH   5   6
ENDBRANCH   4   5
ENDBRANCH   2   4
BRANCH   1  10
ATOM     10  C   UNL     1       9.559  10.486  -8.812  1.00  0.00     0.111 C 
BRANCH  10  11
ATOM     11  C   UNL     1      11.031  10.307  -9.071  1.00  0.00     0.163 C 
ATOM     12  O   UNL     1      11.680  11.293  -9.514  1.00  0.00    -0.294 OA
BRANCH  11  13
ATOM     13  C   UNL     1      11.725   8.998  -8.883  1.00  0.00    -0.002 C 
ATOM     14  C   UNL     1      12.150   8.272  -9.960  1.00  0.00    -0.069 C 
ATOM     15  C   UNL     1      12.712   6.874  -9.811  1.00  0.00     0.039 C 
ATOM     16  C   UNL     1      12.078   8.833 -11.363  1.00  0.00     0.039 C 
BRANCH  13  17
ATOM     17  C   UNL     1      11.848   8.474  -7.462  1.00  0.00     0.066 CG0
ATOM     18  G   UNL     1      12.264   9.555  -6.483  1.00  0.00     0.000 G0
ENDBRANCH  13  17
ENDBRANCH  11  13
ENDBRANCH  10  11
ENDBRANCH   1  10
TORSDOF 0
ENDMDL
MODEL 6
REMARK VINA RESULT:    -2.652      8.131     10.491
REMARK INTER + INTRA:          -3.547
REMARK INTER:                  -3.856
REMARK INTRA:                   0.309
REMARK UNBOUND:                 0.191
REMARK SMILES CC1=CCC(=C(C)C)C(=O)CC(C)=CCC1
REMARK SMILES IDX 12 1 14 2 13 3 15 4 16 5 2 6 1 7 3 8 11 10 9 11 10 12 5 13
REMARK SMILES IDX 6 14 7 15 8 16 4 17
REMARK H PARENT
REMARK Flexibility Score: 60.00
ROOT
ATOM      1  C   UNL     1       7.917  12.716  -7.457  1.00  0.00    -0.070 C 
ATOM      2  C   UNL     1       7.844  12.364  -6.154  1.00  0.00    -0.027 C 
ATOM      3  C   UNL     1       6.660  13.214  -8.125  1.00  0.00     0.039 C 
ENDROOT
BRANCH   2   4
ATOM      4  C   UNL     1       8.964  11.754  -5.340  1.00  0.00     0.032 C 
BRANCH   4   5
ATOM      5  C   UNL     1       9.169  10.240  -5.552  1.00  0.00     0.034 C 
BRANCH   5   6
ATOM      6  C   UNL     1      10.582   9.882  -5.975  1.00  0.00    -0.077 C 
ATOM      7  C   UNL     1      11.685  10.070  -4.964  1.00  0.00     0.039 C 
ATOM      8  C   UNL     1      10.927   9.472  -7.221  1.00  0.00    -0.023 CG0
ATOM      9  G   UNL     1       9.994   9.198  -8.384  1.00  0.00     0.000 G0
ENDBRANCH   5   6
ENDBRANCH   4   5
ENDBRANCH   2   4
BRANCH   1  10
ATOM     10  C   UNL     1       9.168  12.546  -8.295  1.00  0.00     0.111 C 
BRANCH  10  11
ATOM     11  C   UNL     1       9.022  11.425  -9.289  1.00  0.00     0.163 C 
ATOM     12  O   UNL     1       7.977  11.386  -9.992  1.00  0.00    -0.294 OA
BRANCH  11  13
ATOM     13  C   UNL     1      10.036  10.336  -9.423  1.00  0.00    -0.002 C 
ATOM     14  C   UNL     1      10.896  10.309 -10.485  1.00  0.00    -0.069 C 
ATOM     15  C   UNL     1      11.824   9.140 -10.734  1.00  0.00     0.039 C 
ATOM     16  C   UNL     1      10.962  11.454 -11.471  1.00  0.00     0.039 C 
BRANCH  13  17
ATOM     17  C   UNL     1      10.001   9.222  -8.389  1.00  0.00     0.066 CG0
ATOM     18  G   UNL     1      10.922   9.495  -7.217  1.00  0.00     0.000 G0
ENDBRANCH  13  17
ENDBRANCH  11  13
ENDBRANCH  10  11
ENDBRANCH   1  10
TORSDOF 0
ENDMDL
MODEL 7
REMARK VINA RESULT:    -2.638      9.019     10.411
REMARK INTER + INTRA:          -3.527
REMARK INTER:                  -3.658
REMARK INTRA:                   0.132
REMARK UNBOUND:                 0.191
REMARK SMILES CC1=CCC(=C(C)C)C(=O)CC(C)=CCC1
REMARK SMILES IDX 12 1 14 2 13 3 15 4 16 5 2 6 1 7 3 8 11 10 9 11 10 12 5 13
REMARK SMILES IDX 6 14 7 15 8 16 4 17
REMARK H PARENT
REMARK Flexibility Score: 60.00
ROOT
ATOM      1  C   UNL     1      11.628   8.355  -7.799  1.00  0.00    -0.070 C 
ATOM      2  C   UNL     1      11.566   8.519  -6.459  1.00  0.00    -0.027 C 
ATOM      3  C   UNL     1      12.850   7.680  -8.372  1.00  0.00     0.039 C 
ENDROOT
BRANCH   2   4
ATOM      4  C   UNL     1      10.476   9.253  -5.708  1.00  0.00     0.032 C 
BRANCH   4   5
ATOM      5  C   UNL     1      10.590  10.791  -5.742  1.00  0.00     0.034 C 
BRANCH   5   6
ATOM      6  C   UNL     1       9.283  11.479  -6.090  1.00  0.00    -0.077 C 
ATOM      7  C   UNL     1       8.140  11.346  -5.115  1.00  0.00     0.039 C 
ATOM      8  C   UNL     1       9.055  12.146  -7.248  1.00  0.00    -0.023 CG0
ATOM      9  G   UNL     1      10.052  12.422  -8.357  1.00  0.00     0.000 G0
ENDBRANCH   5   6
ENDBRANCH   4   5
ENDBRANCH   2   4
BRANCH   1  10
ATOM     10  C   UNL     1      10.583   8.896  -8.752  1.00  0.00     0.111 C 
BRANCH  10  11
ATOM     11  C   UNL     1      10.984  10.234  -9.316  1.00  0.00     0.163 C 
ATOM     12  O   UNL     1      12.193  10.409  -9.624  1.00  0.00    -0.294 OA
BRANCH  11  13
ATOM     13  C   UNL     1      10.019  11.364  -9.461  1.00  0.00    -0.002 C 
ATOM     14  C   UNL     1       9.220  11.464 -10.565  1.00  0.00    -0.069 C 
ATOM     15  C   UNL     1       8.350  12.675 -10.817  1.00  0.00     0.039 C 
ATOM     16  C   UNL     1       9.168  10.359 -11.598  1.00  0.00     0.039 C 
BRANCH  13  17
ATOM     17  C   UNL     1      10.036  12.436  -8.383  1.00  0.00     0.066 CG0
ATOM     18  G   UNL     1       9.070  12.134  -7.255  1.00  0.00     0.000 G0
ENDBRANCH  13  17
ENDBRANCH  11  13
ENDBRANCH  10  11
ENDBRANCH   1  10
TORSDOF 0
ENDMDL
MODEL 8
REMARK VINA RESULT:    -2.581      9.835     11.867
REMARK INTER + INTRA:          -3.447
REMARK INTER:                  -3.786
REMARK INTRA:                   0.340
REMARK UNBOUND:                 0.191
REMARK SMILES CC1=CCC(=C(C)C)C(=O)CC(C)=CCC1
REMARK SMILES IDX 12 1 14 2 13 3 15 4 16 5 2 6 1 7 3 8 11 10 9 11 10 12 5 13
REMARK SMILES IDX 6 14 7 15 8 16 4 17
REMARK H PARENT
REMARK Flexibility Score: 60.00
ROOT
ATOM      1  C   UNL     1       9.285  10.857  -7.103  1.00  0.00    -0.070 C 
ATOM      2  C   UNL     1       9.647  10.626  -5.822  1.00  0.00    -0.027 C 
ATOM      3  C   UNL     1       8.759  12.226  -7.453  1.00  0.00     0.039 C 
ENDROOT
BRANCH   2   4
ATOM      4  C   UNL     1      10.103   9.298  -5.258  1.00  0.00     0.032 C 
BRANCH   4   5
ATOM      5  C   UNL     1      11.625   9.176  -5.038  1.00  0.00     0.034 C 
BRANCH   5   6
ATOM      6  C   UNL     1      12.363  10.488  -5.232  1.00  0.00    -0.077 C 
ATOM      7  C   UNL     1      12.408  11.445  -4.067  1.00  0.00     0.039 C 
ATOM      8  C   UNL     1      12.924  10.885  -6.401  1.00  0.00    -0.023 CG0
ATOM      9  G   UNL     1      13.017  10.089  -7.688  1.00  0.00     0.000 G0
ENDBRANCH   5   6
ENDBRANCH   4   5
ENDBRANCH   2   4
BRANCH   1  10
ATOM     10  C   UNL     1       9.294   9.786  -8.175  1.00  0.00     0.111 C 
BRANCH  10  11
ATOM     11  C   UNL     1      10.696   9.360  -8.523  1.00  0.00     0.163 C 
ATOM     12  O   UNL     1      10.919   8.130  -8.684  1.00  0.00    -0.294 OA
BRANCH  11  13
ATOM     13  C   UNL     1      11.828  10.329  -8.621  1.00  0.00    -0.002 C 
ATOM     14  C   UNL     1      11.820  11.320  -9.562  1.00  0.00    -0.069 C 
ATOM     15  C   UNL     1      13.017  12.216  -9.791  1.00  0.00     0.039 C 
ATOM     16  C   UNL     1      10.605  11.570 -10.428  1.00  0.00     0.039 C 
BRANCH  13  17
ATOM     17  C   UNL     1      13.016  10.105  -7.701  1.00  0.00     0.066 CG0
ATOM     18  G   UNL     1      12.903  10.894  -6.411  1.00  0.00     0.000 G0
ENDBRANCH  13  17
ENDBRANCH  11  13
ENDBRANCH  10  11
ENDBRANCH   1  10
TORSDOF 0
ENDMDL
MODEL 9
REMARK VINA RESULT:    -2.528      9.426     10.696
REMARK INTER + INTRA:          -3.373
REMARK INTER:                  -3.876
REMARK INTRA:                   0.504
REMARK UNBOUND:                 0.191
REMARK SMILES CC1=CCC(=C(C)C)C(=O)CC(C)=CCC1
REMARK SMILES IDX 12 1 14 2 13 3 15 4 16 5 2 6 1 7 3 8 11 10 9 11 10 12 5 13
REMARK SMILES IDX 6 14 7 15 8 16 4 17
REMARK H PARENT
REMARK Flexibility Score: 60.00
ROOT
ATOM      1  C   UNL     1      11.572   9.601  -6.017  1.00  0.00    -0.070 C 
ATOM      2  C   UNL     1      10.521  10.085  -5.319  1.00  0.00    -0.027 C 
ATOM      3  C   UNL     1      12.958   9.875  -5.487  1.00  0.00     0.039 C 
ENDROOT
BRANCH   2   4
ATOM      4  C   UNL     1       9.069  10.000  -5.736  1.00  0.00     0.032 C 
BRANCH   4   5
ATOM      5  C   UNL     1       8.423  11.349  -6.112  1.00  0.00     0.034 C 
BRANCH   5   6
ATOM      6  C   UNL     1       9.346  12.252  -6.910  1.00  0.00    -0.077 C 
ATOM      7  C   UNL     1       9.839  13.513  -6.246  1.00  0.00     0.039 C 
ATOM      8  C   UNL     1       9.701  12.035  -8.200  1.00  0.00    -0.023 CG0
ATOM      9  G   UNL     1       9.344  10.836  -9.057  1.00  0.00     0.000 G0
ENDBRANCH   5   6
ENDBRANCH   4   5
ENDBRANCH   2   4
BRANCH   1  10
ATOM     10  C   UNL     1      11.430   8.885  -7.344  1.00  0.00     0.111 C 
BRANCH  10  11
ATOM     11  C   UNL     1      11.636   9.821  -8.506  1.00  0.00     0.163 C 
ATOM     12  O   UNL     1      12.729  10.446  -8.578  1.00  0.00    -0.294 OA
BRANCH  11  13
ATOM     13  C   UNL     1      10.577  10.077  -9.527  1.00  0.00    -0.002 C 
ATOM     14  C   UNL     1      10.758   9.706 -10.830  1.00  0.00    -0.069 C 
ATOM     15  C   UNL     1       9.778  10.090 -11.916  1.00  0.00     0.039 C 
ATOM     16  C   UNL     1      11.959   8.887 -11.252  1.00  0.00     0.039 C 
BRANCH  13  17
ATOM     17  C   UNL     1       9.347  10.846  -9.075  1.00  0.00     0.066 CG0
ATOM     18  G   UNL     1       9.700  12.043  -8.214  1.00  0.00     0.000 G0
ENDBRANCH  13  17
ENDBRANCH  11  13
ENDBRANCH  10  11
ENDBRANCH   1  10
TORSDOF 0
ENDMDL
