MODEL 1
REMARK VINA RESULT:    -4.092      0.000      0.000
REMARK INTER + INTRA:          -4.211
REMARK INTER:                  -4.211
REMARK INTRA:                   0.000
REMARK UNBOUND:                 0.000
REMARK SMILES Cc1cccc(O)c1C
REMARK SMILES IDX 1 1 2 2 8 3 6 4 5 5 4 6 3 7 9 8 7 9
REMARK H PARENT 7 10
REMARK Flexibility Score: inf
ROOT
ATOM      1  C   UNL     1     174.953 173.627 150.115  1.00  0.00     0.045 C 
ATOM      2  C   UNL     1     173.709 173.734 150.959  1.00  0.00    -0.045 A 
ATOM      3  C   UNL     1     173.765 173.993 152.358  1.00  0.00    -0.006 A 
ATOM      4  C   UNL     1     172.554 174.081 153.090  1.00  0.00     0.118 A 
ATOM      5  C   UNL     1     171.328 173.914 152.440  1.00  0.00     0.046 A 
ATOM      6  C   UNL     1     171.280 173.661 151.073  1.00  0.00     0.004 A 
ATOM      7  C   UNL     1     172.459 173.572 150.336  1.00  0.00     0.004 A 
ATOM      8  C   UNL     1     175.079 174.176 153.081  1.00  0.00     0.048 C 
ENDROOT
BRANCH   4   9
ATOM      9  O   UNL     1     172.532 174.331 154.465  1.00  0.00    -0.508 OA
ATOM     10  H   UNL     1     173.164 173.894 155.122  1.00  0.00     0.293 HD
ENDBRANCH   4   9
TORSDOF 1
ENDMDL
MODEL 2
REMARK VINA RESULT:    -3.935      1.242      2.779
REMARK INTER + INTRA:          -4.050
REMARK INTER:                  -4.050
REMARK INTRA:                   0.000
REMARK UNBOUND:                 0.000
REMARK SMILES Cc1cccc(O)c1C
REMARK SMILES IDX 1 1 2 2 8 3 6 4 5 5 4 6 3 7 9 8 7 9
REMARK H PARENT 7 10
REMARK Flexibility Score: inf
ROOT
ATOM      1  C   UNL     1     171.241 173.077 150.879  1.00  0.00     0.045 C 
ATOM      2  C   UNL     1     172.683 173.485 151.040  1.00  0.00    -0.045 A 
ATOM      3  C   UNL     1     173.231 173.839 152.305  1.00  0.00    -0.006 A 
ATOM      4  C   UNL     1     174.596 174.213 152.382  1.00  0.00     0.118 A 
ATOM      5  C   UNL     1     175.385 174.232 151.227  1.00  0.00     0.046 A 
ATOM      6  C   UNL     1     174.842 173.884 149.994  1.00  0.00     0.004 A 
ATOM      7  C   UNL     1     173.503 173.513 149.899  1.00  0.00     0.004 A 
ATOM      8  C   UNL     1     172.398 173.827 153.565  1.00  0.00     0.048 C 
ENDROOT
BRANCH   4   9
ATOM      9  O   UNL     1     175.203 174.573 153.588  1.00  0.00    -0.508 OA
ATOM     10  H   UNL     1     175.198 175.516 153.956  1.00  0.00     0.293 HD
ENDBRANCH   4   9
TORSDOF 1
ENDMDL
MODEL 3
REMARK VINA RESULT:    -3.930      2.343      3.013
REMARK INTER + INTRA:          -4.045
REMARK INTER:                  -4.045
REMARK INTRA:                   0.000
REMARK UNBOUND:                 0.000
REMARK SMILES Cc1cccc(O)c1C
REMARK SMILES IDX 1 1 2 2 8 3 6 4 5 5 4 6 3 7 9 8 7 9
REMARK H PARENT 7 10
REMARK Flexibility Score: inf
ROOT
ATOM      1  C   UNL     1     174.553 169.983 151.660  1.00  0.00     0.045 C 
ATOM      2  C   UNL     1     174.684 171.481 151.552  1.00  0.00    -0.045 A 
ATOM      3  C   UNL     1     174.840 172.310 152.697  1.00  0.00    -0.006 A 
ATOM      4  C   UNL     1     174.957 173.712 152.520  1.00  0.00     0.118 A 
ATOM      5  C   UNL     1     174.919 174.263 151.235  1.00  0.00     0.046 A 
ATOM      6  C   UNL     1     174.767 173.445 150.120  1.00  0.00     0.004 A 
ATOM      7  C   UNL     1     174.650 172.065 150.274  1.00  0.00     0.004 A 
ATOM      8  C   UNL     1     174.883 171.738 154.095  1.00  0.00     0.048 C 
ENDROOT
BRANCH   4   9
ATOM      9  O   UNL     1     175.112 174.589 153.598  1.00  0.00    -0.508 OA
ATOM     10  H   UNL     1     174.422 174.701 154.329  1.00  0.00     0.293 HD
ENDBRANCH   4   9
TORSDOF 1
ENDMDL
MODEL 4
REMARK VINA RESULT:    -3.886      2.553      3.437
REMARK INTER + INTRA:          -3.999
REMARK INTER:                  -3.999
REMARK INTRA:                   0.000
REMARK UNBOUND:                 0.000
REMARK SMILES Cc1cccc(O)c1C
REMARK SMILES IDX 1 1 2 2 8 3 6 4 5 5 4 6 3 7 9 8 7 9
REMARK H PARENT 7 10
REMARK Flexibility Score: inf
ROOT
ATOM      1  C   UNL     1     174.239 173.526 149.729  1.00  0.00     0.045 C 
ATOM      2  C   UNL     1     174.614 173.283 151.169  1.00  0.00    -0.045 A 
ATOM      3  C   UNL     1     174.674 171.974 151.724  1.00  0.00    -0.006 A 
ATOM      4  C   UNL     1     175.034 171.820 153.087  1.00  0.00     0.118 A 
ATOM      5  C   UNL     1     175.324 172.944 153.866  1.00  0.00     0.046 A 
ATOM      6  C   UNL     1     175.263 174.221 153.317  1.00  0.00     0.004 A 
ATOM      7  C   UNL     1     174.912 174.392 151.980  1.00  0.00     0.004 A 
ATOM      8  C   UNL     1     174.365 170.745 150.900  1.00  0.00     0.048 C 
ENDROOT
BRANCH   4   9
ATOM      9  O   UNL     1     175.114 170.567 153.699  1.00  0.00    -0.508 OA
ATOM     10  H   UNL     1     175.135 169.695 153.186  1.00  0.00     0.293 HD
ENDBRANCH   4   9
TORSDOF 1
ENDMDL
MODEL 5
REMARK VINA RESULT:    -3.870      0.862      2.675
REMARK INTER + INTRA:          -3.983
REMARK INTER:                  -3.983
REMARK INTRA:                   0.000
REMARK UNBOUND:                 0.000
REMARK SMILES Cc1cccc(O)c1C
REMARK SMILES IDX 1 1 2 2 8 3 6 4 5 5 4 6 3 7 9 8 7 9
REMARK H PARENT 7 10
REMARK Flexibility Score: inf
ROOT
ATOM      1  C   UNL     1     174.268 173.874 149.894  1.00  0.00     0.045 C 
ATOM      2  C   UNL     1     174.219 173.891 151.400  1.00  0.00    -0.045 A 
ATOM      3  C   UNL     1     172.989 173.906 152.116  1.00  0.00    -0.006 A 
ATOM      4  C   UNL     1     173.018 173.921 153.533  1.00  0.00     0.118 A 
ATOM      5  C   UNL     1     174.242 173.921 154.210  1.00  0.00     0.046 A 
ATOM      6  C   UNL     1     175.440 173.906 153.503  1.00  0.00     0.004 A 
ATOM      7  C   UNL     1     175.432 173.891 152.110  1.00  0.00     0.004 A 
ATOM      8  C   UNL     1     171.654 173.907 151.406  1.00  0.00     0.048 C 
ENDROOT
BRANCH   4   9
ATOM      9  O   UNL     1     171.851 173.937 154.302  1.00  0.00    -0.508 OA
ATOM     10  H   UNL     1     170.942 173.674 153.943  1.00  0.00     0.293 HD
ENDBRANCH   4   9
TORSDOF 1
ENDMDL
MODEL 6
REMARK VINA RESULT:    -3.824      1.578      2.870
REMARK INTER + INTRA:          -3.936
REMARK INTER:                  -3.936
REMARK INTRA:                   0.000
REMARK UNBOUND:                 0.000
REMARK SMILES Cc1cccc(O)c1C
REMARK SMILES IDX 1 1 2 2 8 3 6 4 5 5 4 6 3 7 9 8 7 9
REMARK H PARENT 7 10
REMARK Flexibility Score: inf
ROOT
ATOM      1  C   UNL     1     175.378 174.269 153.419  1.00  0.00     0.045 C 
ATOM      2  C   UNL     1     174.586 174.025 152.160  1.00  0.00    -0.045 A 
ATOM      3  C   UNL     1     173.181 173.801 152.183  1.00  0.00    -0.006 A 
ATOM      4  C   UNL     1     172.500 173.578 150.959  1.00  0.00     0.118 A 
ATOM      5  C   UNL     1     173.207 173.580 149.753  1.00  0.00     0.046 A 
ATOM      6  C   UNL     1     174.581 173.801 149.738  1.00  0.00     0.004 A 
ATOM      7  C   UNL     1     175.267 174.022 150.930  1.00  0.00     0.004 A 
ATOM      8  C   UNL     1     172.397 173.793 153.475  1.00  0.00     0.048 C 
ENDROOT
BRANCH   4   9
ATOM      9  O   UNL     1     171.122 173.351 150.904  1.00  0.00    -0.508 OA
ATOM     10  H   UNL     1     170.711 172.501 150.540  1.00  0.00     0.293 HD
ENDBRANCH   4   9
TORSDOF 1
ENDMDL
MODEL 7
REMARK VINA RESULT:    -3.724      2.935      3.722
REMARK INTER + INTRA:          -3.833
REMARK INTER:                  -3.833
REMARK INTRA:                   0.000
REMARK UNBOUND:                 0.000
REMARK SMILES Cc1cccc(O)c1C
REMARK SMILES IDX 1 1 2 2 8 3 6 4 5 5 4 6 3 7 9 8 7 9
REMARK H PARENT 7 10
REMARK Flexibility Score: inf
ROOT
ATOM      1  C   UNL     1     175.122 173.783 153.944  1.00  0.00     0.045 C 
ATOM      2  C   UNL     1     174.899 173.289 152.537  1.00  0.00    -0.045 A 
ATOM      3  C   UNL     1     174.637 171.919 152.251  1.00  0.00    -0.006 A 
ATOM      4  C   UNL     1     174.437 171.525 150.903  1.00  0.00     0.118 A 
ATOM      5  C   UNL     1     174.499 172.474 149.878  1.00  0.00     0.046 A 
ATOM      6  C   UNL     1     174.755 173.811 150.166  1.00  0.00     0.004 A 
ATOM      7  C   UNL     1     174.954 174.217 151.484  1.00  0.00     0.004 A 
ATOM      8  C   UNL     1     174.567 170.877 153.342  1.00  0.00     0.048 C 
ENDROOT
BRANCH   4   9
ATOM      9  O   UNL     1     174.176 170.200 150.547  1.00  0.00    -0.508 OA
ATOM     10  H   UNL     1     173.275 169.756 150.668  1.00  0.00     0.293 HD
ENDBRANCH   4   9
TORSDOF 1
ENDMDL
MODEL 8
REMARK VINA RESULT:    -3.708      2.820      4.006
REMARK INTER + INTRA:          -3.816
REMARK INTER:                  -3.816
REMARK INTRA:                   0.000
REMARK UNBOUND:                 0.000
REMARK SMILES Cc1cccc(O)c1C
REMARK SMILES IDX 1 1 2 2 8 3 6 4 5 5 4 6 3 7 9 8 7 9
REMARK H PARENT 7 10
REMARK Flexibility Score: inf
ROOT
ATOM      1  C   UNL     1     174.500 170.302 153.001  1.00  0.00     0.045 C 
ATOM      2  C   UNL     1     174.706 171.713 152.513  1.00  0.00    -0.045 A 
ATOM      3  C   UNL     1     174.447 172.093 151.166  1.00  0.00    -0.006 A 
ATOM      4  C   UNL     1     174.663 173.439 150.777  1.00  0.00     0.118 A 
ATOM      5  C   UNL     1     175.125 174.373 151.710  1.00  0.00     0.046 A 
ATOM      6  C   UNL     1     175.376 173.995 153.025  1.00  0.00     0.004 A 
ATOM      7  C   UNL     1     175.169 172.677 153.426  1.00  0.00     0.004 A 
ATOM      8  C   UNL     1     173.948 171.100 150.142  1.00  0.00     0.048 C 
ENDROOT
BRANCH   4   9
ATOM      9  O   UNL     1     174.431 173.884 149.473  1.00  0.00    -0.508 OA
ATOM     10  H   UNL     1     173.693 174.531 149.227  1.00  0.00     0.293 HD
ENDBRANCH   4   9
TORSDOF 1
ENDMDL
MODEL 9
REMARK VINA RESULT:    -3.684     13.140     13.444
REMARK INTER + INTRA:          -3.791
REMARK INTER:                  -3.791
REMARK INTRA:                   0.000
REMARK UNBOUND:                 0.000
REMARK SMILES Cc1cccc(O)c1C
REMARK SMILES IDX 1 1 2 2 8 3 6 4 5 5 4 6 3 7 9 8 7 9
REMARK H PARENT 7 10
REMARK Flexibility Score: inf
ROOT
ATOM      1  C   UNL     1     176.125 163.321 151.451  1.00  0.00     0.045 C 
ATOM      2  C   UNL     1     175.655 161.897 151.296  1.00  0.00    -0.045 A 
ATOM      3  C   UNL     1     175.349 161.076 152.418  1.00  0.00    -0.006 A 
ATOM      4  C   UNL     1     174.912 159.745 152.197  1.00  0.00     0.118 A 
ATOM      5  C   UNL     1     174.786 159.255 150.894  1.00  0.00     0.046 A 
ATOM      6  C   UNL     1     175.086 160.064 149.802  1.00  0.00     0.004 A 
ATOM      7  C   UNL     1     175.517 161.374 149.999  1.00  0.00     0.004 A 
ATOM      8  C   UNL     1     175.479 161.584 153.835  1.00  0.00     0.048 C 
ENDROOT
BRANCH   4   9
ATOM      9  O   UNL     1     174.595 158.882 153.249  1.00  0.00    -0.508 OA
ATOM     10  H   UNL     1     174.972 158.978 154.183  1.00  0.00     0.293 HD
ENDBRANCH   4   9
TORSDOF 1
ENDMDL
