MODEL 1
REMARK VINA RESULT:    -2.539      0.000      0.000
REMARK INTER + INTRA:          -2.539
REMARK INTER:                  -2.539
REMARK INTRA:                   0.000
REMARK UNBOUND:                 0.000
REMARK SMILES CC(=O)[O-]
REMARK SMILES IDX 1 1 2 2 3 3 4 4
REMARK H PARENT
REMARK Flexibility Score: inf
ROOT
ATOM      1  C   UNL     1     -10.632  -0.776   5.927  1.00  0.00     0.063 C 
ATOM      2  C   UNL     1     -10.065   0.354   6.717  1.00  0.00     0.038 C 
ATOM      3  O   UNL     1     -10.816   1.055   7.446  1.00  0.00    -0.550 OA
ATOM      4  O   UNL     1      -8.717   0.671   6.610  1.00  0.00    -0.550 OA
ENDROOT
TORSDOF 0
ENDMDL
MODEL 2
REMARK VINA RESULT:    -2.513      0.109      1.623
REMARK INTER + INTRA:          -2.513
REMARK INTER:                  -2.513
REMARK INTRA:                   0.000
REMARK UNBOUND:                 0.000
REMARK SMILES CC(=O)[O-]
REMARK SMILES IDX 1 1 2 2 3 3 4 4
REMARK H PARENT
REMARK Flexibility Score: inf
ROOT
ATOM      1  C   UNL     1     -10.487  -0.864   5.978  1.00  0.00     0.063 C 
ATOM      2  C   UNL     1      -9.968   0.343   6.682  1.00  0.00     0.038 C 
ATOM      3  O   UNL     1      -8.748   0.644   6.603  1.00  0.00    -0.550 OA
ATOM      4  O   UNL     1     -10.817   1.109   7.470  1.00  0.00    -0.550 OA
ENDROOT
TORSDOF 0
ENDMDL
MODEL 3
REMARK VINA RESULT:    -2.453      6.526      6.939
REMARK INTER + INTRA:          -2.453
REMARK INTER:                  -2.453
REMARK INTRA:                   0.000
REMARK UNBOUND:                 0.000
REMARK SMILES CC(=O)[O-]
REMARK SMILES IDX 1 1 2 2 3 3 4 4
REMARK H PARENT
REMARK Flexibility Score: inf
ROOT
ATOM      1  C   UNL     1      -6.464  -5.132   6.333  1.00  0.00     0.063 C 
ATOM      2  C   UNL     1      -6.973  -5.580   7.661  1.00  0.00     0.038 C 
ATOM      3  O   UNL     1      -6.979  -6.805   7.955  1.00  0.00    -0.550 OA
ATOM      4  O   UNL     1      -7.489  -4.654   8.558  1.00  0.00    -0.550 OA
ENDROOT
TORSDOF 0
ENDMDL
MODEL 4
REMARK VINA RESULT:    -2.444      6.977      7.309
REMARK INTER + INTRA:          -2.444
REMARK INTER:                  -2.444
REMARK INTRA:                   0.000
REMARK UNBOUND:                 0.000
REMARK SMILES CC(=O)[O-]
REMARK SMILES IDX 1 1 2 2 3 3 4 4
REMARK H PARENT
REMARK Flexibility Score: inf
ROOT
ATOM      1  C   UNL     1      -7.592  -6.463   9.798  1.00  0.00     0.063 C 
ATOM      2  C   UNL     1      -7.191  -5.921   8.468  1.00  0.00     0.038 C 
ATOM      3  O   UNL     1      -7.169  -4.677   8.275  1.00  0.00    -0.550 OA
ATOM      4  O   UNL     1      -6.892  -6.786   7.424  1.00  0.00    -0.550 OA
ENDROOT
TORSDOF 0
ENDMDL
MODEL 5
REMARK VINA RESULT:    -2.413     14.643     15.151
REMARK INTER + INTRA:          -2.413
REMARK INTER:                  -2.413
REMARK INTRA:                   0.000
REMARK UNBOUND:                 0.000
REMARK SMILES CC(=O)[O-]
REMARK SMILES IDX 1 1 2 2 3 3 4 4
REMARK H PARENT
REMARK Flexibility Score: inf
ROOT
ATOM      1  C   UNL     1     -10.440  -6.919  -4.993  1.00  0.00     0.063 C 
ATOM      2  C   UNL     1     -10.393  -7.018  -6.480  1.00  0.00     0.038 C 
ATOM      3  O   UNL     1     -10.749  -6.041  -7.190  1.00  0.00    -0.550 OA
ATOM      4  O   UNL     1     -10.007  -8.206  -7.086  1.00  0.00    -0.550 OA
ENDROOT
TORSDOF 0
ENDMDL
MODEL 6
REMARK VINA RESULT:    -2.386      7.207      7.628
REMARK INTER + INTRA:          -2.386
REMARK INTER:                  -2.386
REMARK INTRA:                   0.000
REMARK UNBOUND:                 0.000
REMARK SMILES CC(=O)[O-]
REMARK SMILES IDX 1 1 2 2 3 3 4 4
REMARK H PARENT
REMARK Flexibility Score: inf
ROOT
ATOM      1  C   UNL     1      -7.052  -4.895   6.537  1.00  0.00     0.063 C 
ATOM      2  C   UNL     1      -6.973  -6.374   6.708  1.00  0.00     0.038 C 
ATOM      3  O   UNL     1      -6.904  -7.124   5.699  1.00  0.00    -0.550 OA
ATOM      4  O   UNL     1      -7.029  -6.932   7.979  1.00  0.00    -0.550 OA
ENDROOT
TORSDOF 0
ENDMDL
MODEL 7
REMARK VINA RESULT:    -2.376     10.926     11.137
REMARK INTER + INTRA:          -2.376
REMARK INTER:                  -2.376
REMARK INTRA:                   0.000
REMARK UNBOUND:                 0.000
REMARK SMILES CC(=O)[O-]
REMARK SMILES IDX 1 1 2 2 3 3 4 4
REMARK H PARENT
REMARK Flexibility Score: inf
ROOT
ATOM      1  C   UNL     1     -10.727   9.515   0.021  1.00  0.00     0.063 C 
ATOM      2  C   UNL     1     -10.964   8.260  -0.748  1.00  0.00     0.038 C 
ATOM      3  O   UNL     1     -10.544   8.156  -1.931  1.00  0.00    -0.550 OA
ATOM      4  O   UNL     1     -11.694   7.223  -0.182  1.00  0.00    -0.550 OA
ENDROOT
TORSDOF 0
ENDMDL
MODEL 8
REMARK VINA RESULT:    -2.313      5.598      6.032
REMARK INTER + INTRA:          -2.313
REMARK INTER:                  -2.313
REMARK INTRA:                   0.000
REMARK UNBOUND:                 0.000
REMARK SMILES CC(=O)[O-]
REMARK SMILES IDX 1 1 2 2 3 3 4 4
REMARK H PARENT
REMARK Flexibility Score: inf
ROOT
ATOM      1  C   UNL     1      -6.856  -5.983   6.043  1.00  0.00     0.063 C 
ATOM      2  C   UNL     1      -7.291  -4.825   6.874  1.00  0.00     0.038 C 
ATOM      3  O   UNL     1      -7.014  -4.789   8.102  1.00  0.00    -0.550 OA
ATOM      4  O   UNL     1      -8.049  -3.807   6.309  1.00  0.00    -0.550 OA
ENDROOT
TORSDOF 0
ENDMDL
MODEL 9
REMARK VINA RESULT:    -2.259      4.809      5.195
REMARK INTER + INTRA:          -2.259
REMARK INTER:                  -2.259
REMARK INTRA:                   0.000
REMARK UNBOUND:                 0.000
REMARK SMILES CC(=O)[O-]
REMARK SMILES IDX 1 1 2 2 3 3 4 4
REMARK H PARENT
REMARK Flexibility Score: inf
ROOT
ATOM      1  C   UNL     1      -7.614  -4.911   6.857  1.00  0.00     0.063 C 
ATOM      2  C   UNL     1      -8.739  -4.287   6.102  1.00  0.00     0.038 C 
ATOM      3  O   UNL     1      -8.973  -3.056   6.221  1.00  0.00    -0.550 OA
ATOM      4  O   UNL     1      -9.564  -5.072   5.307  1.00  0.00    -0.550 OA
ENDROOT
TORSDOF 0
ENDMDL
