MODEL 1
REMARK VINA RESULT:    -4.498      0.000      0.000
REMARK INTER + INTRA:          -9.514
REMARK INTER:                  -8.310
REMARK INTRA:                  -1.203
REMARK UNBOUND:                -1.203
REMARK SMILES CCCCCCCCCCCCCCCCO
REMARK SMILES IDX 9 1 8 2 7 3 6 4 5 5 4 6 3 7 2 8 1 9 10 10 11 11 12 12 13 13
REMARK SMILES IDX 14 14 15 15 16 16 17 17
REMARK H PARENT 17 18
REMARK Flexibility Score: inf
ROOT
ATOM      1  C   UNL     1      -0.975  10.083  21.053  1.00  0.00     0.000 C 
ENDROOT
BRANCH   1   2
ATOM      2  C   UNL     1      -2.095  10.565  20.110  1.00  0.00    -0.000 C 
BRANCH   2   3
ATOM      3  C   UNL     1      -1.913  11.990  19.552  1.00  0.00    -0.000 C 
BRANCH   3   4
ATOM      4  C   UNL     1      -2.715  12.303  18.276  1.00  0.00    -0.000 C 
BRANCH   4   5
ATOM      5  C   UNL     1      -3.215  11.038  17.558  1.00  0.00    -0.000 C 
BRANCH   5   6
ATOM      6  C   UNL     1      -4.717  11.090  17.228  1.00  0.00    -0.000 C 
BRANCH   6   7
ATOM      7  C   UNL     1      -5.201  12.395  16.563  1.00  0.00    -0.000 C 
BRANCH   7   8
ATOM      8  C   UNL     1      -6.456  13.022  17.196  1.00  0.00    -0.003 C 
ATOM      9  C   UNL     1      -7.348  11.994  17.891  1.00  0.00     0.004 C 
ENDBRANCH   7   8
ENDBRANCH   6   7
ENDBRANCH   5   6
ENDBRANCH   4   5
ENDBRANCH   3   4
ENDBRANCH   2   3
ENDBRANCH   1   2
BRANCH   1  10
ATOM     10  C   UNL     1      -0.105   8.940  20.493  1.00  0.00     0.000 C 
BRANCH  10  11
ATOM     11  C   UNL     1       1.406   9.075  20.768  1.00  0.00     0.000 C 
BRANCH  11  12
ATOM     12  C   UNL     1       1.841  10.428  21.361  1.00  0.00     0.000 C 
BRANCH  12  13
ATOM     13  C   UNL     1       2.356  11.409  20.296  1.00  0.00     0.000 C 
BRANCH  13  14
ATOM     14  C   UNL     1       1.982  12.854  20.657  1.00  0.00     0.002 C 
BRANCH  14  15
ATOM     15  C   UNL     1       1.310  13.601  19.492  1.00  0.00     0.028 C 
BRANCH  15  16
ATOM     16  C   UNL     1       1.082  15.095  19.769  1.00  0.00     0.156 C 
BRANCH  16  17
ATOM     17  O   UNL     1      -0.156  15.519  19.266  1.00  0.00    -0.396 OA
ATOM     18  H   UNL     1      -0.514  16.181  19.913  1.00  0.00     0.210 HD
ENDBRANCH  16  17
ENDBRANCH  15  16
ENDBRANCH  14  15
ENDBRANCH  13  14
ENDBRANCH  12  13
ENDBRANCH  11  12
ENDBRANCH  10  11
ENDBRANCH   1  10
TORSDOF 15
ENDMDL
MODEL 2
REMARK VINA RESULT:    -4.403      1.863      6.454
REMARK INTER + INTRA:          -9.338
REMARK INTER:                  -8.243
REMARK INTRA:                  -1.095
REMARK UNBOUND:                -1.203
REMARK SMILES CCCCCCCCCCCCCCCCO
REMARK SMILES IDX 9 1 8 2 7 3 6 4 5 5 4 6 3 7 2 8 1 9 10 10 11 11 12 12 13 13
REMARK SMILES IDX 14 14 15 15 16 16 17 17
REMARK H PARENT 17 18
REMARK Flexibility Score: inf
ROOT
ATOM      1  C   UNL     1      -0.617   9.995  20.930  1.00  0.00     0.000 C 
ENDROOT
BRANCH   1   2
ATOM      2  C   UNL     1       0.495   9.028  20.478  1.00  0.00    -0.000 C 
BRANCH   2   3
ATOM      3  C   UNL     1       1.881   9.288  21.101  1.00  0.00    -0.000 C 
BRANCH   3   4
ATOM      4  C   UNL     1       2.180  10.758  21.446  1.00  0.00    -0.000 C 
BRANCH   4   5
ATOM      5  C   UNL     1       2.518  11.606  20.207  1.00  0.00    -0.000 C 
BRANCH   5   6
ATOM      6  C   UNL     1       2.111  13.082  20.363  1.00  0.00    -0.000 C 
BRANCH   6   7
ATOM      7  C   UNL     1       0.950  13.545  19.459  1.00  0.00    -0.000 C 
BRANCH   7   8
ATOM      8  C   UNL     1       0.632  15.048  19.528  1.00  0.00    -0.003 C 
ATOM      9  C   UNL     1       1.727  15.857  20.222  1.00  0.00     0.004 C 
ENDBRANCH   7   8
ENDBRANCH   6   7
ENDBRANCH   5   6
ENDBRANCH   4   5
ENDBRANCH   3   4
ENDBRANCH   2   3
ENDBRANCH   1   2
BRANCH   1  10
ATOM     10  C   UNL     1      -1.733  10.231  19.892  1.00  0.00     0.000 C 
BRANCH  10  11
ATOM     11  C   UNL     1      -2.203  11.693  19.761  1.00  0.00     0.000 C 
BRANCH  11  12
ATOM     12  C   UNL     1      -2.361  12.199  18.315  1.00  0.00     0.000 C 
BRANCH  12  13
ATOM     13  C   UNL     1      -3.436  11.433  17.528  1.00  0.00     0.000 C 
BRANCH  13  14
ATOM     14  C   UNL     1      -4.745  12.233  17.469  1.00  0.00     0.002 C 
BRANCH  14  15
ATOM     15  C   UNL     1      -5.486  12.060  16.131  1.00  0.00     0.028 C 
BRANCH  15  16
ATOM     16  C   UNL     1      -5.901  13.388  15.482  1.00  0.00     0.156 C 
BRANCH  16  17
ATOM     17  O   UNL     1      -4.850  13.935  14.734  1.00  0.00    -0.396 OA
ATOM     18  H   UNL     1      -4.072  14.008  15.347  1.00  0.00     0.210 HD
ENDBRANCH  16  17
ENDBRANCH  15  16
ENDBRANCH  14  15
ENDBRANCH  13  14
ENDBRANCH  12  13
ENDBRANCH  11  12
ENDBRANCH  10  11
ENDBRANCH   1  10
TORSDOF 15
ENDMDL
MODEL 3
REMARK VINA RESULT:    -4.356      2.269      7.078
REMARK INTER + INTRA:          -9.253
REMARK INTER:                  -7.626
REMARK INTRA:                  -1.627
REMARK UNBOUND:                -1.203
REMARK SMILES CCCCCCCCCCCCCCCCO
REMARK SMILES IDX 9 1 8 2 7 3 6 4 5 5 4 6 3 7 2 8 1 9 10 10 11 11 12 12 13 13
REMARK SMILES IDX 14 14 15 15 16 16 17 17
REMARK H PARENT 17 18
REMARK Flexibility Score: inf
ROOT
ATOM      1  C   UNL     1      -2.659  12.030  18.819  1.00  0.00     0.000 C 
ENDROOT
BRANCH   1   2
ATOM      2  C   UNL     1      -1.619  11.509  19.831  1.00  0.00    -0.000 C 
BRANCH   2   3
ATOM      3  C   UNL     1      -2.183  10.593  20.935  1.00  0.00    -0.000 C 
BRANCH   3   4
ATOM      4  C   UNL     1      -1.639   9.153  20.934  1.00  0.00    -0.000 C 
BRANCH   4   5
ATOM      5  C   UNL     1      -0.384   8.988  20.061  1.00  0.00    -0.000 C 
BRANCH   5   6
ATOM      6  C   UNL     1       0.762   8.263  20.789  1.00  0.00    -0.000 C 
BRANCH   6   7
ATOM      7  C   UNL     1       1.908   9.170  21.280  1.00  0.00    -0.000 C 
BRANCH   7   8
ATOM      8  C   UNL     1       1.822  10.636  20.821  1.00  0.00    -0.003 C 
ATOM      9  C   UNL     1       3.082  11.107  20.096  1.00  0.00     0.004 C 
ENDBRANCH   7   8
ENDBRANCH   6   7
ENDBRANCH   5   6
ENDBRANCH   4   5
ENDBRANCH   3   4
ENDBRANCH   2   3
ENDBRANCH   1   2
BRANCH   1  10
ATOM     10  C   UNL     1      -2.749  11.223  17.509  1.00  0.00     0.000 C 
BRANCH  10  11
ATOM     11  C   UNL     1      -3.625   9.956  17.582  1.00  0.00     0.000 C 
BRANCH  11  12
ATOM     12  C   UNL     1      -5.028  10.168  18.179  1.00  0.00     0.000 C 
BRANCH  12  13
ATOM     13  C   UNL     1      -6.100  10.424  17.108  1.00  0.00     0.000 C 
BRANCH  13  14
ATOM     14  C   UNL     1      -6.868  11.721  17.403  1.00  0.00     0.002 C 
BRANCH  14  15
ATOM     15  C   UNL     1      -6.047  12.983  17.085  1.00  0.00     0.028 C 
BRANCH  15  16
ATOM     16  C   UNL     1      -5.962  13.299  15.584  1.00  0.00     0.156 C 
BRANCH  16  17
ATOM     17  O   UNL     1      -4.692  12.993  15.075  1.00  0.00    -0.396 OA
ATOM     18  H   UNL     1      -4.748  12.072  14.708  1.00  0.00     0.210 HD
ENDBRANCH  16  17
ENDBRANCH  15  16
ENDBRANCH  14  15
ENDBRANCH  13  14
ENDBRANCH  12  13
ENDBRANCH  11  12
ENDBRANCH  10  11
ENDBRANCH   1  10
TORSDOF 15
ENDMDL
MODEL 4
REMARK VINA RESULT:    -4.318      1.808      3.352
REMARK INTER + INTRA:          -9.181
REMARK INTER:                  -7.709
REMARK INTRA:                  -1.472
REMARK UNBOUND:                -1.203
REMARK SMILES CCCCCCCCCCCCCCCCO
REMARK SMILES IDX 9 1 8 2 7 3 6 4 5 5 4 6 3 7 2 8 1 9 10 10 11 11 12 12 13 13
REMARK SMILES IDX 14 14 15 15 16 16 17 17
REMARK H PARENT 17 18
REMARK Flexibility Score: inf
ROOT
ATOM      1  C   UNL     1      -2.729  12.038  18.703  1.00  0.00     0.000 C 
ENDROOT
BRANCH   1   2
ATOM      2  C   UNL     1      -2.810  11.101  17.481  1.00  0.00    -0.000 C 
BRANCH   2   3
ATOM      3  C   UNL     1      -3.550   9.771  17.726  1.00  0.00    -0.000 C 
BRANCH   3   4
ATOM      4  C   UNL     1      -5.017   9.907  18.172  1.00  0.00    -0.000 C 
BRANCH   4   5
ATOM      5  C   UNL     1      -5.910  10.555  17.100  1.00  0.00    -0.000 C 
BRANCH   5   6
ATOM      6  C   UNL     1      -6.736  11.734  17.642  1.00  0.00    -0.000 C 
BRANCH   6   7
ATOM      7  C   UNL     1      -6.421  13.106  17.011  1.00  0.00    -0.000 C 
BRANCH   7   8
ATOM      8  C   UNL     1      -5.692  13.046  15.657  1.00  0.00    -0.003 C 
ATOM      9  C   UNL     1      -6.013  14.238  14.756  1.00  0.00     0.004 C 
ENDBRANCH   7   8
ENDBRANCH   6   7
ENDBRANCH   5   6
ENDBRANCH   4   5
ENDBRANCH   3   4
ENDBRANCH   2   3
ENDBRANCH   1   2
BRANCH   1  10
ATOM     10  C   UNL     1      -1.645  11.667  19.734  1.00  0.00     0.000 C 
BRANCH  10  11
ATOM     11  C   UNL     1      -2.123  10.759  20.885  1.00  0.00     0.000 C 
BRANCH  11  12
ATOM     12  C   UNL     1      -1.113   9.687  21.331  1.00  0.00     0.000 C 
BRANCH  12  13
ATOM     13  C   UNL     1      -0.047   9.390  20.265  1.00  0.00     0.000 C 
BRANCH  13  14
ATOM     14  C   UNL     1       1.342   9.248  20.904  1.00  0.00     0.002 C 
BRANCH  14  15
ATOM     15  C   UNL     1       1.828  10.552  21.561  1.00  0.00     0.028 C 
BRANCH  15  16
ATOM     16  C   UNL     1       2.192  11.651  20.551  1.00  0.00     0.156 C 
BRANCH  16  17
ATOM     17  O   UNL     1       2.934  11.129  19.482  1.00  0.00    -0.396 OA
ATOM     18  H   UNL     1       3.360  11.902  19.027  1.00  0.00     0.210 HD
ENDBRANCH  16  17
ENDBRANCH  15  16
ENDBRANCH  14  15
ENDBRANCH  13  14
ENDBRANCH  12  13
ENDBRANCH  11  12
ENDBRANCH  10  11
ENDBRANCH   1  10
TORSDOF 15
ENDMDL
MODEL 5
REMARK VINA RESULT:    -4.216      1.607      2.575
REMARK INTER + INTRA:          -8.994
REMARK INTER:                  -7.230
REMARK INTRA:                  -1.764
REMARK UNBOUND:                -1.203
REMARK SMILES CCCCCCCCCCCCCCCCO
REMARK SMILES IDX 9 1 8 2 7 3 6 4 5 5 4 6 3 7 2 8 1 9 10 10 11 11 12 12 13 13
REMARK SMILES IDX 14 14 15 15 16 16 17 17
REMARK H PARENT 17 18
REMARK Flexibility Score: inf
ROOT
ATOM      1  C   UNL     1      -0.337   9.920  21.429  1.00  0.00     0.000 C 
ENDROOT
BRANCH   1   2
ATOM      2  C   UNL     1      -0.324   9.321  20.009  1.00  0.00    -0.000 C 
BRANCH   2   3
ATOM      3  C   UNL     1      -1.524   8.415  19.670  1.00  0.00    -0.000 C 
BRANCH   3   4
ATOM      4  C   UNL     1      -2.816   8.717  20.450  1.00  0.00    -0.000 C 
BRANCH   4   5
ATOM      5  C   UNL     1      -4.051   8.836  19.540  1.00  0.00    -0.000 C 
BRANCH   5   6
ATOM      6  C   UNL     1      -3.701   9.294  18.113  1.00  0.00    -0.000 C 
BRANCH   6   7
ATOM      7  C   UNL     1      -3.862  10.804  17.847  1.00  0.00    -0.000 C 
BRANCH   7   8
ATOM      8  C   UNL     1      -2.545  11.597  17.778  1.00  0.00    -0.003 C 
ATOM      9  C   UNL     1      -2.251  12.374  19.060  1.00  0.00     0.004 C 
ENDBRANCH   7   8
ENDBRANCH   6   7
ENDBRANCH   5   6
ENDBRANCH   4   5
ENDBRANCH   3   4
ENDBRANCH   2   3
ENDBRANCH   1   2
BRANCH   1  10
ATOM     10  C   UNL     1       0.891   9.568  22.292  1.00  0.00     0.000 C 
BRANCH  10  11
ATOM     11  C   UNL     1       2.082  10.537  22.157  1.00  0.00     0.000 C 
BRANCH  11  12
ATOM     12  C   UNL     1       2.909  10.376  20.868  1.00  0.00     0.000 C 
BRANCH  12  13
ATOM     13  C   UNL     1       2.997  11.673  20.049  1.00  0.00     0.000 C 
BRANCH  13  14
ATOM     14  C   UNL     1       1.898  12.660  20.470  1.00  0.00     0.002 C 
BRANCH  14  15
ATOM     15  C   UNL     1       1.457  13.582  19.320  1.00  0.00     0.028 C 
BRANCH  15  16
ATOM     16  C   UNL     1       1.185  15.028  19.761  1.00  0.00     0.156 C 
BRANCH  16  17
ATOM     17  O   UNL     1      -0.086  15.452  19.347  1.00  0.00    -0.396 OA
ATOM     18  H   UNL     1       0.052  16.258  18.785  1.00  0.00     0.210 HD
ENDBRANCH  16  17
ENDBRANCH  15  16
ENDBRANCH  14  15
ENDBRANCH  13  14
ENDBRANCH  12  13
ENDBRANCH  11  12
ENDBRANCH  10  11
ENDBRANCH   1  10
TORSDOF 15
ENDMDL
MODEL 6
REMARK VINA RESULT:    -4.082      3.542      7.265
REMARK INTER + INTRA:          -8.746
REMARK INTER:                  -7.193
REMARK INTRA:                  -1.552
REMARK UNBOUND:                -1.203
REMARK SMILES CCCCCCCCCCCCCCCCO
REMARK SMILES IDX 9 1 8 2 7 3 6 4 5 5 4 6 3 7 2 8 1 9 10 10 11 11 12 12 13 13
REMARK SMILES IDX 14 14 15 15 16 16 17 17
REMARK H PARENT 17 18
REMARK Flexibility Score: inf
ROOT
ATOM      1  C   UNL     1      -8.238   9.187  19.032  1.00  0.00     0.000 C 
ENDROOT
BRANCH   1   2
ATOM      2  C   UNL     1      -7.060   8.376  18.460  1.00  0.00    -0.000 C 
BRANCH   2   3
ATOM      3  C   UNL     1      -5.680   8.718  19.055  1.00  0.00    -0.000 C 
BRANCH   3   4
ATOM      4  C   UNL     1      -4.473   8.172  18.270  1.00  0.00    -0.000 C 
BRANCH   4   5
ATOM      5  C   UNL     1      -3.154   8.873  18.638  1.00  0.00    -0.000 C 
BRANCH   5   6
ATOM      6  C   UNL     1      -2.581   9.714  17.484  1.00  0.00    -0.000 C 
BRANCH   6   7
ATOM      7  C   UNL     1      -2.890  11.223  17.551  1.00  0.00    -0.000 C 
BRANCH   7   8
ATOM      8  C   UNL     1      -2.743  11.856  18.946  1.00  0.00    -0.003 C 
ATOM      9  C   UNL     1      -1.619  12.889  19.016  1.00  0.00     0.004 C 
ENDBRANCH   7   8
ENDBRANCH   6   7
ENDBRANCH   5   6
ENDBRANCH   4   5
ENDBRANCH   3   4
ENDBRANCH   2   3
ENDBRANCH   1   2
BRANCH   1  10
ATOM     10  C   UNL     1      -8.803  10.266  18.087  1.00  0.00     0.000 C 
BRANCH  10  11
ATOM     11  C   UNL     1      -8.255  11.688  18.317  1.00  0.00     0.000 C 
BRANCH  11  12
ATOM     12  C   UNL     1      -6.936  12.004  17.588  1.00  0.00     0.000 C 
BRANCH  12  13
ATOM     13  C   UNL     1      -6.734  11.153  16.325  1.00  0.00     0.000 C 
BRANCH  13  14
ATOM     14  C   UNL     1      -6.214  12.013  15.163  1.00  0.00     0.002 C 
BRANCH  14  15
ATOM     15  C   UNL     1      -5.574  13.329  15.639  1.00  0.00     0.028 C 
BRANCH  15  16
ATOM     16  C   UNL     1      -6.163  14.578  14.968  1.00  0.00     0.156 C 
BRANCH  16  17
ATOM     17  O   UNL     1      -6.299  14.392  13.585  1.00  0.00    -0.396 OA
ATOM     18  H   UNL     1      -7.152  13.902  13.447  1.00  0.00     0.210 HD
ENDBRANCH  16  17
ENDBRANCH  15  16
ENDBRANCH  14  15
ENDBRANCH  13  14
ENDBRANCH  12  13
ENDBRANCH  11  12
ENDBRANCH  10  11
ENDBRANCH   1  10
TORSDOF 15
ENDMDL
MODEL 7
REMARK VINA RESULT:    -4.014      1.316      2.052
REMARK INTER + INTRA:          -8.621
REMARK INTER:                  -7.666
REMARK INTRA:                  -0.955
REMARK UNBOUND:                -1.203
REMARK SMILES CCCCCCCCCCCCCCCCO
REMARK SMILES IDX 9 1 8 2 7 3 6 4 5 5 4 6 3 7 2 8 1 9 10 10 11 11 12 12 13 13
REMARK SMILES IDX 14 14 15 15 16 16 17 17
REMARK H PARENT 17 18
REMARK Flexibility Score: inf
ROOT
ATOM      1  C   UNL     1      -1.898  11.318  19.965  1.00  0.00     0.000 C 
ENDROOT
BRANCH   1   2
ATOM      2  C   UNL     1      -2.149  12.130  18.679  1.00  0.00    -0.000 C 
BRANCH   2   3
ATOM      3  C   UNL     1      -2.878  11.367  17.555  1.00  0.00    -0.000 C 
BRANCH   3   4
ATOM      4  C   UNL     1      -4.415  11.449  17.596  1.00  0.00    -0.000 C 
BRANCH   4   5
ATOM      5  C   UNL     1      -4.996  12.345  16.489  1.00  0.00    -0.000 C 
BRANCH   5   6
ATOM      6  C   UNL     1      -6.494  12.095  16.241  1.00  0.00    -0.000 C 
BRANCH   6   7
ATOM      7  C   UNL     1      -7.274  11.518  17.440  1.00  0.00    -0.000 C 
BRANCH   7   8
ATOM      8  C   UNL     1      -7.593  10.016  17.346  1.00  0.00    -0.003 C 
ATOM      9  C   UNL     1      -8.056   9.592  15.953  1.00  0.00     0.004 C 
ENDBRANCH   7   8
ENDBRANCH   6   7
ENDBRANCH   5   6
ENDBRANCH   4   5
ENDBRANCH   3   4
ENDBRANCH   2   3
ENDBRANCH   1   2
BRANCH   1  10
ATOM     10  C   UNL     1      -1.535   9.837  19.735  1.00  0.00     0.000 C 
BRANCH  10  11
ATOM     11  C   UNL     1      -0.116   9.436  20.184  1.00  0.00     0.000 C 
BRANCH  11  12
ATOM     12  C   UNL     1       0.665  10.533  20.930  1.00  0.00     0.000 C 
BRANCH  12  13
ATOM     13  C   UNL     1       2.132  10.631  20.482  1.00  0.00     0.000 C 
BRANCH  13  14
ATOM     14  C   UNL     1       2.498  12.078  20.121  1.00  0.00     0.002 C 
BRANCH  14  15
ATOM     15  C   UNL     1       1.273  13.008  20.082  1.00  0.00     0.028 C 
BRANCH  15  16
ATOM     16  C   UNL     1       1.610  14.453  19.683  1.00  0.00     0.156 C 
BRANCH  16  17
ATOM     17  O   UNL     1       1.649  15.291  20.806  1.00  0.00    -0.396 OA
ATOM     18  H   UNL     1       2.406  15.918  20.667  1.00  0.00     0.210 HD
ENDBRANCH  16  17
ENDBRANCH  15  16
ENDBRANCH  14  15
ENDBRANCH  13  14
ENDBRANCH  12  13
ENDBRANCH  11  12
ENDBRANCH  10  11
ENDBRANCH   1  10
TORSDOF 15
ENDMDL
MODEL 8
REMARK VINA RESULT:    -3.969      2.711      7.429
REMARK INTER + INTRA:          -8.537
REMARK INTER:                  -7.454
REMARK INTRA:                  -1.083
REMARK UNBOUND:                -1.203
REMARK SMILES CCCCCCCCCCCCCCCCO
REMARK SMILES IDX 9 1 8 2 7 3 6 4 5 5 4 6 3 7 2 8 1 9 10 10 11 11 12 12 13 13
REMARK SMILES IDX 14 14 15 15 16 16 17 17
REMARK H PARENT 17 18
REMARK Flexibility Score: inf
ROOT
ATOM      1  C   UNL     1      -2.125  11.569  19.332  1.00  0.00     0.000 C 
ENDROOT
BRANCH   1   2
ATOM      2  C   UNL     1      -1.476  10.791  20.493  1.00  0.00    -0.000 C 
BRANCH   2   3
ATOM      3  C   UNL     1      -0.893   9.415  20.114  1.00  0.00    -0.000 C 
BRANCH   3   4
ATOM      4  C   UNL     1       0.543   9.153  20.603  1.00  0.00    -0.000 C 
BRANCH   4   5
ATOM      5  C   UNL     1       1.203  10.399  21.218  1.00  0.00    -0.000 C 
BRANCH   5   6
ATOM      6  C   UNL     1       2.138  11.126  20.237  1.00  0.00    -0.000 C 
BRANCH   6   7
ATOM      7  C   UNL     1       2.211  12.658  20.408  1.00  0.00    -0.000 C 
BRANCH   7   8
ATOM      8  C   UNL     1       1.181  13.453  19.587  1.00  0.00    -0.003 C 
ATOM      9  C   UNL     1       1.397  14.964  19.666  1.00  0.00     0.004 C 
ENDBRANCH   7   8
ENDBRANCH   6   7
ENDBRANCH   5   6
ENDBRANCH   4   5
ENDBRANCH   3   4
ENDBRANCH   2   3
ENDBRANCH   1   2
BRANCH   1  10
ATOM     10  C   UNL     1      -2.444  10.724  18.083  1.00  0.00     0.000 C 
BRANCH  10  11
ATOM     11  C   UNL     1      -3.860  10.919  17.507  1.00  0.00     0.000 C 
BRANCH  11  12
ATOM     12  C   UNL     1      -4.360  12.376  17.487  1.00  0.00     0.000 C 
BRANCH  12  13
ATOM     13  C   UNL     1      -5.586  12.575  16.583  1.00  0.00     0.000 C 
BRANCH  13  14
ATOM     14  C   UNL     1      -6.848  12.829  17.421  1.00  0.00     0.002 C 
BRANCH  14  15
ATOM     15  C   UNL     1      -7.518  11.527  17.895  1.00  0.00     0.028 C 
BRANCH  15  16
ATOM     16  C   UNL     1      -7.621  10.455  16.800  1.00  0.00     0.156 C 
BRANCH  16  17
ATOM     17  O   UNL     1      -8.921   9.938  16.720  1.00  0.00    -0.396 OA
ATOM     18  H   UNL     1      -8.880   9.009  17.068  1.00  0.00     0.210 HD
ENDBRANCH  16  17
ENDBRANCH  15  16
ENDBRANCH  14  15
ENDBRANCH  13  14
ENDBRANCH  12  13
ENDBRANCH  11  12
ENDBRANCH  10  11
ENDBRANCH   1  10
TORSDOF 15
ENDMDL
MODEL 9
REMARK VINA RESULT:    -3.895      2.561      4.303
REMARK INTER + INTRA:          -8.400
REMARK INTER:                  -7.294
REMARK INTRA:                  -1.106
REMARK UNBOUND:                -1.203
REMARK SMILES CCCCCCCCCCCCCCCCO
REMARK SMILES IDX 9 1 8 2 7 3 6 4 5 5 4 6 3 7 2 8 1 9 10 10 11 11 12 12 13 13
REMARK SMILES IDX 14 14 15 15 16 16 17 17
REMARK H PARENT 17 18
REMARK Flexibility Score: inf
ROOT
ATOM      1  C   UNL     1      -4.727   9.165  18.128  1.00  0.00     0.000 C 
ENDROOT
BRANCH   1   2
ATOM      2  C   UNL     1      -6.149   9.025  18.706  1.00  0.00    -0.000 C 
BRANCH   2   3
ATOM      3  C   UNL     1      -7.288   9.135  17.673  1.00  0.00    -0.000 C 
BRANCH   3   4
ATOM      4  C   UNL     1      -7.394  10.493  16.955  1.00  0.00    -0.000 C 
BRANCH   4   5
ATOM      5  C   UNL     1      -7.628  11.665  17.924  1.00  0.00    -0.000 C 
BRANCH   5   6
ATOM      6  C   UNL     1      -6.819  12.920  17.551  1.00  0.00    -0.000 C 
BRANCH   6   7
ATOM      7  C   UNL     1      -5.492  12.654  16.813  1.00  0.00    -0.000 C 
BRANCH   7   8
ATOM      8  C   UNL     1      -5.540  12.869  15.290  1.00  0.00    -0.003 C 
ATOM      9  C   UNL     1      -6.047  14.257  14.901  1.00  0.00     0.004 C 
ENDBRANCH   7   8
ENDBRANCH   6   7
ENDBRANCH   5   6
ENDBRANCH   4   5
ENDBRANCH   3   4
ENDBRANCH   2   3
ENDBRANCH   1   2
BRANCH   1  10
ATOM     10  C   UNL     1      -3.746   8.051  18.543  1.00  0.00     0.000 C 
BRANCH  10  11
ATOM     11  C   UNL     1      -2.309   8.214  18.009  1.00  0.00     0.000 C 
BRANCH  11  12
ATOM     12  C   UNL     1      -1.262   8.611  19.066  1.00  0.00     0.000 C 
BRANCH  12  13
ATOM     13  C   UNL     1      -1.841   8.663  20.489  1.00  0.00     0.000 C 
BRANCH  13  14
ATOM     14  C   UNL     1      -2.117  10.113  20.915  1.00  0.00     0.002 C 
BRANCH  14  15
ATOM     15  C   UNL     1      -1.362  11.139  20.052  1.00  0.00     0.028 C 
BRANCH  15  16
ATOM     16  C   UNL     1      -2.243  11.821  18.996  1.00  0.00     0.156 C 
BRANCH  16  17
ATOM     17  O   UNL     1      -2.482  13.162  19.327  1.00  0.00    -0.396 OA
ATOM     18  H   UNL     1      -1.719  13.685  18.965  1.00  0.00     0.210 HD
ENDBRANCH  16  17
ENDBRANCH  15  16
ENDBRANCH  14  15
ENDBRANCH  13  14
ENDBRANCH  12  13
ENDBRANCH  11  12
ENDBRANCH  10  11
ENDBRANCH   1  10
TORSDOF 15
ENDMDL
