MODEL 1
REMARK VINA RESULT:    -7.328      0.000      0.000
REMARK INTER + INTRA:         -12.683
REMARK INTER:                 -11.398
REMARK INTRA:                  -1.285
REMARK UNBOUND:                -1.285
REMARK SMILES C[C@@]12C[C@H](O)[C@H]3C[C@]1(O[C@@H]1O[C@H](CO)[C@@H](O)[C@H](O)[C@@H]1O)[C@@]3(COC(=O)c1ccccc1)C(=O)O2
REMARK SMILES IDX 1 1 2 2 3 3 4 4 6 5 7 6 8 7 21 8 32 9 33 10 34 11 9 12 10 13
REMARK SMILES IDX 19 14 11 15 17 16 12 17 15 18 20 19 18 21 13 23 14 24 16 26
REMARK SMILES IDX 5 28 22 30 23 31 24 32 25 33 26 34 27 35 31 36 28 37 30 38
REMARK SMILES IDX 29 39
REMARK H PARENT 20 20 18 22 14 25 16 27 5 29
REMARK Flexibility Score: inf
ROOT
ATOM      1  C   UNL     1     172.492 169.921 172.416  1.00  0.00     0.060 C 
ATOM      2  C   UNL     1     172.497 170.646 173.743  1.00  0.00     0.142 C 
ATOM      3  C   UNL     1     171.470 170.044 174.786  1.00  0.00     0.083 C 
ATOM      4  C   UNL     1     171.781 170.523 176.242  1.00  0.00     0.123 C 
ATOM      5  C   UNL     1     173.261 170.997 176.396  1.00  0.00     0.045 C 
ATOM      6  C   UNL     1     174.098 169.973 175.649  1.00  0.00     0.049 C 
ATOM      7  C   UNL     1     173.925 170.826 174.398  1.00  0.00     0.131 C 
ATOM      8  C   UNL     1     173.664 172.068 175.292  1.00  0.00     0.140 C 
ATOM      9  C   UNL     1     172.638 172.775 174.510  1.00  0.00     0.319 C 
ATOM     10  O   UNL     1     172.286 173.975 174.723  1.00  0.00    -0.251 OA
ATOM     11  O   UNL     1     172.065 171.995 173.519  1.00  0.00    -0.456 OA
ENDROOT
BRANCH   7  12
ATOM     12  O   UNL     1     175.031 171.080 173.493  1.00  0.00    -0.338 OA
BRANCH  12  13
ATOM     13  C   UNL     1     176.232 170.310 173.591  1.00  0.00     0.282 C 
ATOM     14  C   UNL     1     176.141 169.072 172.650  1.00  0.00     0.202 C 
ATOM     15  O   UNL     1     177.401 171.063 173.407  1.00  0.00    -0.341 OA
ATOM     16  C   UNL     1     177.229 168.053 173.112  1.00  0.00     0.179 C 
ATOM     17  C   UNL     1     178.592 170.286 173.317  1.00  0.00     0.178 C 
ATOM     18  C   UNL     1     178.490 168.751 173.703  1.00  0.00     0.177 C 
BRANCH  14  19
ATOM     19  O   UNL     1     176.334 169.512 171.339  1.00  0.00    -0.385 OA
ATOM     20  H   UNL     1     177.000 168.920 170.887  1.00  0.00     0.211 HD
ENDBRANCH  14  19
BRANCH  16  21
ATOM     21  O   UNL     1     177.542 166.988 172.235  1.00  0.00    -0.387 OA
ATOM     22  H   UNL     1     178.054 167.348 171.473  1.00  0.00     0.211 HD
ENDBRANCH  16  21
BRANCH  17  23
ATOM     23  C   UNL     1     179.268 170.486 171.956  1.00  0.00     0.191 C 
BRANCH  23  24
ATOM     24  O   UNL     1     178.556 171.492 171.272  1.00  0.00    -0.394 OA
ATOM     25  H   UNL     1     178.369 172.244 171.908  1.00  0.00     0.210 HD
ENDBRANCH  23  24
ENDBRANCH  17  23
BRANCH  18  26
ATOM     26  O   UNL     1     178.444 168.683 175.096  1.00  0.00    -0.387 OA
ATOM     27  H   UNL     1     178.573 167.721 175.311  1.00  0.00     0.211 HD
ENDBRANCH  18  26
ENDBRANCH  12  13
ENDBRANCH   7  12
BRANCH   4  28
ATOM     28  O   UNL     1     170.897 171.569 176.601  1.00  0.00    -0.393 OA
ATOM     29  H   UNL     1     171.352 172.431 176.398  1.00  0.00     0.210 HD
ENDBRANCH   4  28
BRANCH   8  30
ATOM     30  C   UNL     1     174.915 172.937 175.671  1.00  0.00     0.255 C 
BRANCH  30  31
ATOM     31  O   UNL     1     174.633 173.812 176.765  1.00  0.00    -0.461 OA
BRANCH  31  32
ATOM     32  C   UNL     1     175.033 173.607 178.093  1.00  0.00     0.338 C 
ATOM     33  O   UNL     1     176.246 173.335 178.325  1.00  0.00    -0.246 OA
BRANCH  32  34
ATOM     34  C   UNL     1     173.994 173.376 179.150  1.00  0.00     0.060 A 
ATOM     35  C   UNL     1     172.637 173.686 178.918  1.00  0.00     0.015 A 
ATOM     36  C   UNL     1     174.420 173.054 180.440  1.00  0.00     0.015 A 
ATOM     37  C   UNL     1     171.713 173.529 179.948  1.00  0.00     0.001 A 
ATOM     38  C   UNL     1     173.504 172.959 181.485  1.00  0.00     0.001 A 
ATOM     39  C   UNL     1     172.149 173.215 181.242  1.00  0.00     0.000 A 
ENDBRANCH  32  34
ENDBRANCH  31  32
ENDBRANCH  30  31
ENDBRANCH   8  30
TORSDOF 12
ENDMDL
MODEL 2
REMARK VINA RESULT:    -7.322      3.835      7.742
REMARK INTER + INTRA:         -12.673
REMARK INTER:                 -11.379
REMARK INTRA:                  -1.294
REMARK UNBOUND:                -1.285
REMARK SMILES C[C@@]12C[C@H](O)[C@H]3C[C@]1(O[C@@H]1O[C@H](CO)[C@@H](O)[C@H](O)[C@@H]1O)[C@@]3(COC(=O)c1ccccc1)C(=O)O2
REMARK SMILES IDX 1 1 2 2 3 3 4 4 6 5 7 6 8 7 21 8 32 9 33 10 34 11 9 12 10 13
REMARK SMILES IDX 19 14 11 15 17 16 12 17 15 18 20 19 18 21 13 23 14 24 16 26
REMARK SMILES IDX 5 28 22 30 23 31 24 32 25 33 26 34 27 35 31 36 28 37 30 38
REMARK SMILES IDX 29 39
REMARK H PARENT 20 20 18 22 14 25 16 27 5 29
REMARK Flexibility Score: inf
ROOT
ATOM      1  C   UNL     1     173.862 176.475 172.422  1.00  0.00     0.060 C 
ATOM      2  C   UNL     1     173.866 175.753 173.751  1.00  0.00     0.142 C 
ATOM      3  C   UNL     1     174.904 176.356 174.784  1.00  0.00     0.083 C 
ATOM      4  C   UNL     1     174.605 175.882 176.243  1.00  0.00     0.123 C 
ATOM      5  C   UNL     1     173.125 175.412 176.411  1.00  0.00     0.045 C 
ATOM      6  C   UNL     1     172.284 176.435 175.669  1.00  0.00     0.049 C 
ATOM      7  C   UNL     1     172.444 175.579 174.419  1.00  0.00     0.131 C 
ATOM      8  C   UNL     1     172.710 174.338 175.315  1.00  0.00     0.140 C 
ATOM      9  C   UNL     1     173.728 173.627 174.526  1.00  0.00     0.319 C 
ATOM     10  O   UNL     1     174.078 172.426 174.738  1.00  0.00    -0.251 OA
ATOM     11  O   UNL     1     174.293 174.403 173.527  1.00  0.00    -0.456 OA
ENDROOT
BRANCH   7  12
ATOM     12  O   UNL     1     171.329 175.325 173.525  1.00  0.00    -0.338 OA
BRANCH  12  13
ATOM     13  C   UNL     1     170.142 176.117 173.612  1.00  0.00     0.282 C 
ATOM     14  C   UNL     1     170.270 177.359 172.681  1.00  0.00     0.202 C 
ATOM     15  O   UNL     1     168.962 175.389 173.406  1.00  0.00    -0.341 OA
ATOM     16  C   UNL     1     169.197 178.396 173.135  1.00  0.00     0.179 C 
ATOM     17  C   UNL     1     167.787 176.189 173.305  1.00  0.00     0.178 C 
ATOM     18  C   UNL     1     167.913 177.719 173.704  1.00  0.00     0.177 C 
BRANCH  14  19
ATOM     19  O   UNL     1     170.087 176.933 171.364  1.00  0.00    -0.385 OA
ATOM     20  H   UNL     1     169.964 177.728 170.773  1.00  0.00     0.211 HD
ENDBRANCH  14  19
BRANCH  16  21
ATOM     21  O   UNL     1     168.916 179.473 172.261  1.00  0.00    -0.387 OA
ATOM     22  H   UNL     1     168.025 179.332 171.863  1.00  0.00     0.211 HD
ENDBRANCH  16  21
BRANCH  17  23
ATOM     23  C   UNL     1     167.126 176.012 171.934  1.00  0.00     0.191 C 
BRANCH  23  24
ATOM     24  O   UNL     1     167.875 175.052 171.224  1.00  0.00    -0.394 OA
ATOM     25  H   UNL     1     167.365 174.189 171.212  1.00  0.00     0.210 HD
ENDBRANCH  23  24
ENDBRANCH  17  23
BRANCH  18  26
ATOM     26  O   UNL     1     167.941 177.777 175.097  1.00  0.00    -0.387 OA
ATOM     27  H   UNL     1     168.353 178.656 175.310  1.00  0.00     0.211 HD
ENDBRANCH  18  26
ENDBRANCH  12  13
ENDBRANCH   7  12
BRANCH   4  28
ATOM     28  O   UNL     1     175.490 174.835 176.597  1.00  0.00    -0.393 OA
ATOM     29  H   UNL     1     175.805 175.008 177.526  1.00  0.00     0.210 HD
ENDBRANCH   4  28
BRANCH   8  30
ATOM     30  C   UNL     1     171.461 173.473 175.706  1.00  0.00     0.255 C 
BRANCH  30  31
ATOM     31  O   UNL     1     171.754 172.591 176.791  1.00  0.00    -0.461 OA
BRANCH  31  32
ATOM     32  C   UNL     1     171.369 172.787 178.125  1.00  0.00     0.338 C 
ATOM     33  O   UNL     1     170.158 173.052 178.374  1.00  0.00    -0.246 OA
BRANCH  32  34
ATOM     34  C   UNL     1     172.421 173.019 179.170  1.00  0.00     0.060 A 
ATOM     35  C   UNL     1     173.775 172.706 178.924  1.00  0.00     0.015 A 
ATOM     36  C   UNL     1     172.010 173.345 180.465  1.00  0.00     0.015 A 
ATOM     37  C   UNL     1     174.710 172.864 179.944  1.00  0.00     0.001 A 
ATOM     38  C   UNL     1     172.937 173.441 181.499  1.00  0.00     0.001 A 
ATOM     39  C   UNL     1     174.289 173.182 181.242  1.00  0.00     0.000 A 
ENDBRANCH  32  34
ENDBRANCH  31  32
ENDBRANCH  30  31
ENDBRANCH   8  30
TORSDOF 12
ENDMDL
MODEL 3
REMARK VINA RESULT:    -7.240      5.261      9.072
REMARK INTER + INTRA:         -12.546
REMARK INTER:                 -12.302
REMARK INTRA:                  -0.244
REMARK UNBOUND:                -1.285
REMARK SMILES C[C@@]12C[C@H](O)[C@H]3C[C@]1(O[C@@H]1O[C@H](CO)[C@@H](O)[C@H](O)[C@@H]1O)[C@@]3(COC(=O)c1ccccc1)C(=O)O2
REMARK SMILES IDX 1 1 2 2 3 3 4 4 6 5 7 6 8 7 21 8 32 9 33 10 34 11 9 12 10 13
REMARK SMILES IDX 19 14 11 15 17 16 12 17 15 18 20 19 18 21 13 23 14 24 16 26
REMARK SMILES IDX 5 28 22 30 23 31 24 32 25 33 26 34 27 35 31 36 28 37 30 38
REMARK SMILES IDX 29 39
REMARK H PARENT 20 20 18 22 14 25 16 27 5 29
REMARK Flexibility Score: inf
ROOT
ATOM      1  C   UNL     1     169.879 177.314 171.455  1.00  0.00     0.060 C 
ATOM      2  C   UNL     1     170.766 176.963 172.628  1.00  0.00     0.142 C 
ATOM      3  C   UNL     1     171.769 178.122 173.020  1.00  0.00     0.083 C 
ATOM      4  C   UNL     1     172.364 177.910 174.450  1.00  0.00     0.123 C 
ATOM      5  C   UNL     1     171.469 176.974 175.320  1.00  0.00     0.045 C 
ATOM      6  C   UNL     1     170.040 177.416 175.060  1.00  0.00     0.049 C 
ATOM      7  C   UNL     1     170.001 176.425 173.903  1.00  0.00     0.131 C 
ATOM      8  C   UNL     1     171.135 175.607 174.580  1.00  0.00     0.140 C 
ATOM      9  C   UNL     1     171.911 175.168 173.410  1.00  0.00     0.319 C 
ATOM     10  O   UNL     1     172.801 174.265 173.447  1.00  0.00    -0.251 OA
ATOM     11  O   UNL     1     171.594 175.855 172.249  1.00  0.00    -0.456 OA
ENDROOT
BRANCH   7  12
ATOM     12  O   UNL     1     168.845 175.582 173.664  1.00  0.00    -0.338 OA
BRANCH  12  13
ATOM     13  C   UNL     1     167.712 176.097 172.959  1.00  0.00     0.282 C 
ATOM     14  C   UNL     1     166.806 174.921 172.489  1.00  0.00     0.202 C 
ATOM     15  O   UNL     1     167.014 177.089 173.664  1.00  0.00    -0.341 OA
ATOM     16  C   UNL     1     165.865 175.473 171.374  1.00  0.00     0.179 C 
ATOM     17  C   UNL     1     165.783 177.480 173.062  1.00  0.00     0.178 C 
ATOM     18  C   UNL     1     165.501 176.974 171.586  1.00  0.00     0.177 C 
BRANCH  14  19
ATOM     19  O   UNL     1     166.106 174.444 173.599  1.00  0.00    -0.385 OA
ATOM     20  H   UNL     1     166.604 174.684 174.431  1.00  0.00     0.211 HD
ENDBRANCH  14  19
BRANCH  16  21
ATOM     21  O   UNL     1     164.755 174.679 171.001  1.00  0.00    -0.387 OA
ATOM     22  H   UNL     1     164.114 174.663 171.751  1.00  0.00     0.211 HD
ENDBRANCH  16  21
BRANCH  17  23
ATOM     23  C   UNL     1     164.605 177.188 173.998  1.00  0.00     0.191 C 
BRANCH  23  24
ATOM     24  O   UNL     1     164.023 178.423 174.346  1.00  0.00    -0.394 OA
ATOM     25  H   UNL     1     163.976 178.489 175.345  1.00  0.00     0.210 HD
ENDBRANCH  23  24
ENDBRANCH  17  23
BRANCH  18  26
ATOM     26  O   UNL     1     166.273 177.760 170.731  1.00  0.00    -0.387 OA
ATOM     27  H   UNL     1     166.160 177.350 169.832  1.00  0.00     0.211 HD
ENDBRANCH  18  26
ENDBRANCH  12  13
ENDBRANCH   7  12
BRANCH   4  28
ATOM     28  O   UNL     1     173.672 177.375 174.350  1.00  0.00    -0.393 OA
ATOM     29  H   UNL     1     173.920 177.017 175.246  1.00  0.00     0.210 HD
ENDBRANCH   4  28
BRANCH   8  30
ATOM     30  C   UNL     1     170.688 174.450 175.542  1.00  0.00     0.255 C 
BRANCH  30  31
ATOM     31  O   UNL     1     171.703 174.144 176.500  1.00  0.00    -0.461 OA
BRANCH  31  32
ATOM     32  C   UNL     1     171.629 173.131 177.466  1.00  0.00     0.338 C 
ATOM     33  O   UNL     1     170.682 172.296 177.397  1.00  0.00    -0.246 OA
BRANCH  32  34
ATOM     34  C   UNL     1     172.437 173.250 178.724  1.00  0.00     0.060 A 
ATOM     35  C   UNL     1     173.813 172.936 178.739  1.00  0.00     0.015 A 
ATOM     36  C   UNL     1     171.764 173.467 179.929  1.00  0.00     0.015 A 
ATOM     37  C   UNL     1     174.514 172.986 179.942  1.00  0.00     0.001 A 
ATOM     38  C   UNL     1     172.453 173.454 181.138  1.00  0.00     0.001 A 
ATOM     39  C   UNL     1     173.829 173.195 181.147  1.00  0.00     0.000 A 
ENDBRANCH  32  34
ENDBRANCH  31  32
ENDBRANCH  30  31
ENDBRANCH   8  30
TORSDOF 12
ENDMDL
MODEL 4
REMARK VINA RESULT:    -7.156      1.286      1.408
REMARK INTER + INTRA:         -12.415
REMARK INTER:                 -11.257
REMARK INTRA:                  -1.159
REMARK UNBOUND:                -1.285
REMARK SMILES C[C@@]12C[C@H](O)[C@H]3C[C@]1(O[C@@H]1O[C@H](CO)[C@@H](O)[C@H](O)[C@@H]1O)[C@@]3(COC(=O)c1ccccc1)C(=O)O2
REMARK SMILES IDX 1 1 2 2 3 3 4 4 6 5 7 6 8 7 21 8 32 9 33 10 34 11 9 12 10 13
REMARK SMILES IDX 19 14 11 15 17 16 12 17 15 18 20 19 18 21 13 23 14 24 16 26
REMARK SMILES IDX 5 28 22 30 23 31 24 32 25 33 26 34 27 35 31 36 28 37 30 38
REMARK SMILES IDX 29 39
REMARK H PARENT 20 20 18 22 14 25 16 27 5 29
REMARK Flexibility Score: inf
ROOT
ATOM      1  C   UNL     1     173.700 169.790 171.934  1.00  0.00     0.060 C 
ATOM      2  C   UNL     1     173.548 170.363 173.325  1.00  0.00     0.142 C 
ATOM      3  C   UNL     1     172.794 169.390 174.320  1.00  0.00     0.083 C 
ATOM      4  C   UNL     1     173.012 169.809 175.811  1.00  0.00     0.123 C 
ATOM      5  C   UNL     1     174.289 170.690 175.987  1.00  0.00     0.045 C 
ATOM      6  C   UNL     1     175.359 170.036 175.131  1.00  0.00     0.049 C 
ATOM      7  C   UNL     1     174.885 170.905 173.972  1.00  0.00     0.131 C 
ATOM      8  C   UNL     1     174.306 171.926 174.988  1.00  0.00     0.140 C 
ATOM      9  C   UNL     1     173.082 172.359 174.295  1.00  0.00     0.319 C 
ATOM     10  O   UNL     1     172.399 173.374 174.629  1.00  0.00    -0.251 OA
ATOM     11  O   UNL     1     172.724 171.534 173.241  1.00  0.00    -0.456 OA
ENDROOT
BRANCH   7  12
ATOM     12  O   UNL     1     175.824 171.559 173.079  1.00  0.00    -0.338 OA
BRANCH  12  13
ATOM     13  C   UNL     1     177.184 171.123 173.022  1.00  0.00     0.282 C 
ATOM     14  C   UNL     1     177.424 170.322 171.707  1.00  0.00     0.202 C 
ATOM     15  O   UNL     1     178.115 172.152 173.222  1.00  0.00    -0.341 OA
ATOM     16  C   UNL     1     178.739 169.504 171.892  1.00  0.00     0.179 C 
ATOM     17  C   UNL     1     179.469 171.775 172.985  1.00  0.00     0.178 C 
ATOM     18  C   UNL     1     179.772 170.229 172.807  1.00  0.00     0.177 C 
BRANCH  14  19
ATOM     19  O   UNL     1     177.499 171.235 170.653  1.00  0.00    -0.385 OA
ATOM     20  H   UNL     1     177.144 170.810 169.822  1.00  0.00     0.211 HD
ENDBRANCH  14  19
BRANCH  16  21
ATOM     21  O   UNL     1     179.324 168.934 170.736  1.00  0.00    -0.387 OA
ATOM     22  H   UNL     1     180.293 169.119 170.749  1.00  0.00     0.211 HD
ENDBRANCH  16  21
BRANCH  17  23
ATOM     23  C   UNL     1     180.073 172.607 171.850  1.00  0.00     0.191 C 
BRANCH  23  24
ATOM     24  O   UNL     1     179.200 173.686 171.604  1.00  0.00    -0.394 OA
ATOM     25  H   UNL     1     178.302 173.323 171.349  1.00  0.00     0.210 HD
ENDBRANCH  23  24
ENDBRANCH  17  23
BRANCH  18  26
ATOM     26  O   UNL     1     179.741 169.657 174.079  1.00  0.00    -0.387 OA
ATOM     27  H   UNL     1     179.677 168.678 173.920  1.00  0.00     0.211 HD
ENDBRANCH  18  26
ENDBRANCH  12  13
ENDBRANCH   7  12
BRANCH   4  28
ATOM     28  O   UNL     1     171.873 170.504 176.284  1.00  0.00    -0.393 OA
ATOM     29  H   UNL     1     171.684 170.179 177.206  1.00  0.00     0.210 HD
ENDBRANCH   4  28
BRANCH   8  30
ATOM     30  C   UNL     1     175.256 173.094 175.430  1.00  0.00     0.255 C 
BRANCH  30  31
ATOM     31  O   UNL     1     174.734 173.795 176.561  1.00  0.00    -0.461 OA
BRANCH  31  32
ATOM     32  C   UNL     1     175.134 173.603 177.891  1.00  0.00     0.338 C 
ATOM     33  O   UNL     1     176.354 173.372 178.130  1.00  0.00    -0.246 OA
BRANCH  32  34
ATOM     34  C   UNL     1     174.097 173.335 178.941  1.00  0.00     0.060 A 
ATOM     35  C   UNL     1     172.733 173.613 178.708  1.00  0.00     0.015 A 
ATOM     36  C   UNL     1     174.526 173.011 180.231  1.00  0.00     0.015 A 
ATOM     37  C   UNL     1     171.810 173.422 179.733  1.00  0.00     0.001 A 
ATOM     38  C   UNL     1     173.609 172.882 181.271  1.00  0.00     0.001 A 
ATOM     39  C   UNL     1     172.250 173.107 181.025  1.00  0.00     0.000 A 
ENDBRANCH  32  34
ENDBRANCH  31  32
ENDBRANCH  30  31
ENDBRANCH   8  30
TORSDOF 12
ENDMDL
MODEL 5
REMARK VINA RESULT:    -7.155      1.853      3.153
REMARK INTER + INTRA:         -12.414
REMARK INTER:                 -12.159
REMARK INTRA:                  -0.254
REMARK UNBOUND:                -1.285
REMARK SMILES C[C@@]12C[C@H](O)[C@H]3C[C@]1(O[C@@H]1O[C@H](CO)[C@@H](O)[C@H](O)[C@@H]1O)[C@@]3(COC(=O)c1ccccc1)C(=O)O2
REMARK SMILES IDX 1 1 2 2 3 3 4 4 6 5 7 6 8 7 21 8 32 9 33 10 34 11 9 12 10 13
REMARK SMILES IDX 19 14 11 15 17 16 12 17 15 18 20 19 18 21 13 23 14 24 16 26
REMARK SMILES IDX 5 28 22 30 23 31 24 32 25 33 26 34 27 35 31 36 28 37 30 38
REMARK SMILES IDX 29 39
REMARK H PARENT 20 20 18 22 14 25 16 27 5 29
REMARK Flexibility Score: inf
ROOT
ATOM      1  C   UNL     1     176.531 169.131 171.515  1.00  0.00     0.060 C 
ATOM      2  C   UNL     1     175.646 169.517 172.679  1.00  0.00     0.142 C 
ATOM      3  C   UNL     1     174.574 168.410 173.040  1.00  0.00     0.083 C 
ATOM      4  C   UNL     1     173.968 168.639 174.463  1.00  0.00     0.123 C 
ATOM      5  C   UNL     1     174.899 169.514 175.359  1.00  0.00     0.045 C 
ATOM      6  C   UNL     1     176.306 168.997 175.116  1.00  0.00     0.049 C 
ATOM      7  C   UNL     1     176.418 169.997 173.972  1.00  0.00     0.131 C 
ATOM      8  C   UNL     1     175.320 170.869 174.641  1.00  0.00     0.140 C 
ATOM      9  C   UNL     1     174.588 171.363 173.464  1.00  0.00     0.319 C 
ATOM     10  O   UNL     1     173.749 172.313 173.499  1.00  0.00    -0.251 OA
ATOM     11  O   UNL     1     174.886 170.673 172.300  1.00  0.00    -0.456 OA
ENDROOT
BRANCH   7  12
ATOM     12  O   UNL     1     177.622 170.779 173.761  1.00  0.00    -0.338 OA
BRANCH  12  13
ATOM     13  C   UNL     1     178.720 170.225 173.031  1.00  0.00     0.282 C 
ATOM     14  C   UNL     1     179.631 171.372 172.502  1.00  0.00     0.202 C 
ATOM     15  O   UNL     1     179.424 169.237 173.735  1.00  0.00    -0.341 OA
ATOM     16  C   UNL     1     180.522 170.775 171.369  1.00  0.00     0.179 C 
ATOM     17  C   UNL     1     180.626 168.807 173.101  1.00  0.00     0.178 C 
ATOM     18  C   UNL     1     180.865 169.274 171.605  1.00  0.00     0.177 C 
BRANCH  14  19
ATOM     19  O   UNL     1     180.378 171.861 173.576  1.00  0.00    -0.385 OA
ATOM     20  H   UNL     1     180.658 172.800 173.383  1.00  0.00     0.211 HD
ENDBRANCH  14  19
BRANCH  16  21
ATOM     21  O   UNL     1     181.634 171.539 170.940  1.00  0.00    -0.387 OA
ATOM     22  H   UNL     1     182.450 170.996 171.048  1.00  0.00     0.211 HD
ENDBRANCH  16  21
BRANCH  17  23
ATOM     23  C   UNL     1     181.841 169.098 173.988  1.00  0.00     0.191 C 
BRANCH  23  24
ATOM     24  O   UNL     1     182.407 167.860 174.352  1.00  0.00    -0.394 OA
ATOM     25  H   UNL     1     181.751 167.131 174.144  1.00  0.00     0.210 HD
ENDBRANCH  23  24
ENDBRANCH  17  23
BRANCH  18  26
ATOM     26  O   UNL     1     180.050 168.483 170.795  1.00  0.00    -0.387 OA
ATOM     27  H   UNL     1     179.248 169.041 170.612  1.00  0.00     0.211 HD
ENDBRANCH  18  26
ENDBRANCH  12  13
ENDBRANCH   7  12
BRANCH   4  28
ATOM     28  O   UNL     1     172.694 169.245 174.349  1.00  0.00    -0.393 OA
ATOM     29  H   UNL     1     172.402 169.508 175.265  1.00  0.00     0.210 HD
ENDBRANCH   4  28
BRANCH   8  30
ATOM     30  C   UNL     1     175.813 171.988 175.624  1.00  0.00     0.255 C 
BRANCH  30  31
ATOM     31  O   UNL     1     174.802 172.336 176.572  1.00  0.00    -0.461 OA
BRANCH  31  32
ATOM     32  C   UNL     1     174.977 173.192 177.669  1.00  0.00     0.338 C 
ATOM     33  O   UNL     1     176.092 173.769 177.815  1.00  0.00    -0.246 OA
BRANCH  32  34
ATOM     34  C   UNL     1     173.999 173.145 178.805  1.00  0.00     0.060 A 
ATOM     35  C   UNL     1     172.640 173.471 178.611  1.00  0.00     0.015 A 
ATOM     36  C   UNL     1     174.494 172.985 180.102  1.00  0.00     0.015 A 
ATOM     37  C   UNL     1     171.777 173.490 179.705  1.00  0.00     0.001 A 
ATOM     38  C   UNL     1     173.642 173.066 181.200  1.00  0.00     0.001 A 
ATOM     39  C   UNL     1     172.283 173.338 181.002  1.00  0.00     0.000 A 
ENDBRANCH  32  34
ENDBRANCH  31  32
ENDBRANCH  30  31
ENDBRANCH   8  30
TORSDOF 12
ENDMDL
MODEL 6
REMARK VINA RESULT:    -7.148      4.063      7.719
REMARK INTER + INTRA:         -12.403
REMARK INTER:                 -11.260
REMARK INTRA:                  -1.142
REMARK UNBOUND:                -1.285
REMARK SMILES C[C@@]12C[C@H](O)[C@H]3C[C@]1(O[C@@H]1O[C@H](CO)[C@@H](O)[C@H](O)[C@@H]1O)[C@@]3(COC(=O)c1ccccc1)C(=O)O2
REMARK SMILES IDX 1 1 2 2 3 3 4 4 6 5 7 6 8 7 21 8 32 9 33 10 34 11 9 12 10 13
REMARK SMILES IDX 19 14 11 15 17 16 12 17 15 18 20 19 18 21 13 23 14 24 16 26
REMARK SMILES IDX 5 28 22 30 23 31 24 32 25 33 26 34 27 35 31 36 28 37 30 38
REMARK SMILES IDX 29 39
REMARK H PARENT 20 20 18 22 14 25 16 27 5 29
REMARK Flexibility Score: inf
ROOT
ATOM      1  C   UNL     1     172.822 176.263 171.894  1.00  0.00     0.060 C 
ATOM      2  C   UNL     1     172.943 175.777 173.321  1.00  0.00     0.142 C 
ATOM      3  C   UNL     1     173.723 176.786 174.259  1.00  0.00     0.083 C 
ATOM      4  C   UNL     1     173.479 176.471 175.771  1.00  0.00     0.123 C 
ATOM      5  C   UNL     1     172.172 175.647 175.991  1.00  0.00     0.045 C 
ATOM      6  C   UNL     1     171.132 176.281 175.084  1.00  0.00     0.049 C 
ATOM      7  C   UNL     1     171.583 175.324 173.988  1.00  0.00     0.131 C 
ATOM      8  C   UNL     1     172.119 174.350 175.073  1.00  0.00     0.140 C 
ATOM      9  C   UNL     1     173.333 173.833 174.421  1.00  0.00     0.319 C 
ATOM     10  O   UNL     1     173.977 172.818 174.826  1.00  0.00    -0.251 OA
ATOM     11  O   UNL     1     173.726 174.575 173.320  1.00  0.00    -0.456 OA
ENDROOT
BRANCH   7  12
ATOM     12  O   UNL     1     170.629 174.646 173.130  1.00  0.00    -0.338 OA
BRANCH  12  13
ATOM     13  C   UNL     1     169.287 175.130 173.024  1.00  0.00     0.282 C 
ATOM     14  C   UNL     1     169.128 175.952 171.711  1.00  0.00     0.202 C 
ATOM     15  O   UNL     1     168.315 174.132 173.176  1.00  0.00    -0.341 OA
ATOM     16  C   UNL     1     167.835 176.814 171.853  1.00  0.00     0.179 C 
ATOM     17  C   UNL     1     166.985 174.558 172.890  1.00  0.00     0.178 C 
ATOM     18  C   UNL     1     166.743 176.116 172.718  1.00  0.00     0.177 C 
BRANCH  14  19
ATOM     19  O   UNL     1     169.064 175.053 170.644  1.00  0.00    -0.385 OA
ATOM     20  H   UNL     1     168.940 175.559 169.792  1.00  0.00     0.211 HD
ENDBRANCH  14  19
BRANCH  16  21
ATOM     21  O   UNL     1     167.317 177.415 170.681  1.00  0.00    -0.387 OA
ATOM     22  H   UNL     1     166.409 177.064 170.522  1.00  0.00     0.211 HD
ENDBRANCH  16  21
BRANCH  17  23
ATOM     23  C   UNL     1     166.398 173.759 171.722  1.00  0.00     0.191 C 
BRANCH  23  24
ATOM     24  O   UNL     1     167.237 172.647 171.505  1.00  0.00    -0.394 OA
ATOM     25  H   UNL     1     167.308 172.125 172.358  1.00  0.00     0.210 HD
ENDBRANCH  23  24
ENDBRANCH  17  23
BRANCH  18  26
ATOM     26  O   UNL     1     166.742 176.673 173.996  1.00  0.00    -0.387 OA
ATOM     27  H   UNL     1     167.588 176.359 174.415  1.00  0.00     0.211 HD
ENDBRANCH  18  26
ENDBRANCH  12  13
ENDBRANCH   7  12
BRANCH   4  28
ATOM     28  O   UNL     1     174.590 175.769 176.299  1.00  0.00    -0.393 OA
ATOM     29  H   UNL     1     174.420 175.622 177.269  1.00  0.00     0.210 HD
ENDBRANCH   4  28
BRANCH   8  30
ATOM     30  C   UNL     1     171.125 173.247 175.580  1.00  0.00     0.255 C 
BRANCH  30  31
ATOM     31  O   UNL     1     171.637 172.569 176.729  1.00  0.00    -0.461 OA
BRANCH  31  32
ATOM     32  C   UNL     1     171.257 172.819 178.055  1.00  0.00     0.338 C 
ATOM     33  O   UNL     1     170.052 173.116 178.295  1.00  0.00    -0.246 OA
BRANCH  32  34
ATOM     34  C   UNL     1     172.314 173.066 179.091  1.00  0.00     0.060 A 
ATOM     35  C   UNL     1     173.667 172.748 178.843  1.00  0.00     0.015 A 
ATOM     36  C   UNL     1     171.910 173.412 180.383  1.00  0.00     0.015 A 
ATOM     37  C   UNL     1     174.607 172.920 179.856  1.00  0.00     0.001 A 
ATOM     38  C   UNL     1     172.842 173.523 181.411  1.00  0.00     0.001 A 
ATOM     39  C   UNL     1     174.192 173.259 181.151  1.00  0.00     0.000 A 
ENDBRANCH  32  34
ENDBRANCH  31  32
ENDBRANCH  30  31
ENDBRANCH   8  30
TORSDOF 12
ENDMDL
MODEL 7
REMARK VINA RESULT:    -6.769      2.494      5.454
REMARK INTER + INTRA:         -11.813
REMARK INTER:                 -11.074
REMARK INTRA:                  -0.740
REMARK UNBOUND:                -1.285
REMARK SMILES C[C@@]12C[C@H](O)[C@H]3C[C@]1(O[C@@H]1O[C@H](CO)[C@@H](O)[C@H](O)[C@@H]1O)[C@@]3(COC(=O)c1ccccc1)C(=O)O2
REMARK SMILES IDX 1 1 2 2 3 3 4 4 6 5 7 6 8 7 21 8 32 9 33 10 34 11 9 12 10 13
REMARK SMILES IDX 19 14 11 15 17 16 12 17 15 18 20 19 18 21 13 23 14 24 16 26
REMARK SMILES IDX 5 28 22 30 23 31 24 32 25 33 26 34 27 35 31 36 28 37 30 38
REMARK SMILES IDX 29 39
REMARK H PARENT 20 20 18 22 14 25 16 27 5 29
REMARK Flexibility Score: inf
ROOT
ATOM      1  C   UNL     1     174.488 171.846 171.576  1.00  0.00     0.060 C 
ATOM      2  C   UNL     1     174.042 171.016 172.759  1.00  0.00     0.142 C 
ATOM      3  C   UNL     1     175.090 169.904 173.170  1.00  0.00     0.083 C 
ATOM      4  C   UNL     1     174.811 169.353 174.607  1.00  0.00     0.123 C 
ATOM      5  C   UNL     1     173.969 170.353 175.460  1.00  0.00     0.045 C 
ATOM      6  C   UNL     1     174.558 171.724 175.184  1.00  0.00     0.049 C 
ATOM      7  C   UNL     1     173.582 171.850 174.021  1.00  0.00     0.131 C 
ATOM      8  C   UNL     1     172.647 170.817 174.708  1.00  0.00     0.140 C 
ATOM      9  C   UNL     1     172.135 170.074 173.545  1.00  0.00     0.319 C 
ATOM     10  O   UNL     1     171.144 169.284 173.589  1.00  0.00    -0.251 OA
ATOM     11  O   UNL     1     172.856 170.303 172.384  1.00  0.00    -0.456 OA
ENDROOT
BRANCH   7  12
ATOM     12  O   UNL     1     172.864 173.084 173.762  1.00  0.00    -0.338 OA
BRANCH  12  13
ATOM     13  C   UNL     1     173.298 174.308 174.360  1.00  0.00     0.282 C 
ATOM     14  C   UNL     1     173.899 175.242 173.268  1.00  0.00     0.202 C 
ATOM     15  O   UNL     1     172.318 174.931 175.146  1.00  0.00    -0.341 OA
ATOM     16  C   UNL     1     174.747 176.329 173.998  1.00  0.00     0.179 C 
ATOM     17  C   UNL     1     172.668 176.237 175.597  1.00  0.00     0.178 C 
ATOM     18  C   UNL     1     174.173 176.694 175.401  1.00  0.00     0.177 C 
BRANCH  14  19
ATOM     19  O   UNL     1     172.841 175.784 172.534  1.00  0.00    -0.385 OA
ATOM     20  H   UNL     1     171.987 175.645 173.033  1.00  0.00     0.211 HD
ENDBRANCH  14  19
BRANCH  16  21
ATOM     21  O   UNL     1     175.145 177.462 173.249  1.00  0.00    -0.387 OA
ATOM     22  H   UNL     1     175.632 177.154 172.448  1.00  0.00     0.211 HD
ENDBRANCH  16  21
BRANCH  17  23
ATOM     23  C   UNL     1     171.682 177.279 175.057  1.00  0.00     0.191 C 
BRANCH  23  24
ATOM     24  O   UNL     1     172.432 178.263 174.383  1.00  0.00    -0.394 OA
ATOM     25  H   UNL     1     172.536 177.990 173.425  1.00  0.00     0.210 HD
ENDBRANCH  23  24
ENDBRANCH  17  23
BRANCH  18  26
ATOM     26  O   UNL     1     174.925 176.055 176.386  1.00  0.00    -0.387 OA
ATOM     27  H   UNL     1     174.300 175.932 177.149  1.00  0.00     0.211 HD
ENDBRANCH  18  26
ENDBRANCH  12  13
ENDBRANCH   7  12
BRANCH   4  28
ATOM     28  O   UNL     1     174.144 168.107 174.520  1.00  0.00    -0.393 OA
ATOM     29  H   UNL     1     173.954 167.932 173.558  1.00  0.00     0.210 HD
ENDBRANCH   4  28
BRANCH   8  30
ATOM     30  C   UNL     1     171.539 171.394 175.657  1.00  0.00     0.255 C 
BRANCH  30  31
ATOM     31  O   UNL     1     172.020 171.542 176.995  1.00  0.00    -0.461 OA
BRANCH  31  32
ATOM     32  C   UNL     1     171.665 172.572 177.876  1.00  0.00     0.338 C 
ATOM     33  O   UNL     1     170.748 173.373 177.534  1.00  0.00    -0.246 OA
BRANCH  32  34
ATOM     34  C   UNL     1     172.576 172.914 179.018  1.00  0.00     0.060 A 
ATOM     35  C   UNL     1     173.949 172.590 178.977  1.00  0.00     0.015 A 
ATOM     36  C   UNL     1     172.005 173.362 180.212  1.00  0.00     0.015 A 
ATOM     37  C   UNL     1     174.748 172.855 180.087  1.00  0.00     0.001 A 
ATOM     38  C   UNL     1     172.794 173.567 181.341  1.00  0.00     0.001 A 
ATOM     39  C   UNL     1     174.166 173.295 181.284  1.00  0.00     0.000 A 
ENDBRANCH  32  34
ENDBRANCH  31  32
ENDBRANCH  30  31
ENDBRANCH   8  30
TORSDOF 12
ENDMDL
MODEL 8
REMARK VINA RESULT:    -6.604      2.468      4.539
REMARK INTER + INTRA:         -11.557
REMARK INTER:                 -10.805
REMARK INTRA:                  -0.752
REMARK UNBOUND:                -1.285
REMARK SMILES C[C@@]12C[C@H](O)[C@H]3C[C@]1(O[C@@H]1O[C@H](CO)[C@@H](O)[C@H](O)[C@@H]1O)[C@@]3(COC(=O)c1ccccc1)C(=O)O2
REMARK SMILES IDX 1 1 2 2 3 3 4 4 6 5 7 6 8 7 21 8 32 9 33 10 34 11 9 12 10 13
REMARK SMILES IDX 19 14 11 15 17 16 12 17 15 18 20 19 18 21 13 23 14 24 16 26
REMARK SMILES IDX 5 28 22 30 23 31 24 32 25 33 26 34 27 35 31 36 28 37 30 38
REMARK SMILES IDX 29 39
REMARK H PARENT 20 20 18 22 14 25 16 27 5 29
REMARK Flexibility Score: inf
ROOT
ATOM      1  C   UNL     1     171.430 174.761 171.954  1.00  0.00     0.060 C 
ATOM      2  C   UNL     1     172.059 175.569 173.067  1.00  0.00     0.142 C 
ATOM      3  C   UNL     1     171.107 176.702 173.628  1.00  0.00     0.083 C 
ATOM      4  C   UNL     1     171.599 177.233 175.014  1.00  0.00     0.123 C 
ATOM      5  C   UNL     1     172.527 176.206 175.735  1.00  0.00     0.045 C 
ATOM      6  C   UNL     1     171.870 174.851 175.536  1.00  0.00     0.049 C 
ATOM      7  C   UNL     1     172.671 174.713 174.247  1.00  0.00     0.131 C 
ATOM      8  C   UNL     1     173.718 175.717 174.802  1.00  0.00     0.140 C 
ATOM      9  C   UNL     1     174.080 176.458 173.583  1.00  0.00     0.319 C 
ATOM     10  O   UNL     1     175.087 177.224 173.492  1.00  0.00    -0.251 OA
ATOM     11  O   UNL     1     173.198 176.257 172.534  1.00  0.00    -0.456 OA
ENDROOT
BRANCH   7  12
ATOM     12  O   UNL     1     173.314 173.464 173.883  1.00  0.00    -0.338 OA
BRANCH  12  13
ATOM     13  C   UNL     1     172.871 172.232 174.458  1.00  0.00     0.282 C 
ATOM     14  C   UNL     1     172.344 171.289 173.336  1.00  0.00     0.202 C 
ATOM     15  O   UNL     1     173.821 171.625 175.292  1.00  0.00    -0.341 OA
ATOM     16  C   UNL     1     171.478 170.186 174.021  1.00  0.00     0.179 C 
ATOM     17  C   UNL     1     173.471 170.313 175.724  1.00  0.00     0.178 C 
ATOM     18  C   UNL     1     171.985 169.830 175.451  1.00  0.00     0.177 C 
BRANCH  14  19
ATOM     19  O   UNL     1     173.446 170.766 172.657  1.00  0.00    -0.385 OA
ATOM     20  H   UNL     1     173.478 169.777 172.790  1.00  0.00     0.211 HD
ENDBRANCH  14  19
BRANCH  16  21
ATOM     21  O   UNL     1     171.138 169.048 173.252  1.00  0.00    -0.387 OA
ATOM     22  H   UNL     1     171.102 168.264 173.849  1.00  0.00     0.211 HD
ENDBRANCH  16  21
BRANCH  17  23
ATOM     23  C   UNL     1     174.501 169.289 175.235  1.00  0.00     0.191 C 
BRANCH  23  24
ATOM     24  O   UNL     1     175.748 169.942 175.165  1.00  0.00    -0.394 OA
ATOM     25  H   UNL     1     175.592 170.923 175.038  1.00  0.00     0.210 HD
ENDBRANCH  23  24
ENDBRANCH  17  23
BRANCH  18  26
ATOM     26  O   UNL     1     171.173 170.455 176.397  1.00  0.00    -0.387 OA
ATOM     27  H   UNL     1     171.442 171.411 176.377  1.00  0.00     0.211 HD
ENDBRANCH  18  26
ENDBRANCH  12  13
ENDBRANCH   7  12
BRANCH   4  28
ATOM     28  O   UNL     1     172.278 178.464 174.842  1.00  0.00    -0.393 OA
ATOM     29  H   UNL     1     171.590 179.169 174.697  1.00  0.00     0.210 HD
ENDBRANCH   4  28
BRANCH   8  30
ATOM     30  C   UNL     1     174.933 175.105 175.583  1.00  0.00     0.255 C 
BRANCH  30  31
ATOM     31  O   UNL     1     174.652 174.985 176.979  1.00  0.00    -0.461 OA
BRANCH  31  32
ATOM     32  C   UNL     1     174.936 173.864 177.771  1.00  0.00     0.338 C 
ATOM     33  O   UNL     1     175.791 173.030 177.357  1.00  0.00    -0.246 OA
BRANCH  32  34
ATOM     34  C   UNL     1     174.007 173.496 178.890  1.00  0.00     0.060 A 
ATOM     35  C   UNL     1     172.630 173.799 178.823  1.00  0.00     0.015 A 
ATOM     36  C   UNL     1     174.559 173.046 180.091  1.00  0.00     0.015 A 
ATOM     37  C   UNL     1     171.812 173.511 179.913  1.00  0.00     0.001 A 
ATOM     38  C   UNL     1     173.750 172.817 181.201  1.00  0.00     0.001 A 
ATOM     39  C   UNL     1     172.375 173.068 181.117  1.00  0.00     0.000 A 
ENDBRANCH  32  34
ENDBRANCH  31  32
ENDBRANCH  30  31
ENDBRANCH   8  30
TORSDOF 12
ENDMDL
MODEL 9
REMARK VINA RESULT:    -6.564      3.957      7.740
REMARK INTER + INTRA:         -11.495
REMARK INTER:                 -10.884
REMARK INTRA:                  -0.611
REMARK UNBOUND:                -1.285
REMARK SMILES C[C@@]12C[C@H](O)[C@H]3C[C@]1(O[C@@H]1O[C@H](CO)[C@@H](O)[C@H](O)[C@@H]1O)[C@@]3(COC(=O)c1ccccc1)C(=O)O2
REMARK SMILES IDX 1 1 2 2 3 3 4 4 6 5 7 6 8 7 21 8 32 9 33 10 34 11 9 12 10 13
REMARK SMILES IDX 19 14 11 15 17 16 12 17 15 18 20 19 18 21 13 23 14 24 16 26
REMARK SMILES IDX 5 28 22 30 23 31 24 32 25 33 26 34 27 35 31 36 28 37 30 38
REMARK SMILES IDX 29 39
REMARK H PARENT 20 20 18 22 14 25 16 27 5 29
REMARK Flexibility Score: inf
ROOT
ATOM      1  C   UNL     1     172.886 176.857 172.548  1.00  0.00     0.060 C 
ATOM      2  C   UNL     1     173.372 175.985 173.683  1.00  0.00     0.142 C 
ATOM      3  C   UNL     1     174.642 176.574 174.421  1.00  0.00     0.083 C 
ATOM      4  C   UNL     1     174.868 175.894 175.811  1.00  0.00     0.123 C 
ATOM      5  C   UNL     1     173.560 175.239 176.357  1.00  0.00     0.045 C 
ATOM      6  C   UNL     1     172.453 176.239 176.079  1.00  0.00     0.049 C 
ATOM      7  C   UNL     1     172.260 175.566 174.726  1.00  0.00     0.131 C 
ATOM      8  C   UNL     1     172.890 174.265 175.294  1.00  0.00     0.140 C 
ATOM      9  C   UNL     1     173.645 173.778 174.129  1.00  0.00     0.319 C 
ATOM     10  O   UNL     1     174.130 172.610 174.037  1.00  0.00    -0.251 OA
ATOM     11  O   UNL     1     173.799 174.730 173.135  1.00  0.00    -0.456 OA
ENDROOT
BRANCH   7  12
ATOM     12  O   UNL     1     170.937 175.294 174.195  1.00  0.00    -0.338 OA
BRANCH  12  13
ATOM     13  C   UNL     1     170.142 176.359 173.665  1.00  0.00     0.282 C 
ATOM     14  C   UNL     1     169.375 175.865 172.403  1.00  0.00     0.202 C 
ATOM     15  O   UNL     1     169.311 176.969 174.616  1.00  0.00    -0.341 OA
ATOM     16  C   UNL     1     168.902 177.128 171.619  1.00  0.00     0.179 C 
ATOM     17  C   UNL     1     168.381 177.902 174.072  1.00  0.00     0.178 C 
ATOM     18  C   UNL     1     168.582 178.330 172.559  1.00  0.00     0.177 C 
BRANCH  14  19
ATOM     19  O   UNL     1     168.314 175.063 172.828  1.00  0.00    -0.385 OA
ATOM     20  H   UNL     1     168.005 175.373 173.726  1.00  0.00     0.211 HD
ENDBRANCH  14  19
BRANCH  16  21
ATOM     21  O   UNL     1     167.934 176.943 170.603  1.00  0.00    -0.387 OA
ATOM     22  H   UNL     1     168.395 176.906 169.732  1.00  0.00     0.211 HD
ENDBRANCH  16  21
BRANCH  17  23
ATOM     23  C   UNL     1     166.941 177.458 174.351  1.00  0.00     0.191 C 
BRANCH  23  24
ATOM     24  O   UNL     1     166.265 177.411 173.115  1.00  0.00    -0.394 OA
ATOM     25  H   UNL     1     166.259 178.330 172.715  1.00  0.00     0.210 HD
ENDBRANCH  23  24
ENDBRANCH  17  23
BRANCH  18  26
ATOM     26  O   UNL     1     169.644 179.233 172.528  1.00  0.00    -0.387 OA
ATOM     27  H   UNL     1     169.932 179.326 173.475  1.00  0.00     0.211 HD
ENDBRANCH  18  26
ENDBRANCH  12  13
ENDBRANCH   7  12
BRANCH   4  28
ATOM     28  O   UNL     1     175.892 174.922 175.709  1.00  0.00    -0.393 OA
ATOM     29  H   UNL     1     175.462 174.025 175.752  1.00  0.00     0.210 HD
ENDBRANCH   4  28
BRANCH   8  30
ATOM     30  C   UNL     1     171.900 173.220 175.919  1.00  0.00     0.255 C 
BRANCH  30  31
ATOM     31  O   UNL     1     172.597 172.216 176.659  1.00  0.00    -0.461 OA
BRANCH  31  32
ATOM     32  C   UNL     1     173.659 172.450 177.545  1.00  0.00     0.338 C 
ATOM     33  O   UNL     1     174.831 172.151 177.178  1.00  0.00    -0.246 OA
BRANCH  32  34
ATOM     34  C   UNL     1     173.367 172.717 178.992  1.00  0.00     0.060 A 
ATOM     35  C   UNL     1     172.089 173.145 179.412  1.00  0.00     0.015 A 
ATOM     36  C   UNL     1     174.436 172.746 179.891  1.00  0.00     0.015 A 
ATOM     37  C   UNL     1     171.878 173.455 180.753  1.00  0.00     0.001 A 
ATOM     38  C   UNL     1     174.236 173.117 181.218  1.00  0.00     0.001 A 
ATOM     39  C   UNL     1     172.957 173.491 181.645  1.00  0.00     0.000 A 
ENDBRANCH  32  34
ENDBRANCH  31  32
ENDBRANCH  30  31
ENDBRANCH   8  30
TORSDOF 12
ENDMDL
