MODEL 1
REMARK VINA RESULT:    -4.129      0.000      0.000
REMARK INTER + INTRA:          -5.655
REMARK INTER:                  -5.818
REMARK INTRA:                   0.163
REMARK UNBOUND:                 0.163
REMARK SMILES CC1=CCC(=C(C)C)C(=O)CC(C)=CCC1
REMARK SMILES IDX 12 1 14 2 13 3 15 4 16 5 2 6 1 7 3 8 11 10 9 11 10 12 5 13
REMARK SMILES IDX 6 14 7 15 8 16 4 17
REMARK H PARENT
REMARK Flexibility Score: 60.00
ROOT
ATOM      1  C   UNL     1     -61.768 -78.971 224.685  1.00  0.00    -0.070 C 
ATOM      2  C   UNL     1     -61.311 -78.375 223.546  1.00  0.00    -0.027 C 
ATOM      3  C   UNL     1     -60.843 -78.944 225.880  1.00  0.00     0.039 C 
ENDROOT
BRANCH   2   4
ATOM      4  C   UNL     1     -61.924 -78.255 222.155  1.00  0.00     0.032 C 
BRANCH   4   5
ATOM      5  C   UNL     1     -62.278 -76.848 221.661  1.00  0.00     0.034 C 
BRANCH   5   6
ATOM      6  C   UNL     1     -63.622 -76.242 222.093  1.00  0.00    -0.077 C 
ATOM      7  C   UNL     1     -63.639 -74.734 222.226  1.00  0.00     0.039 C 
ATOM      8  C   UNL     1     -64.777 -76.877 222.451  1.00  0.00    -0.023 CG0
ATOM      9  G   UNL     1     -65.121 -78.353 222.510  1.00  0.00     0.000 G0
ENDBRANCH   5   6
ENDBRANCH   4   5
ENDBRANCH   2   4
BRANCH   1  10
ATOM     10  C   UNL     1     -63.113 -79.652 224.882  1.00  0.00     0.111 C 
BRANCH  10  11
ATOM     11  C   UNL     1     -64.243 -78.668 224.867  1.00  0.00     0.163 C 
ATOM     12  O   UNL     1     -64.236 -77.715 225.692  1.00  0.00    -0.294 OA
BRANCH  11  13
ATOM     13  C   UNL     1     -65.381 -78.832 223.925  1.00  0.00    -0.002 C 
ATOM     14  C   UNL     1     -66.561 -79.391 224.322  1.00  0.00    -0.069 C 
ATOM     15  C   UNL     1     -67.681 -79.658 223.342  1.00  0.00     0.039 C 
ATOM     16  C   UNL     1     -66.805 -79.756 225.769  1.00  0.00     0.039 C 
BRANCH  13  17
ATOM     17  C   UNL     1     -65.142 -78.360 222.507  1.00  0.00     0.066 CG0
ATOM     18  G   UNL     1     -64.787 -76.887 222.449  1.00  0.00     0.000 G0
ENDBRANCH  13  17
ENDBRANCH  11  13
ENDBRANCH  10  11
ENDBRANCH   1  10
TORSDOF 0
ENDMDL
MODEL 2
REMARK VINA RESULT:    -3.906      2.801      5.770
REMARK INTER + INTRA:          -5.341
REMARK INTER:                  -5.380
REMARK INTRA:                   0.039
REMARK UNBOUND:                 0.163
REMARK SMILES CC1=CCC(=C(C)C)C(=O)CC(C)=CCC1
REMARK SMILES IDX 12 1 14 2 13 3 15 4 16 5 2 6 1 7 3 8 11 10 9 11 10 12 5 13
REMARK SMILES IDX 6 14 7 15 8 16 4 17
REMARK H PARENT
REMARK Flexibility Score: 60.00
ROOT
ATOM      1  C   UNL     1     -63.129 -76.256 222.115  1.00  0.00    -0.070 C 
ATOM      2  C   UNL     1     -63.862 -77.076 222.923  1.00  0.00    -0.027 C 
ATOM      3  C   UNL     1     -63.726 -74.903 221.803  1.00  0.00     0.039 C 
ENDROOT
BRANCH   2   4
ATOM      4  C   UNL     1     -63.618 -78.503 223.401  1.00  0.00     0.032 C 
BRANCH   4   5
ATOM      5  C   UNL     1     -62.640 -78.696 224.566  1.00  0.00     0.034 C 
BRANCH   5   6
ATOM      6  C   UNL     1     -61.184 -79.061 224.242  1.00  0.00    -0.077 C 
ATOM      7  C   UNL     1     -60.185 -78.777 225.342  1.00  0.00     0.039 C 
ATOM      8  C   UNL     1     -60.654 -79.528 223.073  1.00  0.00    -0.023 CG0
ATOM      9  G   UNL     1     -61.313 -79.866 221.749  1.00  0.00     0.000 G0
ENDBRANCH   5   6
ENDBRANCH   4   5
ENDBRANCH   2   4
BRANCH   1  10
ATOM     10  C   UNL     1     -61.770 -76.557 221.503  1.00  0.00     0.111 C 
BRANCH  10  11
ATOM     11  C   UNL     1     -61.838 -77.691 220.527  1.00  0.00     0.163 C 
ATOM     12  O   UNL     1     -62.705 -77.661 219.612  1.00  0.00    -0.294 OA
BRANCH  11  13
ATOM     13  C   UNL     1     -60.928 -78.859 220.655  1.00  0.00    -0.002 C 
ATOM     14  C   UNL     1     -59.842 -79.009 219.843  1.00  0.00    -0.069 C 
ATOM     15  C   UNL     1     -58.976 -80.248 219.897  1.00  0.00     0.039 C 
ATOM     16  C   UNL     1     -59.447 -77.932 218.859  1.00  0.00     0.039 C 
BRANCH  13  17
ATOM     17  C   UNL     1     -61.291 -79.870 221.721  1.00  0.00     0.066 CG0
ATOM     18  G   UNL     1     -60.665 -79.534 223.061  1.00  0.00     0.000 G0
ENDBRANCH  13  17
ENDBRANCH  11  13
ENDBRANCH  10  11
ENDBRANCH   1  10
TORSDOF 0
ENDMDL
MODEL 3
REMARK VINA RESULT:    -3.805      2.041      4.060
REMARK INTER + INTRA:          -5.200
REMARK INTER:                  -5.469
REMARK INTRA:                   0.270
REMARK UNBOUND:                 0.163
REMARK SMILES CC1=CCC(=C(C)C)C(=O)CC(C)=CCC1
REMARK SMILES IDX 12 1 14 2 13 3 15 4 16 5 2 6 1 7 3 8 11 10 9 11 10 12 5 13
REMARK SMILES IDX 6 14 7 15 8 16 4 17
REMARK H PARENT
REMARK Flexibility Score: 60.00
ROOT
ATOM      1  C   UNL     1     -63.754 -75.855 221.782  1.00  0.00    -0.070 C 
ATOM      2  C   UNL     1     -62.972 -76.149 220.704  1.00  0.00    -0.027 C 
ATOM      3  C   UNL     1     -63.500 -74.529 222.461  1.00  0.00     0.039 C 
ENDROOT
BRANCH   2   4
ATOM      4  C   UNL     1     -62.898 -77.388 219.818  1.00  0.00     0.032 C 
BRANCH   4   5
ATOM      5  C   UNL     1     -61.584 -78.178 219.822  1.00  0.00     0.034 C 
BRANCH   5   6
ATOM      6  C   UNL     1     -61.462 -79.384 220.764  1.00  0.00    -0.077 C 
ATOM      7  C   UNL     1     -61.233 -80.717 220.084  1.00  0.00     0.039 C 
ATOM      8  C   UNL     1     -61.613 -79.434 222.121  1.00  0.00    -0.023 CG0
ATOM      9  G   UNL     1     -61.910 -78.340 223.128  1.00  0.00     0.000 G0
ENDBRANCH   5   6
ENDBRANCH   4   5
ENDBRANCH   2   4
BRANCH   1  10
ATOM     10  C   UNL     1     -64.861 -76.718 222.369  1.00  0.00     0.111 C 
BRANCH  10  11
ATOM     11  C   UNL     1     -64.397 -78.120 222.625  1.00  0.00     0.163 C 
ATOM     12  O   UNL     1     -64.939 -79.068 221.997  1.00  0.00    -0.294 OA
BRANCH  11  13
ATOM     13  C   UNL     1     -63.344 -78.399 223.635  1.00  0.00    -0.002 C 
ATOM     14  C   UNL     1     -63.657 -78.681 224.933  1.00  0.00    -0.069 C 
ATOM     15  C   UNL     1     -62.587 -78.859 225.987  1.00  0.00     0.039 C 
ATOM     16  C   UNL     1     -65.095 -78.844 225.372  1.00  0.00     0.039 C 
BRANCH  13  17
ATOM     17  C   UNL     1     -61.915 -78.332 223.141  1.00  0.00     0.066 CG0
ATOM     18  G   UNL     1     -61.611 -79.421 222.129  1.00  0.00     0.000 G0
ENDBRANCH  13  17
ENDBRANCH  11  13
ENDBRANCH  10  11
ENDBRANCH   1  10
TORSDOF 0
ENDMDL
MODEL 4
REMARK VINA RESULT:    -3.737      3.512      5.554
REMARK INTER + INTRA:          -5.103
REMARK INTER:                  -5.140
REMARK INTRA:                   0.036
REMARK UNBOUND:                 0.163
REMARK SMILES CC1=CCC(=C(C)C)C(=O)CC(C)=CCC1
REMARK SMILES IDX 12 1 14 2 13 3 15 4 16 5 2 6 1 7 3 8 11 10 9 11 10 12 5 13
REMARK SMILES IDX 6 14 7 15 8 16 4 17
REMARK H PARENT
REMARK Flexibility Score: 60.00
ROOT
ATOM      1  C   UNL     1     -62.093 -76.653 220.848  1.00  0.00    -0.070 C 
ATOM      2  C   UNL     1     -61.644 -76.600 219.560  1.00  0.00    -0.027 C 
ATOM      3  C   UNL     1     -63.477 -76.105 221.105  1.00  0.00     0.039 C 
ENDROOT
BRANCH   2   4
ATOM      4  C   UNL     1     -60.309 -76.996 218.940  1.00  0.00     0.032 C 
BRANCH   4   5
ATOM      5  C   UNL     1     -60.008 -78.494 218.815  1.00  0.00     0.034 C 
BRANCH   5   6
ATOM      6  C   UNL     1     -58.970 -79.110 219.763  1.00  0.00    -0.077 C 
ATOM      7  C   UNL     1     -57.524 -78.848 219.400  1.00  0.00     0.039 C 
ATOM      8  C   UNL     1     -59.166 -79.928 220.840  1.00  0.00    -0.023 CG0
ATOM      9  G   UNL     1     -60.443 -80.460 221.462  1.00  0.00     0.000 G0
ENDBRANCH   5   6
ENDBRANCH   4   5
ENDBRANCH   2   4
BRANCH   1  10
ATOM     10  C   UNL     1     -61.349 -77.213 222.050  1.00  0.00     0.111 C 
BRANCH  10  11
ATOM     11  C   UNL     1     -61.840 -78.579 222.422  1.00  0.00     0.163 C 
ATOM     12  O   UNL     1     -63.079 -78.771 222.548  1.00  0.00    -0.294 OA
BRANCH  11  13
ATOM     13  C   UNL     1     -60.883 -79.686 222.681  1.00  0.00    -0.002 C 
ATOM     14  C   UNL     1     -60.424 -79.952 223.939  1.00  0.00    -0.069 C 
ATOM     15  C   UNL     1     -59.369 -81.005 224.191  1.00  0.00     0.039 C 
ATOM     16  C   UNL     1     -60.964 -79.211 225.141  1.00  0.00     0.039 C 
BRANCH  13  17
ATOM     17  C   UNL     1     -60.441 -80.479 221.471  1.00  0.00     0.066 CG0
ATOM     18  G   UNL     1     -59.170 -79.922 220.858  1.00  0.00     0.000 G0
ENDBRANCH  13  17
ENDBRANCH  11  13
ENDBRANCH  10  11
ENDBRANCH   1  10
TORSDOF 0
ENDMDL
MODEL 5
REMARK VINA RESULT:    -3.698      2.201      4.896
REMARK INTER + INTRA:          -5.049
REMARK INTER:                  -5.123
REMARK INTRA:                   0.074
REMARK UNBOUND:                 0.163
REMARK SMILES CC1=CCC(=C(C)C)C(=O)CC(C)=CCC1
REMARK SMILES IDX 12 1 14 2 13 3 15 4 16 5 2 6 1 7 3 8 11 10 9 11 10 12 5 13
REMARK SMILES IDX 6 14 7 15 8 16 4 17
REMARK H PARENT
REMARK Flexibility Score: 60.00
ROOT
ATOM      1  C   UNL     1     -62.120 -76.633 220.534  1.00  0.00    -0.070 C 
ATOM      2  C   UNL     1     -63.265 -76.095 221.047  1.00  0.00    -0.027 C 
ATOM      3  C   UNL     1     -61.938 -76.533 219.037  1.00  0.00     0.039 C 
ENDROOT
BRANCH   2   4
ATOM      4  C   UNL     1     -63.812 -76.057 222.470  1.00  0.00     0.032 C 
BRANCH   4   5
ATOM      5  C   UNL     1     -65.051 -76.907 222.770  1.00  0.00     0.034 C 
BRANCH   5   6
ATOM      6  C   UNL     1     -64.901 -78.436 222.778  1.00  0.00    -0.077 C 
ATOM      7  C   UNL     1     -66.119 -79.209 222.320  1.00  0.00     0.039 C 
ATOM      8  C   UNL     1     -63.853 -79.195 223.217  1.00  0.00    -0.023 CG0
ATOM      9  G   UNL     1     -62.511 -78.793 223.797  1.00  0.00     0.000 G0
ENDBRANCH   5   6
ENDBRANCH   4   5
ENDBRANCH   2   4
BRANCH   1  10
ATOM     10  C   UNL     1     -61.005 -77.315 221.310  1.00  0.00     0.111 C 
BRANCH  10  11
ATOM     11  C   UNL     1     -61.307 -78.760 221.565  1.00  0.00     0.163 C 
ATOM     12  O   UNL     1     -61.555 -79.515 220.587  1.00  0.00    -0.294 OA
BRANCH  11  13
ATOM     13  C   UNL     1     -61.356 -79.293 222.951  1.00  0.00    -0.002 C 
ATOM     14  C   UNL     1     -60.424 -80.180 223.408  1.00  0.00    -0.069 C 
ATOM     15  C   UNL     1     -60.532 -80.807 224.780  1.00  0.00     0.039 C 
ATOM     16  C   UNL     1     -59.231 -80.564 222.563  1.00  0.00     0.039 C 
BRANCH  13  17
ATOM     17  C   UNL     1     -62.504 -78.808 223.809  1.00  0.00     0.066 CG0
ATOM     18  G   UNL     1     -63.852 -79.191 223.227  1.00  0.00     0.000 G0
ENDBRANCH  13  17
ENDBRANCH  11  13
ENDBRANCH  10  11
ENDBRANCH   1  10
TORSDOF 0
ENDMDL
MODEL 6
REMARK VINA RESULT:    -3.678      2.063      5.051
REMARK INTER + INTRA:          -5.020
REMARK INTER:                  -5.120
REMARK INTRA:                   0.100
REMARK UNBOUND:                 0.163
REMARK SMILES CC1=CCC(=C(C)C)C(=O)CC(C)=CCC1
REMARK SMILES IDX 12 1 14 2 13 3 15 4 16 5 2 6 1 7 3 8 11 10 9 11 10 12 5 13
REMARK SMILES IDX 6 14 7 15 8 16 4 17
REMARK H PARENT
REMARK Flexibility Score: 60.00
ROOT
ATOM      1  C   UNL     1     -63.706 -76.386 221.877  1.00  0.00    -0.070 C 
ATOM      2  C   UNL     1     -64.795 -76.835 222.566  1.00  0.00    -0.027 C 
ATOM      3  C   UNL     1     -63.455 -74.897 221.904  1.00  0.00     0.039 C 
ENDROOT
BRANCH   2   4
ATOM      4  C   UNL     1     -65.388 -78.231 222.719  1.00  0.00     0.032 C 
BRANCH   4   5
ATOM      5  C   UNL     1     -65.370 -78.854 224.120  1.00  0.00     0.034 C 
BRANCH   5   6
ATOM      6  C   UNL     1     -64.025 -79.328 224.689  1.00  0.00    -0.077 C 
ATOM      7  C   UNL     1     -63.815 -79.059 226.164  1.00  0.00     0.039 C 
ATOM      8  C   UNL     1     -62.962 -79.883 224.036  1.00  0.00    -0.023 CG0
ATOM      9  G   UNL     1     -62.771 -80.239 222.574  1.00  0.00     0.000 G0
ENDBRANCH   5   6
ENDBRANCH   4   5
ENDBRANCH   2   4
BRANCH   1  10
ATOM     10  C   UNL     1     -62.713 -77.229 221.092  1.00  0.00     0.111 C 
BRANCH  10  11
ATOM     11  C   UNL     1     -61.785 -77.982 221.995  1.00  0.00     0.163 C 
ATOM     12  O   UNL     1     -61.071 -77.340 222.812  1.00  0.00    -0.294 OA
BRANCH  11  13
ATOM     13  C   UNL     1     -61.670 -79.461 221.904  1.00  0.00    -0.002 C 
ATOM     14  C   UNL     1     -60.634 -80.057 221.245  1.00  0.00    -0.069 C 
ATOM     15  C   UNL     1     -60.570 -81.556 221.058  1.00  0.00     0.039 C 
ATOM     16  C   UNL     1     -59.491 -79.240 220.685  1.00  0.00     0.039 C 
BRANCH  13  17
ATOM     17  C   UNL     1     -62.774 -80.255 222.567  1.00  0.00     0.066 CG0
ATOM     18  G   UNL     1     -62.948 -79.880 224.026  1.00  0.00     0.000 G0
ENDBRANCH  13  17
ENDBRANCH  11  13
ENDBRANCH  10  11
ENDBRANCH   1  10
TORSDOF 0
ENDMDL
MODEL 7
REMARK VINA RESULT:    -3.658      2.082      4.797
REMARK INTER + INTRA:          -4.992
REMARK INTER:                  -5.266
REMARK INTRA:                   0.274
REMARK UNBOUND:                 0.163
REMARK SMILES CC1=CCC(=C(C)C)C(=O)CC(C)=CCC1
REMARK SMILES IDX 12 1 14 2 13 3 15 4 16 5 2 6 1 7 3 8 11 10 9 11 10 12 5 13
REMARK SMILES IDX 6 14 7 15 8 16 4 17
REMARK H PARENT
REMARK Flexibility Score: 60.00
ROOT
ATOM      1  C   UNL     1     -64.627 -78.463 225.050  1.00  0.00    -0.070 C 
ATOM      2  C   UNL     1     -63.859 -79.069 226.001  1.00  0.00    -0.027 C 
ATOM      3  C   UNL     1     -66.124 -78.525 225.250  1.00  0.00     0.039 C 
ENDROOT
BRANCH   2   4
ATOM      4  C   UNL     1     -62.350 -79.259 226.109  1.00  0.00     0.032 C 
BRANCH   4   5
ATOM      5  C   UNL     1     -61.682 -80.180 225.082  1.00  0.00     0.034 C 
BRANCH   5   6
ATOM      6  C   UNL     1     -60.512 -79.625 224.257  1.00  0.00    -0.077 C 
ATOM      7  C   UNL     1     -59.278 -79.254 225.051  1.00  0.00     0.039 C 
ATOM      8  C   UNL     1     -60.458 -79.342 222.921  1.00  0.00    -0.023 CG0
ATOM      9  G   UNL     1     -61.497 -79.509 221.829  1.00  0.00     0.000 G0
ENDBRANCH   5   6
ENDBRANCH   4   5
ENDBRANCH   2   4
BRANCH   1  10
ATOM     10  C   UNL     1     -64.136 -77.725 223.815  1.00  0.00     0.111 C 
BRANCH  10  11
ATOM     11  C   UNL     1     -63.733 -78.670 222.725  1.00  0.00     0.163 C 
ATOM     12  O   UNL     1     -64.397 -79.728 222.554  1.00  0.00    -0.294 OA
BRANCH  11  13
ATOM     13  C   UNL     1     -62.541 -78.393 221.882  1.00  0.00    -0.002 C 
ATOM     14  C   UNL     1     -62.411 -77.222 221.193  1.00  0.00    -0.069 C 
ATOM     15  C   UNL     1     -61.254 -76.981 220.250  1.00  0.00     0.039 C 
ATOM     16  C   UNL     1     -63.417 -76.105 221.355  1.00  0.00     0.039 C 
BRANCH  13  17
ATOM     17  C   UNL     1     -61.499 -79.490 221.822  1.00  0.00     0.066 CG0
ATOM     18  G   UNL     1     -60.454 -79.342 222.911  1.00  0.00     0.000 G0
ENDBRANCH  13  17
ENDBRANCH  11  13
ENDBRANCH  10  11
ENDBRANCH   1  10
TORSDOF 0
ENDMDL
MODEL 8
REMARK VINA RESULT:    -3.650      1.490      3.349
REMARK INTER + INTRA:          -4.980
REMARK INTER:                  -5.130
REMARK INTRA:                   0.149
REMARK UNBOUND:                 0.163
REMARK SMILES CC1=CCC(=C(C)C)C(=O)CC(C)=CCC1
REMARK SMILES IDX 12 1 14 2 13 3 15 4 16 5 2 6 1 7 3 8 11 10 9 11 10 12 5 13
REMARK SMILES IDX 6 14 7 15 8 16 4 17
REMARK H PARENT
REMARK Flexibility Score: 60.00
ROOT
ATOM      1  C   UNL     1     -63.337 -76.276 222.014  1.00  0.00    -0.070 C 
ATOM      2  C   UNL     1     -62.082 -76.687 221.670  1.00  0.00    -0.027 C 
ATOM      3  C   UNL     1     -63.500 -74.812 222.351  1.00  0.00     0.039 C 
ENDROOT
BRANCH   2   4
ATOM      4  C   UNL     1     -61.531 -78.067 221.329  1.00  0.00     0.032 C 
BRANCH   4   5
ATOM      5  C   UNL     1     -60.604 -78.728 222.356  1.00  0.00     0.034 C 
BRANCH   5   6
ATOM      6  C   UNL     1     -61.194 -79.138 223.713  1.00  0.00    -0.077 C 
ATOM      7  C   UNL     1     -60.298 -78.897 224.909  1.00  0.00     0.039 C 
ATOM      8  C   UNL     1     -62.379 -79.763 223.982  1.00  0.00    -0.023 CG0
ATOM      9  G   UNL     1     -63.493 -80.219 223.059  1.00  0.00     0.000 G0
ENDBRANCH   5   6
ENDBRANCH   4   5
ENDBRANCH   2   4
BRANCH   1  10
ATOM     10  C   UNL     1     -64.590 -77.134 222.087  1.00  0.00     0.111 C 
BRANCH  10  11
ATOM     11  C   UNL     1     -64.626 -77.962 223.334  1.00  0.00     0.163 C 
ATOM     12  O   UNL     1     -64.491 -77.393 224.451  1.00  0.00    -0.294 OA
BRANCH  11  13
ATOM     13  C   UNL     1     -64.776 -79.439 223.262  1.00  0.00    -0.002 C 
ATOM     14  C   UNL     1     -65.996 -80.039 223.384  1.00  0.00    -0.069 C 
ATOM     15  C   UNL     1     -66.139 -81.544 223.419  1.00  0.00     0.039 C 
ATOM     16  C   UNL     1     -67.264 -79.220 223.475  1.00  0.00     0.039 C 
BRANCH  13  17
ATOM     17  C   UNL     1     -63.500 -80.227 223.064  1.00  0.00     0.066 CG0
ATOM     18  G   UNL     1     -62.391 -79.756 223.986  1.00  0.00     0.000 G0
ENDBRANCH  13  17
ENDBRANCH  11  13
ENDBRANCH  10  11
ENDBRANCH   1  10
TORSDOF 0
ENDMDL
MODEL 9
REMARK VINA RESULT:    -3.600      2.110      3.708
REMARK INTER + INTRA:          -4.910
REMARK INTER:                  -4.848
REMARK INTRA:                  -0.063
REMARK UNBOUND:                 0.163
REMARK SMILES CC1=CCC(=C(C)C)C(=O)CC(C)=CCC1
REMARK SMILES IDX 12 1 14 2 13 3 15 4 16 5 2 6 1 7 3 8 11 10 9 11 10 12 5 13
REMARK SMILES IDX 6 14 7 15 8 16 4 17
REMARK H PARENT
REMARK Flexibility Score: 60.00
ROOT
ATOM      1  C   UNL     1     -63.109 -76.128 221.722  1.00  0.00    -0.070 C 
ATOM      2  C   UNL     1     -62.824 -76.350 220.406  1.00  0.00    -0.027 C 
ATOM      3  C   UNL     1     -63.498 -74.718 222.101  1.00  0.00     0.039 C 
ENDROOT
BRANCH   2   4
ATOM      4  C   UNL     1     -62.350 -77.601 219.674  1.00  0.00     0.032 C 
BRANCH   4   5
ATOM      5  C   UNL     1     -63.292 -78.810 219.666  1.00  0.00     0.034 C 
BRANCH   5   6
ATOM      6  C   UNL     1     -62.896 -80.047 220.486  1.00  0.00    -0.077 C 
ATOM      7  C   UNL     1     -61.680 -80.794 219.985  1.00  0.00     0.039 C 
ATOM      8  C   UNL     1     -63.535 -80.611 221.554  1.00  0.00    -0.023 CG0
ATOM      9  G   UNL     1     -64.797 -80.198 222.288  1.00  0.00     0.000 G0
ENDBRANCH   5   6
ENDBRANCH   4   5
ENDBRANCH   2   4
BRANCH   1  10
ATOM     10  C   UNL     1     -63.084 -77.152 222.846  1.00  0.00     0.111 C 
BRANCH  10  11
ATOM     11  C   UNL     1     -64.420 -77.801 223.038  1.00  0.00     0.163 C 
ATOM     12  O   UNL     1     -65.463 -77.106 222.907  1.00  0.00    -0.294 OA
BRANCH  11  13
ATOM     13  C   UNL     1     -64.520 -79.234 223.419  1.00  0.00    -0.002 C 
ATOM     14  C   UNL     1     -64.344 -79.643 224.710  1.00  0.00    -0.069 C 
ATOM     15  C   UNL     1     -64.338 -81.108 225.083  1.00  0.00     0.039 C 
ATOM     16  C   UNL     1     -64.161 -78.642 225.828  1.00  0.00     0.039 C 
BRANCH  13  17
ATOM     17  C   UNL     1     -64.809 -80.203 222.293  1.00  0.00     0.066 CG0
ATOM     18  G   UNL     1     -63.549 -80.607 221.552  1.00  0.00     0.000 G0
ENDBRANCH  13  17
ENDBRANCH  11  13
ENDBRANCH  10  11
ENDBRANCH   1  10
TORSDOF 0
ENDMDL
