MODEL 1
REMARK VINA RESULT:    -5.268      0.000      0.000
REMARK INTER + INTRA:          -5.268
REMARK INTER:                  -5.268
REMARK INTRA:                   0.000
REMARK UNBOUND:                 0.000
REMARK SMILES CC1=CC[C@H]2C[C@@H]1C2(C)C
REMARK SMILES IDX 1 1 2 2 3 3 4 4 5 5 6 6 7 7 8 8 9 9 10 10
REMARK H PARENT
REMARK Flexibility Score: inf
ROOT
ATOM      1  C   UNL     1       7.794  31.138  22.045  1.00  0.00     0.039 C 
ATOM      2  C   UNL     1       8.346  32.310  22.798  1.00  0.00    -0.074 C 
ATOM      3  C   UNL     1       8.579  33.506  22.183  1.00  0.00    -0.027 C 
ATOM      4  C   UNL     1       9.176  34.662  23.011  1.00  0.00     0.031 C 
ATOM      5  C   UNL     1       9.367  34.214  24.501  1.00  0.00    -0.000 C 
ATOM      6  C   UNL     1       8.051  33.515  24.900  1.00  0.00     0.013 C 
ATOM      7  C   UNL     1       8.659  32.232  24.300  1.00  0.00     0.021 C 
ATOM      8  C   UNL     1      10.067  32.828  24.562  1.00  0.00    -0.026 C 
ATOM      9  C   UNL     1      11.201  32.521  23.543  1.00  0.00     0.012 C 
ATOM     10  C   UNL     1      10.590  32.499  25.984  1.00  0.00     0.012 C 
ENDROOT
TORSDOF 0
ENDMDL
MODEL 2
REMARK VINA RESULT:    -5.214      1.004      3.223
REMARK INTER + INTRA:          -5.214
REMARK INTER:                  -5.214
REMARK INTRA:                   0.000
REMARK UNBOUND:                 0.000
REMARK SMILES CC1=CC[C@H]2C[C@@H]1C2(C)C
REMARK SMILES IDX 1 1 2 2 3 3 4 4 5 5 6 6 7 7 8 8 9 9 10 10
REMARK H PARENT
REMARK Flexibility Score: inf
ROOT
ATOM      1  C   UNL     1      12.199  33.068  22.362  1.00  0.00     0.039 C 
ATOM      2  C   UNL     1      10.947  33.150  23.182  1.00  0.00    -0.074 C 
ATOM      3  C   UNL     1      10.876  32.597  24.428  1.00  0.00    -0.027 C 
ATOM      4  C   UNL     1       9.548  32.692  25.206  1.00  0.00     0.031 C 
ATOM      5  C   UNL     1       8.491  33.496  24.371  1.00  0.00    -0.000 C 
ATOM      6  C   UNL     1       9.230  34.748  23.856  1.00  0.00     0.013 C 
ATOM      7  C   UNL     1       9.692  33.874  22.674  1.00  0.00     0.021 C 
ATOM      8  C   UNL     1       8.450  32.974  22.909  1.00  0.00    -0.026 C 
ATOM      9  C   UNL     1       8.588  31.445  22.659  1.00  0.00     0.012 C 
ATOM     10  C   UNL     1       7.202  33.482  22.141  1.00  0.00     0.012 C 
ENDROOT
TORSDOF 0
ENDMDL
MODEL 3
REMARK VINA RESULT:    -5.198      1.155      3.289
REMARK INTER + INTRA:          -5.198
REMARK INTER:                  -5.198
REMARK INTRA:                   0.000
REMARK UNBOUND:                 0.000
REMARK SMILES CC1=CC[C@H]2C[C@@H]1C2(C)C
REMARK SMILES IDX 1 1 2 2 3 3 4 4 5 5 6 6 7 7 8 8 9 9 10 10
REMARK H PARENT
REMARK Flexibility Score: inf
ROOT
ATOM      1  C   UNL     1      10.495  32.748  26.126  1.00  0.00     0.039 C 
ATOM      2  C   UNL     1      10.273  33.126  24.693  1.00  0.00    -0.074 C 
ATOM      3  C   UNL     1       9.539  34.225  24.353  1.00  0.00    -0.027 C 
ATOM      4  C   UNL     1       9.325  34.541  22.859  1.00  0.00     0.031 C 
ATOM      5  C   UNL     1      10.081  33.490  21.974  1.00  0.00    -0.000 C 
ATOM      6  C   UNL     1      11.489  33.360  22.589  1.00  0.00     0.013 C 
ATOM      7  C   UNL     1      10.875  32.312  23.538  1.00  0.00     0.021 C 
ATOM      8  C   UNL     1       9.780  32.049  22.471  1.00  0.00    -0.026 C 
ATOM      9  C   UNL     1       8.341  31.714  22.955  1.00  0.00     0.012 C 
ATOM     10  C   UNL     1      10.209  30.973  21.440  1.00  0.00     0.012 C 
ENDROOT
TORSDOF 0
ENDMDL
MODEL 4
REMARK VINA RESULT:    -5.165      1.268      2.260
REMARK INTER + INTRA:          -5.165
REMARK INTER:                  -5.165
REMARK INTRA:                   0.000
REMARK UNBOUND:                 0.000
REMARK SMILES CC1=CC[C@H]2C[C@@H]1C2(C)C
REMARK SMILES IDX 1 1 2 2 3 3 4 4 5 5 6 6 7 7 8 8 9 9 10 10
REMARK H PARENT
REMARK Flexibility Score: inf
ROOT
ATOM      1  C   UNL     1       7.797  31.681  25.259  1.00  0.00     0.039 C 
ATOM      2  C   UNL     1       8.276  32.561  24.144  1.00  0.00    -0.074 C 
ATOM      3  C   UNL     1       7.451  32.921  23.118  1.00  0.00    -0.027 C 
ATOM      4  C   UNL     1       8.016  33.805  21.988  1.00  0.00     0.031 C 
ATOM      5  C   UNL     1       9.511  34.170  22.287  1.00  0.00    -0.000 C 
ATOM      6  C   UNL     1       9.547  34.609  23.765  1.00  0.00     0.013 C 
ATOM      7  C   UNL     1       9.707  33.115  24.108  1.00  0.00     0.021 C 
ATOM      8  C   UNL     1      10.306  32.898  22.693  1.00  0.00    -0.026 C 
ATOM      9  C   UNL     1      10.001  31.562  21.959  1.00  0.00     0.012 C 
ATOM     10  C   UNL     1      11.839  33.131  22.661  1.00  0.00     0.012 C 
ENDROOT
TORSDOF 0
ENDMDL
MODEL 5
REMARK VINA RESULT:    -5.139      1.210      2.473
REMARK INTER + INTRA:          -5.139
REMARK INTER:                  -5.139
REMARK INTRA:                   0.000
REMARK UNBOUND:                 0.000
REMARK SMILES CC1=CC[C@H]2C[C@@H]1C2(C)C
REMARK SMILES IDX 1 1 2 2 3 3 4 4 5 5 6 6 7 7 8 8 9 9 10 10
REMARK H PARENT
REMARK Flexibility Score: inf
ROOT
ATOM      1  C   UNL     1       7.371  31.053  23.643  1.00  0.00     0.039 C 
ATOM      2  C   UNL     1       8.338  32.176  23.869  1.00  0.00    -0.074 C 
ATOM      3  C   UNL     1       8.015  33.245  24.653  1.00  0.00    -0.027 C 
ATOM      4  C   UNL     1       9.046  34.380  24.820  1.00  0.00     0.031 C 
ATOM      5  C   UNL     1      10.361  34.032  24.039  1.00  0.00    -0.000 C 
ATOM      6  C   UNL     1      10.687  32.569  24.400  1.00  0.00     0.013 C 
ATOM      7  C   UNL     1       9.743  32.171  23.249  1.00  0.00     0.021 C 
ATOM      8  C   UNL     1      10.022  33.553  22.601  1.00  0.00    -0.026 C 
ATOM      9  C   UNL     1       8.866  34.256  21.834  1.00  0.00     0.012 C 
ATOM     10  C   UNL     1      11.271  33.530  21.682  1.00  0.00     0.012 C 
ENDROOT
TORSDOF 0
ENDMDL
MODEL 6
REMARK VINA RESULT:    -5.030      1.326      2.555
REMARK INTER + INTRA:          -5.030
REMARK INTER:                  -5.030
REMARK INTRA:                   0.000
REMARK UNBOUND:                 0.000
REMARK SMILES CC1=CC[C@H]2C[C@@H]1C2(C)C
REMARK SMILES IDX 1 1 2 2 3 3 4 4 5 5 6 6 7 7 8 8 9 9 10 10
REMARK H PARENT
REMARK Flexibility Score: inf
ROOT
ATOM      1  C   UNL     1      11.938  32.524  22.596  1.00  0.00     0.039 C 
ATOM      2  C   UNL     1      10.503  32.956  22.562  1.00  0.00    -0.074 C 
ATOM      3  C   UNL     1      10.074  33.934  21.712  1.00  0.00    -0.027 C 
ATOM      4  C   UNL     1       8.590  34.350  21.749  1.00  0.00     0.031 C 
ATOM      5  C   UNL     1       7.813  33.477  22.795  1.00  0.00    -0.000 C 
ATOM      6  C   UNL     1       8.248  32.021  22.531  1.00  0.00     0.013 C 
ATOM      7  C   UNL     1       9.442  32.308  23.463  1.00  0.00     0.021 C 
ATOM      8  C   UNL     1       8.594  33.420  24.136  1.00  0.00    -0.026 C 
ATOM      9  C   UNL     1       9.318  34.703  24.633  1.00  0.00     0.012 C 
ATOM     10  C   UNL     1       7.723  32.873  25.297  1.00  0.00     0.012 C 
ENDROOT
TORSDOF 0
ENDMDL
MODEL 7
REMARK VINA RESULT:    -4.923      1.082      2.550
REMARK INTER + INTRA:          -4.923
REMARK INTER:                  -4.923
REMARK INTRA:                   0.000
REMARK UNBOUND:                 0.000
REMARK SMILES CC1=CC[C@H]2C[C@@H]1C2(C)C
REMARK SMILES IDX 1 1 2 2 3 3 4 4 5 5 6 6 7 7 8 8 9 9 10 10
REMARK H PARENT
REMARK Flexibility Score: inf
ROOT
ATOM      1  C   UNL     1       9.110  34.327  20.443  1.00  0.00     0.039 C 
ATOM      2  C   UNL     1       9.543  33.928  21.821  1.00  0.00    -0.074 C 
ATOM      3  C   UNL     1      10.735  33.299  22.037  1.00  0.00    -0.027 C 
ATOM      4  C   UNL     1      11.106  32.890  23.477  1.00  0.00     0.031 C 
ATOM      5  C   UNL     1       9.985  33.349  24.473  1.00  0.00    -0.000 C 
ATOM      6  C   UNL     1       9.661  34.808  24.094  1.00  0.00     0.013 C 
ATOM      7  C   UNL     1       8.682  34.224  23.058  1.00  0.00     0.021 C 
ATOM      8  C   UNL     1       8.585  32.946  23.932  1.00  0.00    -0.026 C 
ATOM      9  C   UNL     1       8.429  31.573  23.220  1.00  0.00     0.012 C 
ATOM     10  C   UNL     1       7.484  33.058  25.018  1.00  0.00     0.012 C 
ENDROOT
TORSDOF 0
ENDMDL
MODEL 8
REMARK VINA RESULT:    -4.704      1.242      2.171
REMARK INTER + INTRA:          -4.704
REMARK INTER:                  -4.704
REMARK INTRA:                   0.000
REMARK UNBOUND:                 0.000
REMARK SMILES CC1=CC[C@H]2C[C@@H]1C2(C)C
REMARK SMILES IDX 1 1 2 2 3 3 4 4 5 5 6 6 7 7 8 8 9 9 10 10
REMARK H PARENT
REMARK Flexibility Score: inf
ROOT
ATOM      1  C   UNL     1       6.989  30.328  24.666  1.00  0.00     0.039 C 
ATOM      2  C   UNL     1       7.684  31.346  23.813  1.00  0.00    -0.074 C 
ATOM      3  C   UNL     1       8.310  30.993  22.653  1.00  0.00    -0.027 C 
ATOM      4  C   UNL     1       9.030  32.087  21.838  1.00  0.00     0.031 C 
ATOM      5  C   UNL     1       8.848  33.482  22.530  1.00  0.00    -0.000 C 
ATOM      6  C   UNL     1       7.351  33.579  22.887  1.00  0.00     0.013 C 
ATOM      7  C   UNL     1       7.709  32.835  24.188  1.00  0.00     0.021 C 
ATOM      8  C   UNL     1       9.157  33.374  24.049  1.00  0.00    -0.026 C 
ATOM      9  C   UNL     1      10.331  32.465  24.508  1.00  0.00     0.012 C 
ATOM     10  C   UNL     1       9.332  34.765  24.711  1.00  0.00     0.012 C 
ENDROOT
TORSDOF 0
ENDMDL
MODEL 9
REMARK VINA RESULT:    -4.601      1.383      3.358
REMARK INTER + INTRA:          -4.601
REMARK INTER:                  -4.601
REMARK INTRA:                   0.000
REMARK UNBOUND:                 0.000
REMARK SMILES CC1=CC[C@H]2C[C@@H]1C2(C)C
REMARK SMILES IDX 1 1 2 2 3 3 4 4 5 5 6 6 7 7 8 8 9 9 10 10
REMARK H PARENT
REMARK Flexibility Score: inf
ROOT
ATOM      1  C   UNL     1       9.253  34.742  25.029  1.00  0.00     0.039 C 
ATOM      2  C   UNL     1       9.124  33.833  23.845  1.00  0.00    -0.074 C 
ATOM      3  C   UNL     1       8.533  32.607  23.950  1.00  0.00    -0.027 C 
ATOM      4  C   UNL     1       8.460  31.710  22.698  1.00  0.00     0.031 C 
ATOM      5  C   UNL     1       9.083  32.453  21.466  1.00  0.00    -0.000 C 
ATOM      6  C   UNL     1       8.486  33.875  21.490  1.00  0.00     0.013 C 
ATOM      7  C   UNL     1       9.632  34.239  22.454  1.00  0.00     0.021 C 
ATOM      8  C   UNL     1      10.455  33.073  21.847  1.00  0.00    -0.026 C 
ATOM      9  C   UNL     1      11.401  32.270  22.785  1.00  0.00     0.012 C 
ATOM     10  C   UNL     1      11.266  33.511  20.601  1.00  0.00     0.012 C 
ENDROOT
TORSDOF 0
ENDMDL
