MODEL 1
REMARK VINA RESULT:    -5.874      0.000      0.000
REMARK INTER + INTRA:          -5.874
REMARK INTER:                  -5.874
REMARK INTRA:                   0.000
REMARK UNBOUND:                 0.000
REMARK SMILES CC1=CC(=O)[C@H]2C[C@@H]1C2(C)C
REMARK SMILES IDX 1 1 2 2 3 3 4 4 5 5 6 6 7 7 8 8 9 9 10 10 11 11
REMARK H PARENT
REMARK Flexibility Score: inf
ROOT
ATOM      1  C   UNL     1       9.624  -2.737  47.762  1.00  0.00     0.040 C 
ATOM      2  C   UNL     1       8.230  -2.223  47.939  1.00  0.00    -0.066 C 
ATOM      3  C   UNL     1       7.641  -2.124  49.164  1.00  0.00     0.047 C 
ATOM      4  C   UNL     1       6.240  -1.593  49.185  1.00  0.00     0.159 C 
ATOM      5  O   UNL     1       5.574  -1.494  50.247  1.00  0.00    -0.295 OA
ATOM      6  C   UNL     1       5.677  -1.179  47.824  1.00  0.00     0.067 C 
ATOM      7  C   UNL     1       6.819  -0.368  47.175  1.00  0.00     0.021 C 
ATOM      8  C   UNL     1       7.412  -1.725  46.730  1.00  0.00     0.022 C 
ATOM      9  C   UNL     1       5.973  -2.312  46.801  1.00  0.00    -0.019 C 
ATOM     10  C   UNL     1       5.195  -2.126  45.474  1.00  0.00     0.012 C 
ATOM     11  C   UNL     1       5.804  -3.788  47.262  1.00  0.00     0.012 C 
ENDROOT
TORSDOF 0
ENDMDL
MODEL 2
REMARK VINA RESULT:    -5.596      1.753      3.219
REMARK INTER + INTRA:          -5.596
REMARK INTER:                  -5.596
REMARK INTRA:                   0.000
REMARK UNBOUND:                 0.000
REMARK SMILES CC1=CC(=O)[C@H]2C[C@@H]1C2(C)C
REMARK SMILES IDX 1 1 2 2 3 3 4 4 5 5 6 6 7 7 8 8 9 9 10 10 11 11
REMARK H PARENT
REMARK Flexibility Score: inf
ROOT
ATOM      1  C   UNL     1       5.502  -2.034  50.386  1.00  0.00     0.040 C 
ATOM      2  C   UNL     1       6.047  -2.089  48.993  1.00  0.00    -0.066 C 
ATOM      3  C   UNL     1       5.254  -2.336  47.913  1.00  0.00     0.047 C 
ATOM      4  C   UNL     1       5.940  -2.363  46.580  1.00  0.00     0.159 C 
ATOM      5  O   UNL     1       5.327  -2.622  45.513  1.00  0.00    -0.295 OA
ATOM      6  C   UNL     1       7.438  -2.054  46.609  1.00  0.00     0.067 C 
ATOM      7  C   UNL     1       7.550  -0.819  47.530  1.00  0.00     0.021 C 
ATOM      8  C   UNL     1       7.538  -1.810  48.716  1.00  0.00     0.022 C 
ATOM      9  C   UNL     1       8.094  -2.890  47.744  1.00  0.00    -0.019 C 
ATOM     10  C   UNL     1       9.642  -2.874  47.669  1.00  0.00     0.012 C 
ATOM     11  C   UNL     1       7.632  -4.362  47.938  1.00  0.00     0.012 C 
ENDROOT
TORSDOF 0
ENDMDL
MODEL 3
REMARK VINA RESULT:    -5.588      1.682      2.985
REMARK INTER + INTRA:          -5.588
REMARK INTER:                  -5.588
REMARK INTRA:                   0.000
REMARK UNBOUND:                 0.000
REMARK SMILES CC1=CC(=O)[C@H]2C[C@@H]1C2(C)C
REMARK SMILES IDX 1 1 2 2 3 3 4 4 5 5 6 6 7 7 8 8 9 9 10 10 11 11
REMARK H PARENT
REMARK Flexibility Score: inf
ROOT
ATOM      1  C   UNL     1       5.890  -1.623  50.613  1.00  0.00     0.040 C 
ATOM      2  C   UNL     1       6.539  -1.992  49.316  1.00  0.00    -0.066 C 
ATOM      3  C   UNL     1       7.890  -2.118  49.190  1.00  0.00     0.047 C 
ATOM      4  C   UNL     1       8.396  -2.492  47.829  1.00  0.00     0.159 C 
ATOM      5  O   UNL     1       9.624  -2.597  47.574  1.00  0.00    -0.295 OA
ATOM      6  C   UNL     1       7.316  -2.736  46.773  1.00  0.00     0.067 C 
ATOM      7  C   UNL     1       6.275  -3.616  47.497  1.00  0.00     0.021 C 
ATOM      8  C   UNL     1       5.690  -2.304  48.067  1.00  0.00     0.022 C 
ATOM      9  C   UNL     1       6.292  -1.568  46.835  1.00  0.00    -0.019 C 
ATOM     10  C   UNL     1       5.328  -1.565  45.622  1.00  0.00     0.012 C 
ATOM     11  C   UNL     1       6.830  -0.122  47.033  1.00  0.00     0.012 C 
ENDROOT
TORSDOF 0
ENDMDL
MODEL 4
REMARK VINA RESULT:    -5.545      1.880      2.975
REMARK INTER + INTRA:          -5.545
REMARK INTER:                  -5.545
REMARK INTRA:                   0.000
REMARK UNBOUND:                 0.000
REMARK SMILES CC1=CC(=O)[C@H]2C[C@@H]1C2(C)C
REMARK SMILES IDX 1 1 2 2 3 3 4 4 5 5 6 6 7 7 8 8 9 9 10 10 11 11
REMARK H PARENT
REMARK Flexibility Score: inf
ROOT
ATOM      1  C   UNL     1       6.595  -0.094  46.834  1.00  0.00     0.040 C 
ATOM      2  C   UNL     1       6.923  -1.174  47.817  1.00  0.00    -0.066 C 
ATOM      3  C   UNL     1       8.197  -1.616  48.012  1.00  0.00     0.047 C 
ATOM      4  C   UNL     1       8.373  -2.704  49.028  1.00  0.00     0.159 C 
ATOM      5  O   UNL     1       9.492  -3.226  49.267  1.00  0.00    -0.295 OA
ATOM      6  C   UNL     1       7.096  -3.135  49.753  1.00  0.00     0.067 C 
ATOM      7  C   UNL     1       6.411  -1.804  50.131  1.00  0.00     0.021 C 
ATOM      8  C   UNL     1       5.825  -1.799  48.701  1.00  0.00     0.022 C 
ATOM      9  C   UNL     1       5.976  -3.348  48.696  1.00  0.00    -0.019 C 
ATOM     10  C   UNL     1       4.735  -4.062  49.289  1.00  0.00     0.012 C 
ATOM     11  C   UNL     1       6.346  -4.046  47.357  1.00  0.00     0.012 C 
ENDROOT
TORSDOF 0
ENDMDL
MODEL 5
REMARK VINA RESULT:    -5.491      1.731      3.063
REMARK INTER + INTRA:          -5.491
REMARK INTER:                  -5.491
REMARK INTRA:                   0.000
REMARK UNBOUND:                 0.000
REMARK SMILES CC1=CC(=O)[C@H]2C[C@@H]1C2(C)C
REMARK SMILES IDX 1 1 2 2 3 3 4 4 5 5 6 6 7 7 8 8 9 9 10 10 11 11
REMARK H PARENT
REMARK Flexibility Score: inf
ROOT
ATOM      1  C   UNL     1       9.915  -2.857  49.000  1.00  0.00     0.040 C 
ATOM      2  C   UNL     1       8.446  -2.640  48.814  1.00  0.00    -0.066 C 
ATOM      3  C   UNL     1       7.950  -1.556  48.154  1.00  0.00     0.047 C 
ATOM      4  C   UNL     1       6.457  -1.473  48.048  1.00  0.00     0.159 C 
ATOM      5  O   UNL     1       5.875  -0.500  47.501  1.00  0.00    -0.295 OA
ATOM      6  C   UNL     1       5.690  -2.651  48.652  1.00  0.00     0.067 C 
ATOM      7  C   UNL     1       6.450  -3.895  48.141  1.00  0.00     0.021 C 
ATOM      8  C   UNL     1       7.424  -3.677  49.322  1.00  0.00     0.022 C 
ATOM      9  C   UNL     1       6.269  -2.945  50.064  1.00  0.00    -0.019 C 
ATOM     10  C   UNL     1       5.379  -3.921  50.875  1.00  0.00     0.012 C 
ATOM     11  C   UNL     1       6.631  -1.742  50.980  1.00  0.00     0.012 C 
ENDROOT
TORSDOF 0
ENDMDL
MODEL 6
REMARK VINA RESULT:    -5.286      1.881      3.126
REMARK INTER + INTRA:          -5.286
REMARK INTER:                  -5.286
REMARK INTRA:                   0.000
REMARK UNBOUND:                 0.000
REMARK SMILES CC1=CC(=O)[C@H]2C[C@@H]1C2(C)C
REMARK SMILES IDX 1 1 2 2 3 3 4 4 5 5 6 6 7 7 8 8 9 9 10 10 11 11
REMARK H PARENT
REMARK Flexibility Score: inf
ROOT
ATOM      1  C   UNL     1       6.248  -2.281  51.316  1.00  0.00     0.040 C 
ATOM      2  C   UNL     1       6.355  -2.597  49.856  1.00  0.00    -0.066 C 
ATOM      3  C   UNL     1       6.642  -3.849  49.403  1.00  0.00     0.047 C 
ATOM      4  C   UNL     1       6.717  -4.013  47.915  1.00  0.00     0.159 C 
ATOM      5  O   UNL     1       7.017  -5.109  47.373  1.00  0.00    -0.295 OA
ATOM      6  C   UNL     1       6.406  -2.756  47.101  1.00  0.00     0.067 C 
ATOM      7  C   UNL     1       5.138  -2.180  47.768  1.00  0.00     0.021 C 
ATOM      8  C   UNL     1       6.085  -1.514  48.792  1.00  0.00     0.022 C 
ATOM      9  C   UNL     1       7.200  -1.565  47.708  1.00  0.00    -0.019 C 
ATOM     10  C   UNL     1       7.185  -0.317  46.789  1.00  0.00     0.012 C 
ATOM     11  C   UNL     1       8.664  -1.811  48.171  1.00  0.00     0.012 C 
ENDROOT
TORSDOF 0
ENDMDL
MODEL 7
REMARK VINA RESULT:    -5.218      1.173      3.244
REMARK INTER + INTRA:          -5.218
REMARK INTER:                  -5.218
REMARK INTRA:                   0.000
REMARK UNBOUND:                 0.000
REMARK SMILES CC1=CC(=O)[C@H]2C[C@@H]1C2(C)C
REMARK SMILES IDX 1 1 2 2 3 3 4 4 5 5 6 6 7 7 8 8 9 9 10 10 11 11
REMARK H PARENT
REMARK Flexibility Score: inf
ROOT
ATOM      1  C   UNL     1       5.199  -4.091  46.547  1.00  0.00     0.040 C 
ATOM      2  C   UNL     1       5.880  -3.465  47.723  1.00  0.00    -0.066 C 
ATOM      3  C   UNL     1       5.203  -2.725  48.646  1.00  0.00     0.047 C 
ATOM      4  C   UNL     1       6.019  -2.160  49.769  1.00  0.00     0.159 C 
ATOM      5  O   UNL     1       5.519  -1.425  50.659  1.00  0.00    -0.295 OA
ATOM      6  C   UNL     1       7.502  -2.538  49.756  1.00  0.00     0.067 C 
ATOM      7  C   UNL     1       7.500  -4.055  49.467  1.00  0.00     0.021 C 
ATOM      8  C   UNL     1       7.387  -3.682  47.972  1.00  0.00     0.022 C 
ATOM      9  C   UNL     1       8.055  -2.320  48.320  1.00  0.00    -0.019 C 
ATOM     10  C   UNL     1       9.602  -2.393  48.266  1.00  0.00     0.012 C 
ATOM     11  C   UNL     1       7.600  -1.057  47.535  1.00  0.00     0.012 C 
ENDROOT
TORSDOF 0
ENDMDL
MODEL 8
REMARK VINA RESULT:    -5.176      1.497      3.116
REMARK INTER + INTRA:          -5.176
REMARK INTER:                  -5.176
REMARK INTRA:                   0.000
REMARK UNBOUND:                 0.000
REMARK SMILES CC1=CC(=O)[C@H]2C[C@@H]1C2(C)C
REMARK SMILES IDX 1 1 2 2 3 3 4 4 5 5 6 6 7 7 8 8 9 9 10 10 11 11
REMARK H PARENT
REMARK Flexibility Score: inf
ROOT
ATOM      1  C   UNL     1       6.606  -0.473  47.096  1.00  0.00     0.040 C 
ATOM      2  C   UNL     1       6.605  -1.669  47.996  1.00  0.00    -0.066 C 
ATOM      3  C   UNL     1       6.135  -1.616  49.274  1.00  0.00     0.047 C 
ATOM      4  C   UNL     1       6.200  -2.892  50.056  1.00  0.00     0.159 C 
ATOM      5  O   UNL     1       5.837  -2.963  51.259  1.00  0.00    -0.295 OA
ATOM      6  C   UNL     1       6.738  -4.103  49.291  1.00  0.00     0.067 C 
ATOM      7  C   UNL     1       6.006  -4.046  47.933  1.00  0.00     0.021 C 
ATOM      8  C   UNL     1       7.093  -3.041  47.488  1.00  0.00     0.022 C 
ATOM      9  C   UNL     1       8.036  -3.680  48.547  1.00  0.00    -0.019 C 
ATOM     10  C   UNL     1       8.816  -4.895  47.985  1.00  0.00     0.012 C 
ATOM     11  C   UNL     1       9.044  -2.754  49.287  1.00  0.00     0.012 C 
ENDROOT
TORSDOF 0
ENDMDL
MODEL 9
REMARK VINA RESULT:    -5.139      1.157      1.185
REMARK INTER + INTRA:          -5.139
REMARK INTER:                  -5.139
REMARK INTRA:                   0.000
REMARK UNBOUND:                 0.000
REMARK SMILES CC1=CC(=O)[C@H]2C[C@@H]1C2(C)C
REMARK SMILES IDX 1 1 2 2 3 3 4 4 5 5 6 6 7 7 8 8 9 9 10 10 11 11
REMARK H PARENT
REMARK Flexibility Score: inf
ROOT
ATOM      1  C   UNL     1       8.699  -4.804  48.275  1.00  0.00     0.040 C 
ATOM      2  C   UNL     1       7.835  -3.594  48.444  1.00  0.00    -0.066 C 
ATOM      3  C   UNL     1       7.368  -3.199  49.662  1.00  0.00     0.047 C 
ATOM      4  C   UNL     1       6.513  -1.968  49.675  1.00  0.00     0.159 C 
ATOM      5  O   UNL     1       5.986  -1.526  50.729  1.00  0.00    -0.295 OA
ATOM      6  C   UNL     1       6.324  -1.287  48.318  1.00  0.00     0.067 C 
ATOM      7  C   UNL     1       7.744  -1.255  47.713  1.00  0.00     0.021 C 
ATOM      8  C   UNL     1       7.480  -2.702  47.237  1.00  0.00     0.022 C 
ATOM      9  C   UNL     1       5.960  -2.372  47.267  1.00  0.00    -0.019 C 
ATOM     10  C   UNL     1       5.464  -1.758  45.933  1.00  0.00     0.012 C 
ATOM     11  C   UNL     1       4.971  -3.500  47.680  1.00  0.00     0.012 C 
ENDROOT
TORSDOF 0
ENDMDL
