MODEL 1
REMARK VINA RESULT:    -2.838      0.000      0.000
REMARK INTER + INTRA:          -2.838
REMARK INTER:                  -2.838
REMARK INTRA:                   0.000
REMARK UNBOUND:                 0.000
REMARK SMILES CC(=O)[O-]
REMARK SMILES IDX 1 1 2 2 3 3 4 4
REMARK H PARENT
REMARK Flexibility Score: inf
ROOT
ATOM      1  C   UNL     1     -10.071  -2.002  -9.696  1.00  0.00     0.063 C 
ATOM      2  C   UNL     1     -10.480  -3.098  -8.773  1.00  0.00     0.038 C 
ATOM      3  O   UNL     1      -9.616  -3.887  -8.306  1.00  0.00    -0.550 OA
ATOM      4  O   UNL     1     -11.806  -3.220  -8.381  1.00  0.00    -0.550 OA
ENDROOT
TORSDOF 0
ENDMDL
MODEL 2
REMARK VINA RESULT:    -2.781      0.554      1.703
REMARK INTER + INTRA:          -2.781
REMARK INTER:                  -2.781
REMARK INTRA:                   0.000
REMARK UNBOUND:                 0.000
REMARK SMILES CC(=O)[O-]
REMARK SMILES IDX 1 1 2 2 3 3 4 4
REMARK H PARENT
REMARK Flexibility Score: inf
ROOT
ATOM      1  C   UNL     1      -9.573  -2.314  -9.570  1.00  0.00     0.063 C 
ATOM      2  C   UNL     1     -10.106  -3.378  -8.673  1.00  0.00     0.038 C 
ATOM      3  O   UNL     1     -11.329  -3.396  -8.371  1.00  0.00    -0.550 OA
ATOM      4  O   UNL     1      -9.268  -4.384  -8.211  1.00  0.00    -0.550 OA
ENDROOT
TORSDOF 0
ENDMDL
MODEL 3
REMARK VINA RESULT:    -2.773      1.729      1.843
REMARK INTER + INTRA:          -2.773
REMARK INTER:                  -2.773
REMARK INTRA:                   0.000
REMARK UNBOUND:                 0.000
REMARK SMILES CC(=O)[O-]
REMARK SMILES IDX 1 1 2 2 3 3 4 4
REMARK H PARENT
REMARK Flexibility Score: inf
ROOT
ATOM      1  C   UNL     1      -8.071  -2.957  -8.540  1.00  0.00     0.063 C 
ATOM      2  C   UNL     1      -9.113  -4.013  -8.392  1.00  0.00     0.038 C 
ATOM      3  O   UNL     1      -8.778  -5.203  -8.152  1.00  0.00    -0.550 OA
ATOM      4  O   UNL     1     -10.459  -3.678  -8.464  1.00  0.00    -0.550 OA
ENDROOT
TORSDOF 0
ENDMDL
MODEL 4
REMARK VINA RESULT:    -2.711     10.947     11.474
REMARK INTER + INTRA:          -2.711
REMARK INTER:                  -2.711
REMARK INTRA:                   0.000
REMARK UNBOUND:                 0.000
REMARK SMILES CC(=O)[O-]
REMARK SMILES IDX 1 1 2 2 3 3 4 4
REMARK H PARENT
REMARK Flexibility Score: inf
ROOT
ATOM      1  C   UNL     1      -7.206 -14.674  -4.662  1.00  0.00     0.063 C 
ATOM      2  C   UNL     1      -7.367 -13.220  -4.951  1.00  0.00     0.038 C 
ATOM      3  O   UNL     1      -6.460 -12.408  -4.628  1.00  0.00    -0.550 OA
ATOM      4  O   UNL     1      -8.491 -12.765  -5.625  1.00  0.00    -0.550 OA
ENDROOT
TORSDOF 0
ENDMDL
MODEL 5
REMARK VINA RESULT:    -2.649     10.917     11.531
REMARK INTER + INTRA:          -2.649
REMARK INTER:                  -2.649
REMARK INTRA:                   0.000
REMARK UNBOUND:                 0.000
REMARK SMILES CC(=O)[O-]
REMARK SMILES IDX 1 1 2 2 3 3 4 4
REMARK H PARENT
REMARK Flexibility Score: inf
ROOT
ATOM      1  C   UNL     1      -6.825 -13.061  -4.203  1.00  0.00     0.063 C 
ATOM      2  C   UNL     1      -7.651 -13.475  -5.373  1.00  0.00     0.038 C 
ATOM      3  O   UNL     1      -8.579 -12.731  -5.787  1.00  0.00    -0.550 OA
ATOM      4  O   UNL     1      -7.365 -14.657  -6.043  1.00  0.00    -0.550 OA
ENDROOT
TORSDOF 0
ENDMDL
MODEL 6
REMARK VINA RESULT:    -2.639      1.298      1.697
REMARK INTER + INTRA:          -2.639
REMARK INTER:                  -2.639
REMARK INTRA:                   0.000
REMARK UNBOUND:                 0.000
REMARK SMILES CC(=O)[O-]
REMARK SMILES IDX 1 1 2 2 3 3 4 4
REMARK H PARENT
REMARK Flexibility Score: inf
ROOT
ATOM      1  C   UNL     1      -9.972  -2.320  -9.299  1.00  0.00     0.063 C 
ATOM      2  C   UNL     1     -11.414  -2.381  -8.929  1.00  0.00     0.038 C 
ATOM      3  O   UNL     1     -11.844  -3.322  -8.211  1.00  0.00    -0.550 OA
ATOM      4  O   UNL     1     -12.279  -1.371  -9.330  1.00  0.00    -0.550 OA
ENDROOT
TORSDOF 0
ENDMDL
MODEL 7
REMARK VINA RESULT:    -2.599      1.573      1.640
REMARK INTER + INTRA:          -2.599
REMARK INTER:                  -2.599
REMARK INTRA:                   0.000
REMARK UNBOUND:                 0.000
REMARK SMILES CC(=O)[O-]
REMARK SMILES IDX 1 1 2 2 3 3 4 4
REMARK H PARENT
REMARK Flexibility Score: inf
ROOT
ATOM      1  C   UNL     1     -12.191  -1.614  -9.474  1.00  0.00     0.063 C 
ATOM      2  C   UNL     1     -11.927  -2.712  -8.501  1.00  0.00     0.038 C 
ATOM      3  O   UNL     1     -10.838  -3.343  -8.539  1.00  0.00    -0.550 OA
ATOM      4  O   UNL     1     -12.858  -3.005  -7.514  1.00  0.00    -0.550 OA
ENDROOT
TORSDOF 0
ENDMDL
MODEL 8
REMARK VINA RESULT:    -2.574      2.318      2.517
REMARK INTER + INTRA:          -2.574
REMARK INTER:                  -2.574
REMARK INTRA:                   0.000
REMARK UNBOUND:                 0.000
REMARK SMILES CC(=O)[O-]
REMARK SMILES IDX 1 1 2 2 3 3 4 4
REMARK H PARENT
REMARK Flexibility Score: inf
ROOT
ATOM      1  C   UNL     1      -9.731  -2.298  -9.390  1.00  0.00     0.063 C 
ATOM      2  C   UNL     1      -8.486  -3.082  -9.149  1.00  0.00     0.038 C 
ATOM      3  O   UNL     1      -7.628  -2.668  -8.325  1.00  0.00    -0.550 OA
ATOM      4  O   UNL     1      -8.294  -4.298  -9.791  1.00  0.00    -0.550 OA
ENDROOT
TORSDOF 0
ENDMDL
MODEL 9
REMARK VINA RESULT:    -2.533      2.580      3.003
REMARK INTER + INTRA:          -2.533
REMARK INTER:                  -2.533
REMARK INTRA:                   0.000
REMARK UNBOUND:                 0.000
REMARK SMILES CC(=O)[O-]
REMARK SMILES IDX 1 1 2 2 3 3 4 4
REMARK H PARENT
REMARK Flexibility Score: inf
ROOT
ATOM      1  C   UNL     1      -8.471  -3.551  -9.655  1.00  0.00     0.063 C 
ATOM      2  C   UNL     1      -8.379  -4.953  -9.158  1.00  0.00     0.038 C 
ATOM      3  O   UNL     1      -7.924  -5.860  -9.905  1.00  0.00    -0.550 OA
ATOM      4  O   UNL     1      -8.743  -5.255  -7.853  1.00  0.00    -0.550 OA
ENDROOT
TORSDOF 0
ENDMDL
