MODEL 1
REMARK VINA RESULT:    -3.570      0.000      0.000
REMARK INTER + INTRA:          -4.260
REMARK INTER:                  -4.196
REMARK INTRA:                  -0.064
REMARK UNBOUND:                -0.064
REMARK SMILES CCCCC(=O)[O-]
REMARK SMILES IDX 4 1 5 2 6 3 7 4 3 5 2 6 1 7
REMARK H PARENT
REMARK Flexibility Score: inf
ROOT
ATOM      1  C   UNL     1     -22.991 -29.116  40.636  1.00  0.00     0.053 C 
ENDROOT
BRANCH   1   2
ATOM      2  C   UNL     1     -24.484 -29.111  40.508  1.00  0.00     0.041 C 
ATOM      3  O   UNL     1     -25.087 -30.134  40.090  1.00  0.00    -0.550 OA
ATOM      4  O   UNL     1     -25.210 -27.987  40.880  1.00  0.00    -0.550 OA
ENDBRANCH   1   2
BRANCH   1   5
ATOM      5  C   UNL     1     -22.349 -27.954  39.867  1.00  0.00     0.006 C 
BRANCH   5   6
ATOM      6  C   UNL     1     -22.227 -28.247  38.365  1.00  0.00    -0.003 C 
ATOM      7  C   UNL     1     -21.233 -27.300  37.698  1.00  0.00     0.004 C 
ENDBRANCH   5   6
ENDBRANCH   1   5
TORSDOF 3
ENDMDL
MODEL 2
REMARK VINA RESULT:    -3.557      1.098      1.546
REMARK INTER + INTRA:          -4.245
REMARK INTER:                  -4.202
REMARK INTRA:                  -0.043
REMARK UNBOUND:                -0.064
REMARK SMILES CCCCC(=O)[O-]
REMARK SMILES IDX 4 1 5 2 6 3 7 4 3 5 2 6 1 7
REMARK H PARENT
REMARK Flexibility Score: inf
ROOT
ATOM      1  C   UNL     1     -22.592 -28.541  39.514  1.00  0.00     0.053 C 
ENDROOT
BRANCH   1   2
ATOM      2  C   UNL     1     -23.944 -29.141  39.752  1.00  0.00     0.041 C 
ATOM      3  O   UNL     1     -24.737 -29.316  38.789  1.00  0.00    -0.550 OA
ATOM      4  O   UNL     1     -24.315 -29.537  41.030  1.00  0.00    -0.550 OA
ENDBRANCH   1   2
BRANCH   1   5
ATOM      5  C   UNL     1     -22.335 -28.291  38.022  1.00  0.00     0.006 C 
BRANCH   5   6
ATOM      6  C   UNL     1     -21.179 -27.309  37.788  1.00  0.00    -0.003 C 
ATOM      7  C   UNL     1     -20.882 -26.497  39.047  1.00  0.00     0.004 C 
ENDBRANCH   5   6
ENDBRANCH   1   5
TORSDOF 3
ENDMDL
MODEL 3
REMARK VINA RESULT:    -3.555      0.149      1.232
REMARK INTER + INTRA:          -4.243
REMARK INTER:                  -4.179
REMARK INTRA:                  -0.064
REMARK UNBOUND:                -0.064
REMARK SMILES CCCCC(=O)[O-]
REMARK SMILES IDX 4 1 5 2 6 3 7 4 3 5 2 6 1 7
REMARK H PARENT
REMARK Flexibility Score: inf
ROOT
ATOM      1  C   UNL     1     -22.985 -29.168  40.532  1.00  0.00     0.053 C 
ENDROOT
BRANCH   1   2
ATOM      2  C   UNL     1     -24.476 -29.145  40.394  1.00  0.00     0.041 C 
ATOM      3  O   UNL     1     -25.124 -28.107  40.691  1.00  0.00    -0.550 OA
ATOM      4  O   UNL     1     -25.147 -30.259  39.907  1.00  0.00    -0.550 OA
ENDBRANCH   1   2
BRANCH   1   5
ATOM      5  C   UNL     1     -22.329 -27.982  39.812  1.00  0.00     0.006 C 
BRANCH   5   6
ATOM      6  C   UNL     1     -22.172 -28.232  38.306  1.00  0.00    -0.003 C 
ATOM      7  C   UNL     1     -21.161 -27.268  37.689  1.00  0.00     0.004 C 
ENDBRANCH   5   6
ENDBRANCH   1   5
TORSDOF 3
ENDMDL
MODEL 4
REMARK VINA RESULT:    -3.437      1.946      2.539
REMARK INTER + INTRA:          -4.105
REMARK INTER:                  -4.010
REMARK INTRA:                  -0.095
REMARK UNBOUND:                -0.064
REMARK SMILES CCCCC(=O)[O-]
REMARK SMILES IDX 4 1 5 2 6 3 7 4 3 5 2 6 1 7
REMARK H PARENT
REMARK Flexibility Score: inf
ROOT
ATOM      1  C   UNL     1     -25.405 -28.999  39.957  1.00  0.00     0.053 C 
ENDROOT
BRANCH   1   2
ATOM      2  C   UNL     1     -25.222 -29.992  38.851  1.00  0.00     0.041 C 
ATOM      3  O   UNL     1     -25.475 -31.210  39.045  1.00  0.00    -0.550 OA
ATOM      4  O   UNL     1     -24.804 -29.567  37.596  1.00  0.00    -0.550 OA
ENDBRANCH   1   2
BRANCH   1   5
ATOM      5  C   UNL     1     -24.297 -29.112  41.012  1.00  0.00     0.006 C 
BRANCH   5   6
ATOM      6  C   UNL     1     -22.898 -29.165  40.382  1.00  0.00    -0.003 C 
ATOM      7  C   UNL     1     -22.387 -27.764  40.056  1.00  0.00     0.004 C 
ENDBRANCH   5   6
ENDBRANCH   1   5
TORSDOF 3
ENDMDL
MODEL 5
REMARK VINA RESULT:    -3.258      2.306      3.776
REMARK INTER + INTRA:          -3.894
REMARK INTER:                  -3.826
REMARK INTRA:                  -0.068
REMARK UNBOUND:                -0.064
REMARK SMILES CCCCC(=O)[O-]
REMARK SMILES IDX 4 1 5 2 6 3 7 4 3 5 2 6 1 7
REMARK H PARENT
REMARK Flexibility Score: inf
ROOT
ATOM      1  C   UNL     1     -23.384 -29.326  40.196  1.00  0.00     0.053 C 
ENDROOT
BRANCH   1   2
ATOM      2  C   UNL     1     -22.538 -28.293  39.517  1.00  0.00     0.041 C 
ATOM      3  O   UNL     1     -22.005 -27.370  40.189  1.00  0.00    -0.550 OA
ATOM      4  O   UNL     1     -22.311 -28.368  38.149  1.00  0.00    -0.550 OA
ENDBRANCH   1   2
BRANCH   1   5
ATOM      5  C   UNL     1     -24.405 -28.688  41.149  1.00  0.00     0.006 C 
BRANCH   5   6
ATOM      6  C   UNL     1     -25.673 -28.226  40.418  1.00  0.00    -0.003 C 
ATOM      7  C   UNL     1     -26.357 -27.086  41.168  1.00  0.00     0.004 C 
ENDBRANCH   5   6
ENDBRANCH   1   5
TORSDOF 3
ENDMDL
MODEL 6
REMARK VINA RESULT:    -3.228      2.139      3.246
REMARK INTER + INTRA:          -3.858
REMARK INTER:                  -3.744
REMARK INTRA:                  -0.114
REMARK UNBOUND:                -0.064
REMARK SMILES CCCCC(=O)[O-]
REMARK SMILES IDX 4 1 5 2 6 3 7 4 3 5 2 6 1 7
REMARK H PARENT
REMARK Flexibility Score: inf
ROOT
ATOM      1  C   UNL     1     -23.591 -29.255  39.869  1.00  0.00     0.053 C 
ENDROOT
BRANCH   1   2
ATOM      2  C   UNL     1     -24.717 -29.534  38.921  1.00  0.00     0.041 C 
ATOM      3  O   UNL     1     -25.808 -29.992  39.352  1.00  0.00    -0.550 OA
ATOM      4  O   UNL     1     -24.573 -29.256  37.568  1.00  0.00    -0.550 OA
ENDBRANCH   1   2
BRANCH   1   5
ATOM      5  C   UNL     1     -24.102 -28.800  41.243  1.00  0.00     0.006 C 
BRANCH   5   6
ATOM      6  C   UNL     1     -24.431 -27.301  41.273  1.00  0.00    -0.003 C 
ATOM      7  C   UNL     1     -25.930 -27.068  41.435  1.00  0.00     0.004 C 
ENDBRANCH   5   6
ENDBRANCH   1   5
TORSDOF 3
ENDMDL
MODEL 7
REMARK VINA RESULT:    -3.221      2.178      2.760
REMARK INTER + INTRA:          -3.850
REMARK INTER:                  -3.753
REMARK INTRA:                  -0.096
REMARK UNBOUND:                -0.064
REMARK SMILES CCCCC(=O)[O-]
REMARK SMILES IDX 4 1 5 2 6 3 7 4 3 5 2 6 1 7
REMARK H PARENT
REMARK Flexibility Score: inf
ROOT
ATOM      1  C   UNL     1     -25.406 -28.265  40.699  1.00  0.00     0.053 C 
ENDROOT
BRANCH   1   2
ATOM      2  C   UNL     1     -25.785 -26.996  41.400  1.00  0.00     0.041 C 
ATOM      3  O   UNL     1     -26.854 -26.403  41.101  1.00  0.00    -0.550 OA
ATOM      4  O   UNL     1     -24.973 -26.487  42.405  1.00  0.00    -0.550 OA
ENDBRANCH   1   2
BRANCH   1   5
ATOM      5  C   UNL     1     -24.117 -28.869  41.274  1.00  0.00     0.006 C 
BRANCH   5   6
ATOM      6  C   UNL     1     -23.026 -29.032  40.207  1.00  0.00    -0.003 C 
ATOM      7  C   UNL     1     -22.260 -27.728  39.999  1.00  0.00     0.004 C 
ENDBRANCH   5   6
ENDBRANCH   1   5
TORSDOF 3
ENDMDL
MODEL 8
REMARK VINA RESULT:    -3.201      3.715      4.870
REMARK INTER + INTRA:          -3.827
REMARK INTER:                  -3.808
REMARK INTRA:                  -0.019
REMARK UNBOUND:                -0.064
REMARK SMILES CCCCC(=O)[O-]
REMARK SMILES IDX 4 1 5 2 6 3 7 4 3 5 2 6 1 7
REMARK H PARENT
REMARK Flexibility Score: inf
ROOT
ATOM      1  C   UNL     1     -20.782 -26.492  39.115  1.00  0.00     0.053 C 
ENDROOT
BRANCH   1   2
ATOM      2  C   UNL     1     -20.139 -25.306  39.765  1.00  0.00     0.041 C 
ATOM      3  O   UNL     1     -20.831 -24.507  40.450  1.00  0.00    -0.550 OA
ATOM      4  O   UNL     1     -18.771 -25.100  39.640  1.00  0.00    -0.550 OA
ENDBRANCH   1   2
BRANCH   1   5
ATOM      5  C   UNL     1     -21.896 -27.086  39.989  1.00  0.00     0.006 C 
BRANCH   5   6
ATOM      6  C   UNL     1     -22.497 -28.359  39.378  1.00  0.00    -0.003 C 
ATOM      7  C   UNL     1     -22.922 -29.343  40.465  1.00  0.00     0.004 C 
ENDBRANCH   5   6
ENDBRANCH   1   5
TORSDOF 3
ENDMDL
MODEL 9
REMARK VINA RESULT:    -3.187      3.095      4.131
REMARK INTER + INTRA:          -3.810
REMARK INTER:                  -3.747
REMARK INTRA:                  -0.062
REMARK UNBOUND:                -0.064
REMARK SMILES CCCCC(=O)[O-]
REMARK SMILES IDX 4 1 5 2 6 3 7 4 3 5 2 6 1 7
REMARK H PARENT
REMARK Flexibility Score: inf
ROOT
ATOM      1  C   UNL     1     -21.051 -26.439  39.997  1.00  0.00     0.053 C 
ENDROOT
BRANCH   1   2
ATOM      2  C   UNL     1     -21.497 -25.053  40.351  1.00  0.00     0.041 C 
ATOM      3  O   UNL     1     -20.865 -24.054  39.917  1.00  0.00    -0.550 OA
ATOM      4  O   UNL     1     -22.629 -24.865  41.134  1.00  0.00    -0.550 OA
ENDBRANCH   1   2
BRANCH   1   5
ATOM      5  C   UNL     1     -21.102 -26.683  38.483  1.00  0.00     0.006 C 
BRANCH   5   6
ATOM      6  C   UNL     1     -21.863 -27.967  38.126  1.00  0.00    -0.003 C 
ATOM      7  C   UNL     1     -22.618 -28.514  39.335  1.00  0.00     0.004 C 
ENDBRANCH   5   6
ENDBRANCH   1   5
TORSDOF 3
ENDMDL
