MODEL 1
REMARK VINA RESULT:    -3.474      0.000      0.000
REMARK INTER + INTRA:          -5.069
REMARK INTER:                  -4.693
REMARK INTRA:                  -0.376
REMARK UNBOUND:                -0.376
REMARK SMILES CCCCCCCC(=O)[O-]
REMARK SMILES IDX 5 1 6 2 7 3 8 4 9 5 10 6 4 7 3 8 2 9 1 10
REMARK H PARENT
REMARK Flexibility Score: inf
ROOT
ATOM      1  C   UNL     1      21.426  14.056 -16.344  1.00  0.00     0.000 C 
ENDROOT
BRANCH   1   2
ATOM      2  C   UNL     1      19.986  14.049 -15.818  1.00  0.00     0.006 C 
BRANCH   2   3
ATOM      3  C   UNL     1      19.411  12.630 -15.808  1.00  0.00     0.053 C 
BRANCH   3   4
ATOM      4  C   UNL     1      18.352  12.486 -16.856  1.00  0.00     0.041 C 
ATOM      5  O   UNL     1      17.445  11.622 -16.725  1.00  0.00    -0.550 OA
ATOM      6  O   UNL     1      18.339  13.338 -17.953  1.00  0.00    -0.550 OA
ENDBRANCH   3   4
ENDBRANCH   2   3
ENDBRANCH   1   2
BRANCH   1   7
ATOM      7  C   UNL     1      21.949  15.488 -16.502  1.00  0.00     0.000 C 
BRANCH   7   8
ATOM      8  C   UNL     1      20.793  16.471 -16.742  1.00  0.00    -0.000 C 
BRANCH   8   9
ATOM      9  C   UNL     1      20.862  17.136 -18.125  1.00  0.00    -0.003 C 
ATOM     10  C   UNL     1      19.850  16.556 -19.112  1.00  0.00     0.004 C 
ENDBRANCH   8   9
ENDBRANCH   7   8
ENDBRANCH   1   7
TORSDOF 6
ENDMDL
MODEL 2
REMARK VINA RESULT:    -3.446      2.248      4.579
REMARK INTER + INTRA:          -5.031
REMARK INTER:                  -4.711
REMARK INTRA:                  -0.320
REMARK UNBOUND:                -0.376
REMARK SMILES CCCCCCCC(=O)[O-]
REMARK SMILES IDX 5 1 6 2 7 3 8 4 9 5 10 6 4 7 3 8 2 9 1 10
REMARK H PARENT
REMARK Flexibility Score: inf
ROOT
ATOM      1  C   UNL     1      21.110  13.614 -16.452  1.00  0.00     0.000 C 
ENDROOT
BRANCH   1   2
ATOM      2  C   UNL     1      21.766  15.000 -16.409  1.00  0.00     0.006 C 
BRANCH   2   3
ATOM      3  C   UNL     1      20.712  16.103 -16.279  1.00  0.00     0.053 C 
BRANCH   3   4
ATOM      4  C   UNL     1      20.533  16.812 -17.584  1.00  0.00     0.041 C 
ATOM      5  O   UNL     1      19.470  16.666 -18.244  1.00  0.00    -0.550 OA
ATOM      6  O   UNL     1      21.520  17.672 -18.050  1.00  0.00    -0.550 OA
ENDBRANCH   3   4
ENDBRANCH   2   3
ENDBRANCH   1   2
BRANCH   1   7
ATOM      7  C   UNL     1      19.671  13.669 -15.924  1.00  0.00     0.000 C 
BRANCH   7   8
ATOM      8  C   UNL     1      18.686  13.099 -16.954  1.00  0.00    -0.000 C 
BRANCH   8   9
ATOM      9  C   UNL     1      18.025  11.795 -16.481  1.00  0.00    -0.003 C 
ATOM     10  C   UNL     1      18.846  10.555 -16.829  1.00  0.00     0.004 C 
ENDBRANCH   8   9
ENDBRANCH   7   8
ENDBRANCH   1   7
TORSDOF 6
ENDMDL
MODEL 3
REMARK VINA RESULT:    -3.437      2.753      5.277
REMARK INTER + INTRA:          -5.019
REMARK INTER:                  -4.736
REMARK INTRA:                  -0.283
REMARK UNBOUND:                -0.376
REMARK SMILES CCCCCCCC(=O)[O-]
REMARK SMILES IDX 5 1 6 2 7 3 8 4 9 5 10 6 4 7 3 8 2 9 1 10
REMARK H PARENT
REMARK Flexibility Score: inf
ROOT
ATOM      1  C   UNL     1      19.215  12.805 -15.559  1.00  0.00     0.000 C 
ENDROOT
BRANCH   1   2
ATOM      2  C   UNL     1      19.945  14.149 -15.668  1.00  0.00     0.006 C 
BRANCH   2   3
ATOM      3  C   UNL     1      21.298  13.986 -16.366  1.00  0.00     0.053 C 
BRANCH   3   4
ATOM      4  C   UNL     1      21.880  15.323 -16.699  1.00  0.00     0.041 C 
ATOM      5  O   UNL     1      21.168  16.359 -16.629  1.00  0.00    -0.550 OA
ATOM      6  O   UNL     1      23.222  15.431 -17.040  1.00  0.00    -0.550 OA
ENDBRANCH   3   4
ENDBRANCH   2   3
ENDBRANCH   1   2
BRANCH   1   7
ATOM      7  C   UNL     1      18.515  12.450 -16.875  1.00  0.00     0.000 C 
BRANCH   7   8
ATOM      8  C   UNL     1      18.276  10.936 -16.979  1.00  0.00    -0.000 C 
BRANCH   8   9
ATOM      9  C   UNL     1      19.579  10.126 -16.900  1.00  0.00    -0.003 C 
ATOM     10  C   UNL     1      19.370   8.724 -16.329  1.00  0.00     0.004 C 
ENDBRANCH   8   9
ENDBRANCH   7   8
ENDBRANCH   1   7
TORSDOF 6
ENDMDL
MODEL 4
REMARK VINA RESULT:    -3.431      1.188      1.715
REMARK INTER + INTRA:          -5.011
REMARK INTER:                  -4.687
REMARK INTRA:                  -0.324
REMARK UNBOUND:                -0.376
REMARK SMILES CCCCCCCC(=O)[O-]
REMARK SMILES IDX 5 1 6 2 7 3 8 4 9 5 10 6 4 7 3 8 2 9 1 10
REMARK H PARENT
REMARK Flexibility Score: inf
ROOT
ATOM      1  C   UNL     1      19.876  14.189 -15.558  1.00  0.00     0.000 C 
ENDROOT
BRANCH   1   2
ATOM      2  C   UNL     1      19.229  12.798 -15.539  1.00  0.00     0.006 C 
BRANCH   2   3
ATOM      3  C   UNL     1      18.504  12.511 -16.857  1.00  0.00     0.053 C 
BRANCH   3   4
ATOM      4  C   UNL     1      18.695  11.083 -17.260  1.00  0.00     0.041 C 
ATOM      5  O   UNL     1      19.341  10.297 -16.518  1.00  0.00    -0.550 OA
ATOM      6  O   UNL     1      18.119  10.608 -18.431  1.00  0.00    -0.550 OA
ENDBRANCH   3   4
ENDBRANCH   2   3
ENDBRANCH   1   2
BRANCH   1   7
ATOM      7  C   UNL     1      21.228  14.158 -16.279  1.00  0.00     0.000 C 
BRANCH   7   8
ATOM      8  C   UNL     1      21.718  15.581 -16.589  1.00  0.00    -0.000 C 
BRANCH   8   9
ATOM      9  C   UNL     1      20.562  16.563 -16.832  1.00  0.00    -0.003 C 
ATOM     10  C   UNL     1      20.148  16.638 -18.301  1.00  0.00     0.004 C 
ENDBRANCH   8   9
ENDBRANCH   7   8
ENDBRANCH   1   7
TORSDOF 6
ENDMDL
MODEL 5
REMARK VINA RESULT:    -3.373      2.797      5.520
REMARK INTER + INTRA:          -4.932
REMARK INTER:                  -4.745
REMARK INTRA:                  -0.187
REMARK UNBOUND:                -0.376
REMARK SMILES CCCCCCCC(=O)[O-]
REMARK SMILES IDX 5 1 6 2 7 3 8 4 9 5 10 6 4 7 3 8 2 9 1 10
REMARK H PARENT
REMARK Flexibility Score: inf
ROOT
ATOM      1  C   UNL     1      18.653  12.707 -16.864  1.00  0.00     0.000 C 
ENDROOT
BRANCH   1   2
ATOM      2  C   UNL     1      19.479  12.916 -15.589  1.00  0.00     0.006 C 
BRANCH   2   3
ATOM      3  C   UNL     1      19.900  14.380 -15.439  1.00  0.00     0.053 C 
BRANCH   3   4
ATOM      4  C   UNL     1      21.166  14.641 -16.194  1.00  0.00     0.041 C 
ATOM      5  O   UNL     1      21.532  15.823 -16.428  1.00  0.00    -0.550 OA
ATOM      6  O   UNL     1      21.966  13.579 -16.597  1.00  0.00    -0.550 OA
ENDBRANCH   3   4
ENDBRANCH   2   3
ENDBRANCH   1   2
BRANCH   1   7
ATOM      7  C   UNL     1      18.069  11.291 -16.917  1.00  0.00     0.000 C 
BRANCH   7   8
ATOM      8  C   UNL     1      19.161  10.258 -17.230  1.00  0.00    -0.000 C 
BRANCH   8   9
ATOM      9  C   UNL     1      19.011   8.971 -16.404  1.00  0.00    -0.003 C 
ATOM     10  C   UNL     1      20.101   7.944 -16.707  1.00  0.00     0.004 C 
ENDBRANCH   8   9
ENDBRANCH   7   8
ENDBRANCH   1   7
TORSDOF 6
ENDMDL
MODEL 6
REMARK VINA RESULT:    -3.364      1.798      4.151
REMARK INTER + INTRA:          -4.921
REMARK INTER:                  -4.510
REMARK INTRA:                  -0.411
REMARK UNBOUND:                -0.376
REMARK SMILES CCCCCCCC(=O)[O-]
REMARK SMILES IDX 5 1 6 2 7 3 8 4 9 5 10 6 4 7 3 8 2 9 1 10
REMARK H PARENT
REMARK Flexibility Score: inf
ROOT
ATOM      1  C   UNL     1      21.801  15.553 -16.504  1.00  0.00     0.000 C 
ENDROOT
BRANCH   1   2
ATOM      2  C   UNL     1      20.624  16.454 -16.896  1.00  0.00     0.006 C 
BRANCH   2   3
ATOM      3  C   UNL     1      20.838  17.067 -18.283  1.00  0.00     0.053 C 
BRANCH   3   4
ATOM      4  C   UNL     1      19.905  16.452 -19.278  1.00  0.00     0.041 C 
ATOM      5  O   UNL     1      19.223  17.183 -20.043  1.00  0.00    -0.550 OA
ATOM      6  O   UNL     1      19.824  15.069 -19.392  1.00  0.00    -0.550 OA
ENDBRANCH   3   4
ENDBRANCH   2   3
ENDBRANCH   1   2
BRANCH   1   7
ATOM      7  C   UNL     1      21.342  14.105 -16.295  1.00  0.00     0.000 C 
BRANCH   7   8
ATOM      8  C   UNL     1      19.990  14.058 -15.567  1.00  0.00    -0.000 C 
BRANCH   8   9
ATOM      9  C   UNL     1      19.243  12.735 -15.796  1.00  0.00    -0.003 C 
ATOM     10  C   UNL     1      18.451  12.722 -17.103  1.00  0.00     0.004 C 
ENDBRANCH   8   9
ENDBRANCH   7   8
ENDBRANCH   1   7
TORSDOF 6
ENDMDL
MODEL 7
REMARK VINA RESULT:    -3.224      1.931      2.936
REMARK INTER + INTRA:          -4.731
REMARK INTER:                  -4.418
REMARK INTRA:                  -0.313
REMARK UNBOUND:                -0.376
REMARK SMILES CCCCCCCC(=O)[O-]
REMARK SMILES IDX 5 1 6 2 7 3 8 4 9 5 10 6 4 7 3 8 2 9 1 10
REMARK H PARENT
REMARK Flexibility Score: inf
ROOT
ATOM      1  C   UNL     1      19.965  12.063 -16.323  1.00  0.00     0.000 C 
ENDROOT
BRANCH   1   2
ATOM      2  C   UNL     1      18.871  11.059 -16.707  1.00  0.00     0.006 C 
BRANCH   2   3
ATOM      3  C   UNL     1      17.582  11.778 -17.112  1.00  0.00     0.053 C 
BRANCH   3   4
ATOM      4  C   UNL     1      17.320  11.599 -18.574  1.00  0.00     0.041 C 
ATOM      5  O   UNL     1      16.518  12.364 -19.173  1.00  0.00    -0.550 OA
ATOM      6  O   UNL     1      17.997  10.617 -19.287  1.00  0.00    -0.550 OA
ENDBRANCH   3   4
ENDBRANCH   2   3
ENDBRANCH   1   2
BRANCH   1   7
ATOM      7  C   UNL     1      19.382  13.233 -15.522  1.00  0.00     0.000 C 
BRANCH   7   8
ATOM      8  C   UNL     1      20.216  14.507 -15.725  1.00  0.00    -0.000 C 
BRANCH   8   9
ATOM      9  C   UNL     1      21.536  14.237 -16.464  1.00  0.00    -0.003 C 
ATOM     10  C   UNL     1      22.295  15.518 -16.805  1.00  0.00     0.004 C 
ENDBRANCH   8   9
ENDBRANCH   7   8
ENDBRANCH   1   7
TORSDOF 6
ENDMDL
MODEL 8
REMARK VINA RESULT:    -3.190      1.574      2.205
REMARK INTER + INTRA:          -4.685
REMARK INTER:                  -4.198
REMARK INTRA:                  -0.487
REMARK UNBOUND:                -0.376
REMARK SMILES CCCCCCCC(=O)[O-]
REMARK SMILES IDX 5 1 6 2 7 3 8 4 9 5 10 6 4 7 3 8 2 9 1 10
REMARK H PARENT
REMARK Flexibility Score: inf
ROOT
ATOM      1  C   UNL     1      19.655  14.662 -16.861  1.00  0.00     0.000 C 
ENDROOT
BRANCH   1   2
ATOM      2  C   UNL     1      19.688  13.519 -15.839  1.00  0.00     0.006 C 
BRANCH   2   3
ATOM      3  C   UNL     1      20.120  12.206 -16.497  1.00  0.00     0.053 C 
BRANCH   3   4
ATOM      4  C   UNL     1      18.983  11.235 -16.525  1.00  0.00     0.041 C 
ATOM      5  O   UNL     1      19.207   9.996 -16.508  1.00  0.00    -0.550 OA
ATOM      6  O   UNL     1      17.673  11.698 -16.523  1.00  0.00    -0.550 OA
ENDBRANCH   3   4
ENDBRANCH   2   3
ENDBRANCH   1   2
BRANCH   1   7
ATOM      7  C   UNL     1      20.505  15.848 -16.389  1.00  0.00     0.000 C 
BRANCH   7   8
ATOM      8  C   UNL     1      22.000  15.499 -16.421  1.00  0.00    -0.000 C 
BRANCH   8   9
ATOM      9  C   UNL     1      22.522  15.267 -17.848  1.00  0.00    -0.003 C 
ATOM     10  C   UNL     1      23.153  13.888 -18.030  1.00  0.00     0.004 C 
ENDBRANCH   8   9
ENDBRANCH   7   8
ENDBRANCH   1   7
TORSDOF 6
ENDMDL
MODEL 9
REMARK VINA RESULT:    -3.174      3.078      4.370
REMARK INTER + INTRA:          -4.663
REMARK INTER:                  -4.395
REMARK INTRA:                  -0.268
REMARK UNBOUND:                -0.376
REMARK SMILES CCCCCCCC(=O)[O-]
REMARK SMILES IDX 5 1 6 2 7 3 8 4 9 5 10 6 4 7 3 8 2 9 1 10
REMARK H PARENT
REMARK Flexibility Score: inf
ROOT
ATOM      1  C   UNL     1      18.224  11.227 -16.865  1.00  0.00     0.000 C 
ENDROOT
BRANCH   1   2
ATOM      2  C   UNL     1      19.484  10.359 -16.765  1.00  0.00     0.006 C 
BRANCH   2   3
ATOM      3  C   UNL     1      19.129   8.916 -16.395  1.00  0.00     0.053 C 
BRANCH   3   4
ATOM      4  C   UNL     1      19.706   7.962 -17.393  1.00  0.00     0.041 C 
ATOM      5  O   UNL     1      20.185   6.861 -17.013  1.00  0.00    -0.550 OA
ATOM      6  O   UNL     1      19.673   8.269 -18.748  1.00  0.00    -0.550 OA
ENDBRANCH   3   4
ENDBRANCH   2   3
ENDBRANCH   1   2
BRANCH   1   7
ATOM      7  C   UNL     1      18.579  12.718 -16.843  1.00  0.00     0.000 C 
BRANCH   7   8
ATOM      8  C   UNL     1      19.379  13.073 -15.580  1.00  0.00    -0.000 C 
BRANCH   8   9
ATOM      9  C   UNL     1      20.082  14.435 -15.690  1.00  0.00    -0.003 C 
ATOM     10  C   UNL     1      21.424  14.351 -16.415  1.00  0.00     0.004 C 
ENDBRANCH   8   9
ENDBRANCH   7   8
ENDBRANCH   1   7
TORSDOF 6
ENDMDL
