MODEL 1
REMARK VINA RESULT:    -3.942      0.000      0.000
REMARK INTER + INTRA:          -6.872
REMARK INTER:                  -6.016
REMARK INTRA:                  -0.856
REMARK UNBOUND:                -0.856
REMARK SMILES CCCCCCCCCCC(=O)[O-]
REMARK SMILES IDX 7 1 8 2 9 3 10 4 11 5 12 6 13 7 6 8 5 9 4 10 3 11 2 12 1 13
REMARK H PARENT
REMARK Flexibility Score: inf
ROOT
ATOM      1  C   UNL     1      -9.438   3.168   5.434  1.00  0.00     0.000 C 
ENDROOT
BRANCH   1   2
ATOM      2  C   UNL     1      -8.424   2.749   6.510  1.00  0.00     0.000 C 
BRANCH   2   3
ATOM      3  C   UNL     1      -7.032   2.452   5.929  1.00  0.00     0.006 C 
BRANCH   3   4
ATOM      4  C   UNL     1      -5.903   3.099   6.741  1.00  0.00     0.053 C 
BRANCH   4   5
ATOM      5  C   UNL     1      -5.119   2.053   7.469  1.00  0.00     0.041 C 
ATOM      6  O   UNL     1      -5.362   1.806   8.680  1.00  0.00    -0.550 OA
ATOM      7  O   UNL     1      -4.152   1.316   6.798  1.00  0.00    -0.550 OA
ENDBRANCH   4   5
ENDBRANCH   3   4
ENDBRANCH   2   3
ENDBRANCH   1   2
BRANCH   1   8
ATOM      8  C   UNL     1     -10.814   2.550   5.709  1.00  0.00     0.000 C 
BRANCH   8   9
ATOM      9  C   UNL     1     -11.037   1.301   4.847  1.00  0.00    -0.000 C 
BRANCH   9  10
ATOM     10  C   UNL     1     -10.932   0.025   5.690  1.00  0.00    -0.000 C 
BRANCH  10  11
ATOM     11  C   UNL     1      -9.604  -0.697   5.432  1.00  0.00    -0.000 C 
BRANCH  11  12
ATOM     12  C   UNL     1      -9.461  -1.073   3.951  1.00  0.00    -0.003 C 
ATOM     13  C   UNL     1      -8.240  -0.402   3.328  1.00  0.00     0.004 C 
ENDBRANCH  11  12
ENDBRANCH  10  11
ENDBRANCH   9  10
ENDBRANCH   8   9
ENDBRANCH   1   8
TORSDOF 9
ENDMDL
MODEL 2
REMARK VINA RESULT:    -3.916      1.427      2.066
REMARK INTER + INTRA:          -6.832
REMARK INTER:                  -5.751
REMARK INTRA:                  -1.081
REMARK UNBOUND:                -0.856
REMARK SMILES CCCCCCCCCCC(=O)[O-]
REMARK SMILES IDX 7 1 8 2 9 3 10 4 11 5 12 6 13 7 6 8 5 9 4 10 3 11 2 12 1 13
REMARK H PARENT
REMARK Flexibility Score: inf
ROOT
ATOM      1  C   UNL     1     -10.937   3.130   6.510  1.00  0.00     0.000 C 
ENDROOT
BRANCH   1   2
ATOM      2  C   UNL     1     -10.404   3.477   5.112  1.00  0.00     0.000 C 
BRANCH   2   3
ATOM      3  C   UNL     1      -8.914   3.853   5.123  1.00  0.00     0.006 C 
BRANCH   3   4
ATOM      4  C   UNL     1      -8.239   3.553   6.468  1.00  0.00     0.053 C 
BRANCH   4   5
ATOM      5  C   UNL     1      -7.322   2.378   6.341  1.00  0.00     0.041 C 
ATOM      6  O   UNL     1      -6.878   2.038   5.213  1.00  0.00    -0.550 OA
ATOM      7  O   UNL     1      -6.919   1.686   7.476  1.00  0.00    -0.550 OA
ENDBRANCH   4   5
ENDBRANCH   3   4
ENDBRANCH   2   3
ENDBRANCH   1   2
BRANCH   1   8
ATOM      8  C   UNL     1     -12.071   2.100   6.423  1.00  0.00     0.000 C 
BRANCH   8   9
ATOM      9  C   UNL     1     -11.664   0.906   5.552  1.00  0.00    -0.000 C 
BRANCH   9  10
ATOM     10  C   UNL     1     -10.828  -0.099   6.353  1.00  0.00    -0.000 C 
BRANCH  10  11
ATOM     11  C   UNL     1      -9.830  -0.831   5.448  1.00  0.00    -0.000 C 
BRANCH  11  12
ATOM     12  C   UNL     1      -9.653  -0.093   4.115  1.00  0.00    -0.003 C 
ATOM     13  C   UNL     1      -8.353  -0.500   3.427  1.00  0.00     0.004 C 
ENDBRANCH  11  12
ENDBRANCH  10  11
ENDBRANCH   9  10
ENDBRANCH   8   9
ENDBRANCH   1   8
TORSDOF 9
ENDMDL
MODEL 3
REMARK VINA RESULT:    -3.750     12.478     13.960
REMARK INTER + INTRA:          -6.579
REMARK INTER:                  -5.380
REMARK INTRA:                  -1.199
REMARK UNBOUND:                -0.856
REMARK SMILES CCCCCCCCCCC(=O)[O-]
REMARK SMILES IDX 7 1 8 2 9 3 10 4 11 5 12 6 13 7 6 8 5 9 4 10 3 11 2 12 1 13
REMARK H PARENT
REMARK Flexibility Score: inf
ROOT
ATOM      1  C   UNL     1      -0.837 -12.612   7.307  1.00  0.00     0.000 C 
ENDROOT
BRANCH   1   2
ATOM      2  C   UNL     1       0.086 -11.826   6.362  1.00  0.00     0.000 C 
BRANCH   2   3
ATOM      3  C   UNL     1       1.109 -10.963   7.117  1.00  0.00     0.006 C 
BRANCH   3   4
ATOM      4  C   UNL     1       0.544 -10.378   8.417  1.00  0.00     0.053 C 
BRANCH   4   5
ATOM      5  C   UNL     1       0.726  -8.893   8.444  1.00  0.00     0.041 C 
ATOM      6  O   UNL     1       1.148  -8.287   7.425  1.00  0.00    -0.550 OA
ATOM      7  O   UNL     1       0.383  -8.172   9.580  1.00  0.00    -0.550 OA
ENDBRANCH   4   5
ENDBRANCH   3   4
ENDBRANCH   2   3
ENDBRANCH   1   2
BRANCH   1   8
ATOM      8  C   UNL     1      -2.260 -12.692   6.740  1.00  0.00     0.000 C 
BRANCH   8   9
ATOM      9  C   UNL     1      -2.704 -11.337   6.175  1.00  0.00    -0.000 C 
BRANCH   9  10
ATOM     10  C   UNL     1      -3.446 -10.515   7.235  1.00  0.00    -0.000 C 
BRANCH  10  11
ATOM     11  C   UNL     1      -2.778  -9.150   7.441  1.00  0.00    -0.000 C 
BRANCH  11  12
ATOM     12  C   UNL     1      -2.122  -8.658   6.145  1.00  0.00    -0.003 C 
ATOM     13  C   UNL     1      -2.679  -7.300   5.726  1.00  0.00     0.004 C 
ENDBRANCH  11  12
ENDBRANCH  10  11
ENDBRANCH   9  10
ENDBRANCH   8   9
ENDBRANCH   1   8
TORSDOF 9
ENDMDL
MODEL 4
REMARK VINA RESULT:    -3.747     13.221     14.747
REMARK INTER + INTRA:          -6.575
REMARK INTER:                  -5.360
REMARK INTRA:                  -1.215
REMARK UNBOUND:                -0.856
REMARK SMILES CCCCCCCCCCC(=O)[O-]
REMARK SMILES IDX 7 1 8 2 9 3 10 4 11 5 12 6 13 7 6 8 5 9 4 10 3 11 2 12 1 13
REMARK H PARENT
REMARK Flexibility Score: inf
ROOT
ATOM      1  C   UNL     1      -2.308 -11.898   7.026  1.00  0.00     0.000 C 
ENDROOT
BRANCH   1   2
ATOM      2  C   UNL     1      -1.723 -12.069   5.616  1.00  0.00     0.000 C 
BRANCH   2   3
ATOM      3  C   UNL     1      -0.219 -11.758   5.557  1.00  0.00     0.006 C 
BRANCH   3   4
ATOM      4  C   UNL     1       0.633 -12.831   6.246  1.00  0.00     0.053 C 
BRANCH   4   5
ATOM      5  C   UNL     1       1.469 -12.220   7.326  1.00  0.00     0.041 C 
ATOM      6  O   UNL     1       2.678 -11.940   7.111  1.00  0.00    -0.550 OA
ATOM      7  O   UNL     1       0.901 -11.914   8.555  1.00  0.00    -0.550 OA
ENDBRANCH   4   5
ENDBRANCH   3   4
ENDBRANCH   2   3
ENDBRANCH   1   2
BRANCH   1   8
ATOM      8  C   UNL     1      -3.331 -10.755   7.059  1.00  0.00     0.000 C 
BRANCH   8   9
ATOM      9  C   UNL     1      -2.833  -9.597   7.933  1.00  0.00    -0.000 C 
BRANCH   9  10
ATOM     10  C   UNL     1      -2.613  -8.332   7.095  1.00  0.00    -0.000 C 
BRANCH  10  11
ATOM     11  C   UNL     1      -1.204  -8.309   6.492  1.00  0.00    -0.000 C 
BRANCH  11  12
ATOM     12  C   UNL     1      -0.148  -8.655   7.549  1.00  0.00    -0.003 C 
ATOM     13  C   UNL     1       1.256  -8.639   6.951  1.00  0.00     0.004 C 
ENDBRANCH  11  12
ENDBRANCH  10  11
ENDBRANCH   9  10
ENDBRANCH   8   9
ENDBRANCH   1   8
TORSDOF 9
ENDMDL
MODEL 5
REMARK VINA RESULT:    -3.723      2.434      3.335
REMARK INTER + INTRA:          -6.538
REMARK INTER:                  -5.548
REMARK INTRA:                  -0.990
REMARK UNBOUND:                -0.856
REMARK SMILES CCCCCCCCCCC(=O)[O-]
REMARK SMILES IDX 7 1 8 2 9 3 10 4 11 5 12 6 13 7 6 8 5 9 4 10 3 11 2 12 1 13
REMARK H PARENT
REMARK Flexibility Score: inf
ROOT
ATOM      1  C   UNL     1     -12.950   0.700   7.847  1.00  0.00     0.000 C 
ENDROOT
BRANCH   1   2
ATOM      2  C   UNL     1     -11.858   1.579   8.475  1.00  0.00     0.000 C 
BRANCH   2   3
ATOM      3  C   UNL     1     -10.750   0.755   9.150  1.00  0.00     0.006 C 
BRANCH   3   4
ATOM      4  C   UNL     1      -9.399   1.481   9.163  1.00  0.00     0.053 C 
BRANCH   4   5
ATOM      5  C   UNL     1      -8.428   0.794   8.255  1.00  0.00     0.041 C 
ATOM      6  O   UNL     1      -7.773   1.456   7.408  1.00  0.00    -0.550 OA
ATOM      7  O   UNL     1      -8.211  -0.572   8.377  1.00  0.00    -0.550 OA
ENDBRANCH   4   5
ENDBRANCH   3   4
ENDBRANCH   2   3
ENDBRANCH   1   2
BRANCH   1   8
ATOM      8  C   UNL     1     -12.569   0.289   6.419  1.00  0.00     0.000 C 
BRANCH   8   9
ATOM      9  C   UNL     1     -11.733   1.380   5.738  1.00  0.00    -0.000 C 
BRANCH   9  10
ATOM     10  C   UNL     1     -10.492   0.782   5.065  1.00  0.00    -0.000 C 
BRANCH  10  11
ATOM     11  C   UNL     1     -10.296  -0.683   5.473  1.00  0.00    -0.000 C 
BRANCH  11  12
ATOM     12  C   UNL     1      -9.365  -1.408   4.493  1.00  0.00    -0.003 C 
ATOM     13  C   UNL     1      -8.684  -0.422   3.548  1.00  0.00     0.004 C 
ENDBRANCH  11  12
ENDBRANCH  10  11
ENDBRANCH   9  10
ENDBRANCH   8   9
ENDBRANCH   1   8
TORSDOF 9
ENDMDL
MODEL 6
REMARK VINA RESULT:    -3.711     12.546     13.748
REMARK INTER + INTRA:          -6.520
REMARK INTER:                  -5.451
REMARK INTRA:                  -1.069
REMARK UNBOUND:                -0.856
REMARK SMILES CCCCCCCCCCC(=O)[O-]
REMARK SMILES IDX 7 1 8 2 9 3 10 4 11 5 12 6 13 7 6 8 5 9 4 10 3 11 2 12 1 13
REMARK H PARENT
REMARK Flexibility Score: inf
ROOT
ATOM      1  C   UNL     1      -2.794  -8.467   7.208  1.00  0.00     0.000 C 
ENDROOT
BRANCH   1   2
ATOM      2  C   UNL     1      -1.606  -8.237   6.261  1.00  0.00     0.000 C 
BRANCH   2   3
ATOM      3  C   UNL     1      -0.446  -9.212   6.519  1.00  0.00     0.006 C 
BRANCH   3   4
ATOM      4  C   UNL     1       0.707  -8.565   7.296  1.00  0.00     0.053 C 
BRANCH   4   5
ATOM      5  C   UNL     1       0.728  -9.062   8.708  1.00  0.00     0.041 C 
ATOM      6  O   UNL     1       1.116 -10.232   8.962  1.00  0.00    -0.550 OA
ATOM      7  O   UNL     1       0.365  -8.216   9.747  1.00  0.00    -0.550 OA
ENDBRANCH   4   5
ENDBRANCH   3   4
ENDBRANCH   2   3
ENDBRANCH   1   2
BRANCH   1   8
ATOM      8  C   UNL     1      -2.726  -9.861   7.844  1.00  0.00     0.000 C 
BRANCH   8   9
ATOM      9  C   UNL     1      -3.659 -10.840   7.122  1.00  0.00    -0.000 C 
BRANCH   9  10
ATOM     10  C   UNL     1      -2.860 -11.946   6.421  1.00  0.00    -0.000 C 
BRANCH  10  11
ATOM     11  C   UNL     1      -1.818 -12.556   7.367  1.00  0.00    -0.000 C 
BRANCH  11  12
ATOM     12  C   UNL     1      -0.542 -12.936   6.607  1.00  0.00    -0.003 C 
ATOM     13  C   UNL     1      -0.653 -12.577   5.128  1.00  0.00     0.004 C 
ENDBRANCH  11  12
ENDBRANCH  10  11
ENDBRANCH   9  10
ENDBRANCH   8   9
ENDBRANCH   1   8
TORSDOF 9
ENDMDL
MODEL 7
REMARK VINA RESULT:    -3.683      2.405      2.683
REMARK INTER + INTRA:          -6.477
REMARK INTER:                  -5.576
REMARK INTRA:                  -0.902
REMARK UNBOUND:                -0.856
REMARK SMILES CCCCCCCCCCC(=O)[O-]
REMARK SMILES IDX 7 1 8 2 9 3 10 4 11 5 12 6 13 7 6 8 5 9 4 10 3 11 2 12 1 13
REMARK H PARENT
REMARK Flexibility Score: inf
ROOT
ATOM      1  C   UNL     1      -9.842   2.132   7.652  1.00  0.00     0.000 C 
ENDROOT
BRANCH   1   2
ATOM      2  C   UNL     1      -8.368   1.710   7.555  1.00  0.00     0.000 C 
BRANCH   2   3
ATOM      3  C   UNL     1      -7.460   2.841   7.046  1.00  0.00     0.006 C 
BRANCH   3   4
ATOM      4  C   UNL     1      -7.173   2.738   5.543  1.00  0.00     0.053 C 
BRANCH   4   5
ATOM      5  C   UNL     1      -7.529   4.018   4.855  1.00  0.00     0.041 C 
ATOM      6  O   UNL     1      -8.491   4.716   5.271  1.00  0.00    -0.550 OA
ATOM      7  O   UNL     1      -6.768   4.466   3.783  1.00  0.00    -0.550 OA
ENDBRANCH   4   5
ENDBRANCH   3   4
ENDBRANCH   2   3
ENDBRANCH   1   2
BRANCH   1   8
ATOM      8  C   UNL     1     -10.771   0.958   7.321  1.00  0.00     0.000 C 
BRANCH   8   9
ATOM      9  C   UNL     1     -11.530   1.209   6.013  1.00  0.00    -0.000 C 
BRANCH   9  10
ATOM     10  C   UNL     1     -10.733   0.697   4.807  1.00  0.00    -0.000 C 
BRANCH  10  11
ATOM     11  C   UNL     1      -9.983  -0.595   5.152  1.00  0.00    -0.000 C 
BRANCH  11  12
ATOM     12  C   UNL     1      -9.319  -1.195   3.906  1.00  0.00    -0.003 C 
ATOM     13  C   UNL     1      -8.192  -0.300   3.397  1.00  0.00     0.004 C 
ENDBRANCH  11  12
ENDBRANCH  10  11
ENDBRANCH   9  10
ENDBRANCH   8   9
ENDBRANCH   1   8
TORSDOF 9
ENDMDL
MODEL 8
REMARK VINA RESULT:    -3.573      2.486      4.663
REMARK INTER + INTRA:          -6.310
REMARK INTER:                  -5.093
REMARK INTRA:                  -1.216
REMARK UNBOUND:                -0.856
REMARK SMILES CCCCCCCCCCC(=O)[O-]
REMARK SMILES IDX 7 1 8 2 9 3 10 4 11 5 12 6 13 7 6 8 5 9 4 10 3 11 2 12 1 13
REMARK H PARENT
REMARK Flexibility Score: inf
ROOT
ATOM      1  C   UNL     1     -10.476   3.403   4.755  1.00  0.00     0.000 C 
ENDROOT
BRANCH   1   2
ATOM      2  C   UNL     1     -11.012   2.475   5.856  1.00  0.00     0.000 C 
BRANCH   2   3
ATOM      3  C   UNL     1     -10.407   1.063   5.788  1.00  0.00     0.006 C 
BRANCH   3   4
ATOM      4  C   UNL     1     -10.078   0.631   4.353  1.00  0.00     0.053 C 
BRANCH   4   5
ATOM      5  C   UNL     1      -9.041  -0.447   4.359  1.00  0.00     0.041 C 
ATOM      6  O   UNL     1      -8.030  -0.359   3.613  1.00  0.00    -0.550 OA
ATOM      7  O   UNL     1      -9.166  -1.527   5.223  1.00  0.00    -0.550 OA
ENDBRANCH   4   5
ENDBRANCH   3   4
ENDBRANCH   2   3
ENDBRANCH   1   2
BRANCH   1   8
ATOM      8  C   UNL     1      -9.929   4.705   5.354  1.00  0.00     0.000 C 
BRANCH   8   9
ATOM      9  C   UNL     1      -8.476   4.532   5.810  1.00  0.00    -0.000 C 
BRANCH   9  10
ATOM     10  C   UNL     1      -7.662   3.750   4.773  1.00  0.00    -0.000 C 
BRANCH  10  11
ATOM     11  C   UNL     1      -6.939   2.563   5.421  1.00  0.00    -0.000 C 
BRANCH  11  12
ATOM     12  C   UNL     1      -7.229   2.497   6.925  1.00  0.00    -0.003 C 
ATOM     13  C   UNL     1      -5.940   2.574   7.739  1.00  0.00     0.004 C 
ENDBRANCH  11  12
ENDBRANCH  10  11
ENDBRANCH   9  10
ENDBRANCH   8   9
ENDBRANCH   1   8
TORSDOF 9
ENDMDL
MODEL 9
REMARK VINA RESULT:    -3.569     13.840     15.188
REMARK INTER + INTRA:          -6.302
REMARK INTER:                  -5.704
REMARK INTRA:                  -0.598
REMARK UNBOUND:                -0.856
REMARK SMILES CCCCCCCCCCC(=O)[O-]
REMARK SMILES IDX 7 1 8 2 9 3 10 4 11 5 12 6 13 7 6 8 5 9 4 10 3 11 2 12 1 13
REMARK H PARENT
REMARK Flexibility Score: inf
ROOT
ATOM      1  C   UNL     1      -2.084 -10.418   5.778  1.00  0.00     0.000 C 
ENDROOT
BRANCH   1   2
ATOM      2  C   UNL     1      -2.776  -9.789   6.997  1.00  0.00     0.000 C 
BRANCH   2   3
ATOM      3  C   UNL     1      -1.903  -8.733   7.695  1.00  0.00     0.006 C 
BRANCH   3   4
ATOM      4  C   UNL     1      -0.594  -8.459   6.944  1.00  0.00     0.053 C 
BRANCH   4   5
ATOM      5  C   UNL     1       0.581  -8.716   7.833  1.00  0.00     0.041 C 
ATOM      6  O   UNL     1       0.597  -8.267   9.009  1.00  0.00    -0.550 OA
ATOM      7  O   UNL     1       1.638  -9.494   7.380  1.00  0.00    -0.550 OA
ENDBRANCH   4   5
ENDBRANCH   3   4
ENDBRANCH   2   3
ENDBRANCH   1   2
BRANCH   1   8
ATOM      8  C   UNL     1      -1.579 -11.829   6.102  1.00  0.00     0.000 C 
BRANCH   8   9
ATOM      9  C   UNL     1      -0.168 -12.050   5.544  1.00  0.00    -0.000 C 
BRANCH   9  10
ATOM     10  C   UNL     1       0.489 -13.281   6.181  1.00  0.00    -0.000 C 
BRANCH  10  11
ATOM     11  C   UNL     1       1.822 -12.913   6.843  1.00  0.00    -0.000 C 
BRANCH  11  12
ATOM     12  C   UNL     1       2.999 -13.567   6.109  1.00  0.00    -0.003 C 
ATOM     13  C   UNL     1       2.523 -14.688   5.190  1.00  0.00     0.004 C 
ENDBRANCH  11  12
ENDBRANCH  10  11
ENDBRANCH   9  10
ENDBRANCH   8   9
ENDBRANCH   1   8
TORSDOF 9
ENDMDL
