MODEL 1
REMARK VINA RESULT:    -5.894      0.000      0.000
REMARK INTER + INTRA:          -5.894
REMARK INTER:                  -5.894
REMARK INTRA:                   0.000
REMARK UNBOUND:                 0.000
REMARK SMILES C=C1CCC[C@@]2(C)CC(=O)C(=C(C)C)C[C@H]12
REMARK SMILES IDX 13 1 12 2 11 3 15 4 16 5 2 6 1 7 3 8 4 9 5 10 6 11 8 12 9 13
REMARK SMILES IDX 10 14 7 15 14 16
REMARK H PARENT
REMARK Flexibility Score: inf
ROOT
ATOM      1  C   UNL     1      18.986  20.088  33.432  1.00  0.00     0.039 C 
ATOM      2  C   UNL     1      18.383  21.077  32.461  1.00  0.00    -0.070 C 
ATOM      3  C   UNL     1      17.895  22.285  32.873  1.00  0.00    -0.006 C 
ATOM      4  C   UNL     1      17.237  23.246  31.891  1.00  0.00     0.047 C 
ATOM      5  C   UNL     1      16.145  24.123  32.552  1.00  0.00     0.025 C 
ATOM      6  C   UNL     1      15.475  25.136  31.623  1.00  0.00    -0.073 C 
ATOM      7  C   UNL     1      15.792  25.291  30.323  1.00  0.00     0.008 C 
ATOM      8  C   UNL     1      14.365  25.964  32.226  1.00  0.00     0.031 C 
ATOM      9  C   UNL     1      14.848  26.650  33.507  1.00  0.00     0.005 C 
ATOM     10  C   UNL     1      15.487  25.645  34.482  1.00  0.00     0.008 C 
ATOM     11  C   UNL     1      16.655  24.833  33.845  1.00  0.00    -0.018 C 
ATOM     12  C   UNL     1      17.101  23.753  34.860  1.00  0.00     0.088 C 
ATOM     13  C   UNL     1      18.086  22.788  34.265  1.00  0.00     0.159 C 
ATOM     14  O   UNL     1      19.073  22.430  34.961  1.00  0.00    -0.295 OA
ATOM     15  C   UNL     1      17.849  25.784  33.550  1.00  0.00     0.012 C 
ATOM     16  C   UNL     1      18.310  20.654  31.011  1.00  0.00     0.039 C 
ENDROOT
TORSDOF 0
ENDMDL
MODEL 2
REMARK VINA RESULT:    -5.412      1.416      1.934
REMARK INTER + INTRA:          -5.412
REMARK INTER:                  -5.412
REMARK INTRA:                   0.000
REMARK UNBOUND:                 0.000
REMARK SMILES C=C1CCC[C@@]2(C)CC(=O)C(=C(C)C)C[C@H]12
REMARK SMILES IDX 13 1 12 2 11 3 15 4 16 5 2 6 1 7 3 8 4 9 5 10 6 11 8 12 9 13
REMARK SMILES IDX 10 14 7 15 14 16
REMARK H PARENT
REMARK Flexibility Score: inf
ROOT
ATOM      1  C   UNL     1      18.374  21.569  33.251  1.00  0.00     0.039 C 
ATOM      2  C   UNL     1      17.399  22.375  32.424  1.00  0.00    -0.070 C 
ATOM      3  C   UNL     1      16.656  23.386  32.968  1.00  0.00    -0.006 C 
ATOM      4  C   UNL     1      15.635  24.150  32.136  1.00  0.00     0.047 C 
ATOM      5  C   UNL     1      14.442  24.667  32.977  1.00  0.00     0.025 C 
ATOM      6  C   UNL     1      13.402  25.476  32.201  1.00  0.00    -0.073 C 
ATOM      7  C   UNL     1      13.488  25.749  30.885  1.00  0.00     0.008 C 
ATOM      8  C   UNL     1      12.199  25.942  32.985  1.00  0.00     0.031 C 
ATOM      9  C   UNL     1      12.640  26.700  34.240  1.00  0.00     0.005 C 
ATOM     10  C   UNL     1      13.655  25.890  35.065  1.00  0.00     0.008 C 
ATOM     11  C   UNL     1      14.905  25.456  34.242  1.00  0.00    -0.018 C 
ATOM     12  C   UNL     1      15.762  24.517  35.125  1.00  0.00     0.088 C 
ATOM     13  C   UNL     1      16.885  23.884  34.356  1.00  0.00     0.159 C 
ATOM     14  O   UNL     1      18.017  23.798  34.904  1.00  0.00    -0.295 OA
ATOM     15  C   UNL     1      15.741  26.711  33.866  1.00  0.00     0.012 C 
ATOM     16  C   UNL     1      17.252  21.988  30.970  1.00  0.00     0.039 C 
ENDROOT
TORSDOF 0
ENDMDL
MODEL 3
REMARK VINA RESULT:    -5.085      2.061      4.763
REMARK INTER + INTRA:          -5.085
REMARK INTER:                  -5.085
REMARK INTRA:                   0.000
REMARK UNBOUND:                 0.000
REMARK SMILES C=C1CCC[C@@]2(C)CC(=O)C(=C(C)C)C[C@H]12
REMARK SMILES IDX 13 1 12 2 11 3 15 4 16 5 2 6 1 7 3 8 4 9 5 10 6 11 8 12 9 13
REMARK SMILES IDX 10 14 7 15 14 16
REMARK H PARENT
REMARK Flexibility Score: inf
ROOT
ATOM      1  C   UNL     1      16.172  27.764  30.041  1.00  0.00     0.039 C 
ATOM      2  C   UNL     1      16.119  26.267  30.240  1.00  0.00    -0.070 C 
ATOM      3  C   UNL     1      16.506  25.682  31.414  1.00  0.00    -0.006 C 
ATOM      4  C   UNL     1      16.503  24.169  31.579  1.00  0.00     0.047 C 
ATOM      5  C   UNL     1      17.590  23.671  32.562  1.00  0.00     0.025 C 
ATOM      6  C   UNL     1      17.611  22.160  32.799  1.00  0.00    -0.073 C 
ATOM      7  C   UNL     1      16.755  21.295  32.221  1.00  0.00     0.008 C 
ATOM      8  C   UNL     1      18.699  21.641  33.708  1.00  0.00     0.031 C 
ATOM      9  C   UNL     1      18.683  22.392  35.042  1.00  0.00     0.005 C 
ATOM     10  C   UNL     1      18.707  23.916  34.836  1.00  0.00     0.008 C 
ATOM     11  C   UNL     1      17.550  24.429  33.926  1.00  0.00    -0.018 C 
ATOM     12  C   UNL     1      17.777  25.937  33.661  1.00  0.00     0.088 C 
ATOM     13  C   UNL     1      16.828  26.481  32.632  1.00  0.00     0.159 C 
ATOM     14  O   UNL     1      16.308  27.611  32.831  1.00  0.00    -0.295 OA
ATOM     15  C   UNL     1      16.191  24.235  34.655  1.00  0.00     0.012 C 
ATOM     16  C   UNL     1      15.654  25.436  29.066  1.00  0.00     0.039 C 
ENDROOT
TORSDOF 0
ENDMDL
MODEL 4
REMARK VINA RESULT:    -4.969      5.721      8.626
REMARK INTER + INTRA:          -4.969
REMARK INTER:                  -4.969
REMARK INTRA:                   0.000
REMARK UNBOUND:                 0.000
REMARK SMILES C=C1CCC[C@@]2(C)CC(=O)C(=C(C)C)C[C@H]12
REMARK SMILES IDX 13 1 12 2 11 3 15 4 16 5 2 6 1 7 3 8 4 9 5 10 6 11 8 12 9 13
REMARK SMILES IDX 10 14 7 15 14 16
REMARK H PARENT
REMARK Flexibility Score: inf
ROOT
ATOM      1  C   UNL     1       9.745  30.230  28.575  1.00  0.00     0.039 C 
ATOM      2  C   UNL     1      10.310  30.064  29.966  1.00  0.00    -0.070 C 
ATOM      3  C   UNL     1      10.899  28.899  30.371  1.00  0.00    -0.006 C 
ATOM      4  C   UNL     1      11.411  28.726  31.794  1.00  0.00     0.047 C 
ATOM      5  C   UNL     1      11.339  27.259  32.284  1.00  0.00     0.025 C 
ATOM      6  C   UNL     1      11.876  27.017  33.695  1.00  0.00    -0.073 C 
ATOM      7  C   UNL     1      12.392  27.982  34.480  1.00  0.00     0.008 C 
ATOM      8  C   UNL     1      11.763  25.606  34.220  1.00  0.00     0.031 C 
ATOM      9  C   UNL     1      12.390  24.617  33.232  1.00  0.00     0.005 C 
ATOM     10  C   UNL     1      11.834  24.808  31.810  1.00  0.00     0.008 C 
ATOM     11  C   UNL     1      11.999  26.264  31.278  1.00  0.00    -0.018 C 
ATOM     12  C   UNL     1      11.261  26.369  29.922  1.00  0.00     0.088 C 
ATOM     13  C   UNL     1      11.190  27.783  29.423  1.00  0.00     0.159 C 
ATOM     14  O   UNL     1      11.393  28.000  28.198  1.00  0.00    -0.295 OA
ATOM     15  C   UNL     1      13.508  26.572  31.067  1.00  0.00     0.012 C 
ATOM     16  C   UNL     1      10.162  31.236  30.909  1.00  0.00     0.039 C 
ENDROOT
TORSDOF 0
ENDMDL
MODEL 5
REMARK VINA RESULT:    -4.825      2.308      5.723
REMARK INTER + INTRA:          -4.825
REMARK INTER:                  -4.825
REMARK INTRA:                   0.000
REMARK UNBOUND:                 0.000
REMARK SMILES C=C1CCC[C@@]2(C)CC(=O)C(=C(C)C)C[C@H]12
REMARK SMILES IDX 13 1 12 2 11 3 15 4 16 5 2 6 1 7 3 8 4 9 5 10 6 11 8 12 9 13
REMARK SMILES IDX 10 14 7 15 14 16
REMARK H PARENT
REMARK Flexibility Score: inf
ROOT
ATOM      1  C   UNL     1      12.725  27.920  33.675  1.00  0.00     0.039 C 
ATOM      2  C   UNL     1      14.143  27.645  34.120  1.00  0.00    -0.070 C 
ATOM      3  C   UNL     1      14.845  26.564  33.666  1.00  0.00    -0.006 C 
ATOM      4  C   UNL     1      16.251  26.268  34.170  1.00  0.00     0.047 C 
ATOM      5  C   UNL     1      16.580  24.755  34.174  1.00  0.00     0.025 C 
ATOM      6  C   UNL     1      17.995  24.399  34.633  1.00  0.00    -0.073 C 
ATOM      7  C   UNL     1      18.917  25.307  35.005  1.00  0.00     0.008 C 
ATOM      8  C   UNL     1      18.323  22.927  34.704  1.00  0.00     0.031 C 
ATOM      9  C   UNL     1      18.006  22.245  33.370  1.00  0.00     0.005 C 
ATOM     10  C   UNL     1      16.572  22.550  32.904  1.00  0.00     0.008 C 
ATOM     11  C   UNL     1      16.273  24.076  32.802  1.00  0.00    -0.018 C 
ATOM     12  C   UNL     1      14.767  24.253  32.489  1.00  0.00     0.088 C 
ATOM     13  C   UNL     1      14.336  25.689  32.569  1.00  0.00     0.159 C 
ATOM     14  O   UNL     1      13.553  26.132  31.687  1.00  0.00    -0.295 OA
ATOM     15  C   UNL     1      17.113  24.695  31.650  1.00  0.00     0.012 C 
ATOM     16  C   UNL     1      14.742  28.603  35.125  1.00  0.00     0.039 C 
ENDROOT
TORSDOF 0
ENDMDL
MODEL 6
REMARK VINA RESULT:    -4.594      2.772      5.006
REMARK INTER + INTRA:          -4.594
REMARK INTER:                  -4.594
REMARK INTRA:                   0.000
REMARK UNBOUND:                 0.000
REMARK SMILES C=C1CCC[C@@]2(C)CC(=O)C(=C(C)C)C[C@H]12
REMARK SMILES IDX 13 1 12 2 11 3 15 4 16 5 2 6 1 7 3 8 4 9 5 10 6 11 8 12 9 13
REMARK SMILES IDX 10 14 7 15 14 16
REMARK H PARENT
REMARK Flexibility Score: inf
ROOT
ATOM      1  C   UNL     1      18.683  28.992  29.596  1.00  0.00     0.039 C 
ATOM      2  C   UNL     1      18.079  27.620  29.787  1.00  0.00    -0.070 C 
ATOM      3  C   UNL     1      17.948  27.056  31.025  1.00  0.00    -0.006 C 
ATOM      4  C   UNL     1      17.392  25.649  31.196  1.00  0.00     0.047 C 
ATOM      5  C   UNL     1      17.974  24.920  32.432  1.00  0.00     0.025 C 
ATOM      6  C   UNL     1      17.422  23.515  32.679  1.00  0.00    -0.073 C 
ATOM      7  C   UNL     1      16.491  22.925  31.905  1.00  0.00     0.008 C 
ATOM      8  C   UNL     1      18.016  22.759  33.843  1.00  0.00     0.031 C 
ATOM      9  C   UNL     1      17.933  23.598  35.121  1.00  0.00     0.005 C 
ATOM     10  C   UNL     1      18.523  25.005  34.916  1.00  0.00     0.008 C 
ATOM     11  C   UNL     1      17.864  25.777  33.733  1.00  0.00    -0.018 C 
ATOM     12  C   UNL     1      18.647  27.096  33.524  1.00  0.00     0.088 C 
ATOM     13  C   UNL     1      18.217  27.819  32.279  1.00  0.00     0.159 C 
ATOM     14  O   UNL     1      18.080  29.070  32.327  1.00  0.00    -0.295 OA
ATOM     15  C   UNL     1      16.387  26.107  34.085  1.00  0.00     0.012 C 
ATOM     16  C   UNL     1      17.658  26.878  28.539  1.00  0.00     0.039 C 
ENDROOT
TORSDOF 0
ENDMDL
MODEL 7
REMARK VINA RESULT:    -4.556      6.920     10.253
REMARK INTER + INTRA:          -4.556
REMARK INTER:                  -4.556
REMARK INTRA:                   0.000
REMARK UNBOUND:                 0.000
REMARK SMILES C=C1CCC[C@@]2(C)CC(=O)C(=C(C)C)C[C@H]12
REMARK SMILES IDX 13 1 12 2 11 3 15 4 16 5 2 6 1 7 3 8 4 9 5 10 6 11 8 12 9 13
REMARK SMILES IDX 10 14 7 15 14 16
REMARK H PARENT
REMARK Flexibility Score: inf
ROOT
ATOM      1  C   UNL     1      10.290  29.018  23.370  1.00  0.00     0.039 C 
ATOM      2  C   UNL     1      11.083  29.198  24.644  1.00  0.00    -0.070 C 
ATOM      3  C   UNL     1      12.134  28.383  24.961  1.00  0.00    -0.006 C 
ATOM      4  C   UNL     1      12.885  28.539  26.276  1.00  0.00     0.047 C 
ATOM      5  C   UNL     1      13.466  27.202  26.797  1.00  0.00     0.025 C 
ATOM      6  C   UNL     1      14.266  27.302  28.096  1.00  0.00    -0.073 C 
ATOM      7  C   UNL     1      14.479  28.453  28.762  1.00  0.00     0.008 C 
ATOM      8  C   UNL     1      14.794  26.004  28.658  1.00  0.00     0.031 C 
ATOM      9  C   UNL     1      15.595  25.249  27.594  1.00  0.00     0.005 C 
ATOM     10  C   UNL     1      14.797  25.093  26.287  1.00  0.00     0.008 C 
ATOM     11  C   UNL     1      14.298  26.452  25.709  1.00  0.00    -0.018 C 
ATOM     12  C   UNL     1      13.378  26.153  24.501  1.00  0.00     0.088 C 
ATOM     13  C   UNL     1      12.685  27.386  23.997  1.00  0.00     0.159 C 
ATOM     14  O   UNL     1      12.597  27.560  22.752  1.00  0.00    -0.295 OA
ATOM     15  C   UNL     1      15.516  27.292  25.232  1.00  0.00     0.012 C 
ATOM     16  C   UNL     1      10.637  30.300  25.578  1.00  0.00     0.039 C 
ENDROOT
TORSDOF 0
ENDMDL
MODEL 8
REMARK VINA RESULT:    -4.526      4.013      6.331
REMARK INTER + INTRA:          -4.526
REMARK INTER:                  -4.526
REMARK INTRA:                   0.000
REMARK UNBOUND:                 0.000
REMARK SMILES C=C1CCC[C@@]2(C)CC(=O)C(=C(C)C)C[C@H]12
REMARK SMILES IDX 13 1 12 2 11 3 15 4 16 5 2 6 1 7 3 8 4 9 5 10 6 11 8 12 9 13
REMARK SMILES IDX 10 14 7 15 14 16
REMARK H PARENT
REMARK Flexibility Score: inf
ROOT
ATOM      1  C   UNL     1      16.879  26.494  24.991  1.00  0.00     0.039 C 
ATOM      2  C   UNL     1      16.233  26.135  26.310  1.00  0.00    -0.070 C 
ATOM      3  C   UNL     1      16.731  26.582  27.502  1.00  0.00    -0.006 C 
ATOM      4  C   UNL     1      16.104  26.163  28.825  1.00  0.00     0.047 C 
ATOM      5  C   UNL     1      17.131  26.105  29.982  1.00  0.00     0.025 C 
ATOM      6  C   UNL     1      16.552  25.728  31.346  1.00  0.00    -0.073 C 
ATOM      7  C   UNL     1      15.249  25.469  31.566  1.00  0.00     0.008 C 
ATOM      8  C   UNL     1      17.541  25.605  32.481  1.00  0.00     0.031 C 
ATOM      9  C   UNL     1      18.385  26.877  32.592  1.00  0.00     0.005 C 
ATOM     10  C   UNL     1      19.019  27.257  31.242  1.00  0.00     0.008 C 
ATOM     11  C   UNL     1      17.971  27.415  30.098  1.00  0.00    -0.018 C 
ATOM     12  C   UNL     1      18.737  27.631  28.770  1.00  0.00     0.088 C 
ATOM     13  C   UNL     1      17.825  27.594  27.578  1.00  0.00     0.159 C 
ATOM     14  O   UNL     1      17.999  28.441  26.660  1.00  0.00    -0.295 OA
ATOM     15  C   UNL     1      17.075  28.653  30.381  1.00  0.00     0.012 C 
ATOM     16  C   UNL     1      15.027  25.225  26.255  1.00  0.00     0.039 C 
ENDROOT
TORSDOF 0
ENDMDL
MODEL 9
REMARK VINA RESULT:    -4.326      6.394      9.780
REMARK INTER + INTRA:          -4.326
REMARK INTER:                  -4.326
REMARK INTRA:                   0.000
REMARK UNBOUND:                 0.000
REMARK SMILES C=C1CCC[C@@]2(C)CC(=O)C(=C(C)C)C[C@H]12
REMARK SMILES IDX 13 1 12 2 11 3 15 4 16 5 2 6 1 7 3 8 4 9 5 10 6 11 8 12 9 13
REMARK SMILES IDX 10 14 7 15 14 16
REMARK H PARENT
REMARK Flexibility Score: inf
ROOT
ATOM      1  C   UNL     1       9.301  29.423  27.070  1.00  0.00     0.039 C 
ATOM      2  C   UNL     1      10.405  28.739  27.844  1.00  0.00    -0.070 C 
ATOM      3  C   UNL     1      11.589  28.392  27.256  1.00  0.00    -0.006 C 
ATOM      4  C   UNL     1      12.668  27.651  28.034  1.00  0.00     0.047 C 
ATOM      5  C   UNL     1      13.526  26.727  27.136  1.00  0.00     0.025 C 
ATOM      6  C   UNL     1      14.653  25.985  27.855  1.00  0.00    -0.073 C 
ATOM      7  C   UNL     1      14.917  26.108  29.170  1.00  0.00     0.008 C 
ATOM      8  C   UNL     1      15.468  25.031  27.015  1.00  0.00     0.031 C 
ATOM      9  C   UNL     1      16.006  25.743  25.771  1.00  0.00     0.005 C 
ATOM     10  C   UNL     1      14.885  26.463  25.000  1.00  0.00     0.008 C 
ATOM     11  C   UNL     1      14.086  27.469  25.882  1.00  0.00    -0.018 C 
ATOM     12  C   UNL     1      12.894  28.000  25.048  1.00  0.00     0.088 C 
ATOM     13  C   UNL     1      11.947  28.823  25.873  1.00  0.00     0.159 C 
ATOM     14  O   UNL     1      11.480  29.882  25.375  1.00  0.00    -0.295 OA
ATOM     15  C   UNL     1      15.005  28.659  26.277  1.00  0.00     0.012 C 
ATOM     16  C   UNL     1      10.126  28.420  29.295  1.00  0.00     0.039 C 
ENDROOT
TORSDOF 0
ENDMDL
