MODEL 1
REMARK VINA RESULT:    -5.266      0.000      0.000
REMARK INTER + INTRA:          -6.864
REMARK INTER:                  -6.344
REMARK INTRA:                  -0.520
REMARK UNBOUND:                -0.520
REMARK SMILES CCCCc1oc(O)c2ccccc12
REMARK SMILES IDX 4 1 5 2 7 3 6 4 9 5 14 6 10 7 13 8 11 9 12 10 8 11 3 13 2 14
REMARK SMILES IDX 1 15
REMARK H PARENT 8 12
REMARK Flexibility Score: inf
ROOT
ATOM      1  C   UNL     1       6.106 -14.067  -3.812  1.00  0.00     0.076 C 
ENDROOT
BRANCH   1   2
ATOM      2  C   UNL     1       7.400 -14.550  -4.391  1.00  0.00     0.116 A 
ATOM      3  C   UNL     1       9.378 -15.370  -4.489  1.00  0.00     0.290 A 
ATOM      4  O   UNL     1       8.380 -15.078  -3.678  1.00  0.00    -0.430 OA
ATOM      5  C   UNL     1       9.049 -15.019  -5.778  1.00  0.00     0.066 A 
ATOM      6  C   UNL     1       7.787 -14.494  -5.719  1.00  0.00     0.027 A 
ATOM      7  C   UNL     1       9.755 -15.115  -6.975  1.00  0.00     0.016 A 
ATOM      8  C   UNL     1       7.136 -14.019  -6.858  1.00  0.00     0.012 A 
ATOM      9  C   UNL     1       9.124 -14.647  -8.143  1.00  0.00     0.001 A 
ATOM     10  C   UNL     1       7.821 -14.101  -8.085  1.00  0.00     0.001 A 
BRANCH   3  11
ATOM     11  O   UNL     1      10.578 -15.944  -4.084  1.00  0.00    -0.480 OA
ATOM     12  H   UNL     1      11.373 -15.967  -4.710  1.00  0.00     0.297 HD
ENDBRANCH   3  11
ENDBRANCH   1   2
BRANCH   1  13
ATOM     13  C   UNL     1       5.085 -15.211  -3.759  1.00  0.00     0.008 C 
BRANCH  13  14
ATOM     14  C   UNL     1       4.172 -15.244  -4.994  1.00  0.00    -0.003 C 
ATOM     15  C   UNL     1       3.693 -13.854  -5.410  1.00  0.00     0.004 C 
ENDBRANCH  13  14
ENDBRANCH   1  13
TORSDOF 4
ENDMDL
MODEL 2
REMARK VINA RESULT:    -5.219      2.219      3.107
REMARK INTER + INTRA:          -6.807
REMARK INTER:                  -6.578
REMARK INTRA:                  -0.230
REMARK UNBOUND:                -0.520
REMARK SMILES CCCCc1oc(O)c2ccccc12
REMARK SMILES IDX 4 1 5 2 7 3 6 4 9 5 14 6 10 7 13 8 11 9 12 10 8 11 3 13 2 14
REMARK SMILES IDX 1 15
REMARK H PARENT 8 12
REMARK Flexibility Score: inf
ROOT
ATOM      1  C   UNL     1       5.153 -13.126  -4.875  1.00  0.00     0.076 C 
ENDROOT
BRANCH   1   2
ATOM      2  C   UNL     1       6.257 -14.130  -5.002  1.00  0.00     0.116 A 
ATOM      3  C   UNL     1       7.337 -15.860  -5.663  1.00  0.00     0.290 A 
ATOM      4  O   UNL     1       6.223 -15.171  -5.816  1.00  0.00    -0.430 OA
ATOM      5  C   UNL     1       8.130 -15.258  -4.714  1.00  0.00     0.066 A 
ATOM      6  C   UNL     1       7.443 -14.153  -4.288  1.00  0.00     0.027 A 
ATOM      7  C   UNL     1       9.378 -15.596  -4.197  1.00  0.00     0.016 A 
ATOM      8  C   UNL     1       7.955 -13.304  -3.307  1.00  0.00     0.012 A 
ATOM      9  C   UNL     1       9.924 -14.757  -3.207  1.00  0.00     0.001 A 
ATOM     10  C   UNL     1       9.215 -13.617  -2.764  1.00  0.00     0.001 A 
BRANCH   3  11
ATOM     11  O   UNL     1       7.644 -17.021  -6.362  1.00  0.00    -0.480 OA
ATOM     12  H   UNL     1       8.603 -17.339  -6.431  1.00  0.00     0.297 HD
ENDBRANCH   3  11
ENDBRANCH   1   2
BRANCH   1  13
ATOM     13  C   UNL     1       3.890 -13.629  -5.584  1.00  0.00     0.008 C 
BRANCH  13  14
ATOM     14  C   UNL     1       2.606 -13.308  -4.802  1.00  0.00    -0.003 C 
ATOM     15  C   UNL     1       2.568 -13.980  -3.431  1.00  0.00     0.004 C 
ENDBRANCH  13  14
ENDBRANCH   1  13
TORSDOF 4
ENDMDL
MODEL 3
REMARK VINA RESULT:    -4.971     10.219     11.959
REMARK INTER + INTRA:          -6.508
REMARK INTER:                  -6.272
REMARK INTRA:                  -0.236
REMARK UNBOUND:                -0.520
REMARK SMILES CCCCc1oc(O)c2ccccc12
REMARK SMILES IDX 4 1 5 2 7 3 6 4 9 5 14 6 10 7 13 8 11 9 12 10 8 11 3 13 2 14
REMARK SMILES IDX 1 15
REMARK H PARENT 8 12
REMARK Flexibility Score: inf
ROOT
ATOM      1  C   UNL     1       2.481 -22.626   2.116  1.00  0.00     0.076 C 
ENDROOT
BRANCH   1   2
ATOM      2  C   UNL     1       2.208 -23.546   0.965  1.00  0.00     0.116 A 
ATOM      3  C   UNL     1       1.744 -25.343  -0.107  1.00  0.00     0.290 A 
ATOM      4  O   UNL     1       1.892 -24.822   1.096  1.00  0.00    -0.430 OA
ATOM      5  C   UNL     1       1.975 -24.380  -1.062  1.00  0.00     0.066 A 
ATOM      6  C   UNL     1       2.273 -23.232  -0.381  1.00  0.00     0.027 A 
ATOM      7  C   UNL     1       1.952 -24.429  -2.454  1.00  0.00     0.016 A 
ATOM      8  C   UNL     1       2.576 -22.043  -1.045  1.00  0.00     0.012 A 
ATOM      9  C   UNL     1       2.250 -23.245  -3.154  1.00  0.00     0.001 A 
ATOM     10  C   UNL     1       2.562 -22.057  -2.452  1.00  0.00     0.001 A 
BRANCH   3  11
ATOM     11  O   UNL     1       1.408 -26.669  -0.354  1.00  0.00    -0.480 OA
ATOM     12  H   UNL     1       1.962 -27.420   0.038  1.00  0.00     0.297 HD
ENDBRANCH   3  11
ENDBRANCH   1   2
BRANCH   1  13
ATOM     13  C   UNL     1       1.233 -21.800   2.447  1.00  0.00     0.008 C 
BRANCH  13  14
ATOM     14  C   UNL     1       1.293 -21.176   3.850  1.00  0.00    -0.003 C 
ATOM     15  C   UNL     1       1.199 -19.651   3.821  1.00  0.00     0.004 C 
ENDBRANCH  13  14
ENDBRANCH   1  13
TORSDOF 4
ENDMDL
MODEL 4
REMARK VINA RESULT:    -4.954      1.821      4.448
REMARK INTER + INTRA:          -6.488
REMARK INTER:                  -5.991
REMARK INTRA:                  -0.497
REMARK UNBOUND:                -0.520
REMARK SMILES CCCCc1oc(O)c2ccccc12
REMARK SMILES IDX 4 1 5 2 7 3 6 4 9 5 14 6 10 7 13 8 11 9 12 10 8 11 3 13 2 14
REMARK SMILES IDX 1 15
REMARK H PARENT 8 12
REMARK Flexibility Score: inf
ROOT
ATOM      1  C   UNL     1      10.633 -14.755  -6.615  1.00  0.00     0.076 C 
ENDROOT
BRANCH   1   2
ATOM      2  C   UNL     1       9.955 -14.364  -5.339  1.00  0.00     0.116 A 
ATOM      3  C   UNL     1       9.644 -14.043  -3.242  1.00  0.00     0.290 A 
ATOM      4  O   UNL     1      10.520 -14.437  -4.146  1.00  0.00    -0.430 OA
ATOM      5  C   UNL     1       8.461 -13.705  -3.857  1.00  0.00     0.066 A 
ATOM      6  C   UNL     1       8.655 -13.910  -5.195  1.00  0.00     0.027 A 
ATOM      7  C   UNL     1       7.248 -13.247  -3.347  1.00  0.00     0.016 A 
ATOM      8  C   UNL     1       7.644 -13.675  -6.127  1.00  0.00     0.012 A 
ATOM      9  C   UNL     1       6.208 -12.997  -4.262  1.00  0.00     0.001 A 
ATOM     10  C   UNL     1       6.405 -13.211  -5.646  1.00  0.00     0.001 A 
BRANCH   3  11
ATOM     11  O   UNL     1       9.896 -13.989  -1.876  1.00  0.00    -0.480 OA
ATOM     12  H   UNL     1       9.305 -14.491  -1.225  1.00  0.00     0.297 HD
ENDBRANCH   3  11
ENDBRANCH   1   2
BRANCH   1  13
ATOM     13  C   UNL     1      11.045 -13.506  -7.405  1.00  0.00     0.008 C 
BRANCH  13  14
ATOM     14  C   UNL     1      10.295 -13.379  -8.740  1.00  0.00    -0.003 C 
ATOM     15  C   UNL     1       9.639 -14.689  -9.175  1.00  0.00     0.004 C 
ENDBRANCH  13  14
ENDBRANCH   1  13
TORSDOF 4
ENDMDL
MODEL 5
REMARK VINA RESULT:    -4.861      2.495      3.961
REMARK INTER + INTRA:          -6.376
REMARK INTER:                  -5.853
REMARK INTRA:                  -0.523
REMARK UNBOUND:                -0.520
REMARK SMILES CCCCc1oc(O)c2ccccc12
REMARK SMILES IDX 4 1 5 2 7 3 6 4 9 5 14 6 10 7 13 8 11 9 12 10 8 11 3 13 2 14
REMARK SMILES IDX 1 15
REMARK H PARENT 8 12
REMARK Flexibility Score: inf
ROOT
ATOM      1  C   UNL     1       8.044 -15.406  -4.790  1.00  0.00     0.076 C 
ENDROOT
BRANCH   1   2
ATOM      2  C   UNL     1       8.131 -14.957  -6.216  1.00  0.00     0.116 A 
ATOM      3  C   UNL     1       7.528 -14.500  -8.222  1.00  0.00     0.290 A 
ATOM      4  O   UNL     1       7.102 -14.915  -7.045  1.00  0.00    -0.430 OA
ATOM      5  C   UNL     1       8.882 -14.264  -8.171  1.00  0.00     0.066 A 
ATOM      6  C   UNL     1       9.271 -14.556  -6.892  1.00  0.00     0.027 A 
ATOM      7  C   UNL     1       9.785 -13.829  -9.138  1.00  0.00     0.016 A 
ATOM      8  C   UNL     1      10.600 -14.438  -6.485  1.00  0.00     0.012 A 
ATOM      9  C   UNL     1      11.134 -13.697  -8.757  1.00  0.00     0.001 A 
ATOM     10  C   UNL     1      11.540 -14.000  -7.437  1.00  0.00     0.001 A 
BRANCH   3  11
ATOM     11  O   UNL     1       6.715 -14.335  -9.338  1.00  0.00    -0.480 OA
ATOM     12  H   UNL     1       7.123 -14.184 -10.252  1.00  0.00     0.297 HD
ENDBRANCH   3  11
ENDBRANCH   1   2
BRANCH   1  13
ATOM     13  C   UNL     1       7.756 -14.212  -3.871  1.00  0.00     0.008 C 
BRANCH  13  14
ATOM     14  C   UNL     1       9.019 -13.687  -3.172  1.00  0.00    -0.003 C 
ATOM     15  C   UNL     1       9.999 -14.802  -2.810  1.00  0.00     0.004 C 
ENDBRANCH  13  14
ENDBRANCH   1  13
TORSDOF 4
ENDMDL
MODEL 6
REMARK VINA RESULT:    -4.819      9.138     10.718
REMARK INTER + INTRA:          -6.325
REMARK INTER:                  -6.058
REMARK INTRA:                  -0.267
REMARK UNBOUND:                -0.520
REMARK SMILES CCCCc1oc(O)c2ccccc12
REMARK SMILES IDX 4 1 5 2 7 3 6 4 9 5 14 6 10 7 13 8 11 9 12 10 8 11 3 13 2 14
REMARK SMILES IDX 1 15
REMARK H PARENT 8 12
REMARK Flexibility Score: inf
ROOT
ATOM      1  C   UNL     1       2.167 -23.508   1.379  1.00  0.00     0.076 C 
ENDROOT
BRANCH   1   2
ATOM      2  C   UNL     1       2.871 -23.061   0.135  1.00  0.00     0.116 A 
ATOM      3  C   UNL     1       4.409 -22.275  -1.135  1.00  0.00     0.290 A 
ATOM      4  O   UNL     1       4.109 -22.600   0.108  1.00  0.00    -0.430 OA
ATOM      5  C   UNL     1       3.332 -22.526  -1.954  1.00  0.00     0.066 A 
ATOM      6  C   UNL     1       2.348 -23.026  -1.146  1.00  0.00     0.027 A 
ATOM      7  C   UNL     1       3.147 -22.348  -3.323  1.00  0.00     0.016 A 
ATOM      8  C   UNL     1       1.097 -23.384  -1.651  1.00  0.00     0.012 A 
ATOM      9  C   UNL     1       1.896 -22.702  -3.863  1.00  0.00     0.001 A 
ATOM     10  C   UNL     1       0.876 -23.217  -3.030  1.00  0.00     0.001 A 
BRANCH   3  11
ATOM     11  O   UNL     1       5.633 -21.756  -1.537  1.00  0.00    -0.480 OA
ATOM     12  H   UNL     1       6.076 -21.016  -1.007  1.00  0.00     0.297 HD
ENDBRANCH   3  11
ENDBRANCH   1   2
BRANCH   1  13
ATOM     13  C   UNL     1       1.302 -22.373   1.940  1.00  0.00     0.008 C 
BRANCH  13  14
ATOM     14  C   UNL     1       1.845 -21.816   3.265  1.00  0.00    -0.003 C 
ATOM     15  C   UNL     1       1.258 -20.449   3.615  1.00  0.00     0.004 C 
ENDBRANCH  13  14
ENDBRANCH   1  13
TORSDOF 4
ENDMDL
MODEL 7
REMARK VINA RESULT:    -4.759     10.456     12.065
REMARK INTER + INTRA:          -6.253
REMARK INTER:                  -6.068
REMARK INTRA:                  -0.185
REMARK UNBOUND:                -0.520
REMARK SMILES CCCCc1oc(O)c2ccccc12
REMARK SMILES IDX 4 1 5 2 7 3 6 4 9 5 14 6 10 7 13 8 11 9 12 10 8 11 3 13 2 14
REMARK SMILES IDX 1 15
REMARK H PARENT 8 12
REMARK Flexibility Score: inf
ROOT
ATOM      1  C   UNL     1       1.903 -22.263   2.331  1.00  0.00     0.076 C 
ENDROOT
BRANCH   1   2
ATOM      2  C   UNL     1       1.933 -22.551   0.861  1.00  0.00     0.116 A 
ATOM      3  C   UNL     1       1.919 -22.213  -1.256  1.00  0.00     0.290 A 
ATOM      4  O   UNL     1       1.907 -21.621  -0.078  1.00  0.00    -0.430 OA
ATOM      5  C   UNL     1       1.949 -23.578  -1.090  1.00  0.00     0.066 A 
ATOM      6  C   UNL     1       1.955 -23.798   0.261  1.00  0.00     0.027 A 
ATOM      7  C   UNL     1       1.963 -24.625  -2.009  1.00  0.00     0.016 A 
ATOM      8  C   UNL     1       1.973 -25.087   0.794  1.00  0.00     0.012 A 
ATOM      9  C   UNL     1       1.983 -25.938  -1.502  1.00  0.00     0.001 A 
ATOM     10  C   UNL     1       1.987 -26.168  -0.107  1.00  0.00     0.001 A 
BRANCH   3  11
ATOM     11  O   UNL     1       1.901 -21.542  -2.473  1.00  0.00    -0.480 OA
ATOM     12  H   UNL     1       1.060 -21.522  -3.035  1.00  0.00     0.297 HD
ENDBRANCH   3  11
ENDBRANCH   1   2
BRANCH   1  13
ATOM     13  C   UNL     1       0.875 -21.167   2.640  1.00  0.00     0.008 C 
BRANCH  13  14
ATOM     14  C   UNL     1       1.245 -20.345   3.883  1.00  0.00    -0.003 C 
ATOM     15  C   UNL     1       1.008 -18.847   3.691  1.00  0.00     0.004 C 
ENDBRANCH  13  14
ENDBRANCH   1  13
TORSDOF 4
ENDMDL
MODEL 8
REMARK VINA RESULT:    -4.599      2.426      5.236
REMARK INTER + INTRA:          -6.060
REMARK INTER:                  -5.687
REMARK INTRA:                  -0.373
REMARK UNBOUND:                -0.520
REMARK SMILES CCCCc1oc(O)c2ccccc12
REMARK SMILES IDX 4 1 5 2 7 3 6 4 9 5 14 6 10 7 13 8 11 9 12 10 8 11 3 13 2 14
REMARK SMILES IDX 1 15
REMARK H PARENT 8 12
REMARK Flexibility Score: inf
ROOT
ATOM      1  C   UNL     1       9.238 -13.690  -8.650  1.00  0.00     0.076 C 
ENDROOT
BRANCH   1   2
ATOM      2  C   UNL     1       8.496 -14.272  -7.486  1.00  0.00     0.116 A 
ATOM      3  C   UNL     1       6.924 -15.205  -6.366  1.00  0.00     0.290 A 
ATOM      4  O   UNL     1       7.295 -14.819  -7.571  1.00  0.00    -0.430 OA
ATOM      5  C   UNL     1       7.909 -14.898  -5.455  1.00  0.00     0.066 A 
ATOM      6  C   UNL     1       8.913 -14.300  -6.167  1.00  0.00     0.027 A 
ATOM      7  C   UNL     1       7.992 -15.091  -4.078  1.00  0.00     0.016 A 
ATOM      8  C   UNL     1      10.079 -13.845  -5.550  1.00  0.00     0.012 A 
ATOM      9  C   UNL     1       9.157 -14.644  -3.426  1.00  0.00     0.001 A 
ATOM     10  C   UNL     1      10.195 -14.024  -4.159  1.00  0.00     0.001 A 
BRANCH   3  11
ATOM     11  O   UNL     1       5.714 -15.825  -6.077  1.00  0.00    -0.480 OA
ATOM     12  H   UNL     1       5.524 -16.760  -6.414  1.00  0.00     0.297 HD
ENDBRANCH   3  11
ENDBRANCH   1   2
BRANCH   1  13
ATOM     13  C   UNL     1       9.971 -14.795  -9.421  1.00  0.00     0.008 C 
BRANCH  13  14
ATOM     14  C   UNL     1      11.368 -15.085  -8.851  1.00  0.00    -0.003 C 
ATOM     15  C   UNL     1      12.164 -16.064  -9.712  1.00  0.00     0.004 C 
ENDBRANCH  13  14
ENDBRANCH   1  13
TORSDOF 4
ENDMDL
MODEL 9
REMARK VINA RESULT:    -4.454      2.092      4.228
REMARK INTER + INTRA:          -5.885
REMARK INTER:                  -5.388
REMARK INTRA:                  -0.497
REMARK UNBOUND:                -0.520
REMARK SMILES CCCCc1oc(O)c2ccccc12
REMARK SMILES IDX 4 1 5 2 7 3 6 4 9 5 14 6 10 7 13 8 11 9 12 10 8 11 3 13 2 14
REMARK SMILES IDX 1 15
REMARK H PARENT 8 12
REMARK Flexibility Score: inf
ROOT
ATOM      1  C   UNL     1       7.086 -14.509  -7.677  1.00  0.00     0.076 C 
ENDROOT
BRANCH   1   2
ATOM      2  C   UNL     1       7.196 -14.527  -6.183  1.00  0.00     0.116 A 
ATOM      3  C   UNL     1       6.606 -14.521  -4.122  1.00  0.00     0.290 A 
ATOM      4  O   UNL     1       6.159 -14.529  -5.363  1.00  0.00    -0.430 OA
ATOM      5  C   UNL     1       7.981 -14.508  -4.123  1.00  0.00     0.066 A 
ATOM      6  C   UNL     1       8.362 -14.511  -5.437  1.00  0.00     0.027 A 
ATOM      7  C   UNL     1       8.910 -14.489  -3.084  1.00  0.00     0.016 A 
ATOM      8  C   UNL     1       9.706 -14.490  -5.811  1.00  0.00     0.012 A 
ATOM      9  C   UNL     1      10.274 -14.470  -3.429  1.00  0.00     0.001 A 
ATOM     10  C   UNL     1      10.670 -14.470  -4.787  1.00  0.00     0.001 A 
BRANCH   3  11
ATOM     11  O   UNL     1       5.793 -14.521  -2.995  1.00  0.00    -0.480 OA
ATOM     12  H   UNL     1       5.645 -15.373  -2.469  1.00  0.00     0.297 HD
ENDBRANCH   3  11
ENDBRANCH   1   2
BRANCH   1  13
ATOM     13  C   UNL     1       7.314 -13.090  -8.212  1.00  0.00     0.008 C 
BRANCH  13  14
ATOM     14  C   UNL     1       8.472 -13.018  -9.219  1.00  0.00    -0.003 C 
ATOM     15  C   UNL     1       9.083 -14.388  -9.513  1.00  0.00     0.004 C 
ENDBRANCH  13  14
ENDBRANCH   1  13
TORSDOF 4
ENDMDL
