MODEL 1
REMARK VINA RESULT:    -5.508      0.000      0.000
REMARK INTER + INTRA:         -17.046
REMARK INTER:                 -13.879
REMARK INTRA:                  -3.167
REMARK UNBOUND:                -3.167
REMARK SMILES CCCCCCCCCCCCCCCCCCCCCCCCCCCC(=O)[O-]
REMARK SMILES IDX 15 1 16 2 17 3 18 4 19 5 20 6 21 7 22 8 23 9 24 10 25 11
REMARK SMILES IDX 26 12 27 13 28 14 29 15 30 16 14 17 13 18 12 19 11 20 10 21
REMARK SMILES IDX 9 22 8 23 7 24 6 25 5 26 4 27 3 28 2 29 1 30
REMARK H PARENT
REMARK Flexibility Score: inf
ROOT
ATOM      1  C   UNL     1      16.075  -5.378  33.870  1.00  0.00     0.000 C 
ENDROOT
BRANCH   1   2
ATOM      2  C   UNL     1      15.668  -6.706  33.201  1.00  0.00     0.000 C 
BRANCH   2   3
ATOM      3  C   UNL     1      15.968  -6.714  31.692  1.00  0.00     0.000 C 
BRANCH   3   4
ATOM      4  C   UNL     1      16.035  -5.301  31.089  1.00  0.00     0.000 C 
BRANCH   4   5
ATOM      5  C   UNL     1      15.565  -5.263  29.625  1.00  0.00     0.000 C 
BRANCH   5   6
ATOM      6  C   UNL     1      15.299  -3.836  29.116  1.00  0.00     0.000 C 
BRANCH   6   7
ATOM      7  C   UNL     1      16.077  -3.480  27.832  1.00  0.00     0.000 C 
BRANCH   7   8
ATOM      8  C   UNL     1      15.751  -2.064  27.331  1.00  0.00     0.000 C 
BRANCH   8   9
ATOM      9  C   UNL     1      15.051  -1.237  28.417  1.00  0.00     0.000 C 
BRANCH   9  10
ATOM     10  C   UNL     1      14.588   0.116  27.866  1.00  0.00     0.000 C 
BRANCH  10  11
ATOM     11  C   UNL     1      13.182   0.011  27.258  1.00  0.00     0.000 C 
BRANCH  11  12
ATOM     12  C   UNL     1      13.201  -0.000  25.722  1.00  0.00     0.006 C 
BRANCH  12  13
ATOM     13  C   UNL     1      12.695   1.313  25.113  1.00  0.00     0.053 C 
BRANCH  13  14
ATOM     14  C   UNL     1      13.846   2.206  24.770  1.00  0.00     0.041 C 
ATOM     15  O   UNL     1      15.027   1.774  24.839  1.00  0.00    -0.550 OA
ATOM     16  O   UNL     1      13.617   3.531  24.419  1.00  0.00    -0.550 OA
ENDBRANCH  13  14
ENDBRANCH  12  13
ENDBRANCH  11  12
ENDBRANCH  10  11
ENDBRANCH   9  10
ENDBRANCH   8   9
ENDBRANCH   7   8
ENDBRANCH   6   7
ENDBRANCH   5   6
ENDBRANCH   4   5
ENDBRANCH   3   4
ENDBRANCH   2   3
ENDBRANCH   1   2
BRANCH   1  17
ATOM     17  C   UNL     1      16.001  -5.418  35.410  1.00  0.00     0.000 C 
BRANCH  17  18
ATOM     18  C   UNL     1      17.102  -4.567  36.073  1.00  0.00     0.000 C 
BRANCH  18  19
ATOM     19  C   UNL     1      18.068  -5.408  36.936  1.00  0.00     0.000 C 
BRANCH  19  20
ATOM     20  C   UNL     1      18.244  -6.863  36.461  1.00  0.00     0.000 C 
BRANCH  20  21
ATOM     21  C   UNL     1      19.400  -7.100  35.473  1.00  0.00     0.000 C 
BRANCH  21  22
ATOM     22  C   UNL     1      18.995  -7.138  33.985  1.00  0.00    -0.000 C 
BRANCH  22  23
ATOM     23  C   UNL     1      20.025  -6.479  33.040  1.00  0.00    -0.000 C 
BRANCH  23  24
ATOM     24  C   UNL     1      19.441  -5.268  32.290  1.00  0.00    -0.000 C 
BRANCH  24  25
ATOM     25  C   UNL     1      19.151  -4.078  33.220  1.00  0.00    -0.000 C 
BRANCH  25  26
ATOM     26  C   UNL     1      20.428  -3.494  33.850  1.00  0.00    -0.000 C 
BRANCH  26  27
ATOM     27  C   UNL     1      20.129  -2.692  35.137  1.00  0.00    -0.000 C 
BRANCH  27  28
ATOM     28  C   UNL     1      18.852  -1.834  35.055  1.00  0.00    -0.000 C 
BRANCH  28  29
ATOM     29  C   UNL     1      18.840  -0.604  35.977  1.00  0.00    -0.003 C 
ATOM     30  C   UNL     1      20.243  -0.090  36.300  1.00  0.00     0.004 C 
ENDBRANCH  28  29
ENDBRANCH  27  28
ENDBRANCH  26  27
ENDBRANCH  25  26
ENDBRANCH  24  25
ENDBRANCH  23  24
ENDBRANCH  22  23
ENDBRANCH  21  22
ENDBRANCH  20  21
ENDBRANCH  19  20
ENDBRANCH  18  19
ENDBRANCH  17  18
ENDBRANCH   1  17
TORSDOF 26
ENDMDL
MODEL 2
REMARK VINA RESULT:    -5.195      3.723      9.816
REMARK INTER + INTRA:         -16.259
REMARK INTER:                 -13.088
REMARK INTRA:                  -3.171
REMARK UNBOUND:                -3.167
REMARK SMILES CCCCCCCCCCCCCCCCCCCCCCCCCCCC(=O)[O-]
REMARK SMILES IDX 15 1 16 2 17 3 18 4 19 5 20 6 21 7 22 8 23 9 24 10 25 11
REMARK SMILES IDX 26 12 27 13 28 14 29 15 30 16 14 17 13 18 12 19 11 20 10 21
REMARK SMILES IDX 9 22 8 23 7 24 6 25 5 26 4 27 3 28 2 29 1 30
REMARK H PARENT
REMARK Flexibility Score: inf
ROOT
ATOM      1  C   UNL     1      16.376  -4.314  33.159  1.00  0.00     0.000 C 
ENDROOT
BRANCH   1   2
ATOM      2  C   UNL     1      15.532  -5.162  34.132  1.00  0.00     0.000 C 
BRANCH   2   3
ATOM      3  C   UNL     1      15.901  -4.900  35.603  1.00  0.00     0.000 C 
BRANCH   3   4
ATOM      4  C   UNL     1      17.158  -5.666  36.049  1.00  0.00     0.000 C 
BRANCH   4   5
ATOM      5  C   UNL     1      18.276  -4.730  36.536  1.00  0.00     0.000 C 
BRANCH   5   6
ATOM      6  C   UNL     1      18.105  -3.282  36.045  1.00  0.00     0.000 C 
BRANCH   6   7
ATOM      7  C   UNL     1      19.171  -2.845  35.018  1.00  0.00     0.000 C 
BRANCH   7   8
ATOM      8  C   UNL     1      20.078  -4.010  34.594  1.00  0.00     0.000 C 
BRANCH   8   9
ATOM      9  C   UNL     1      20.093  -4.179  33.070  1.00  0.00     0.000 C 
BRANCH   9  10
ATOM     10  C   UNL     1      20.196  -5.658  32.681  1.00  0.00     0.000 C 
BRANCH  10  11
ATOM     11  C   UNL     1      19.415  -6.542  33.664  1.00  0.00     0.000 C 
BRANCH  11  12
ATOM     12  C   UNL     1      18.924  -7.849  33.024  1.00  0.00     0.006 C 
BRANCH  12  13
ATOM     13  C   UNL     1      17.411  -7.853  32.770  1.00  0.00     0.053 C 
BRANCH  13  14
ATOM     14  C   UNL     1      17.049  -8.930  31.796  1.00  0.00     0.041 C 
ATOM     15  O   UNL     1      17.924  -9.742  31.393  1.00  0.00    -0.550 OA
ATOM     16  O   UNL     1      15.755  -9.009  31.297  1.00  0.00    -0.550 OA
ENDBRANCH  13  14
ENDBRANCH  12  13
ENDBRANCH  11  12
ENDBRANCH  10  11
ENDBRANCH   9  10
ENDBRANCH   8   9
ENDBRANCH   7   8
ENDBRANCH   6   7
ENDBRANCH   5   6
ENDBRANCH   4   5
ENDBRANCH   3   4
ENDBRANCH   2   3
ENDBRANCH   1   2
BRANCH   1  17
ATOM     17  C   UNL     1      16.639  -5.010  31.808  1.00  0.00     0.000 C 
BRANCH  17  18
ATOM     18  C   UNL     1      16.434  -4.062  30.610  1.00  0.00     0.000 C 
BRANCH  18  19
ATOM     19  C   UNL     1      15.562  -4.685  29.499  1.00  0.00     0.000 C 
BRANCH  19  20
ATOM     20  C   UNL     1      15.188  -3.714  28.361  1.00  0.00     0.000 C 
BRANCH  20  21
ATOM     21  C   UNL     1      15.475  -2.228  28.641  1.00  0.00     0.000 C 
BRANCH  21  22
ATOM     22  C   UNL     1      14.880  -1.239  27.617  1.00  0.00    -0.000 C 
BRANCH  22  23
ATOM     23  C   UNL     1      14.351   0.068  28.246  1.00  0.00    -0.000 C 
BRANCH  23  24
ATOM     24  C   UNL     1      14.840   1.320  27.495  1.00  0.00    -0.000 C 
BRANCH  24  25
ATOM     25  C   UNL     1      15.549   0.979  26.174  1.00  0.00    -0.000 C 
BRANCH  25  26
ATOM     26  C   UNL     1      15.069   1.852  25.001  1.00  0.00    -0.000 C 
BRANCH  26  27
ATOM     27  C   UNL     1      13.539   2.068  25.023  1.00  0.00    -0.000 C 
BRANCH  27  28
ATOM     28  C   UNL     1      12.723   0.772  24.853  1.00  0.00    -0.000 C 
BRANCH  28  29
ATOM     29  C   UNL     1      11.362   0.768  25.567  1.00  0.00    -0.003 C 
ATOM     30  C   UNL     1      11.237  -0.349  26.603  1.00  0.00     0.004 C 
ENDBRANCH  28  29
ENDBRANCH  27  28
ENDBRANCH  26  27
ENDBRANCH  25  26
ENDBRANCH  24  25
ENDBRANCH  23  24
ENDBRANCH  22  23
ENDBRANCH  21  22
ENDBRANCH  20  21
ENDBRANCH  19  20
ENDBRANCH  18  19
ENDBRANCH  17  18
ENDBRANCH   1  17
TORSDOF 26
ENDMDL
MODEL 3
REMARK VINA RESULT:    -5.041      3.300      8.831
REMARK INTER + INTRA:         -15.871
REMARK INTER:                 -12.202
REMARK INTRA:                  -3.670
REMARK UNBOUND:                -3.167
REMARK SMILES CCCCCCCCCCCCCCCCCCCCCCCCCCCC(=O)[O-]
REMARK SMILES IDX 15 1 16 2 17 3 18 4 19 5 20 6 21 7 22 8 23 9 24 10 25 11
REMARK SMILES IDX 26 12 27 13 28 14 29 15 30 16 14 17 13 18 12 19 11 20 10 21
REMARK SMILES IDX 9 22 8 23 7 24 6 25 5 26 4 27 3 28 2 29 1 30
REMARK H PARENT
REMARK Flexibility Score: inf
ROOT
ATOM      1  C   UNL     1      15.288  -6.270  33.395  1.00  0.00     0.000 C 
ENDROOT
BRANCH   1   2
ATOM      2  C   UNL     1      15.381  -7.644  34.089  1.00  0.00     0.000 C 
BRANCH   2   3
ATOM      3  C   UNL     1      15.481  -8.801  33.079  1.00  0.00     0.000 C 
BRANCH   3   4
ATOM      4  C   UNL     1      16.147  -8.384  31.757  1.00  0.00     0.000 C 
BRANCH   4   5
ATOM      5  C   UNL     1      17.426  -9.186  31.464  1.00  0.00     0.000 C 
BRANCH   5   6
ATOM      6  C   UNL     1      18.549  -8.921  32.481  1.00  0.00     0.000 C 
BRANCH   6   7
ATOM      7  C   UNL     1      18.822  -7.421  32.727  1.00  0.00     0.000 C 
BRANCH   7   8
ATOM      8  C   UNL     1      19.519  -7.174  34.073  1.00  0.00     0.000 C 
BRANCH   8   9
ATOM      9  C   UNL     1      18.780  -7.875  35.220  1.00  0.00     0.000 C 
BRANCH   9  10
ATOM     10  C   UNL     1      18.395  -6.877  36.319  1.00  0.00     0.000 C 
BRANCH  10  11
ATOM     11  C   UNL     1      19.439  -5.756  36.436  1.00  0.00     0.000 C 
BRANCH  11  12
ATOM     12  C   UNL     1      18.879  -4.382  36.040  1.00  0.00     0.006 C 
BRANCH  12  13
ATOM     13  C   UNL     1      19.725  -3.683  34.968  1.00  0.00     0.053 C 
BRANCH  13  14
ATOM     14  C   UNL     1      19.474  -2.209  34.985  1.00  0.00     0.041 C 
ATOM     15  O   UNL     1      18.487  -1.725  34.370  1.00  0.00    -0.550 OA
ATOM     16  O   UNL     1      20.358  -1.361  35.643  1.00  0.00    -0.550 OA
ENDBRANCH  13  14
ENDBRANCH  12  13
ENDBRANCH  11  12
ENDBRANCH  10  11
ENDBRANCH   9  10
ENDBRANCH   8   9
ENDBRANCH   7   8
ENDBRANCH   6   7
ENDBRANCH   5   6
ENDBRANCH   4   5
ENDBRANCH   3   4
ENDBRANCH   2   3
ENDBRANCH   1   2
BRANCH   1  17
ATOM     17  C   UNL     1      16.244  -5.216  33.989  1.00  0.00     0.000 C 
BRANCH  17  18
ATOM     18  C   UNL     1      16.842  -4.292  32.909  1.00  0.00     0.000 C 
BRANCH  18  19
ATOM     19  C   UNL     1      16.618  -4.824  31.477  1.00  0.00     0.000 C 
BRANCH  19  20
ATOM     20  C   UNL     1      16.252  -3.740  30.444  1.00  0.00     0.000 C 
BRANCH  20  21
ATOM     21  C   UNL     1      15.497  -4.242  29.200  1.00  0.00     0.000 C 
BRANCH  21  22
ATOM     22  C   UNL     1      14.943  -3.137  28.277  1.00  0.00    -0.000 C 
BRANCH  22  23
ATOM     23  C   UNL     1      15.986  -2.564  27.293  1.00  0.00    -0.000 C 
BRANCH  23  24
ATOM     24  C   UNL     1      15.336  -1.769  26.147  1.00  0.00    -0.000 C 
BRANCH  24  25
ATOM     25  C   UNL     1      13.829  -1.547  26.360  1.00  0.00    -0.000 C 
BRANCH  25  26
ATOM     26  C   UNL     1      13.377  -0.131  25.961  1.00  0.00    -0.000 C 
BRANCH  26  27
ATOM     27  C   UNL     1      14.459   0.932  26.255  1.00  0.00    -0.000 C 
BRANCH  27  28
ATOM     28  C   UNL     1      14.759   1.119  27.754  1.00  0.00    -0.000 C 
BRANCH  28  29
ATOM     29  C   UNL     1      13.553   0.911  28.685  1.00  0.00    -0.003 C 
ATOM     30  C   UNL     1      13.899   0.099  29.933  1.00  0.00     0.004 C 
ENDBRANCH  28  29
ENDBRANCH  27  28
ENDBRANCH  26  27
ENDBRANCH  25  26
ENDBRANCH  24  25
ENDBRANCH  23  24
ENDBRANCH  22  23
ENDBRANCH  21  22
ENDBRANCH  20  21
ENDBRANCH  19  20
ENDBRANCH  18  19
ENDBRANCH  17  18
ENDBRANCH   1  17
TORSDOF 26
ENDMDL
MODEL 4
REMARK VINA RESULT:    -5.008      6.422     15.985
REMARK INTER + INTRA:         -15.787
REMARK INTER:                 -12.200
REMARK INTRA:                  -3.587
REMARK UNBOUND:                -3.167
REMARK SMILES CCCCCCCCCCCCCCCCCCCCCCCCCCCC(=O)[O-]
REMARK SMILES IDX 15 1 16 2 17 3 18 4 19 5 20 6 21 7 22 8 23 9 24 10 25 11
REMARK SMILES IDX 26 12 27 13 28 14 29 15 30 16 14 17 13 18 12 19 11 20 10 21
REMARK SMILES IDX 9 22 8 23 7 24 6 25 5 26 4 27 3 28 2 29 1 30
REMARK H PARENT
REMARK Flexibility Score: inf
ROOT
ATOM      1  C   UNL     1      10.263   3.431  20.637  1.00  0.00     0.000 C 
ENDROOT
BRANCH   1   2
ATOM      2  C   UNL     1      11.041   4.644  21.185  1.00  0.00     0.000 C 
BRANCH   2   3
ATOM      3  C   UNL     1      12.378   4.235  21.829  1.00  0.00     0.000 C 
BRANCH   3   4
ATOM      4  C   UNL     1      12.880   5.257  22.862  1.00  0.00     0.000 C 
BRANCH   4   5
ATOM      5  C   UNL     1      13.837   4.632  23.891  1.00  0.00     0.000 C 
BRANCH   5   6
ATOM      6  C   UNL     1      13.276   3.353  24.535  1.00  0.00     0.000 C 
BRANCH   6   7
ATOM      7  C   UNL     1      14.351   2.290  24.845  1.00  0.00     0.000 C 
BRANCH   7   8
ATOM      8  C   UNL     1      13.760   0.875  24.926  1.00  0.00     0.000 C 
BRANCH   8   9
ATOM      9  C   UNL     1      12.229   0.916  25.024  1.00  0.00     0.000 C 
BRANCH   9  10
ATOM     10  C   UNL     1      11.736   0.157  26.261  1.00  0.00     0.000 C 
BRANCH  10  11
ATOM     11  C   UNL     1      12.915  -0.413  27.064  1.00  0.00     0.000 C 
BRANCH  11  12
ATOM     12  C   UNL     1      13.281   0.456  28.276  1.00  0.00     0.006 C 
BRANCH  12  13
ATOM     13  C   UNL     1      14.793   0.520  28.525  1.00  0.00     0.053 C 
BRANCH  13  14
ATOM     14  C   UNL     1      15.227  -0.619  29.392  1.00  0.00     0.041 C 
ATOM     15  O   UNL     1      15.576  -0.412  30.584  1.00  0.00    -0.550 OA
ATOM     16  O   UNL     1      15.291  -1.906  28.869  1.00  0.00    -0.550 OA
ENDBRANCH  13  14
ENDBRANCH  12  13
ENDBRANCH  11  12
ENDBRANCH  10  11
ENDBRANCH   9  10
ENDBRANCH   8   9
ENDBRANCH   7   8
ENDBRANCH   6   7
ENDBRANCH   5   6
ENDBRANCH   4   5
ENDBRANCH   3   4
ENDBRANCH   2   3
ENDBRANCH   1   2
BRANCH   1  17
ATOM     17  C   UNL     1      10.620   3.080  19.179  1.00  0.00     0.000 C 
BRANCH  17  18
ATOM     18  C   UNL     1       9.378   3.019  18.268  1.00  0.00     0.000 C 
BRANCH  18  19
ATOM     19  C   UNL     1       8.216   3.895  18.785  1.00  0.00     0.000 C 
BRANCH  19  20
ATOM     20  C   UNL     1       8.073   5.253  18.070  1.00  0.00     0.000 C 
BRANCH  20  21
ATOM     21  C   UNL     1       8.790   6.434  18.748  1.00  0.00     0.000 C 
BRANCH  21  22
ATOM     22  C   UNL     1       9.213   7.577  17.802  1.00  0.00    -0.000 C 
BRANCH  22  23
ATOM     23  C   UNL     1      10.727   7.609  17.500  1.00  0.00    -0.000 C 
BRANCH  23  24
ATOM     24  C   UNL     1      11.451   6.344  17.995  1.00  0.00    -0.000 C 
BRANCH  24  25
ATOM     25  C   UNL     1      12.713   6.665  18.814  1.00  0.00    -0.000 C 
BRANCH  25  26
ATOM     26  C   UNL     1      12.931   8.177  18.998  1.00  0.00    -0.000 C 
BRANCH  26  27
ATOM     27  C   UNL     1      13.465   8.522  20.406  1.00  0.00    -0.000 C 
BRANCH  27  28
ATOM     28  C   UNL     1      12.414   8.384  21.523  1.00  0.00    -0.000 C 
BRANCH  28  29
ATOM     29  C   UNL     1      10.953   8.416  21.044  1.00  0.00    -0.003 C 
ATOM     30  C   UNL     1       9.964   7.979  22.124  1.00  0.00     0.004 C 
ENDBRANCH  28  29
ENDBRANCH  27  28
ENDBRANCH  26  27
ENDBRANCH  25  26
ENDBRANCH  24  25
ENDBRANCH  23  24
ENDBRANCH  22  23
ENDBRANCH  21  22
ENDBRANCH  20  21
ENDBRANCH  19  20
ENDBRANCH  18  19
ENDBRANCH  17  18
ENDBRANCH   1  17
TORSDOF 26
ENDMDL
MODEL 5
REMARK VINA RESULT:    -4.995      1.683      4.163
REMARK INTER + INTRA:         -15.754
REMARK INTER:                 -12.566
REMARK INTRA:                  -3.189
REMARK UNBOUND:                -3.167
REMARK SMILES CCCCCCCCCCCCCCCCCCCCCCCCCCCC(=O)[O-]
REMARK SMILES IDX 15 1 16 2 17 3 18 4 19 5 20 6 21 7 22 8 23 9 24 10 25 11
REMARK SMILES IDX 26 12 27 13 28 14 29 15 30 16 14 17 13 18 12 19 11 20 10 21
REMARK SMILES IDX 9 22 8 23 7 24 6 25 5 26 4 27 3 28 2 29 1 30
REMARK H PARENT
REMARK Flexibility Score: inf
ROOT
ATOM      1  C   UNL     1      15.727  -5.031  35.099  1.00  0.00     0.000 C 
ENDROOT
BRANCH   1   2
ATOM      2  C   UNL     1      15.786  -5.793  33.759  1.00  0.00     0.000 C 
BRANCH   2   3
ATOM      3  C   UNL     1      16.619  -5.047  32.701  1.00  0.00     0.000 C 
BRANCH   3   4
ATOM      4  C   UNL     1      16.234  -5.427  31.262  1.00  0.00     0.000 C 
BRANCH   4   5
ATOM      5  C   UNL     1      16.157  -4.206  30.331  1.00  0.00     0.000 C 
BRANCH   5   6
ATOM      6  C   UNL     1      15.192  -4.410  29.150  1.00  0.00     0.000 C 
BRANCH   6   7
ATOM      7  C   UNL     1      15.117  -3.201  28.194  1.00  0.00     0.000 C 
BRANCH   7   8
ATOM      8  C   UNL     1      16.367  -3.084  27.309  1.00  0.00     0.000 C 
BRANCH   8   9
ATOM      9  C   UNL     1      16.120  -2.150  26.117  1.00  0.00     0.000 C 
BRANCH   9  10
ATOM     10  C   UNL     1      14.768  -1.439  26.246  1.00  0.00     0.000 C 
BRANCH  10  11
ATOM     11  C   UNL     1      14.958   0.069  26.471  1.00  0.00     0.000 C 
BRANCH  11  12
ATOM     12  C   UNL     1      14.633   0.899  25.220  1.00  0.00     0.006 C 
BRANCH  12  13
ATOM     13  C   UNL     1      13.358   1.738  25.380  1.00  0.00     0.053 C 
BRANCH  13  14
ATOM     14  C   UNL     1      12.148   0.907  25.091  1.00  0.00     0.041 C 
ATOM     15  O   UNL     1      11.779   0.716  23.901  1.00  0.00    -0.550 OA
ATOM     16  O   UNL     1      11.399   0.382  26.137  1.00  0.00    -0.550 OA
ENDBRANCH  13  14
ENDBRANCH  12  13
ENDBRANCH  11  12
ENDBRANCH  10  11
ENDBRANCH   9  10
ENDBRANCH   8   9
ENDBRANCH   7   8
ENDBRANCH   6   7
ENDBRANCH   5   6
ENDBRANCH   4   5
ENDBRANCH   3   4
ENDBRANCH   2   3
ENDBRANCH   1   2
BRANCH   1  17
ATOM     17  C   UNL     1      16.808  -5.474  36.105  1.00  0.00     0.000 C 
BRANCH  17  18
ATOM     18  C   UNL     1      17.779  -4.331  36.463  1.00  0.00     0.000 C 
BRANCH  18  19
ATOM     19  C   UNL     1      17.850  -3.243  35.370  1.00  0.00     0.000 C 
BRANCH  19  20
ATOM     20  C   UNL     1      19.017  -2.250  35.534  1.00  0.00     0.000 C 
BRANCH  20  21
ATOM     21  C   UNL     1      20.269  -2.559  34.694  1.00  0.00     0.000 C 
BRANCH  21  22
ATOM     22  C   UNL     1      20.506  -4.053  34.392  1.00  0.00    -0.000 C 
BRANCH  22  23
ATOM     23  C   UNL     1      20.369  -4.417  32.897  1.00  0.00    -0.000 C 
BRANCH  23  24
ATOM     24  C   UNL     1      20.061  -5.910  32.683  1.00  0.00    -0.000 C 
BRANCH  24  25
ATOM     25  C   UNL     1      19.646  -6.622  33.982  1.00  0.00    -0.000 C 
BRANCH  25  26
ATOM     26  C   UNL     1      18.768  -7.859  33.725  1.00  0.00    -0.000 C 
BRANCH  26  27
ATOM     27  C   UNL     1      18.585  -8.142  32.217  1.00  0.00    -0.000 C 
BRANCH  27  28
ATOM     28  C   UNL     1      17.693  -9.361  31.915  1.00  0.00    -0.000 C 
BRANCH  28  29
ATOM     29  C   UNL     1      16.338  -9.025  31.271  1.00  0.00    -0.003 C 
ATOM     30  C   UNL     1      15.233 -10.006  31.666  1.00  0.00     0.004 C 
ENDBRANCH  28  29
ENDBRANCH  27  28
ENDBRANCH  26  27
ENDBRANCH  25  26
ENDBRANCH  24  25
ENDBRANCH  23  24
ENDBRANCH  22  23
ENDBRANCH  21  22
ENDBRANCH  20  21
ENDBRANCH  19  20
ENDBRANCH  18  19
ENDBRANCH  17  18
ENDBRANCH   1  17
TORSDOF 26
ENDMDL
MODEL 6
REMARK VINA RESULT:    -4.981      2.259      5.015
REMARK INTER + INTRA:         -15.720
REMARK INTER:                 -12.401
REMARK INTRA:                  -3.319
REMARK UNBOUND:                -3.167
REMARK SMILES CCCCCCCCCCCCCCCCCCCCCCCCCCCC(=O)[O-]
REMARK SMILES IDX 15 1 16 2 17 3 18 4 19 5 20 6 21 7 22 8 23 9 24 10 25 11
REMARK SMILES IDX 26 12 27 13 28 14 29 15 30 16 14 17 13 18 12 19 11 20 10 21
REMARK SMILES IDX 9 22 8 23 7 24 6 25 5 26 4 27 3 28 2 29 1 30
REMARK H PARENT
REMARK Flexibility Score: inf
ROOT
ATOM      1  C   UNL     1      19.074  -2.540  34.194  1.00  0.00     0.000 C 
ENDROOT
BRANCH   1   2
ATOM      2  C   UNL     1      17.734  -2.579  33.433  1.00  0.00     0.000 C 
BRANCH   2   3
ATOM      3  C   UNL     1      17.382  -1.221  32.801  1.00  0.00     0.000 C 
BRANCH   3   4
ATOM      4  C   UNL     1      16.616  -1.359  31.476  1.00  0.00     0.000 C 
BRANCH   4   5
ATOM      5  C   UNL     1      15.558  -0.258  31.289  1.00  0.00     0.000 C 
BRANCH   5   6
ATOM      6  C   UNL     1      14.894  -0.291  29.902  1.00  0.00     0.000 C 
BRANCH   6   7
ATOM      7  C   UNL     1      13.562   0.486  29.833  1.00  0.00     0.000 C 
BRANCH   7   8
ATOM      8  C   UNL     1      13.444   1.318  28.547  1.00  0.00     0.000 C 
BRANCH   8   9
ATOM      9  C   UNL     1      14.703   1.187  27.682  1.00  0.00     0.000 C 
BRANCH   9  10
ATOM     10  C   UNL     1      14.339   0.971  26.208  1.00  0.00     0.000 C 
BRANCH  10  11
ATOM     11  C   UNL     1      13.186  -0.033  26.067  1.00  0.00     0.000 C 
BRANCH  11  12
ATOM     12  C   UNL     1      13.635  -1.485  26.289  1.00  0.00     0.006 C 
BRANCH  12  13
ATOM     13  C   UNL     1      15.105  -1.715  25.914  1.00  0.00     0.053 C 
BRANCH  13  14
ATOM     14  C   UNL     1      15.824  -2.410  27.027  1.00  0.00     0.041 C 
ATOM     15  O   UNL     1      17.070  -2.586  26.965  1.00  0.00    -0.550 OA
ATOM     16  O   UNL     1      15.112  -2.906  28.112  1.00  0.00    -0.550 OA
ENDBRANCH  13  14
ENDBRANCH  12  13
ENDBRANCH  11  12
ENDBRANCH  10  11
ENDBRANCH   9  10
ENDBRANCH   8   9
ENDBRANCH   7   8
ENDBRANCH   6   7
ENDBRANCH   5   6
ENDBRANCH   4   5
ENDBRANCH   3   4
ENDBRANCH   2   3
ENDBRANCH   1   2
BRANCH   1  17
ATOM     17  C   UNL     1      20.055  -3.651  33.768  1.00  0.00     0.000 C 
BRANCH  17  18
ATOM     18  C   UNL     1      19.384  -4.718  32.882  1.00  0.00     0.000 C 
BRANCH  18  19
ATOM     19  C   UNL     1      20.054  -6.104  33.005  1.00  0.00     0.000 C 
BRANCH  19  20
ATOM     20  C   UNL     1      19.088  -7.250  33.364  1.00  0.00     0.000 C 
BRANCH  20  21
ATOM     21  C   UNL     1      19.148  -7.731  34.825  1.00  0.00     0.000 C 
BRANCH  21  22
ATOM     22  C   UNL     1      19.412  -6.627  35.870  1.00  0.00    -0.000 C 
BRANCH  22  23
ATOM     23  C   UNL     1      18.191  -6.305  36.760  1.00  0.00    -0.000 C 
BRANCH  23  24
ATOM     24  C   UNL     1      17.384  -5.105  36.235  1.00  0.00    -0.000 C 
BRANCH  24  25
ATOM     25  C   UNL     1      16.106  -5.529  35.491  1.00  0.00    -0.000 C 
BRANCH  25  26
ATOM     26  C   UNL     1      16.184  -5.259  33.978  1.00  0.00    -0.000 C 
BRANCH  26  27
ATOM     27  C   UNL     1      15.461  -6.347  33.153  1.00  0.00    -0.000 C 
BRANCH  27  28
ATOM     28  C   UNL     1      15.522  -7.751  33.783  1.00  0.00    -0.000 C 
BRANCH  28  29
ATOM     29  C   UNL     1      15.521  -8.912  32.775  1.00  0.00    -0.003 C 
ATOM     30  C   UNL     1      16.226  -8.561  31.464  1.00  0.00     0.004 C 
ENDBRANCH  28  29
ENDBRANCH  27  28
ENDBRANCH  26  27
ENDBRANCH  25  26
ENDBRANCH  24  25
ENDBRANCH  23  24
ENDBRANCH  22  23
ENDBRANCH  21  22
ENDBRANCH  20  21
ENDBRANCH  19  20
ENDBRANCH  18  19
ENDBRANCH  17  18
ENDBRANCH   1  17
TORSDOF 26
ENDMDL
MODEL 7
REMARK VINA RESULT:    -4.977      6.146     15.455
REMARK INTER + INTRA:         -15.709
REMARK INTER:                 -12.650
REMARK INTRA:                  -3.059
REMARK UNBOUND:                -3.167
REMARK SMILES CCCCCCCCCCCCCCCCCCCCCCCCCCCC(=O)[O-]
REMARK SMILES IDX 15 1 16 2 17 3 18 4 19 5 20 6 21 7 22 8 23 9 24 10 25 11
REMARK SMILES IDX 26 12 27 13 28 14 29 15 30 16 14 17 13 18 12 19 11 20 10 21
REMARK SMILES IDX 9 22 8 23 7 24 6 25 5 26 4 27 3 28 2 29 1 30
REMARK H PARENT
REMARK Flexibility Score: inf
ROOT
ATOM      1  C   UNL     1      10.290   4.940  21.374  1.00  0.00     0.000 C 
ENDROOT
BRANCH   1   2
ATOM      2  C   UNL     1      11.635   5.570  21.787  1.00  0.00     0.000 C 
BRANCH   2   3
ATOM      3  C   UNL     1      12.656   4.514  22.247  1.00  0.00     0.000 C 
BRANCH   3   4
ATOM      4  C   UNL     1      13.305   4.860  23.598  1.00  0.00     0.000 C 
BRANCH   4   5
ATOM      5  C   UNL     1      14.001   3.650  24.243  1.00  0.00     0.000 C 
BRANCH   5   6
ATOM      6  C   UNL     1      13.055   2.456  24.458  1.00  0.00     0.000 C 
BRANCH   6   7
ATOM      7  C   UNL     1      13.675   1.315  25.292  1.00  0.00     0.000 C 
BRANCH   7   8
ATOM      8  C   UNL     1      15.064   1.684  25.835  1.00  0.00     0.000 C 
BRANCH   8   9
ATOM      9  C   UNL     1      15.150   1.451  27.349  1.00  0.00     0.000 C 
BRANCH   9  10
ATOM     10  C   UNL     1      13.755   1.265  27.957  1.00  0.00     0.000 C 
BRANCH  10  11
ATOM     11  C   UNL     1      13.725   0.059  28.908  1.00  0.00     0.000 C 
BRANCH  11  12
ATOM     12  C   UNL     1      15.122  -0.523  29.169  1.00  0.00     0.006 C 
BRANCH  12  13
ATOM     13  C   UNL     1      15.274  -1.957  28.646  1.00  0.00     0.053 C 
BRANCH  13  14
ATOM     14  C   UNL     1      15.188  -1.979  27.152  1.00  0.00     0.041 C 
ATOM     15  O   UNL     1      16.237  -1.955  26.456  1.00  0.00    -0.550 OA
ATOM     16  O   UNL     1      13.946  -1.978  26.527  1.00  0.00    -0.550 OA
ENDBRANCH  13  14
ENDBRANCH  12  13
ENDBRANCH  11  12
ENDBRANCH  10  11
ENDBRANCH   9  10
ENDBRANCH   8   9
ENDBRANCH   7   8
ENDBRANCH   6   7
ENDBRANCH   5   6
ENDBRANCH   4   5
ENDBRANCH   3   4
ENDBRANCH   2   3
ENDBRANCH   1   2
BRANCH   1  17
ATOM     17  C   UNL     1       9.274   5.964  20.830  1.00  0.00     0.000 C 
BRANCH  17  18
ATOM     18  C   UNL     1       7.963   5.299  20.364  1.00  0.00     0.000 C 
BRANCH  18  19
ATOM     19  C   UNL     1       8.039   4.784  18.911  1.00  0.00     0.000 C 
BRANCH  19  20
ATOM     20  C   UNL     1       8.044   3.248  18.778  1.00  0.00     0.000 C 
BRANCH  20  21
ATOM     21  C   UNL     1       9.404   2.621  18.421  1.00  0.00     0.000 C 
BRANCH  21  22
ATOM     22  C   UNL     1      10.406   3.571  17.734  1.00  0.00    -0.000 C 
BRANCH  22  23
ATOM     23  C   UNL     1      11.788   3.625  18.423  1.00  0.00    -0.000 C 
BRANCH  23  24
ATOM     24  C   UNL     1      12.486   4.983  18.230  1.00  0.00    -0.000 C 
BRANCH  24  25
ATOM     25  C   UNL     1      11.493   6.129  17.975  1.00  0.00    -0.000 C 
BRANCH  25  26
ATOM     26  C   UNL     1      12.065   7.506  18.358  1.00  0.00    -0.000 C 
BRANCH  26  27
ATOM     27  C   UNL     1      12.665   7.512  19.781  1.00  0.00    -0.000 C 
BRANCH  27  28
ATOM     28  C   UNL     1      13.527   8.751  20.089  1.00  0.00    -0.000 C 
BRANCH  28  29
ATOM     29  C   UNL     1      13.551   9.169  21.569  1.00  0.00    -0.003 C 
ATOM     30  C   UNL     1      12.177   9.588  22.091  1.00  0.00     0.004 C 
ENDBRANCH  28  29
ENDBRANCH  27  28
ENDBRANCH  26  27
ENDBRANCH  25  26
ENDBRANCH  24  25
ENDBRANCH  23  24
ENDBRANCH  22  23
ENDBRANCH  21  22
ENDBRANCH  20  21
ENDBRANCH  19  20
ENDBRANCH  18  19
ENDBRANCH  17  18
ENDBRANCH   1  17
TORSDOF 26
ENDMDL
MODEL 8
REMARK VINA RESULT:    -4.965      6.697     16.580
REMARK INTER + INTRA:         -15.678
REMARK INTER:                 -12.749
REMARK INTRA:                  -2.929
REMARK UNBOUND:                -3.167
REMARK SMILES CCCCCCCCCCCCCCCCCCCCCCCCCCCC(=O)[O-]
REMARK SMILES IDX 15 1 16 2 17 3 18 4 19 5 20 6 21 7 22 8 23 9 24 10 25 11
REMARK SMILES IDX 26 12 27 13 28 14 29 15 30 16 14 17 13 18 12 19 11 20 10 21
REMARK SMILES IDX 9 22 8 23 7 24 6 25 5 26 4 27 3 28 2 29 1 30
REMARK H PARENT
REMARK Flexibility Score: inf
ROOT
ATOM      1  C   UNL     1       9.498   5.897  20.992  1.00  0.00     0.000 C 
ENDROOT
BRANCH   1   2
ATOM      2  C   UNL     1       9.614   7.317  21.584  1.00  0.00     0.000 C 
BRANCH   2   3
ATOM      3  C   UNL     1      11.075   7.794  21.669  1.00  0.00     0.000 C 
BRANCH   3   4
ATOM      4  C   UNL     1      12.088   6.660  21.445  1.00  0.00     0.000 C 
BRANCH   4   5
ATOM      5  C   UNL     1      12.830   6.270  22.734  1.00  0.00     0.000 C 
BRANCH   5   6
ATOM      6  C   UNL     1      12.870   4.751  22.970  1.00  0.00     0.000 C 
BRANCH   6   7
ATOM      7  C   UNL     1      13.914   4.311  24.018  1.00  0.00     0.000 C 
BRANCH   7   8
ATOM      8  C   UNL     1      13.780   2.825  24.381  1.00  0.00     0.000 C 
BRANCH   8   9
ATOM      9  C   UNL     1      15.112   2.251  24.879  1.00  0.00     0.000 C 
BRANCH   9  10
ATOM     10  C   UNL     1      14.896   1.308  26.068  1.00  0.00     0.000 C 
BRANCH  10  11
ATOM     11  C   UNL     1      13.437   0.832  26.136  1.00  0.00     0.000 C 
BRANCH  11  12
ATOM     12  C   UNL     1      13.152  -0.030  27.375  1.00  0.00     0.006 C 
BRANCH  12  13
ATOM     13  C   UNL     1      13.782   0.542  28.652  1.00  0.00     0.053 C 
BRANCH  13  14
ATOM     14  C   UNL     1      14.771  -0.423  29.223  1.00  0.00     0.041 C 
ATOM     15  O   UNL     1      15.113  -1.444  28.568  1.00  0.00    -0.550 OA
ATOM     16  O   UNL     1      15.282  -0.222  30.500  1.00  0.00    -0.550 OA
ENDBRANCH  13  14
ENDBRANCH  12  13
ENDBRANCH  11  12
ENDBRANCH  10  11
ENDBRANCH   9  10
ENDBRANCH   8   9
ENDBRANCH   7   8
ENDBRANCH   6   7
ENDBRANCH   5   6
ENDBRANCH   4   5
ENDBRANCH   3   4
ENDBRANCH   2   3
ENDBRANCH   1   2
BRANCH   1  17
ATOM     17  C   UNL     1       8.085   5.563  20.472  1.00  0.00     0.000 C 
BRANCH  17  18
ATOM     18  C   UNL     1       8.086   5.178  18.980  1.00  0.00     0.000 C 
BRANCH  18  19
ATOM     19  C   UNL     1       8.352   6.384  18.052  1.00  0.00     0.000 C 
BRANCH  19  20
ATOM     20  C   UNL     1       9.683   6.312  17.278  1.00  0.00     0.000 C 
BRANCH  20  21
ATOM     21  C   UNL     1      10.656   7.477  17.529  1.00  0.00     0.000 C 
BRANCH  21  22
ATOM     22  C   UNL     1      11.981   7.091  18.218  1.00  0.00    -0.000 C 
BRANCH  22  23
ATOM     23  C   UNL     1      12.399   5.622  17.988  1.00  0.00    -0.000 C 
BRANCH  23  24
ATOM     24  C   UNL     1      12.330   4.785  19.278  1.00  0.00    -0.000 C 
BRANCH  24  25
ATOM     25  C   UNL     1      11.516   3.492  19.103  1.00  0.00    -0.000 C 
BRANCH  25  26
ATOM     26  C   UNL     1      11.366   3.081  17.628  1.00  0.00    -0.000 C 
BRANCH  26  27
ATOM     27  C   UNL     1       9.944   2.570  17.305  1.00  0.00    -0.000 C 
BRANCH  27  28
ATOM     28  C   UNL     1       9.198   1.992  18.522  1.00  0.00    -0.000 C 
BRANCH  28  29
ATOM     29  C   UNL     1       8.040   1.041  18.178  1.00  0.00    -0.003 C 
ATOM     30  C   UNL     1       8.450  -0.431  18.209  1.00  0.00     0.004 C 
ENDBRANCH  28  29
ENDBRANCH  27  28
ENDBRANCH  26  27
ENDBRANCH  25  26
ENDBRANCH  24  25
ENDBRANCH  23  24
ENDBRANCH  22  23
ENDBRANCH  21  22
ENDBRANCH  20  21
ENDBRANCH  19  20
ENDBRANCH  18  19
ENDBRANCH  17  18
ENDBRANCH   1  17
TORSDOF 26
ENDMDL
MODEL 9
REMARK VINA RESULT:    -4.875      7.505     13.597
REMARK INTER + INTRA:         -15.453
REMARK INTER:                 -13.107
REMARK INTRA:                  -2.346
REMARK UNBOUND:                -3.167
REMARK SMILES CCCCCCCCCCCCCCCCCCCCCCCCCCCC(=O)[O-]
REMARK SMILES IDX 15 1 16 2 17 3 18 4 19 5 20 6 21 7 22 8 23 9 24 10 25 11
REMARK SMILES IDX 26 12 27 13 28 14 29 15 30 16 14 17 13 18 12 19 11 20 10 21
REMARK SMILES IDX 9 22 8 23 7 24 6 25 5 26 4 27 3 28 2 29 1 30
REMARK H PARENT
REMARK Flexibility Score: inf
ROOT
ATOM      1  C   UNL     1      12.097   4.874  20.271  1.00  0.00     0.000 C 
ENDROOT
BRANCH   1   2
ATOM      2  C   UNL     1      11.052   3.809  19.880  1.00  0.00     0.000 C 
BRANCH   2   3
ATOM      3  C   UNL     1      11.188   3.372  18.411  1.00  0.00     0.000 C 
BRANCH   3   4
ATOM      4  C   UNL     1       9.839   3.002  17.772  1.00  0.00     0.000 C 
BRANCH   4   5
ATOM      5  C   UNL     1       8.694   2.958  18.797  1.00  0.00     0.000 C 
BRANCH   5   6
ATOM      6  C   UNL     1       7.695   4.116  18.634  1.00  0.00     0.000 C 
BRANCH   6   7
ATOM      7  C   UNL     1       8.335   5.513  18.783  1.00  0.00     0.000 C 
BRANCH   7   8
ATOM      8  C   UNL     1       8.287   6.315  17.474  1.00  0.00     0.000 C 
BRANCH   8   9
ATOM      9  C   UNL     1       9.090   7.617  17.588  1.00  0.00     0.000 C 
BRANCH   9  10
ATOM     10  C   UNL     1      10.219   7.479  18.616  1.00  0.00     0.000 C 
BRANCH  10  11
ATOM     11  C   UNL     1      11.571   7.875  18.005  1.00  0.00     0.000 C 
BRANCH  11  12
ATOM     12  C   UNL     1      12.762   7.454  18.879  1.00  0.00     0.006 C 
BRANCH  12  13
ATOM     13  C   UNL     1      13.409   8.637  19.610  1.00  0.00     0.053 C 
BRANCH  13  14
ATOM     14  C   UNL     1      13.013   8.638  21.053  1.00  0.00     0.041 C 
ATOM     15  O   UNL     1      11.797   8.687  21.378  1.00  0.00    -0.550 OA
ATOM     16  O   UNL     1      13.990   8.631  22.042  1.00  0.00    -0.550 OA
ENDBRANCH  13  14
ENDBRANCH  12  13
ENDBRANCH  11  12
ENDBRANCH  10  11
ENDBRANCH   9  10
ENDBRANCH   8   9
ENDBRANCH   7   8
ENDBRANCH   6   7
ENDBRANCH   5   6
ENDBRANCH   4   5
ENDBRANCH   3   4
ENDBRANCH   2   3
ENDBRANCH   1   2
BRANCH   1  17
ATOM     17  C   UNL     1      12.019   5.297  21.752  1.00  0.00     0.000 C 
BRANCH  17  18
ATOM     18  C   UNL     1      12.496   4.184  22.706  1.00  0.00     0.000 C 
BRANCH  18  19
ATOM     19  C   UNL     1      13.600   4.660  23.674  1.00  0.00     0.000 C 
BRANCH  19  20
ATOM     20  C   UNL     1      14.022   3.615  24.725  1.00  0.00     0.000 C 
BRANCH  20  21
ATOM     21  C   UNL     1      15.296   2.819  24.391  1.00  0.00     0.000 C 
BRANCH  21  22
ATOM     22  C   UNL     1      15.347   1.388  24.965  1.00  0.00    -0.000 C 
BRANCH  22  23
ATOM     23  C   UNL     1      15.809   1.323  26.437  1.00  0.00    -0.000 C 
BRANCH  23  24
ATOM     24  C   UNL     1      14.627   1.311  27.422  1.00  0.00    -0.000 C 
BRANCH  24  25
ATOM     25  C   UNL     1      14.399  -0.071  28.058  1.00  0.00    -0.000 C 
BRANCH  25  26
ATOM     26  C   UNL     1      14.438  -1.212  27.026  1.00  0.00    -0.000 C 
BRANCH  26  27
ATOM     27  C   UNL     1      13.256  -1.141  26.033  1.00  0.00    -0.000 C 
BRANCH  27  28
ATOM     28  C   UNL     1      11.977  -0.522  26.628  1.00  0.00    -0.000 C 
BRANCH  28  29
ATOM     29  C   UNL     1      11.445   0.709  25.876  1.00  0.00    -0.003 C 
ATOM     30  C   UNL     1      11.779   0.685  24.385  1.00  0.00     0.004 C 
ENDBRANCH  28  29
ENDBRANCH  27  28
ENDBRANCH  26  27
ENDBRANCH  25  26
ENDBRANCH  24  25
ENDBRANCH  23  24
ENDBRANCH  22  23
ENDBRANCH  21  22
ENDBRANCH  20  21
ENDBRANCH  19  20
ENDBRANCH  18  19
ENDBRANCH  17  18
ENDBRANCH   1  17
TORSDOF 26
ENDMDL
