MODEL 1
REMARK VINA RESULT:    -5.259      0.000      0.000
REMARK INTER + INTRA:          -6.377
REMARK INTER:                  -6.489
REMARK INTRA:                   0.111
REMARK UNBOUND:                 0.111
REMARK SMILES O=c1c(O)c(-c2cc(O)c(O)c(O)c2)oc2cc(O)cc(O)c12
REMARK SMILES IDX 5 1 3 2 2 3 1 4 23 5 21 6 20 7 18 8 17 9 16 10 15 11 6 12
REMARK SMILES IDX 7 13 8 14 14 15 10 16 12 17 9 18 11 20 13 22 4 24 22 26
REMARK SMILES IDX 19 28
REMARK H PARENT 9 19 11 21 13 23 4 25 22 27 19 29
REMARK Flexibility Score: inf
ROOT
ATOM      1  C   UNL     1     221.442 216.537 224.391  1.00  0.00     0.180 A 
ATOM      2  C   UNL     1     220.042 216.560 224.269  1.00  0.00     0.208 A 
ATOM      3  C   UNL     1     219.368 217.787 224.387  1.00  0.00     0.238 A 
ATOM      4  O   UNL     1     218.120 217.810 224.224  1.00  0.00    -0.285 OA
ATOM      5  C   UNL     1     220.100 218.971 224.642  1.00  0.00     0.111 A 
ATOM      6  C   UNL     1     219.518 220.262 224.821  1.00  0.00     0.134 A 
ATOM      7  C   UNL     1     220.348 221.384 224.937  1.00  0.00     0.093 A 
ATOM      8  C   UNL     1     221.738 221.253 224.947  1.00  0.00     0.123 A 
ATOM      9  C   UNL     1     222.315 219.991 224.834  1.00  0.00     0.094 A 
ATOM     10  C   UNL     1     221.515 218.857 224.679  1.00  0.00     0.146 A 
ATOM     11  O   UNL     1     222.106 217.674 224.564  1.00  0.00    -0.452 OA
ENDROOT
BRANCH   1  12
ATOM     12  C   UNL     1     222.219 215.281 224.302  1.00  0.00     0.029 A 
ATOM     13  C   UNL     1     223.492 215.295 223.711  1.00  0.00     0.062 A 
ATOM     14  C   UNL     1     224.257 214.127 223.633  1.00  0.00     0.162 A 
ATOM     15  C   UNL     1     221.734 214.080 224.851  1.00  0.00     0.062 A 
ATOM     16  C   UNL     1     223.758 212.925 224.164  1.00  0.00     0.200 A 
ATOM     17  C   UNL     1     222.494 212.905 224.778  1.00  0.00     0.162 A 
BRANCH  14  18
ATOM     18  O   UNL     1     225.511 214.181 223.025  1.00  0.00    -0.504 OA
ATOM     19  H   UNL     1     225.886 215.039 222.637  1.00  0.00     0.293 HD
ENDBRANCH  14  18
BRANCH  16  20
ATOM     20  O   UNL     1     224.527 211.763 224.078  1.00  0.00    -0.502 OA
ATOM     21  H   UNL     1     225.336 211.695 223.473  1.00  0.00     0.293 HD
ENDBRANCH  16  20
BRANCH  17  22
ATOM     22  O   UNL     1     222.000 211.719 225.319  1.00  0.00    -0.504 OA
ATOM     23  H   UNL     1     221.105 211.684 225.794  1.00  0.00     0.293 HD
ENDBRANCH  17  22
ENDBRANCH   1  12
BRANCH   2  24
ATOM     24  O   UNL     1     219.340 215.383 223.996  1.00  0.00    -0.502 OA
ATOM     25  H   UNL     1     218.366 215.382 223.719  1.00  0.00     0.293 HD
ENDBRANCH   2  24
BRANCH   6  26
ATOM     26  O   UNL     1     218.142 220.490 224.917  1.00  0.00    -0.507 OA
ATOM     27  H   UNL     1     217.439 219.768 224.915  1.00  0.00     0.293 HD
ENDBRANCH   6  26
BRANCH   8  28
ATOM     28  O   UNL     1     222.556 222.374 225.080  1.00  0.00    -0.508 OA
ATOM     29  H   UNL     1     223.562 222.311 224.980  1.00  0.00     0.293 HD
ENDBRANCH   8  28
TORSDOF 7
ENDMDL
MODEL 2
REMARK VINA RESULT:    -5.254      5.580      8.147
REMARK INTER + INTRA:          -6.371
REMARK INTER:                  -6.502
REMARK INTRA:                   0.131
REMARK UNBOUND:                 0.111
REMARK SMILES O=c1c(O)c(-c2cc(O)c(O)c(O)c2)oc2cc(O)cc(O)c12
REMARK SMILES IDX 5 1 3 2 2 3 1 4 23 5 21 6 20 7 18 8 17 9 16 10 15 11 6 12
REMARK SMILES IDX 7 13 8 14 14 15 10 16 12 17 9 18 11 20 13 22 4 24 22 26
REMARK SMILES IDX 19 28
REMARK H PARENT 9 19 11 21 13 23 4 25 22 27 19 29
REMARK Flexibility Score: inf
ROOT
ATOM      1  C   UNL     1     216.542 212.947 224.390  1.00  0.00     0.180 A 
ATOM      2  C   UNL     1     216.566 214.348 224.268  1.00  0.00     0.208 A 
ATOM      3  C   UNL     1     217.792 215.021 224.391  1.00  0.00     0.238 A 
ATOM      4  O   UNL     1     217.816 216.269 224.227  1.00  0.00    -0.285 OA
ATOM      5  C   UNL     1     218.975 214.288 224.651  1.00  0.00     0.111 A 
ATOM      6  C   UNL     1     220.265 214.871 224.835  1.00  0.00     0.134 A 
ATOM      7  C   UNL     1     221.387 214.040 224.957  1.00  0.00     0.093 A 
ATOM      8  C   UNL     1     221.256 212.650 224.967  1.00  0.00     0.123 A 
ATOM      9  C   UNL     1     219.994 212.073 224.849  1.00  0.00     0.094 A 
ATOM     10  C   UNL     1     218.861 212.874 224.689  1.00  0.00     0.146 A 
ATOM     11  O   UNL     1     217.678 212.283 224.569  1.00  0.00    -0.452 OA
ENDROOT
BRANCH   1  12
ATOM     12  C   UNL     1     215.285 212.171 224.296  1.00  0.00     0.029 A 
ATOM     13  C   UNL     1     215.308 210.885 223.735  1.00  0.00     0.062 A 
ATOM     14  C   UNL     1     214.140 210.121 223.654  1.00  0.00     0.162 A 
ATOM     15  C   UNL     1     214.076 212.670 224.812  1.00  0.00     0.062 A 
ATOM     16  C   UNL     1     212.929 210.633 224.151  1.00  0.00     0.200 A 
ATOM     17  C   UNL     1     212.901 211.911 224.736  1.00  0.00     0.162 A 
BRANCH  14  18
ATOM     18  O   UNL     1     214.202 208.853 223.075  1.00  0.00    -0.504 OA
ATOM     19  H   UNL     1     215.076 208.441 222.771  1.00  0.00     0.293 HD
ENDBRANCH  14  18
BRANCH  16  20
ATOM     20  O   UNL     1     211.767 209.865 224.062  1.00  0.00    -0.502 OA
ATOM     21  H   UNL     1     210.844 210.281 224.058  1.00  0.00     0.293 HD
ENDBRANCH  16  20
BRANCH  17  22
ATOM     22  O   UNL     1     211.707 212.419 225.244  1.00  0.00    -0.504 OA
ATOM     23  H   UNL     1     210.826 212.289 224.761  1.00  0.00     0.293 HD
ENDBRANCH  17  22
ENDBRANCH   1  12
BRANCH   2  24
ATOM     24  O   UNL     1     215.390 215.050 223.989  1.00  0.00    -0.502 OA
ATOM     25  H   UNL     1     215.282 216.035 224.198  1.00  0.00     0.293 HD
ENDBRANCH   2  24
BRANCH   6  26
ATOM     26  O   UNL     1     220.494 216.246 224.931  1.00  0.00    -0.507 OA
ATOM     27  H   UNL     1     219.776 216.952 224.882  1.00  0.00     0.293 HD
ENDBRANCH   6  26
BRANCH   8  28
ATOM     28  O   UNL     1     222.375 211.832 225.105  1.00  0.00    -0.508 OA
ATOM     29  H   UNL     1     222.643 211.173 224.383  1.00  0.00     0.293 HD
ENDBRANCH   8  28
TORSDOF 7
ENDMDL
MODEL 3
REMARK VINA RESULT:    -5.253      6.945     11.499
REMARK INTER + INTRA:          -6.370
REMARK INTER:                  -6.482
REMARK INTRA:                   0.111
REMARK UNBOUND:                 0.111
REMARK SMILES O=c1c(O)c(-c2cc(O)c(O)c(O)c2)oc2cc(O)cc(O)c12
REMARK SMILES IDX 5 1 3 2 2 3 1 4 23 5 21 6 20 7 18 8 17 9 16 10 15 11 6 12
REMARK SMILES IDX 7 13 8 14 14 15 10 16 12 17 9 18 11 20 13 22 4 24 22 26
REMARK SMILES IDX 19 28
REMARK H PARENT 9 19 11 21 13 23 4 25 22 27 19 29
REMARK Flexibility Score: inf
ROOT
ATOM      1  C   UNL     1     212.976 217.857 224.418  1.00  0.00     0.180 A 
ATOM      2  C   UNL     1     214.376 217.844 224.294  1.00  0.00     0.208 A 
ATOM      3  C   UNL     1     215.059 216.623 224.417  1.00  0.00     0.238 A 
ATOM      4  O   UNL     1     216.307 216.608 224.253  1.00  0.00    -0.285 OA
ATOM      5  C   UNL     1     214.336 215.434 224.681  1.00  0.00     0.111 A 
ATOM      6  C   UNL     1     214.929 214.149 224.865  1.00  0.00     0.134 A 
ATOM      7  C   UNL     1     214.107 213.021 224.989  1.00  0.00     0.093 A 
ATOM      8  C   UNL     1     212.716 213.142 225.001  1.00  0.00     0.123 A 
ATOM      9  C   UNL     1     212.129 214.399 224.882  1.00  0.00     0.094 A 
ATOM     10  C   UNL     1     212.920 215.538 224.719  1.00  0.00     0.146 A 
ATOM     11  O   UNL     1     212.321 216.716 224.598  1.00  0.00    -0.452 OA
ENDROOT
BRANCH   1  12
ATOM     12  C   UNL     1     212.189 219.107 224.323  1.00  0.00     0.029 A 
ATOM     13  C   UNL     1     210.917 219.081 223.730  1.00  0.00     0.062 A 
ATOM     14  C   UNL     1     210.144 220.242 223.647  1.00  0.00     0.162 A 
ATOM     15  C   UNL     1     212.663 220.313 224.869  1.00  0.00     0.062 A 
ATOM     16  C   UNL     1     210.632 221.450 224.174  1.00  0.00     0.200 A 
ATOM     17  C   UNL     1     211.894 221.481 224.791  1.00  0.00     0.162 A 
BRANCH  14  18
ATOM     18  O   UNL     1     208.891 220.177 223.036  1.00  0.00    -0.504 OA
ATOM     19  H   UNL     1     208.415 221.002 222.694  1.00  0.00     0.293 HD
ENDBRANCH  14  18
BRANCH  16  20
ATOM     20  O   UNL     1     209.854 222.606 224.084  1.00  0.00    -0.502 OA
ATOM     21  H   UNL     1     209.044 222.758 224.672  1.00  0.00     0.293 HD
ENDBRANCH  16  20
BRANCH  17  22
ATOM     22  O   UNL     1     212.378 222.673 225.330  1.00  0.00    -0.504 OA
ATOM     23  H   UNL     1     213.337 222.969 225.188  1.00  0.00     0.293 HD
ENDBRANCH  17  22
ENDBRANCH   1  12
BRANCH   2  24
ATOM     24  O   UNL     1     215.068 219.024 224.013  1.00  0.00    -0.502 OA
ATOM     25  H   UNL     1     214.608 219.925 223.956  1.00  0.00     0.293 HD
ENDBRANCH   2  24
BRANCH   6  26
ATOM     26  O   UNL     1     216.306 213.932 224.960  1.00  0.00    -0.507 OA
ATOM     27  H   UNL     1     216.999 214.380 224.381  1.00  0.00     0.293 HD
ENDBRANCH   6  26
BRANCH   8  28
ATOM     28  O   UNL     1     211.907 212.016 225.141  1.00  0.00    -0.508 OA
ATOM     29  H   UNL     1     211.567 211.503 224.336  1.00  0.00     0.293 HD
ENDBRANCH   8  28
TORSDOF 7
ENDMDL
MODEL 4
REMARK VINA RESULT:    -5.252      5.564      8.135
REMARK INTER + INTRA:          -6.369
REMARK INTER:                  -6.487
REMARK INTRA:                   0.118
REMARK UNBOUND:                 0.111
REMARK SMILES O=c1c(O)c(-c2cc(O)c(O)c(O)c2)oc2cc(O)cc(O)c12
REMARK SMILES IDX 5 1 3 2 2 3 1 4 23 5 21 6 20 7 18 8 17 9 16 10 15 11 6 12
REMARK SMILES IDX 7 13 8 14 14 15 10 16 12 17 9 18 11 20 13 22 4 24 22 26
REMARK SMILES IDX 19 28
REMARK H PARENT 9 19 11 21 13 23 4 25 22 27 19 29
REMARK Flexibility Score: inf
ROOT
ATOM      1  C   UNL     1     217.859 221.417 224.398  1.00  0.00     0.180 A 
ATOM      2  C   UNL     1     217.841 220.017 224.272  1.00  0.00     0.208 A 
ATOM      3  C   UNL     1     216.617 219.339 224.387  1.00  0.00     0.238 A 
ATOM      4  O   UNL     1     216.598 218.092 224.220  1.00  0.00    -0.285 OA
ATOM      5  C   UNL     1     215.430 220.067 224.644  1.00  0.00     0.111 A 
ATOM      6  C   UNL     1     214.141 219.479 224.819  1.00  0.00     0.134 A 
ATOM      7  C   UNL     1     213.016 220.305 224.938  1.00  0.00     0.093 A 
ATOM      8  C   UNL     1     213.142 221.696 224.952  1.00  0.00     0.123 A 
ATOM      9  C   UNL     1     214.402 222.277 224.841  1.00  0.00     0.094 A 
ATOM     10  C   UNL     1     215.539 221.482 224.685  1.00  0.00     0.146 A 
ATOM     11  O   UNL     1     216.720 222.077 224.572  1.00  0.00    -0.452 OA
ENDROOT
BRANCH   1  12
ATOM     12  C   UNL     1     219.113 222.199 224.312  1.00  0.00     0.029 A 
ATOM     13  C   UNL     1     219.094 223.476 223.730  1.00  0.00     0.062 A 
ATOM     14  C   UNL     1     220.259 224.244 223.656  1.00  0.00     0.162 A 
ATOM     15  C   UNL     1     220.316 221.713 224.855  1.00  0.00     0.062 A 
ATOM     16  C   UNL     1     221.464 223.746 224.180  1.00  0.00     0.200 A 
ATOM     17  C   UNL     1     221.489 222.478 224.785  1.00  0.00     0.162 A 
BRANCH  14  18
ATOM     18  O   UNL     1     220.200 225.503 223.057  1.00  0.00    -0.504 OA
ATOM     19  H   UNL     1     219.431 226.142 223.219  1.00  0.00     0.293 HD
ENDBRANCH  14  18
BRANCH  16  20
ATOM     20  O   UNL     1     222.624 224.519 224.098  1.00  0.00    -0.502 OA
ATOM     21  H   UNL     1     223.062 224.922 224.917  1.00  0.00     0.293 HD
ENDBRANCH  16  20
BRANCH  17  22
ATOM     22  O   UNL     1     222.677 221.983 225.321  1.00  0.00    -0.504 OA
ATOM     23  H   UNL     1     222.687 221.186 225.946  1.00  0.00     0.293 HD
ENDBRANCH  17  22
ENDBRANCH   1  12
BRANCH   2  24
ATOM     24  O   UNL     1     219.021 219.320 223.997  1.00  0.00    -0.502 OA
ATOM     25  H   UNL     1     219.036 218.323 223.821  1.00  0.00     0.293 HD
ENDBRANCH   2  24
BRANCH   6  26
ATOM     26  O   UNL     1     213.917 218.102 224.911  1.00  0.00    -0.507 OA
ATOM     27  H   UNL     1     213.018 217.659 224.804  1.00  0.00     0.293 HD
ENDBRANCH   6  26
BRANCH   8  28
ATOM     28  O   UNL     1     212.019 222.510 225.087  1.00  0.00    -0.508 OA
ATOM     29  H   UNL     1     212.071 223.416 225.536  1.00  0.00     0.293 HD
ENDBRANCH   8  28
TORSDOF 7
ENDMDL
MODEL 5
REMARK VINA RESULT:    -5.065      1.512      3.431
REMARK INTER + INTRA:          -6.138
REMARK INTER:                  -5.784
REMARK INTRA:                  -0.354
REMARK UNBOUND:                 0.111
REMARK SMILES O=c1c(O)c(-c2cc(O)c(O)c(O)c2)oc2cc(O)cc(O)c12
REMARK SMILES IDX 5 1 3 2 2 3 1 4 23 5 21 6 20 7 18 8 17 9 16 10 15 11 6 12
REMARK SMILES IDX 7 13 8 14 14 15 10 16 12 17 9 18 11 20 13 22 4 24 22 26
REMARK SMILES IDX 19 28
REMARK H PARENT 9 19 11 21 13 23 4 25 22 27 19 29
REMARK Flexibility Score: inf
ROOT
ATOM      1  C   UNL     1     221.888 217.424 225.028  1.00  0.00     0.180 A 
ATOM      2  C   UNL     1     222.949 218.249 225.442  1.00  0.00     0.208 A 
ATOM      3  C   UNL     1     222.799 219.643 225.360  1.00  0.00     0.238 A 
ATOM      4  O   UNL     1     223.731 220.377 225.781  1.00  0.00    -0.285 OA
ATOM      5  C   UNL     1     221.599 220.194 224.850  1.00  0.00     0.111 A 
ATOM      6  C   UNL     1     221.355 221.590 224.685  1.00  0.00     0.134 A 
ATOM      7  C   UNL     1     220.082 222.027 224.295  1.00  0.00     0.093 A 
ATOM      8  C   UNL     1     219.066 221.115 224.002  1.00  0.00     0.123 A 
ATOM      9  C   UNL     1     219.313 219.748 224.103  1.00  0.00     0.094 A 
ATOM     10  C   UNL     1     220.560 219.283 224.524  1.00  0.00     0.146 A 
ATOM     11  O   UNL     1     220.751 217.972 224.617  1.00  0.00    -0.452 OA
ENDROOT
BRANCH   1  12
ATOM     12  C   UNL     1     221.980 215.947 225.063  1.00  0.00     0.029 A 
ATOM     13  C   UNL     1     221.375 215.241 226.114  1.00  0.00     0.062 A 
ATOM     14  C   UNL     1     221.429 213.845 226.159  1.00  0.00     0.162 A 
ATOM     15  C   UNL     1     222.612 215.229 224.031  1.00  0.00     0.062 A 
ATOM     16  C   UNL     1     222.080 213.133 225.137  1.00  0.00     0.200 A 
ATOM     17  C   UNL     1     222.668 213.830 224.069  1.00  0.00     0.162 A 
BRANCH  14  18
ATOM     18  O   UNL     1     220.827 213.181 227.229  1.00  0.00    -0.504 OA
ATOM     19  H   UNL     1     220.268 212.346 227.100  1.00  0.00     0.293 HD
ENDBRANCH  14  18
BRANCH  16  20
ATOM     20  O   UNL     1     222.131 211.739 225.193  1.00  0.00    -0.502 OA
ATOM     21  H   UNL     1     221.686 211.154 224.496  1.00  0.00     0.293 HD
ENDBRANCH  16  20
BRANCH  17  22
ATOM     22  O   UNL     1     223.303 213.129 223.044  1.00  0.00    -0.504 OA
ATOM     23  H   UNL     1     224.292 212.909 223.084  1.00  0.00     0.293 HD
ENDBRANCH  17  22
ENDBRANCH   1  12
BRANCH   2  24
ATOM     24  O   UNL     1     224.117 217.685 225.962  1.00  0.00    -0.502 OA
ATOM     25  H   UNL     1     224.829 217.268 225.375  1.00  0.00     0.293 HD
ENDBRANCH   2  24
BRANCH   6  26
ATOM     26  O   UNL     1     222.327 222.579 224.863  1.00  0.00    -0.507 OA
ATOM     27  H   UNL     1     222.936 222.922 224.137  1.00  0.00     0.293 HD
ENDBRANCH   6  26
BRANCH   8  28
ATOM     28  O   UNL     1     217.808 221.558 223.599  1.00  0.00    -0.508 OA
ATOM     29  H   UNL     1     217.135 220.931 223.176  1.00  0.00     0.293 HD
ENDBRANCH   8  28
TORSDOF 7
ENDMDL
MODEL 6
REMARK VINA RESULT:    -5.062      5.976      8.419
REMARK INTER + INTRA:          -6.134
REMARK INTER:                  -5.784
REMARK INTRA:                  -0.350
REMARK UNBOUND:                 0.111
REMARK SMILES O=c1c(O)c(-c2cc(O)c(O)c(O)c2)oc2cc(O)cc(O)c12
REMARK SMILES IDX 5 1 3 2 2 3 1 4 23 5 21 6 20 7 18 8 17 9 16 10 15 11 6 12
REMARK SMILES IDX 7 13 8 14 14 15 10 16 12 17 9 18 11 20 13 22 4 24 22 26
REMARK SMILES IDX 19 28
REMARK H PARENT 9 19 11 21 13 23 4 25 22 27 19 29
REMARK Flexibility Score: inf
ROOT
ATOM      1  C   UNL     1     216.964 221.895 225.033  1.00  0.00     0.180 A 
ATOM      2  C   UNL     1     216.151 222.969 225.436  1.00  0.00     0.208 A 
ATOM      3  C   UNL     1     214.755 222.835 225.354  1.00  0.00     0.238 A 
ATOM      4  O   UNL     1     214.032 223.778 225.766  1.00  0.00    -0.285 OA
ATOM      5  C   UNL     1     214.191 221.636 224.855  1.00  0.00     0.111 A 
ATOM      6  C   UNL     1     212.793 221.406 224.691  1.00  0.00     0.134 A 
ATOM      7  C   UNL     1     212.341 220.134 224.313  1.00  0.00     0.093 A 
ATOM      8  C   UNL     1     213.243 219.105 224.030  1.00  0.00     0.123 A 
ATOM      9  C   UNL     1     214.612 219.338 224.130  1.00  0.00     0.094 A 
ATOM     10  C   UNL     1     215.091 220.584 224.540  1.00  0.00     0.146 A 
ATOM     11  O   UNL     1     216.404 220.760 224.632  1.00  0.00    -0.452 OA
ENDROOT
BRANCH   1  12
ATOM     12  C   UNL     1     218.442 221.971 225.068  1.00  0.00     0.029 A 
ATOM     13  C   UNL     1     219.142 221.350 226.114  1.00  0.00     0.062 A 
ATOM     14  C   UNL     1     220.538 221.387 226.160  1.00  0.00     0.162 A 
ATOM     15  C   UNL     1     219.166 222.603 224.042  1.00  0.00     0.062 A 
ATOM     16  C   UNL     1     221.257 222.039 225.144  1.00  0.00     0.200 A 
ATOM     17  C   UNL     1     220.567 222.644 224.080  1.00  0.00     0.162 A 
BRANCH  14  18
ATOM     18  O   UNL     1     221.195 220.770 227.225  1.00  0.00    -0.504 OA
ATOM     19  H   UNL     1     222.021 221.170 227.654  1.00  0.00     0.293 HD
ENDBRANCH  14  18
BRANCH  16  20
ATOM     20  O   UNL     1     222.652 222.075 225.200  1.00  0.00    -0.502 OA
ATOM     21  H   UNL     1     223.208 222.552 224.500  1.00  0.00     0.293 HD
ENDBRANCH  16  20
BRANCH  17  22
ATOM     22  O   UNL     1     221.274 223.280 223.061  1.00  0.00    -0.504 OA
ATOM     23  H   UNL     1     222.284 223.216 222.994  1.00  0.00     0.293 HD
ENDBRANCH  17  22
ENDBRANCH   1  12
BRANCH   2  24
ATOM     24  O   UNL     1     216.728 224.135 225.945  1.00  0.00    -0.502 OA
ATOM     25  H   UNL     1     216.207 224.998 226.054  1.00  0.00     0.293 HD
ENDBRANCH   2  24
BRANCH   6  26
ATOM     26  O   UNL     1     211.815 222.390 224.859  1.00  0.00    -0.507 OA
ATOM     27  H   UNL     1     211.851 223.311 224.448  1.00  0.00     0.293 HD
ENDBRANCH   6  26
BRANCH   8  28
ATOM     28  O   UNL     1     212.786 217.849 223.639  1.00  0.00    -0.508 OA
ATOM     29  H   UNL     1     211.959 217.740 223.064  1.00  0.00     0.293 HD
ENDBRANCH   8  28
TORSDOF 7
ENDMDL
MODEL 7
REMARK VINA RESULT:    -5.055      5.091      8.154
REMARK INTER + INTRA:          -6.126
REMARK INTER:                  -5.776
REMARK INTRA:                  -0.350
REMARK UNBOUND:                 0.111
REMARK SMILES O=c1c(O)c(-c2cc(O)c(O)c(O)c2)oc2cc(O)cc(O)c12
REMARK SMILES IDX 5 1 3 2 2 3 1 4 23 5 21 6 20 7 18 8 17 9 16 10 15 11 6 12
REMARK SMILES IDX 7 13 8 14 14 15 10 16 12 17 9 18 11 20 13 22 4 24 22 26
REMARK SMILES IDX 19 28
REMARK H PARENT 9 19 11 21 13 23 4 25 22 27 19 29
REMARK Flexibility Score: inf
ROOT
ATOM      1  C   UNL     1     217.348 212.459 225.071  1.00  0.00     0.180 A 
ATOM      2  C   UNL     1     218.163 211.389 225.481  1.00  0.00     0.208 A 
ATOM      3  C   UNL     1     219.558 211.528 225.402  1.00  0.00     0.238 A 
ATOM      4  O   UNL     1     220.284 210.588 225.820  1.00  0.00    -0.285 OA
ATOM      5  C   UNL     1     220.120 212.726 224.898  1.00  0.00     0.111 A 
ATOM      6  C   UNL     1     221.518 212.960 224.736  1.00  0.00     0.134 A 
ATOM      7  C   UNL     1     221.967 214.230 224.352  1.00  0.00     0.093 A 
ATOM      8  C   UNL     1     221.063 215.255 224.062  1.00  0.00     0.123 A 
ATOM      9  C   UNL     1     219.694 215.019 224.160  1.00  0.00     0.094 A 
ATOM     10  C   UNL     1     219.218 213.774 224.576  1.00  0.00     0.146 A 
ATOM     11  O   UNL     1     217.906 213.594 224.666  1.00  0.00    -0.452 OA
ENDROOT
BRANCH   1  12
ATOM     12  C   UNL     1     215.870 212.379 225.103  1.00  0.00     0.029 A 
ATOM     13  C   UNL     1     215.166 213.001 226.146  1.00  0.00     0.062 A 
ATOM     14  C   UNL     1     213.769 212.959 226.189  1.00  0.00     0.162 A 
ATOM     15  C   UNL     1     215.150 211.741 224.077  1.00  0.00     0.062 A 
ATOM     16  C   UNL     1     213.054 212.302 225.173  1.00  0.00     0.200 A 
ATOM     17  C   UNL     1     213.749 211.696 224.112  1.00  0.00     0.162 A 
BRANCH  14  18
ATOM     18  O   UNL     1     213.108 213.578 227.250  1.00  0.00    -0.504 OA
ATOM     19  H   UNL     1     213.242 214.558 227.471  1.00  0.00     0.293 HD
ENDBRANCH  14  18
BRANCH  16  20
ATOM     20  O   UNL     1     211.660 212.263 225.226  1.00  0.00    -0.502 OA
ATOM     21  H   UNL     1     211.087 212.322 224.393  1.00  0.00     0.293 HD
ENDBRANCH  16  20
BRANCH  17  22
ATOM     22  O   UNL     1     213.046 211.055 223.094  1.00  0.00    -0.504 OA
ATOM     23  H   UNL     1     213.419 210.238 222.623  1.00  0.00     0.293 HD
ENDBRANCH  17  22
ENDBRANCH   1  12
BRANCH   2  24
ATOM     24  O   UNL     1     217.589 210.224 225.995  1.00  0.00    -0.502 OA
ATOM     25  H   UNL     1     217.799 209.877 226.923  1.00  0.00     0.293 HD
ENDBRANCH   2  24
BRANCH   6  26
ATOM     26  O   UNL     1     222.499 211.979 224.911  1.00  0.00    -0.507 OA
ATOM     27  H   UNL     1     222.654 211.204 224.285  1.00  0.00     0.293 HD
ENDBRANCH   6  26
BRANCH   8  28
ATOM     28  O   UNL     1     221.517 216.511 223.666  1.00  0.00    -0.508 OA
ATOM     29  H   UNL     1     221.844 217.194 224.339  1.00  0.00     0.293 HD
ENDBRANCH   8  28
TORSDOF 7
ENDMDL
MODEL 8
REMARK VINA RESULT:    -5.051      7.299     11.184
REMARK INTER + INTRA:          -6.120
REMARK INTER:                  -5.766
REMARK INTRA:                  -0.354
REMARK UNBOUND:                 0.111
REMARK SMILES O=c1c(O)c(-c2cc(O)c(O)c(O)c2)oc2cc(O)cc(O)c12
REMARK SMILES IDX 5 1 3 2 2 3 1 4 23 5 21 6 20 7 18 8 17 9 16 10 15 11 6 12
REMARK SMILES IDX 7 13 8 14 14 15 10 16 12 17 9 18 11 20 13 22 4 24 22 26
REMARK SMILES IDX 19 28
REMARK H PARENT 9 19 11 21 13 23 4 25 22 27 19 29
REMARK Flexibility Score: inf
ROOT
ATOM      1  C   UNL     1     212.469 216.942 224.998  1.00  0.00     0.180 A 
ATOM      2  C   UNL     1     211.407 216.114 225.406  1.00  0.00     0.208 A 
ATOM      3  C   UNL     1     211.568 214.721 225.343  1.00  0.00     0.238 A 
ATOM      4  O   UNL     1     210.635 213.985 225.760  1.00  0.00    -0.285 OA
ATOM      5  C   UNL     1     212.779 214.172 224.857  1.00  0.00     0.111 A 
ATOM      6  C   UNL     1     213.035 212.776 224.712  1.00  0.00     0.134 A 
ATOM      7  C   UNL     1     214.316 212.342 224.345  1.00  0.00     0.093 A 
ATOM      8  C   UNL     1     215.330 213.259 224.055  1.00  0.00     0.123 A 
ATOM      9  C   UNL     1     215.072 214.625 224.136  1.00  0.00     0.094 A 
ATOM     10  C   UNL     1     213.816 215.087 224.535  1.00  0.00     0.146 A 
ATOM     11  O   UNL     1     213.615 216.396 224.609  1.00  0.00    -0.452 OA
ENDROOT
BRANCH   1  12
ATOM     12  C   UNL     1     212.366 218.418 225.013  1.00  0.00     0.029 A 
ATOM     13  C   UNL     1     212.951 219.141 226.064  1.00  0.00     0.062 A 
ATOM     14  C   UNL     1     212.888 220.537 226.092  1.00  0.00     0.162 A 
ATOM     15  C   UNL     1     211.744 219.119 223.964  1.00  0.00     0.062 A 
ATOM     16  C   UNL     1     212.246 221.233 225.052  1.00  0.00     0.200 A 
ATOM     17  C   UNL     1     211.677 220.519 223.984  1.00  0.00     0.162 A 
BRANCH  14  18
ATOM     18  O   UNL     1     213.470 221.218 227.162  1.00  0.00    -0.504 OA
ATOM     19  H   UNL     1     213.380 222.220 227.276  1.00  0.00     0.293 HD
ENDBRANCH  14  18
BRANCH  16  20
ATOM     20  O   UNL     1     212.185 222.626 225.091  1.00  0.00    -0.502 OA
ATOM     21  H   UNL     1     212.773 223.176 225.706  1.00  0.00     0.293 HD
ENDBRANCH  16  20
BRANCH  17  22
ATOM     22  O   UNL     1     211.052 221.202 222.942  1.00  0.00    -0.504 OA
ATOM     23  H   UNL     1     210.372 220.750 222.342  1.00  0.00     0.293 HD
ENDBRANCH  17  22
ENDBRANCH   1  12
BRANCH   2  24
ATOM     24  O   UNL     1     210.229 216.676 225.902  1.00  0.00    -0.502 OA
ATOM     25  H   UNL     1     209.843 217.541 225.542  1.00  0.00     0.293 HD
ENDBRANCH   2  24
BRANCH   6  26
ATOM     26  O   UNL     1     212.067 211.782 224.888  1.00  0.00    -0.507 OA
ATOM     27  H   UNL     1     211.574 211.322 224.138  1.00  0.00     0.293 HD
ENDBRANCH   6  26
BRANCH   8  28
ATOM     28  O   UNL     1     216.597 212.819 223.676  1.00  0.00    -0.508 OA
ATOM     29  H   UNL     1     216.746 212.316 222.810  1.00  0.00     0.293 HD
ENDBRANCH   8  28
TORSDOF 7
ENDMDL
MODEL 9
REMARK VINA RESULT:    -4.917      7.290      9.099
REMARK INTER + INTRA:          -5.956
REMARK INTER:                  -5.589
REMARK INTRA:                  -0.367
REMARK UNBOUND:                 0.111
REMARK SMILES O=c1c(O)c(-c2cc(O)c(O)c(O)c2)oc2cc(O)cc(O)c12
REMARK SMILES IDX 5 1 3 2 2 3 1 4 23 5 21 6 20 7 18 8 17 9 16 10 15 11 6 12
REMARK SMILES IDX 7 13 8 14 14 15 10 16 12 17 9 18 11 20 13 22 4 24 22 26
REMARK SMILES IDX 19 28
REMARK H PARENT 9 19 11 21 13 23 4 25 22 27 19 29
REMARK Flexibility Score: inf
ROOT
ATOM      1  C   UNL     1     213.568 215.240 224.839  1.00  0.00     0.180 A 
ATOM      2  C   UNL     1     214.713 216.039 225.007  1.00  0.00     0.208 A 
ATOM      3  C   UNL     1     214.621 217.420 224.769  1.00  0.00     0.238 A 
ATOM      4  O   UNL     1     215.634 218.137 224.971  1.00  0.00    -0.285 OA
ATOM      5  C   UNL     1     213.390 217.982 224.351  1.00  0.00     0.111 A 
ATOM      6  C   UNL     1     213.193 219.361 224.043  1.00  0.00     0.134 A 
ATOM      7  C   UNL     1     211.902 219.830 223.766  1.00  0.00     0.093 A 
ATOM      8  C   UNL     1     210.813 218.956 223.723  1.00  0.00     0.123 A 
ATOM      9  C   UNL     1     211.006 217.598 223.963  1.00  0.00     0.094 A 
ATOM     10  C   UNL     1     212.275 217.107 224.278  1.00  0.00     0.146 A 
ATOM     11  O   UNL     1     212.413 215.807 224.511  1.00  0.00    -0.452 OA
ENDROOT
BRANCH   1  12
ATOM     12  C   UNL     1     213.593 213.775 225.048  1.00  0.00     0.029 A 
ATOM     13  C   UNL     1     213.196 213.246 226.286  1.00  0.00     0.062 A 
ATOM     14  C   UNL     1     213.190 211.865 226.503  1.00  0.00     0.162 A 
ATOM     15  C   UNL     1     213.950 212.895 224.012  1.00  0.00     0.062 A 
ATOM     16  C   UNL     1     213.569 210.990 225.471  1.00  0.00     0.200 A 
ATOM     17  C   UNL     1     213.945 211.509 224.221  1.00  0.00     0.162 A 
BRANCH  14  18
ATOM     18  O   UNL     1     212.802 211.381 227.753  1.00  0.00    -0.504 OA
ATOM     19  H   UNL     1     212.220 210.559 227.856  1.00  0.00     0.293 HD
ENDBRANCH  14  18
BRANCH  16  20
ATOM     20  O   UNL     1     213.563 209.613 225.699  1.00  0.00    -0.502 OA
ATOM     21  H   UNL     1     213.696 209.218 226.622  1.00  0.00     0.293 HD
ENDBRANCH  16  20
BRANCH  17  22
ATOM     22  O   UNL     1     214.308 210.646 223.188  1.00  0.00    -0.504 OA
ATOM     23  H   UNL     1     214.452 209.655 223.349  1.00  0.00     0.293 HD
ENDBRANCH  17  22
ENDBRANCH   1  12
BRANCH   2  24
ATOM     24  O   UNL     1     215.912 215.467 225.440  1.00  0.00    -0.502 OA
ATOM     25  H   UNL     1     216.094 215.258 226.414  1.00  0.00     0.293 HD
ENDBRANCH   2  24
BRANCH   6  26
ATOM     26  O   UNL     1     214.226 220.300 223.968  1.00  0.00    -0.507 OA
ATOM     27  H   UNL     1     214.094 221.288 223.817  1.00  0.00     0.293 HD
ENDBRANCH   6  26
BRANCH   8  28
ATOM     28  O   UNL     1     209.535 219.428 223.431  1.00  0.00    -0.508 OA
ATOM     29  H   UNL     1     208.962 218.999 222.714  1.00  0.00     0.293 HD
ENDBRANCH   8  28
TORSDOF 7
ENDMDL
