MODEL 1
REMARK VINA RESULT:    -3.639      0.000      0.000
REMARK INTER + INTRA:          -4.335
REMARK INTER:                  -4.277
REMARK INTRA:                  -0.058
REMARK UNBOUND:                -0.058
REMARK SMILES O=C([O-])CCC(=O)[O-]
REMARK SMILES IDX 4 1 2 2 1 3 3 4 5 5 6 6 7 7 8 8
REMARK H PARENT
REMARK Flexibility Score: inf
ROOT
ATOM      1  C   UNL     1      -2.269   8.480   7.959  1.00  0.00     0.059 C 
ENDROOT
BRANCH   1   2
ATOM      2  C   UNL     1      -3.684   8.925   8.163  1.00  0.00     0.042 C 
ATOM      3  O   UNL     1      -3.946   9.859   8.967  1.00  0.00    -0.550 OA
ATOM      4  O   UNL     1      -4.719   8.280   7.498  1.00  0.00    -0.550 OA
ENDBRANCH   1   2
BRANCH   1   5
ATOM      5  C   UNL     1      -1.566   8.204   9.292  1.00  0.00     0.059 C 
BRANCH   5   6
ATOM      6  C   UNL     1      -1.518   6.738   9.597  1.00  0.00     0.042 C 
ATOM      7  O   UNL     1      -2.534   6.018   9.413  1.00  0.00    -0.550 OA
ATOM      8  O   UNL     1      -0.362   6.174  10.123  1.00  0.00    -0.550 OA
ENDBRANCH   5   6
ENDBRANCH   1   5
TORSDOF 3
ENDMDL
MODEL 2
REMARK VINA RESULT:    -3.307     21.027     21.718
REMARK INTER + INTRA:          -3.945
REMARK INTER:                  -3.912
REMARK INTRA:                  -0.033
REMARK UNBOUND:                -0.058
REMARK SMILES O=C([O-])CCC(=O)[O-]
REMARK SMILES IDX 4 1 2 2 1 3 3 4 5 5 6 6 7 7 8 8
REMARK H PARENT
REMARK Flexibility Score: inf
ROOT
ATOM      1  C   UNL     1       6.172  -3.757  -6.972  1.00  0.00     0.059 C 
ENDROOT
BRANCH   1   2
ATOM      2  C   UNL     1       5.338  -4.479  -5.959  1.00  0.00     0.042 C 
ATOM      3  O   UNL     1       4.168  -4.088  -5.706  1.00  0.00    -0.550 OA
ATOM      4  O   UNL     1       5.868  -5.558  -5.265  1.00  0.00    -0.550 OA
ENDBRANCH   1   2
BRANCH   1   5
ATOM      5  C   UNL     1       7.578  -3.460  -6.438  1.00  0.00     0.059 C 
BRANCH   5   6
ATOM      6  C   UNL     1       8.410  -2.732  -7.449  1.00  0.00     0.042 C 
ATOM      7  O   UNL     1       7.859  -2.047  -8.350  1.00  0.00    -0.550 OA
ATOM      8  O   UNL     1       9.794  -2.846  -7.421  1.00  0.00    -0.550 OA
ENDBRANCH   5   6
ENDBRANCH   1   5
TORSDOF 3
ENDMDL
MODEL 3
REMARK VINA RESULT:    -3.294     21.042     21.749
REMARK INTER + INTRA:          -3.929
REMARK INTER:                  -3.897
REMARK INTRA:                  -0.033
REMARK UNBOUND:                -0.058
REMARK SMILES O=C([O-])CCC(=O)[O-]
REMARK SMILES IDX 4 1 2 2 1 3 3 4 5 5 6 6 7 7 8 8
REMARK H PARENT
REMARK Flexibility Score: inf
ROOT
ATOM      1  C   UNL     1       7.577  -3.390  -6.483  1.00  0.00     0.059 C 
ENDROOT
BRANCH   1   2
ATOM      2  C   UNL     1       8.372  -2.649  -7.514  1.00  0.00     0.042 C 
ATOM      3  O   UNL     1       7.788  -2.033  -8.445  1.00  0.00    -0.550 OA
ATOM      4  O   UNL     1       9.760  -2.673  -7.470  1.00  0.00    -0.550 OA
ENDBRANCH   1   2
BRANCH   1   5
ATOM      5  C   UNL     1       6.186  -3.764  -7.006  1.00  0.00     0.059 C 
BRANCH   5   6
ATOM      6  C   UNL     1       5.387  -4.495  -5.971  1.00  0.00     0.042 C 
ATOM      7  O   UNL     1       4.218  -4.122  -5.691  1.00  0.00    -0.550 OA
ATOM      8  O   UNL     1       5.950  -5.565  -5.286  1.00  0.00    -0.550 OA
ENDBRANCH   5   6
ENDBRANCH   1   5
TORSDOF 3
ENDMDL
MODEL 4
REMARK VINA RESULT:    -3.260     20.663     21.276
REMARK INTER + INTRA:          -3.890
REMARK INTER:                  -3.781
REMARK INTRA:                  -0.108
REMARK UNBOUND:                -0.058
REMARK SMILES O=C([O-])CCC(=O)[O-]
REMARK SMILES IDX 4 1 2 2 1 3 3 4 5 5 6 6 7 7 8 8
REMARK H PARENT
REMARK Flexibility Score: inf
ROOT
ATOM      1  C   UNL     1       4.804  -3.042  -7.396  1.00  0.00     0.059 C 
ENDROOT
BRANCH   1   2
ATOM      2  C   UNL     1       4.071  -4.053  -6.570  1.00  0.00     0.042 C 
ATOM      3  O   UNL     1       4.491  -4.362  -5.423  1.00  0.00    -0.550 OA
ATOM      4  O   UNL     1       2.946  -4.686  -7.083  1.00  0.00    -0.550 OA
ENDBRANCH   1   2
BRANCH   1   5
ATOM      5  C   UNL     1       6.127  -3.601  -7.930  1.00  0.00     0.059 C 
BRANCH   5   6
ATOM      6  C   UNL     1       7.301  -3.049  -7.181  1.00  0.00     0.042 C 
ATOM      7  O   UNL     1       8.012  -2.145  -7.692  1.00  0.00    -0.550 OA
ATOM      8  O   UNL     1       7.634  -3.564  -5.934  1.00  0.00    -0.550 OA
ENDBRANCH   5   6
ENDBRANCH   1   5
TORSDOF 3
ENDMDL
MODEL 5
REMARK VINA RESULT:    -3.257     20.640     21.370
REMARK INTER + INTRA:          -3.886
REMARK INTER:                  -3.784
REMARK INTRA:                  -0.102
REMARK UNBOUND:                -0.058
REMARK SMILES O=C([O-])CCC(=O)[O-]
REMARK SMILES IDX 4 1 2 2 1 3 3 4 5 5 6 6 7 7 8 8
REMARK H PARENT
REMARK Flexibility Score: inf
ROOT
ATOM      1  C   UNL     1       6.099  -3.509  -7.957  1.00  0.00     0.059 C 
ENDROOT
BRANCH   1   2
ATOM      2  C   UNL     1       7.277  -2.942  -7.226  1.00  0.00     0.042 C 
ATOM      3  O   UNL     1       7.983  -2.045  -7.760  1.00  0.00    -0.550 OA
ATOM      4  O   UNL     1       7.621  -3.434  -5.974  1.00  0.00    -0.550 OA
ENDBRANCH   1   2
BRANCH   1   5
ATOM      5  C   UNL     1       4.776  -2.987  -7.384  1.00  0.00     0.059 C 
BRANCH   5   6
ATOM      6  C   UNL     1       4.083  -4.029  -6.562  1.00  0.00     0.042 C 
ATOM      7  O   UNL     1       4.547  -4.367  -5.442  1.00  0.00    -0.550 OA
ATOM      8  O   UNL     1       2.944  -4.657  -7.052  1.00  0.00    -0.550 OA
ENDBRANCH   5   6
ENDBRANCH   1   5
TORSDOF 3
ENDMDL
MODEL 6
REMARK VINA RESULT:    -3.247     20.956     21.688
REMARK INTER + INTRA:          -3.875
REMARK INTER:                  -3.752
REMARK INTRA:                  -0.123
REMARK UNBOUND:                -0.058
REMARK SMILES O=C([O-])CCC(=O)[O-]
REMARK SMILES IDX 4 1 2 2 1 3 3 4 5 5 6 6 7 7 8 8
REMARK H PARENT
REMARK Flexibility Score: inf
ROOT
ATOM      1  C   UNL     1       4.660  -3.739  -6.523  1.00  0.00     0.059 C 
ENDROOT
BRANCH   1   2
ATOM      2  C   UNL     1       5.783  -4.551  -5.955  1.00  0.00     0.042 C 
ATOM      3  O   UNL     1       5.568  -5.712  -5.514  1.00  0.00    -0.550 OA
ATOM      4  O   UNL     1       7.059  -4.010  -5.875  1.00  0.00    -0.550 OA
ENDBRANCH   1   2
BRANCH   1   5
ATOM      5  C   UNL     1       4.641  -3.795  -8.054  1.00  0.00     0.059 C 
BRANCH   5   6
ATOM      6  C   UNL     1       5.126  -2.513  -8.658  1.00  0.00     0.042 C 
ATOM      7  O   UNL     1       6.357  -2.250  -8.687  1.00  0.00    -0.550 OA
ATOM      8  O   UNL     1       4.214  -1.589  -9.153  1.00  0.00    -0.550 OA
ENDBRANCH   5   6
ENDBRANCH   1   5
TORSDOF 3
ENDMDL
MODEL 7
REMARK VINA RESULT:    -3.234     20.919     21.393
REMARK INTER + INTRA:          -3.859
REMARK INTER:                  -3.816
REMARK INTRA:                  -0.043
REMARK UNBOUND:                -0.058
REMARK SMILES O=C([O-])CCC(=O)[O-]
REMARK SMILES IDX 4 1 2 2 1 3 3 4 5 5 6 6 7 7 8 8
REMARK H PARENT
REMARK Flexibility Score: inf
ROOT
ATOM      1  C   UNL     1       4.935  -3.549  -8.317  1.00  0.00     0.059 C 
ENDROOT
BRANCH   1   2
ATOM      2  C   UNL     1       5.241  -2.268  -9.029  1.00  0.00     0.042 C 
ATOM      3  O   UNL     1       6.435  -1.941  -9.263  1.00  0.00    -0.550 OA
ATOM      4  O   UNL     1       4.209  -1.415  -9.398  1.00  0.00    -0.550 OA
ENDBRANCH   1   2
BRANCH   1   5
ATOM      5  C   UNL     1       5.866  -3.764  -7.118  1.00  0.00     0.059 C 
BRANCH   5   6
ATOM      6  C   UNL     1       5.155  -4.434  -5.982  1.00  0.00     0.042 C 
ATOM      7  O   UNL     1       4.012  -4.042  -5.629  1.00  0.00    -0.550 OA
ATOM      8  O   UNL     1       5.774  -5.466  -5.287  1.00  0.00    -0.550 OA
ENDBRANCH   5   6
ENDBRANCH   1   5
TORSDOF 3
ENDMDL
MODEL 8
REMARK VINA RESULT:    -3.197     21.659     22.348
REMARK INTER + INTRA:          -3.816
REMARK INTER:                  -3.706
REMARK INTRA:                  -0.110
REMARK UNBOUND:                -0.058
REMARK SMILES O=C([O-])CCC(=O)[O-]
REMARK SMILES IDX 4 1 2 2 1 3 3 4 5 5 6 6 7 7 8 8
REMARK H PARENT
REMARK Flexibility Score: inf
ROOT
ATOM      1  C   UNL     1       7.683  -2.643  -7.531  1.00  0.00     0.059 C 
ENDROOT
BRANCH   1   2
ATOM      2  C   UNL     1       8.663  -1.828  -8.318  1.00  0.00     0.042 C 
ATOM      3  O   UNL     1       8.260  -0.890  -9.057  1.00  0.00    -0.550 OA
ATOM      4  O   UNL     1      10.017  -2.131  -8.269  1.00  0.00    -0.550 OA
ENDBRANCH   1   2
BRANCH   1   5
ATOM      5  C   UNL     1       6.635  -3.295  -8.438  1.00  0.00     0.059 C 
BRANCH   5   6
ATOM      6  C   UNL     1       5.277  -2.697  -8.229  1.00  0.00     0.042 C 
ATOM      7  O   UNL     1       4.821  -1.858  -9.048  1.00  0.00    -0.550 OA
ATOM      8  O   UNL     1       4.532  -3.038  -7.107  1.00  0.00    -0.550 OA
ENDBRANCH   5   6
ENDBRANCH   1   5
TORSDOF 3
ENDMDL
MODEL 9
REMARK VINA RESULT:    -3.167     21.643     22.199
REMARK INTER + INTRA:          -3.781
REMARK INTER:                  -3.682
REMARK INTRA:                  -0.099
REMARK UNBOUND:                -0.058
REMARK SMILES O=C([O-])CCC(=O)[O-]
REMARK SMILES IDX 4 1 2 2 1 3 3 4 5 5 6 6 7 7 8 8
REMARK H PARENT
REMARK Flexibility Score: inf
ROOT
ATOM      1  C   UNL     1       6.575  -3.259  -8.498  1.00  0.00     0.059 C 
ENDROOT
BRANCH   1   2
ATOM      2  C   UNL     1       5.226  -2.662  -8.237  1.00  0.00     0.042 C 
ATOM      3  O   UNL     1       4.745  -1.809  -9.030  1.00  0.00    -0.550 OA
ATOM      4  O   UNL     1       4.519  -3.017  -7.096  1.00  0.00    -0.550 OA
ENDBRANCH   1   2
BRANCH   1   5
ATOM      5  C   UNL     1       7.639  -2.683  -7.557  1.00  0.00     0.059 C 
BRANCH   5   6
ATOM      6  C   UNL     1       8.674  -1.902  -8.307  1.00  0.00     0.042 C 
ATOM      7  O   UNL     1       9.894  -2.187  -8.188  1.00  0.00    -0.550 OA
ATOM      8  O   UNL     1       8.292  -0.831  -9.107  1.00  0.00    -0.550 OA
ENDBRANCH   5   6
ENDBRANCH   1   5
TORSDOF 3
ENDMDL
