MODEL 1
REMARK VINA RESULT:    -5.611      0.000      0.000
REMARK INTER + INTRA:          -7.164
REMARK INTER:                  -7.580
REMARK INTRA:                   0.416
REMARK UNBOUND:                 0.416
REMARK SMILES C=C1CCC=C(C)CC[C@@H]2[C@H]1CC2(C)C
REMARK SMILES IDX 11 1 12 2 13 3 10 4 14 5 15 6 9 7 8 8 6 9 7 10 5 11 2 13
REMARK SMILES IDX 1 14 3 15 4 16
REMARK H PARENT
REMARK Flexibility Score: 70.00
ROOT
ATOM      1  C   UNL     1      -4.569 -15.942   9.040  1.00  0.00     0.018 C 
ATOM      2  C   UNL     1      -5.606 -16.017   7.908  1.00  0.00     0.015 C 
ATOM      3  C   UNL     1      -4.686 -15.182   6.998  1.00  0.00    -0.031 C 
ATOM      4  C   UNL     1      -3.661 -15.055   8.156  1.00  0.00     0.002 C 
ATOM      5  C   UNL     1      -4.225 -15.957   5.745  1.00  0.00     0.011 C 
ATOM      6  C   UNL     1      -5.317 -13.832   6.608  1.00  0.00     0.011 C 
ENDROOT
BRANCH   4   7
ATOM      7  C   UNL     1      -2.204 -15.533   7.897  1.00  0.00     0.009 C 
BRANCH   7   8
ATOM      8  C   UNL     1      -1.154 -15.016   8.913  1.00  0.00     0.030 C 
BRANCH   8   9
ATOM      9  C   UNL     1      -1.700 -14.537  10.252  1.00  0.00    -0.077 C 
ATOM     10  C   UNL     1      -1.777 -13.053  10.515  1.00  0.00     0.039 C 
ATOM     11  C   UNL     1      -2.092 -15.370  11.241  1.00  0.00    -0.028 CG0
ATOM     12  G   UNL     1      -2.133 -16.875  11.158  1.00  0.00     0.000 G0
ENDBRANCH   8   9
ENDBRANCH   7   8
ENDBRANCH   4   7
BRANCH   1  13
ATOM     13  C   UNL     1      -4.009 -17.281   9.536  1.00  0.00    -0.074 C 
ATOM     14  C   UNL     1      -3.826 -18.352   8.739  1.00  0.00     0.008 C 
BRANCH  13  15
ATOM     15  C   UNL     1      -3.576 -17.383  10.980  1.00  0.00     0.035 C 
BRANCH  15  16
ATOM     16  C   UNL     1      -2.138 -16.879  11.161  1.00  0.00     0.032 CG0
ATOM     17  G   UNL     1      -2.107 -15.374  11.232  1.00  0.00     0.000 G0
ENDBRANCH  15  16
ENDBRANCH  13  15
ENDBRANCH   1  13
TORSDOF 0
ENDMDL
MODEL 2
REMARK VINA RESULT:    -5.099      1.569      3.341
REMARK INTER + INTRA:          -6.473
REMARK INTER:                  -6.787
REMARK INTRA:                   0.315
REMARK UNBOUND:                 0.416
REMARK SMILES C=C1CCC=C(C)CC[C@@H]2[C@H]1CC2(C)C
REMARK SMILES IDX 11 1 12 2 13 3 10 4 14 5 15 6 9 7 8 8 6 9 7 10 5 11 2 13
REMARK SMILES IDX 1 14 3 15 4 16
REMARK H PARENT
REMARK Flexibility Score: 70.00
ROOT
ATOM      1  C   UNL     1      -2.640 -15.415   8.115  1.00  0.00     0.018 C 
ATOM      2  C   UNL     1      -3.383 -16.282   7.087  1.00  0.00     0.015 C 
ATOM      3  C   UNL     1      -3.732 -17.302   8.186  1.00  0.00    -0.031 C 
ATOM      4  C   UNL     1      -2.934 -16.460   9.217  1.00  0.00     0.002 C 
ATOM      5  C   UNL     1      -5.252 -17.430   8.421  1.00  0.00     0.011 C 
ATOM      6  C   UNL     1      -3.098 -18.683   7.926  1.00  0.00     0.011 C 
ENDROOT
BRANCH   4   7
ATOM      7  C   UNL     1      -3.675 -15.981  10.497  1.00  0.00     0.009 C 
BRANCH   7   8
ATOM      8  C   UNL     1      -2.806 -15.934  11.779  1.00  0.00     0.030 C 
BRANCH   8   9
ATOM      9  C   UNL     1      -2.434 -14.546  12.285  1.00  0.00    -0.077 C 
ATOM     10  C   UNL     1      -2.755 -14.185  13.714  1.00  0.00     0.039 C 
ATOM     11  C   UNL     1      -1.860 -13.598  11.512  1.00  0.00    -0.028 CG0
ATOM     12  G   UNL     1      -1.425 -13.776  10.079  1.00  0.00     0.000 G0
ENDBRANCH   8   9
ENDBRANCH   7   8
ENDBRANCH   4   7
BRANCH   1  13
ATOM     13  C   UNL     1      -3.172 -13.990   8.310  1.00  0.00    -0.074 C 
ATOM     14  C   UNL     1      -4.367 -13.572   7.848  1.00  0.00     0.008 C 
BRANCH  13  15
ATOM     15  C   UNL     1      -2.343 -13.023   9.123  1.00  0.00     0.035 C 
BRANCH  15  16
ATOM     16  C   UNL     1      -1.407 -13.769  10.082  1.00  0.00     0.032 CG0
ATOM     17  G   UNL     1      -1.856 -13.591  11.510  1.00  0.00     0.000 G0
ENDBRANCH  15  16
ENDBRANCH  13  15
ENDBRANCH   1  13
TORSDOF 0
ENDMDL
MODEL 3
REMARK VINA RESULT:    -5.051      1.921      4.929
REMARK INTER + INTRA:          -6.407
REMARK INTER:                  -6.604
REMARK INTRA:                   0.197
REMARK UNBOUND:                 0.416
REMARK SMILES C=C1CCC=C(C)CC[C@@H]2[C@H]1CC2(C)C
REMARK SMILES IDX 11 1 12 2 13 3 10 4 14 5 15 6 9 7 8 8 6 9 7 10 5 11 2 13
REMARK SMILES IDX 1 14 3 15 4 16
REMARK H PARENT
REMARK Flexibility Score: 70.00
ROOT
ATOM      1  C   UNL     1      -2.964 -14.564  10.642  1.00  0.00     0.018 C 
ATOM      2  C   UNL     1      -2.284 -14.138  11.953  1.00  0.00     0.015 C 
ATOM      3  C   UNL     1      -2.769 -15.431  12.635  1.00  0.00    -0.031 C 
ATOM      4  C   UNL     1      -3.506 -15.839  11.332  1.00  0.00     0.002 C 
ATOM      5  C   UNL     1      -1.605 -16.337  13.088  1.00  0.00     0.011 C 
ATOM      6  C   UNL     1      -3.734 -15.150  13.803  1.00  0.00     0.011 C 
ENDROOT
BRANCH   4   7
ATOM      7  C   UNL     1      -3.157 -17.215  10.697  1.00  0.00     0.009 C 
BRANCH   7   8
ATOM      8  C   UNL     1      -4.135 -17.694   9.594  1.00  0.00     0.030 C 
BRANCH   8   9
ATOM      9  C   UNL     1      -3.568 -17.757   8.182  1.00  0.00    -0.077 C 
ATOM     10  C   UNL     1      -3.118 -19.090   7.639  1.00  0.00     0.039 C 
ATOM     11  C   UNL     1      -3.412 -16.673   7.390  1.00  0.00    -0.028 CG0
ATOM     12  G   UNL     1      -3.838 -15.267   7.730  1.00  0.00     0.000 G0
ENDBRANCH   8   9
ENDBRANCH   7   8
ENDBRANCH   4   7
BRANCH   1  13
ATOM     13  C   UNL     1      -2.046 -14.735   9.427  1.00  0.00    -0.074 C 
ATOM     14  C   UNL     1      -0.794 -15.230   9.503  1.00  0.00     0.008 C 
BRANCH  13  15
ATOM     15  C   UNL     1      -2.597 -14.396   8.062  1.00  0.00     0.035 C 
BRANCH  15  16
ATOM     16  C   UNL     1      -3.825 -15.253   7.733  1.00  0.00     0.032 CG0
ATOM     17  G   UNL     1      -3.415 -16.664   7.395  1.00  0.00     0.000 G0
ENDBRANCH  15  16
ENDBRANCH  13  15
ENDBRANCH   1  13
TORSDOF 0
ENDMDL
MODEL 4
REMARK VINA RESULT:    -5.028      1.927      4.373
REMARK INTER + INTRA:          -6.376
REMARK INTER:                  -7.432
REMARK INTRA:                   1.057
REMARK UNBOUND:                 0.416
REMARK SMILES C=C1CCC=C(C)CC[C@@H]2[C@H]1CC2(C)C
REMARK SMILES IDX 11 1 12 2 13 3 10 4 14 5 15 6 9 7 8 8 6 9 7 10 5 11 2 13
REMARK SMILES IDX 1 14 3 15 4 16
REMARK H PARENT
REMARK Flexibility Score: 70.00
ROOT
ATOM      1  C   UNL     1      -2.785 -16.327  10.045  1.00  0.00     0.018 C 
ATOM      2  C   UNL     1      -1.841 -15.572  10.993  1.00  0.00     0.015 C 
ATOM      3  C   UNL     1      -1.524 -14.555   9.881  1.00  0.00    -0.031 C 
ATOM      4  C   UNL     1      -2.432 -15.346   8.902  1.00  0.00     0.002 C 
ATOM      5  C   UNL     1      -1.971 -13.122  10.239  1.00  0.00     0.011 C 
ATOM      6  C   UNL     1      -0.039 -14.580   9.470  1.00  0.00     0.011 C 
ENDROOT
BRANCH   4   7
ATOM      7  C   UNL     1      -3.597 -14.584   8.210  1.00  0.00     0.009 C 
BRANCH   7   8
ATOM      8  C   UNL     1      -3.733 -14.839   6.687  1.00  0.00     0.030 C 
BRANCH   8   9
ATOM      9  C   UNL     1      -4.889 -15.735   6.261  1.00  0.00    -0.077 C 
ATOM     10  C   UNL     1      -5.674 -15.369   5.026  1.00  0.00     0.039 C 
ATOM     11  C   UNL     1      -5.278 -16.831   6.950  1.00  0.00    -0.028 CG0
ATOM     12  G   UNL     1      -4.600 -17.385   8.177  1.00  0.00     0.000 G0
ENDBRANCH   8   9
ENDBRANCH   7   8
ENDBRANCH   4   7
BRANCH   1  13
ATOM     13  C   UNL     1      -4.251 -16.425  10.486  1.00  0.00    -0.074 C 
ATOM     14  C   UNL     1      -4.683 -16.083  11.716  1.00  0.00     0.008 C 
BRANCH  13  15
ATOM     15  C   UNL     1      -5.276 -16.863   9.466  1.00  0.00     0.035 C 
BRANCH  15  16
ATOM     16  C   UNL     1      -4.599 -17.389   8.194  1.00  0.00     0.032 CG0
ATOM     17  G   UNL     1      -5.274 -16.837   6.965  1.00  0.00     0.000 G0
ENDBRANCH  15  16
ENDBRANCH  13  15
ENDBRANCH   1  13
TORSDOF 0
ENDMDL
MODEL 5
REMARK VINA RESULT:    -4.380      1.913      4.228
REMARK INTER + INTRA:          -5.501
REMARK INTER:                  -5.926
REMARK INTRA:                   0.425
REMARK UNBOUND:                 0.416
REMARK SMILES C=C1CCC=C(C)CC[C@@H]2[C@H]1CC2(C)C
REMARK SMILES IDX 11 1 12 2 13 3 10 4 14 5 15 6 9 7 8 8 6 9 7 10 5 11 2 13
REMARK SMILES IDX 1 14 3 15 4 16
REMARK H PARENT
REMARK Flexibility Score: 70.00
ROOT
ATOM      1  C   UNL     1      -3.507 -14.273   8.781  1.00  0.00     0.018 C 
ATOM      2  C   UNL     1      -2.386 -13.221   8.783  1.00  0.00     0.015 C 
ATOM      3  C   UNL     1      -1.666 -13.978   9.914  1.00  0.00    -0.031 C 
ATOM      4  C   UNL     1      -2.823 -15.011   9.956  1.00  0.00     0.002 C 
ATOM      5  C   UNL     1      -0.279 -14.506   9.490  1.00  0.00     0.011 C 
ATOM      6  C   UNL     1      -1.565 -13.143  11.206  1.00  0.00     0.011 C 
ENDROOT
BRANCH   4   7
ATOM      7  C   UNL     1      -2.468 -16.513   9.765  1.00  0.00     0.009 C 
BRANCH   7   8
ATOM      8  C   UNL     1      -3.576 -17.508  10.195  1.00  0.00     0.030 C 
BRANCH   8   9
ATOM      9  C   UNL     1      -4.983 -16.935  10.304  1.00  0.00    -0.077 C 
ATOM     10  C   UNL     1      -5.543 -16.639  11.673  1.00  0.00     0.039 C 
ATOM     11  C   UNL     1      -5.781 -16.706   9.237  1.00  0.00    -0.028 CG0
ATOM     12  G   UNL     1      -5.394 -16.894   7.793  1.00  0.00     0.000 G0
ENDBRANCH   8   9
ENDBRANCH   7   8
ENDBRANCH   4   7
BRANCH   1  13
ATOM     13  C   UNL     1      -3.714 -15.039   7.469  1.00  0.00    -0.074 C 
ATOM     14  C   UNL     1      -2.710 -15.366   6.631  1.00  0.00     0.008 C 
BRANCH  13  15
ATOM     15  C   UNL     1      -5.109 -15.513   7.131  1.00  0.00     0.035 C 
BRANCH  15  16
ATOM     16  C   UNL     1      -5.398 -16.876   7.772  1.00  0.00     0.032 CG0
ATOM     17  G   UNL     1      -5.770 -16.713   9.224  1.00  0.00     0.000 G0
ENDBRANCH  15  16
ENDBRANCH  13  15
ENDBRANCH   1  13
TORSDOF 0
ENDMDL
MODEL 6
REMARK VINA RESULT:    -3.957      1.311      1.689
REMARK INTER + INTRA:          -4.930
REMARK INTER:                  -5.237
REMARK INTRA:                   0.307
REMARK UNBOUND:                 0.416
REMARK SMILES C=C1CCC=C(C)CC[C@@H]2[C@H]1CC2(C)C
REMARK SMILES IDX 11 1 12 2 13 3 10 4 14 5 15 6 9 7 8 8 6 9 7 10 5 11 2 13
REMARK SMILES IDX 1 14 3 15 4 16
REMARK H PARENT
REMARK Flexibility Score: 70.00
ROOT
ATOM      1  C   UNL     1      -4.510 -15.750  10.126  1.00  0.00     0.018 C 
ATOM      2  C   UNL     1      -5.446 -16.503   9.169  1.00  0.00     0.015 C 
ATOM      3  C   UNL     1      -4.448 -16.297   8.014  1.00  0.00    -0.031 C 
ATOM      4  C   UNL     1      -3.525 -15.486   8.962  1.00  0.00     0.002 C 
ATOM      5  C   UNL     1      -3.886 -17.627   7.468  1.00  0.00     0.011 C 
ATOM      6  C   UNL     1      -5.037 -15.441   6.877  1.00  0.00     0.011 C 
ENDROOT
BRANCH   4   7
ATOM      7  C   UNL     1      -2.054 -15.960   9.130  1.00  0.00     0.009 C 
BRANCH   7   8
ATOM      8  C   UNL     1      -1.084 -14.897   9.705  1.00  0.00     0.030 C 
BRANCH   8   9
ATOM      9  C   UNL     1      -1.723 -13.781  10.520  1.00  0.00    -0.077 C 
ATOM     10  C   UNL     1      -1.825 -12.404   9.911  1.00  0.00     0.039 C 
ATOM     11  C   UNL     1      -2.178 -13.944  11.782  1.00  0.00    -0.028 CG0
ATOM     12  G   UNL     1      -2.206 -15.243  12.546  1.00  0.00     0.000 G0
ENDBRANCH   8   9
ENDBRANCH   7   8
ENDBRANCH   4   7
BRANCH   1  13
ATOM     13  C   UNL     1      -4.001 -16.539  11.338  1.00  0.00    -0.074 C 
ATOM     14  C   UNL     1      -3.767 -17.866  11.317  1.00  0.00     0.008 C 
BRANCH  13  15
ATOM     15  C   UNL     1      -3.679 -15.778  12.602  1.00  0.00     0.035 C 
BRANCH  15  16
ATOM     16  C   UNL     1      -2.237 -15.255  12.579  1.00  0.00     0.032 CG0
ATOM     17  G   UNL     1      -2.153 -13.960  11.812  1.00  0.00     0.000 G0
ENDBRANCH  15  16
ENDBRANCH  13  15
ENDBRANCH   1  13
TORSDOF 0
ENDMDL
MODEL 7
REMARK VINA RESULT:    -3.727      1.802      3.770
REMARK INTER + INTRA:          -4.619
REMARK INTER:                  -6.631
REMARK INTRA:                   2.012
REMARK UNBOUND:                 0.416
REMARK SMILES C=C1CCC=C(C)CC[C@@H]2[C@H]1CC2(C)C
REMARK SMILES IDX 11 1 12 2 13 3 10 4 14 5 15 6 9 7 8 8 6 9 7 10 5 11 2 13
REMARK SMILES IDX 1 14 3 15 4 16
REMARK H PARENT
REMARK Flexibility Score: 70.00
ROOT
ATOM      1  C   UNL     1      -2.046 -15.554   9.369  1.00  0.00     0.018 C 
ATOM      2  C   UNL     1      -3.138 -15.617   8.290  1.00  0.00     0.015 C 
ATOM      3  C   UNL     1      -3.546 -17.022   8.772  1.00  0.00    -0.031 C 
ATOM      4  C   UNL     1      -2.408 -16.987   9.827  1.00  0.00     0.002 C 
ATOM      5  C   UNL     1      -4.991 -17.070   9.310  1.00  0.00     0.011 C 
ATOM      6  C   UNL     1      -3.326 -18.099   7.692  1.00  0.00     0.011 C 
ENDROOT
BRANCH   4   7
ATOM      7  C   UNL     1      -2.790 -17.201  11.319  1.00  0.00     0.009 C 
BRANCH   7   8
ATOM      8  C   UNL     1      -1.619 -17.054  12.322  1.00  0.00     0.030 C 
BRANCH   8   9
ATOM      9  C   UNL     1      -1.980 -16.501  13.694  1.00  0.00    -0.077 C 
ATOM     10  C   UNL     1      -1.953 -17.431  14.882  1.00  0.00     0.039 C 
ATOM     11  C   UNL     1      -2.361 -15.222  13.908  1.00  0.00    -0.028 CG0
ATOM     12  G   UNL     1      -2.410 -14.134  12.867  1.00  0.00     0.000 G0
ENDBRANCH   8   9
ENDBRANCH   7   8
ENDBRANCH   4   7
BRANCH   1  13
ATOM     13  C   UNL     1      -2.169 -14.417  10.391  1.00  0.00    -0.074 C 
ATOM     14  C   UNL     1      -1.563 -13.221  10.250  1.00  0.00     0.008 C 
BRANCH  13  15
ATOM     15  C   UNL     1      -3.074 -14.622  11.583  1.00  0.00     0.035 C 
BRANCH  15  16
ATOM     16  C   UNL     1      -2.412 -14.116  12.871  1.00  0.00     0.032 CG0
ATOM     17  G   UNL     1      -2.363 -15.208  13.909  1.00  0.00     0.000 G0
ENDBRANCH  15  16
ENDBRANCH  13  15
ENDBRANCH   1  13
TORSDOF 0
ENDMDL
MODEL 8
REMARK VINA RESULT:    -3.662      1.826      4.330
REMARK INTER + INTRA:          -4.531
REMARK INTER:                  -4.807
REMARK INTRA:                   0.277
REMARK UNBOUND:                 0.416
REMARK SMILES C=C1CCC=C(C)CC[C@@H]2[C@H]1CC2(C)C
REMARK SMILES IDX 11 1 12 2 13 3 10 4 14 5 15 6 9 7 8 8 6 9 7 10 5 11 2 13
REMARK SMILES IDX 1 14 3 15 4 16
REMARK H PARENT
REMARK Flexibility Score: 70.00
ROOT
ATOM      1  C   UNL     1      -2.646 -17.023  10.830  1.00  0.00     0.018 C 
ATOM      2  C   UNL     1      -3.022 -17.572  12.215  1.00  0.00     0.015 C 
ATOM      3  C   UNL     1      -2.460 -16.301  12.881  1.00  0.00    -0.031 C 
ATOM      4  C   UNL     1      -2.026 -15.768  11.490  1.00  0.00     0.002 C 
ATOM      5  C   UNL     1      -3.541 -15.492  13.628  1.00  0.00     0.011 C 
ATOM      6  C   UNL     1      -1.264 -16.604  13.804  1.00  0.00     0.011 C 
ENDROOT
BRANCH   4   7
ATOM      7  C   UNL     1      -2.554 -14.375  11.045  1.00  0.00     0.009 C 
BRANCH   7   8
ATOM      8  C   UNL     1      -1.726 -13.686   9.931  1.00  0.00     0.030 C 
BRANCH   8   9
ATOM      9  C   UNL     1      -0.949 -14.612   9.006  1.00  0.00    -0.077 C 
ATOM     10  C   UNL     1       0.556 -14.645   9.108  1.00  0.00     0.039 C 
ATOM     11  C   UNL     1      -1.530 -15.389   8.065  1.00  0.00    -0.028 CG0
ATOM     12  G   UNL     1      -3.013 -15.530   7.835  1.00  0.00     0.000 G0
ENDBRANCH   8   9
ENDBRANCH   7   8
ENDBRANCH   4   7
BRANCH   1  13
ATOM     13  C   UNL     1      -3.802 -16.824   9.843  1.00  0.00    -0.074 C 
ATOM     14  C   UNL     1      -5.060 -16.520  10.221  1.00  0.00     0.008 C 
BRANCH  13  15
ATOM     15  C   UNL     1      -3.501 -16.905   8.365  1.00  0.00     0.035 C 
BRANCH  15  16
ATOM     16  C   UNL     1      -3.025 -15.552   7.823  1.00  0.00     0.032 CG0
ATOM     17  G   UNL     1      -1.544 -15.380   8.048  1.00  0.00     0.000 G0
ENDBRANCH  15  16
ENDBRANCH  13  15
ENDBRANCH   1  13
TORSDOF 0
ENDMDL
MODEL 9
REMARK VINA RESULT:    -3.317      1.998      4.365
REMARK INTER + INTRA:          -4.065
REMARK INTER:                  -4.553
REMARK INTRA:                   0.488
REMARK UNBOUND:                 0.416
REMARK SMILES C=C1CCC=C(C)CC[C@@H]2[C@H]1CC2(C)C
REMARK SMILES IDX 11 1 12 2 13 3 10 4 14 5 15 6 9 7 8 8 6 9 7 10 5 11 2 13
REMARK SMILES IDX 1 14 3 15 4 16
REMARK H PARENT
REMARK Flexibility Score: 70.00
ROOT
ATOM      1  C   UNL     1      -2.915 -17.254  10.076  1.00  0.00     0.018 C 
ATOM      2  C   UNL     1      -2.922 -17.608  11.572  1.00  0.00     0.015 C 
ATOM      3  C   UNL     1      -2.379 -16.208  11.915  1.00  0.00    -0.031 C 
ATOM      4  C   UNL     1      -2.315 -15.866  10.402  1.00  0.00     0.002 C 
ATOM      5  C   UNL     1      -3.359 -15.383  12.774  1.00  0.00     0.011 C 
ATOM      6  C   UNL     1      -0.986 -16.265  12.572  1.00  0.00     0.011 C 
ENDROOT
BRANCH   4   7
ATOM      7  C   UNL     1      -3.081 -14.606   9.907  1.00  0.00     0.009 C 
BRANCH   7   8
ATOM      8  C   UNL     1      -2.831 -14.227   8.426  1.00  0.00     0.030 C 
BRANCH   8   9
ATOM      9  C   UNL     1      -4.026 -14.358   7.491  1.00  0.00    -0.077 C 
ATOM     10  C   UNL     1      -4.893 -13.147   7.249  1.00  0.00     0.039 C 
ATOM     11  C   UNL     1      -4.380 -15.513   6.887  1.00  0.00    -0.028 CG0
ATOM     12  G   UNL     1      -3.623 -16.815   6.966  1.00  0.00     0.000 G0
ENDBRANCH   8   9
ENDBRANCH   7   8
ENDBRANCH   4   7
BRANCH   1  13
ATOM     13  C   UNL     1      -4.270 -17.306   9.362  1.00  0.00    -0.074 C 
ATOM     14  C   UNL     1      -5.421 -16.875   9.916  1.00  0.00     0.008 C 
BRANCH  13  15
ATOM     15  C   UNL     1      -4.307 -17.803   7.936  1.00  0.00     0.035 C 
BRANCH  15  16
ATOM     16  C   UNL     1      -3.608 -16.819   6.990  1.00  0.00     0.032 CG0
ATOM     17  G   UNL     1      -4.377 -15.526   6.903  1.00  0.00     0.000 G0
ENDBRANCH  15  16
ENDBRANCH  13  15
ENDBRANCH   1  13
TORSDOF 0
ENDMDL
