MODEL 1
REMARK VINA RESULT:    -4.908      0.000      0.000
REMARK INTER + INTRA:          -5.294
REMARK INTER:                  -5.195
REMARK INTRA:                  -0.098
REMARK UNBOUND:                -0.098
REMARK SMILES C=C(C)[C@H]1CC=C(C)C(=O)C1
REMARK SMILES IDX 8 1 7 2 6 3 5 4 4 5 11 6 9 7 10 8 2 9 1 10 3 11
REMARK H PARENT
REMARK Flexibility Score: inf
ROOT
ATOM      1  C   UNL     1     -14.047  14.882 -32.426  1.00  0.00     0.048 C 
ATOM      2  C   UNL     1     -15.099  14.093 -31.696  1.00  0.00    -0.012 C 
ATOM      3  C   UNL     1     -14.742  13.119 -30.840  1.00  0.00    -0.019 C 
ATOM      4  C   UNL     1     -15.758  12.250 -30.149  1.00  0.00     0.036 C 
ATOM      5  C   UNL     1     -17.075  13.013 -29.913  1.00  0.00     0.025 C 
ATOM      6  C   UNL     1     -17.606  13.588 -31.239  1.00  0.00     0.089 C 
ATOM      7  C   UNL     1     -16.535  14.378 -31.943  1.00  0.00     0.158 C 
ATOM      8  O   UNL     1     -16.870  15.257 -32.781  1.00  0.00    -0.295 OA
ENDROOT
BRANCH   5   9
ATOM      9  C   UNL     1     -18.116  12.135 -29.233  1.00  0.00    -0.077 C 
ATOM     10  C   UNL     1     -19.424  12.356 -29.442  1.00  0.00     0.008 C 
ATOM     11  C   UNL     1     -17.714  11.005 -28.317  1.00  0.00     0.039 C 
ENDBRANCH   5   9
TORSDOF 1
ENDMDL
MODEL 2
REMARK VINA RESULT:    -4.906      1.709      4.577
REMARK INTER + INTRA:          -5.291
REMARK INTER:                  -5.196
REMARK INTRA:                  -0.095
REMARK UNBOUND:                -0.098
REMARK SMILES C=C(C)[C@H]1CC=C(C)C(=O)C1
REMARK SMILES IDX 8 1 7 2 6 3 5 4 4 5 11 6 9 7 10 8 2 9 1 10 3 11
REMARK H PARENT
REMARK Flexibility Score: inf
ROOT
ATOM      1  C   UNL     1     -18.005  13.191 -30.763  1.00  0.00     0.048 C 
ATOM      2  C   UNL     1     -16.613  13.760 -30.752  1.00  0.00    -0.012 C 
ATOM      3  C   UNL     1     -15.746  13.406 -29.788  1.00  0.00    -0.019 C 
ATOM      4  C   UNL     1     -14.370  14.010 -29.690  1.00  0.00     0.036 C 
ATOM      5  C   UNL     1     -13.832  14.400 -31.080  1.00  0.00     0.025 C 
ATOM      6  C   UNL     1     -14.828  15.330 -31.797  1.00  0.00     0.089 C 
ATOM      7  C   UNL     1     -16.208  14.733 -31.798  1.00  0.00     0.158 C 
ATOM      8  O   UNL     1     -17.037  15.101 -32.673  1.00  0.00    -0.295 OA
ENDROOT
BRANCH   5   9
ATOM      9  C   UNL     1     -12.450  15.030 -30.987  1.00  0.00    -0.077 C 
ATOM     10  C   UNL     1     -11.786  15.363 -32.106  1.00  0.00     0.008 C 
ATOM     11  C   UNL     1     -11.795  15.297 -29.655  1.00  0.00     0.039 C 
ENDBRANCH   5   9
TORSDOF 1
ENDMDL
MODEL 3
REMARK VINA RESULT:    -4.795      7.277      9.519
REMARK INTER + INTRA:          -5.173
REMARK INTER:                  -5.086
REMARK INTRA:                  -0.087
REMARK UNBOUND:                -0.098
REMARK SMILES C=C(C)[C@H]1CC=C(C)C(=O)C1
REMARK SMILES IDX 8 1 7 2 6 3 5 4 4 5 11 6 9 7 10 8 2 9 1 10 3 11
REMARK H PARENT
REMARK Flexibility Score: inf
ROOT
ATOM      1  C   UNL     1     -22.668  14.654 -30.180  1.00  0.00     0.048 C 
ATOM      2  C   UNL     1     -24.069  14.115 -30.087  1.00  0.00    -0.012 C 
ATOM      3  C   UNL     1     -24.280  12.839 -29.722  1.00  0.00    -0.019 C 
ATOM      4  C   UNL     1     -25.658  12.233 -29.694  1.00  0.00     0.036 C 
ATOM      5  C   UNL     1     -26.727  13.295 -29.372  1.00  0.00     0.025 C 
ATOM      6  C   UNL     1     -26.627  14.472 -30.359  1.00  0.00     0.089 C 
ATOM      7  C   UNL     1     -25.217  14.994 -30.425  1.00  0.00     0.158 C 
ATOM      8  O   UNL     1     -25.016  16.175 -30.814  1.00  0.00    -0.295 OA
ENDROOT
BRANCH   5   9
ATOM      9  C   UNL     1     -28.126  12.695 -29.362  1.00  0.00    -0.077 C 
ATOM     10  C   UNL     1     -28.897  12.804 -28.267  1.00  0.00     0.008 C 
ATOM     11  C   UNL     1     -28.680  11.972 -30.564  1.00  0.00     0.039 C 
ENDBRANCH   5   9
TORSDOF 1
ENDMDL
MODEL 4
REMARK VINA RESULT:    -4.713      8.935     11.637
REMARK INTER + INTRA:          -5.087
REMARK INTER:                  -4.991
REMARK INTRA:                  -0.096
REMARK UNBOUND:                -0.098
REMARK SMILES C=C(C)[C@H]1CC=C(C)C(=O)C1
REMARK SMILES IDX 8 1 7 2 6 3 5 4 4 5 11 6 9 7 10 8 2 9 1 10 3 11
REMARK H PARENT
REMARK Flexibility Score: inf
ROOT
ATOM      1  C   UNL     1     -30.369  10.875 -31.234  1.00  0.00     0.048 C 
ATOM      2  C   UNL     1     -29.036  11.476 -30.883  1.00  0.00    -0.012 C 
ATOM      3  C   UNL     1     -28.003  11.377 -31.738  1.00  0.00    -0.019 C 
ATOM      4  C   UNL     1     -26.630  11.892 -31.396  1.00  0.00     0.036 C 
ATOM      5  C   UNL     1     -26.710  13.104 -30.450  1.00  0.00     0.025 C 
ATOM      6  C   UNL     1     -27.530  12.751 -29.195  1.00  0.00     0.089 C 
ATOM      7  C   UNL     1     -28.859  12.160 -29.577  1.00  0.00     0.158 C 
ATOM      8  O   UNL     1     -29.813  12.210 -28.756  1.00  0.00    -0.295 OA
ENDROOT
BRANCH   5   9
ATOM      9  C   UNL     1     -25.325  13.618 -30.082  1.00  0.00    -0.077 C 
ATOM     10  C   UNL     1     -24.481  12.839 -29.387  1.00  0.00     0.008 C 
ATOM     11  C   UNL     1     -24.867  14.999 -30.483  1.00  0.00     0.039 C 
ENDBRANCH   5   9
TORSDOF 1
ENDMDL
MODEL 5
REMARK VINA RESULT:    -4.681     12.050     13.445
REMARK INTER + INTRA:          -5.053
REMARK INTER:                  -4.965
REMARK INTRA:                  -0.088
REMARK UNBOUND:                -0.098
REMARK SMILES C=C(C)[C@H]1CC=C(C)C(=O)C1
REMARK SMILES IDX 8 1 7 2 6 3 5 4 4 5 11 6 9 7 10 8 2 9 1 10 3 11
REMARK H PARENT
REMARK Flexibility Score: inf
ROOT
ATOM      1  C   UNL     1     -24.532  20.495 -34.237  1.00  0.00     0.048 C 
ATOM      2  C   UNL     1     -25.974  20.328 -33.843  1.00  0.00    -0.012 C 
ATOM      3  C   UNL     1     -26.930  21.044 -34.459  1.00  0.00    -0.019 C 
ATOM      4  C   UNL     1     -28.376  20.970 -34.044  1.00  0.00     0.036 C 
ATOM      5  C   UNL     1     -28.723  19.579 -33.479  1.00  0.00     0.025 C 
ATOM      6  C   UNL     1     -27.767  19.215 -32.329  1.00  0.00     0.089 C 
ATOM      7  C   UNL     1     -26.333  19.385 -32.754  1.00  0.00     0.158 C 
ATOM      8  O   UNL     1     -25.432  18.750 -32.144  1.00  0.00    -0.295 OA
ENDROOT
BRANCH   5   9
ATOM      9  C   UNL     1     -30.178  19.503 -33.038  1.00  0.00    -0.077 C 
ATOM     10  C   UNL     1     -31.125  19.117 -33.908  1.00  0.00     0.008 C 
ATOM     11  C   UNL     1     -30.592  19.852 -31.630  1.00  0.00     0.039 C 
ENDBRANCH   5   9
TORSDOF 1
ENDMDL
MODEL 6
REMARK VINA RESULT:    -4.634      1.695      2.158
REMARK INTER + INTRA:          -5.003
REMARK INTER:                  -4.905
REMARK INTRA:                  -0.098
REMARK UNBOUND:                -0.098
REMARK SMILES C=C(C)[C@H]1CC=C(C)C(=O)C1
REMARK SMILES IDX 8 1 7 2 6 3 5 4 4 5 11 6 9 7 10 8 2 9 1 10 3 11
REMARK H PARENT
REMARK Flexibility Score: inf
ROOT
ATOM      1  C   UNL     1     -12.380  15.475 -32.794  1.00  0.00     0.048 C 
ATOM      2  C   UNL     1     -13.538  14.910 -32.019  1.00  0.00    -0.012 C 
ATOM      3  C   UNL     1     -13.540  14.957 -30.676  1.00  0.00    -0.019 C 
ATOM      4  C   UNL     1     -14.637  14.332 -29.855  1.00  0.00     0.036 C 
ATOM      5  C   UNL     1     -15.979  14.356 -30.611  1.00  0.00     0.025 C 
ATOM      6  C   UNL     1     -15.829  13.688 -31.990  1.00  0.00     0.089 C 
ATOM      7  C   UNL     1     -14.669  14.278 -32.744  1.00  0.00     0.158 C 
ATOM      8  O   UNL     1     -14.644  14.192 -34.001  1.00  0.00    -0.295 OA
ENDROOT
BRANCH   5   9
ATOM      9  C   UNL     1     -17.090  13.708 -29.797  1.00  0.00    -0.077 C 
ATOM     10  C   UNL     1     -18.068  13.027 -30.416  1.00  0.00     0.008 C 
ATOM     11  C   UNL     1     -17.125  13.810 -28.292  1.00  0.00     0.039 C 
ENDBRANCH   5   9
TORSDOF 1
ENDMDL
MODEL 7
REMARK VINA RESULT:    -4.589      2.086      4.832
REMARK INTER + INTRA:          -4.955
REMARK INTER:                  -4.865
REMARK INTRA:                  -0.090
REMARK UNBOUND:                -0.098
REMARK SMILES C=C(C)[C@H]1CC=C(C)C(=O)C1
REMARK SMILES IDX 8 1 7 2 6 3 5 4 4 5 11 6 9 7 10 8 2 9 1 10 3 11
REMARK H PARENT
REMARK Flexibility Score: inf
ROOT
ATOM      1  C   UNL     1     -18.992  12.788 -29.774  1.00  0.00     0.048 C 
ATOM      2  C   UNL     1     -17.752  13.530 -30.190  1.00  0.00    -0.012 C 
ATOM      3  C   UNL     1     -17.577  13.890 -31.473  1.00  0.00    -0.019 C 
ATOM      4  C   UNL     1     -16.316  14.561 -31.951  1.00  0.00     0.036 C 
ATOM      5  C   UNL     1     -15.684  15.416 -30.836  1.00  0.00     0.025 C 
ATOM      6  C   UNL     1     -15.450  14.564 -29.575  1.00  0.00     0.089 C 
ATOM      7  C   UNL     1     -16.708  13.841 -29.180  1.00  0.00     0.158 C 
ATOM      8  O   UNL     1     -16.850  13.460 -27.987  1.00  0.00    -0.295 OA
ENDROOT
BRANCH   5   9
ATOM      9  C   UNL     1     -14.398  16.082 -31.304  1.00  0.00    -0.077 C 
ATOM     10  C   UNL     1     -14.020  17.259 -30.780  1.00  0.00     0.008 C 
ATOM     11  C   UNL     1     -13.521  15.447 -32.355  1.00  0.00     0.039 C 
ENDBRANCH   5   9
TORSDOF 1
ENDMDL
MODEL 8
REMARK VINA RESULT:    -4.482      1.927      2.605
REMARK INTER + INTRA:          -4.842
REMARK INTER:                  -4.747
REMARK INTRA:                  -0.095
REMARK UNBOUND:                -0.098
REMARK SMILES C=C(C)[C@H]1CC=C(C)C(=O)C1
REMARK SMILES IDX 8 1 7 2 6 3 5 4 4 5 11 6 9 7 10 8 2 9 1 10 3 11
REMARK H PARENT
REMARK Flexibility Score: inf
ROOT
ATOM      1  C   UNL     1     -12.590  15.934 -32.742  1.00  0.00     0.048 C 
ATOM      2  C   UNL     1     -13.818  15.402 -32.057  1.00  0.00    -0.012 C 
ATOM      3  C   UNL     1     -14.379  14.253 -32.471  1.00  0.00    -0.019 C 
ATOM      4  C   UNL     1     -15.654  13.724 -31.870  1.00  0.00     0.036 C 
ATOM      5  C   UNL     1     -15.786  14.136 -30.392  1.00  0.00     0.025 C 
ATOM      6  C   UNL     1     -15.664  15.664 -30.249  1.00  0.00     0.089 C 
ATOM      7  C   UNL     1     -14.423  16.165 -30.936  1.00  0.00     0.158 C 
ATOM      8  O   UNL     1     -13.926  17.267 -30.580  1.00  0.00    -0.295 OA
ENDROOT
BRANCH   5   9
ATOM      9  C   UNL     1     -17.082  13.622 -29.782  1.00  0.00    -0.077 C 
ATOM     10  C   UNL     1     -17.315  13.775 -28.468  1.00  0.00     0.008 C 
ATOM     11  C   UNL     1     -18.130  12.936 -30.623  1.00  0.00     0.039 C 
ENDBRANCH   5   9
TORSDOF 1
ENDMDL
MODEL 9
REMARK VINA RESULT:    -4.342      1.819      2.486
REMARK INTER + INTRA:          -4.694
REMARK INTER:                  -4.596
REMARK INTRA:                  -0.098
REMARK UNBOUND:                -0.098
REMARK SMILES C=C(C)[C@H]1CC=C(C)C(=O)C1
REMARK SMILES IDX 8 1 7 2 6 3 5 4 4 5 11 6 9 7 10 8 2 9 1 10 3 11
REMARK H PARENT
REMARK Flexibility Score: inf
ROOT
ATOM      1  C   UNL     1     -13.209  15.932 -31.784  1.00  0.00     0.048 C 
ATOM      2  C   UNL     1     -14.294  15.136 -31.113  1.00  0.00    -0.012 C 
ATOM      3  C   UNL     1     -15.318  15.763 -30.509  1.00  0.00    -0.019 C 
ATOM      4  C   UNL     1     -16.384  15.012 -29.756  1.00  0.00     0.036 C 
ATOM      5  C   UNL     1     -16.607  13.611 -30.357  1.00  0.00     0.025 C 
ATOM      6  C   UNL     1     -15.279  12.835 -30.417  1.00  0.00     0.089 C 
ATOM      7  C   UNL     1     -14.216  13.653 -31.099  1.00  0.00     0.158 C 
ATOM      8  O   UNL     1     -13.231  13.067 -31.623  1.00  0.00    -0.295 OA
ENDROOT
BRANCH   5   9
ATOM      9  C   UNL     1     -17.669  12.836 -29.588  1.00  0.00    -0.077 C 
ATOM     10  C   UNL     1     -17.306  11.870 -28.729  1.00  0.00     0.008 C 
ATOM     11  C   UNL     1     -19.138  13.128 -29.766  1.00  0.00     0.039 C 
ENDBRANCH   5   9
TORSDOF 1
ENDMDL
