MODEL 1
REMARK VINA RESULT:    -5.058      0.000      0.000
REMARK INTER + INTRA:          -5.846
REMARK INTER:                  -5.797
REMARK INTRA:                  -0.048
REMARK UNBOUND:                -0.048
REMARK SMILES O=C([O-])c1cc(O)c(O)c(O)c1
REMARK SMILES IDX 4 1 5 2 12 3 6 4 10 5 8 6 2 7 1 8 3 9 7 10 11 12 9 14
REMARK H PARENT 7 11 11 13 9 15
REMARK Flexibility Score: inf
ROOT
ATOM      1  C   UNL     1     -48.573 -13.244  12.021  1.00  0.00     0.005 A 
ATOM      2  C   UNL     1     -47.958 -13.308  10.758  1.00  0.00     0.060 A 
ATOM      3  C   UNL     1     -47.765 -13.195  13.169  1.00  0.00     0.060 A 
ATOM      4  C   UNL     1     -46.561 -13.321  10.643  1.00  0.00     0.162 A 
ATOM      5  C   UNL     1     -46.368 -13.208  13.060  1.00  0.00     0.162 A 
ATOM      6  C   UNL     1     -45.764 -13.271  11.798  1.00  0.00     0.200 A 
ENDROOT
BRANCH   1   7
ATOM      7  C   UNL     1     -50.047 -13.230  12.143  1.00  0.00     0.072 C 
ATOM      8  O   UNL     1     -50.746 -12.500  11.390  1.00  0.00    -0.545 OA
ATOM      9  O   UNL     1     -50.683 -14.024  13.091  1.00  0.00    -0.545 OA
ENDBRANCH   1   7
BRANCH   4  10
ATOM     10  O   UNL     1     -45.963 -13.384   9.384  1.00  0.00    -0.504 OA
ATOM     11  H   UNL     1     -45.845 -12.558   8.810  1.00  0.00     0.293 HD
ENDBRANCH   4  10
BRANCH   5  12
ATOM     12  O   UNL     1     -45.572 -13.158  14.203  1.00  0.00    -0.504 OA
ATOM     13  H   UNL     1     -44.626 -13.520  14.207  1.00  0.00     0.293 HD
ENDBRANCH   5  12
BRANCH   6  14
ATOM     14  O   UNL     1     -44.371 -13.283  11.710  1.00  0.00    -0.502 OA
ATOM     15  H   UNL     1     -43.783 -12.883  12.430  1.00  0.00     0.293 HD
ENDBRANCH   6  14
TORSDOF 4
ENDMDL
MODEL 2
REMARK VINA RESULT:    -5.025      1.771      4.938
REMARK INTER + INTRA:          -5.808
REMARK INTER:                  -5.762
REMARK INTRA:                  -0.045
REMARK UNBOUND:                -0.048
REMARK SMILES O=C([O-])c1cc(O)c(O)c(O)c1
REMARK SMILES IDX 4 1 5 2 12 3 6 4 10 5 8 6 2 7 1 8 3 9 7 10 11 12 9 14
REMARK H PARENT 7 11 11 13 9 15
REMARK Flexibility Score: inf
ROOT
ATOM      1  C   UNL     1     -48.447 -13.229  11.999  1.00  0.00     0.005 A 
ATOM      2  C   UNL     1     -48.291 -13.249  13.396  1.00  0.00     0.060 A 
ATOM      3  C   UNL     1     -49.744 -13.213  11.459  1.00  0.00     0.060 A 
ATOM      4  C   UNL     1     -49.412 -13.252  14.240  1.00  0.00     0.162 A 
ATOM      5  C   UNL     1     -50.866 -13.215  12.298  1.00  0.00     0.162 A 
ATOM      6  C   UNL     1     -50.702 -13.235  13.688  1.00  0.00     0.200 A 
ENDROOT
BRANCH   1   7
ATOM      7  C   UNL     1     -47.266 -13.227  11.108  1.00  0.00     0.072 C 
ATOM      8  O   UNL     1     -46.960 -12.196  10.451  1.00  0.00    -0.545 OA
ATOM      9  O   UNL     1     -46.476 -14.363  10.984  1.00  0.00    -0.545 OA
ENDBRANCH   1   7
BRANCH   4  10
ATOM     10  O   UNL     1     -49.244 -13.272  15.625  1.00  0.00    -0.504 OA
ATOM     11  H   UNL     1     -48.373 -13.564  16.050  1.00  0.00     0.293 HD
ENDBRANCH   4  10
BRANCH   5  12
ATOM     12  O   UNL     1     -52.151 -13.197  11.755  1.00  0.00    -0.504 OA
ATOM     13  H   UNL     1     -52.965 -13.427  12.312  1.00  0.00     0.293 HD
ENDBRANCH   5  12
BRANCH   6  14
ATOM     14  O   UNL     1     -51.833 -13.237  14.507  1.00  0.00    -0.502 OA
ATOM     15  H   UNL     1     -51.821 -12.848  15.442  1.00  0.00     0.293 HD
ENDBRANCH   6  14
TORSDOF 4
ENDMDL
MODEL 3
REMARK VINA RESULT:    -5.025      2.951      5.339
REMARK INTER + INTRA:          -5.808
REMARK INTER:                  -5.755
REMARK INTRA:                  -0.053
REMARK UNBOUND:                -0.048
REMARK SMILES O=C([O-])c1cc(O)c(O)c(O)c1
REMARK SMILES IDX 4 1 5 2 12 3 6 4 10 5 8 6 2 7 1 8 3 9 7 10 11 12 9 14
REMARK H PARENT 7 11 11 13 9 15
REMARK Flexibility Score: inf
ROOT
ATOM      1  C   UNL     1     -44.916 -10.629  12.871  1.00  0.00     0.005 A 
ATOM      2  C   UNL     1     -45.882 -10.106  13.748  1.00  0.00     0.060 A 
ATOM      3  C   UNL     1     -44.887 -12.014  12.635  1.00  0.00     0.060 A 
ATOM      4  C   UNL     1     -46.805 -10.952  14.380  1.00  0.00     0.162 A 
ATOM      5  C   UNL     1     -45.808 -12.863  13.264  1.00  0.00     0.162 A 
ATOM      6  C   UNL     1     -46.767 -12.335  14.136  1.00  0.00     0.200 A 
ENDROOT
BRANCH   1   7
ATOM      7  C   UNL     1     -43.941  -9.737  12.204  1.00  0.00     0.072 C 
ATOM      8  O   UNL     1     -43.088 -10.205  11.403  1.00  0.00    -0.545 OA
ATOM      9  O   UNL     1     -43.952  -8.370  12.454  1.00  0.00    -0.545 OA
ENDBRANCH   1   7
BRANCH   4  10
ATOM     10  O   UNL     1     -47.759 -10.422  15.248  1.00  0.00    -0.504 OA
ATOM     11  H   UNL     1     -47.541 -10.215  16.215  1.00  0.00     0.293 HD
ENDBRANCH   4  10
BRANCH   5  12
ATOM     12  O   UNL     1     -45.776 -14.236  13.025  1.00  0.00    -0.504 OA
ATOM     13  H   UNL     1     -45.081 -14.834  13.457  1.00  0.00     0.293 HD
ENDBRANCH   5  12
BRANCH   6  14
ATOM     14  O   UNL     1     -47.676 -13.197  14.752  1.00  0.00    -0.502 OA
ATOM     15  H   UNL     1     -48.511 -13.525  14.282  1.00  0.00     0.293 HD
ENDBRANCH   6  14
TORSDOF 4
ENDMDL
MODEL 4
REMARK VINA RESULT:    -5.015      0.104      2.423
REMARK INTER + INTRA:          -5.796
REMARK INTER:                  -5.748
REMARK INTRA:                  -0.048
REMARK UNBOUND:                -0.048
REMARK SMILES O=C([O-])c1cc(O)c(O)c(O)c1
REMARK SMILES IDX 4 1 5 2 12 3 6 4 10 5 8 6 2 7 1 8 3 9 7 10 11 12 9 14
REMARK H PARENT 7 11 11 13 9 15
REMARK Flexibility Score: inf
ROOT
ATOM      1  C   UNL     1     -48.515 -13.254  12.047  1.00  0.00     0.005 A 
ATOM      2  C   UNL     1     -47.673 -13.238  13.173  1.00  0.00     0.060 A 
ATOM      3  C   UNL     1     -47.940 -13.271  10.766  1.00  0.00     0.060 A 
ATOM      4  C   UNL     1     -46.279 -13.241  13.022  1.00  0.00     0.162 A 
ATOM      5  C   UNL     1     -46.547 -13.274  10.610  1.00  0.00     0.162 A 
ATOM      6  C   UNL     1     -45.715 -13.259  11.736  1.00  0.00     0.200 A 
ENDROOT
BRANCH   1   7
ATOM      7  C   UNL     1     -49.987 -13.251  12.205  1.00  0.00     0.072 C 
ATOM      8  O   UNL     1     -50.705 -12.488  11.506  1.00  0.00    -0.545 OA
ATOM      9  O   UNL     1     -50.597 -14.090  13.130  1.00  0.00    -0.545 OA
ENDBRANCH   1   7
BRANCH   4  10
ATOM     10  O   UNL     1     -45.454 -13.225  14.146  1.00  0.00    -0.504 OA
ATOM     11  H   UNL     1     -45.203 -14.078  14.633  1.00  0.00     0.293 HD
ENDBRANCH   4  10
BRANCH   5  12
ATOM     12  O   UNL     1     -45.982 -13.293   9.336  1.00  0.00    -0.504 OA
ATOM     13  H   UNL     1     -45.105 -13.767   9.151  1.00  0.00     0.293 HD
ENDBRANCH   5  12
BRANCH   6  14
ATOM     14  O   UNL     1     -44.331 -13.262  11.560  1.00  0.00    -0.502 OA
ATOM     15  H   UNL     1     -43.904 -13.158  10.647  1.00  0.00     0.293 HD
ENDBRANCH   6  14
TORSDOF 4
ENDMDL
MODEL 5
REMARK VINA RESULT:    -5.012      2.902      5.013
REMARK INTER + INTRA:          -5.793
REMARK INTER:                  -5.740
REMARK INTRA:                  -0.053
REMARK UNBOUND:                -0.048
REMARK SMILES O=C([O-])c1cc(O)c(O)c(O)c1
REMARK SMILES IDX 4 1 5 2 12 3 6 4 10 5 8 6 2 7 1 8 3 9 7 10 11 12 9 14
REMARK H PARENT 7 11 11 13 9 15
REMARK Flexibility Score: inf
ROOT
ATOM      1  C   UNL     1     -45.035 -10.723  12.915  1.00  0.00     0.005 A 
ATOM      2  C   UNL     1     -45.072 -12.102  12.641  1.00  0.00     0.060 A 
ATOM      3  C   UNL     1     -45.954 -10.186  13.832  1.00  0.00     0.060 A 
ATOM      4  C   UNL     1     -46.009 -12.931  13.273  1.00  0.00     0.162 A 
ATOM      5  C   UNL     1     -46.892 -11.011  14.467  1.00  0.00     0.162 A 
ATOM      6  C   UNL     1     -46.922 -12.383  14.189  1.00  0.00     0.200 A 
ENDROOT
BRANCH   1   7
ATOM      7  C   UNL     1     -44.047  -9.847  12.247  1.00  0.00     0.072 C 
ATOM      8  O   UNL     1     -43.264 -10.311  11.375  1.00  0.00    -0.545 OA
ATOM      9  O   UNL     1     -43.967  -8.498  12.574  1.00  0.00    -0.545 OA
ENDBRANCH   1   7
BRANCH   4  10
ATOM     10  O   UNL     1     -46.035 -14.297  12.994  1.00  0.00    -0.504 OA
ATOM     11  H   UNL     1     -45.804 -14.988  13.697  1.00  0.00     0.293 HD
ENDBRANCH   4  10
BRANCH   5  12
ATOM     12  O   UNL     1     -47.800 -10.472  15.378  1.00  0.00    -0.504 OA
ATOM     13  H   UNL     1     -47.523  -9.765  16.049  1.00  0.00     0.293 HD
ENDBRANCH   5  12
BRANCH   6  14
ATOM     14  O   UNL     1     -47.864 -13.188  14.832  1.00  0.00    -0.502 OA
ATOM     15  H   UNL     1     -47.595 -13.976  15.408  1.00  0.00     0.293 HD
ENDBRANCH   6  14
TORSDOF 4
ENDMDL
MODEL 6
REMARK VINA RESULT:    -5.010      1.773      4.429
REMARK INTER + INTRA:          -5.791
REMARK INTER:                  -5.745
REMARK INTRA:                  -0.046
REMARK UNBOUND:                -0.048
REMARK SMILES O=C([O-])c1cc(O)c(O)c(O)c1
REMARK SMILES IDX 4 1 5 2 12 3 6 4 10 5 8 6 2 7 1 8 3 9 7 10 11 12 9 14
REMARK H PARENT 7 11 11 13 9 15
REMARK Flexibility Score: inf
ROOT
ATOM      1  C   UNL     1     -48.498 -13.222  12.017  1.00  0.00     0.005 A 
ATOM      2  C   UNL     1     -49.796 -13.225  11.478  1.00  0.00     0.060 A 
ATOM      3  C   UNL     1     -48.340 -13.226  13.413  1.00  0.00     0.060 A 
ATOM      4  C   UNL     1     -50.919 -13.235  12.318  1.00  0.00     0.162 A 
ATOM      5  C   UNL     1     -49.459 -13.236  14.257  1.00  0.00     0.162 A 
ATOM      6  C   UNL     1     -50.749 -13.240  13.712  1.00  0.00     0.200 A 
ENDROOT
BRANCH   1   7
ATOM      7  C   UNL     1     -47.312 -13.211  11.132  1.00  0.00     0.072 C 
ATOM      8  O   UNL     1     -47.046 -12.199  10.429  1.00  0.00    -0.545 OA
ATOM      9  O   UNL     1     -46.475 -14.318  11.062  1.00  0.00    -0.545 OA
ENDBRANCH   1   7
BRANCH   4  10
ATOM     10  O   UNL     1     -52.201 -13.238  11.771  1.00  0.00    -0.504 OA
ATOM     11  H   UNL     1     -52.963 -12.725  12.197  1.00  0.00     0.293 HD
ENDBRANCH   4  10
BRANCH   5  12
ATOM     12  O   UNL     1     -49.296 -13.243  15.642  1.00  0.00    -0.504 OA
ATOM     13  H   UNL     1     -48.382 -13.337  16.068  1.00  0.00     0.293 HD
ENDBRANCH   5  12
BRANCH   6  14
ATOM     14  O   UNL     1     -51.850 -13.250  14.569  1.00  0.00    -0.502 OA
ATOM     15  H   UNL     1     -52.469 -12.453  14.659  1.00  0.00     0.293 HD
ENDBRANCH   6  14
TORSDOF 4
ENDMDL
MODEL 7
REMARK VINA RESULT:    -5.003      1.356      4.825
REMARK INTER + INTRA:          -5.783
REMARK INTER:                  -5.732
REMARK INTRA:                  -0.051
REMARK UNBOUND:                -0.048
REMARK SMILES O=C([O-])c1cc(O)c(O)c(O)c1
REMARK SMILES IDX 4 1 5 2 12 3 6 4 10 5 8 6 2 7 1 8 3 9 7 10 11 12 9 14
REMARK H PARENT 7 11 11 13 9 15
REMARK Flexibility Score: inf
ROOT
ATOM      1  C   UNL     1     -46.849 -13.268  12.819  1.00  0.00     0.005 A 
ATOM      2  C   UNL     1     -47.535 -12.757  13.935  1.00  0.00     0.060 A 
ATOM      3  C   UNL     1     -47.588 -13.801  11.750  1.00  0.00     0.060 A 
ATOM      4  C   UNL     1     -48.936 -12.777  13.982  1.00  0.00     0.162 A 
ATOM      5  C   UNL     1     -48.988 -13.823  11.793  1.00  0.00     0.162 A 
ATOM      6  C   UNL     1     -49.665 -13.312  12.908  1.00  0.00     0.200 A 
ENDROOT
BRANCH   1   7
ATOM      7  C   UNL     1     -45.370 -13.247  12.769  1.00  0.00     0.072 C 
ATOM      8  O   UNL     1     -44.767 -13.133  11.668  1.00  0.00    -0.545 OA
ATOM      9  O   UNL     1     -44.624 -13.354  13.937  1.00  0.00    -0.545 OA
ENDBRANCH   1   7
BRANCH   4  10
ATOM     10  O   UNL     1     -49.606 -12.267  15.095  1.00  0.00    -0.504 OA
ATOM     11  H   UNL     1     -50.545 -11.894  15.025  1.00  0.00     0.293 HD
ENDBRANCH   4  10
BRANCH   5  12
ATOM     12  O   UNL     1     -49.717 -14.351  10.728  1.00  0.00    -0.504 OA
ATOM     13  H   UNL     1     -50.676 -14.659  10.841  1.00  0.00     0.293 HD
ENDBRANCH   5  12
BRANCH   6  14
ATOM     14  O   UNL     1     -51.060 -13.343  12.931  1.00  0.00    -0.502 OA
ATOM     15  H   UNL     1     -51.576 -13.791  13.679  1.00  0.00     0.293 HD
ENDBRANCH   6  14
TORSDOF 4
ENDMDL
MODEL 8
REMARK VINA RESULT:    -4.988      2.497      5.389
REMARK INTER + INTRA:          -5.765
REMARK INTER:                  -5.713
REMARK INTRA:                  -0.052
REMARK UNBOUND:                -0.048
REMARK SMILES O=C([O-])c1cc(O)c(O)c(O)c1
REMARK SMILES IDX 4 1 5 2 12 3 6 4 10 5 8 6 2 7 1 8 3 9 7 10 11 12 9 14
REMARK H PARENT 7 11 11 13 9 15
REMARK Flexibility Score: inf
ROOT
ATOM      1  C   UNL     1     -48.742 -12.893  14.398  1.00  0.00     0.005 A 
ATOM      2  C   UNL     1     -49.950 -12.830  15.115  1.00  0.00     0.060 A 
ATOM      3  C   UNL     1     -48.769 -13.287  13.050  1.00  0.00     0.060 A 
ATOM      4  C   UNL     1     -51.166 -13.155  14.495  1.00  0.00     0.162 A 
ATOM      5  C   UNL     1     -49.982 -13.611  12.426  1.00  0.00     0.162 A 
ATOM      6  C   UNL     1     -51.181 -13.546  13.147  1.00  0.00     0.200 A 
ENDROOT
BRANCH   1   7
ATOM      7  C   UNL     1     -47.459 -12.551  15.051  1.00  0.00     0.072 C 
ATOM      8  O   UNL     1     -46.444 -12.265  14.360  1.00  0.00    -0.545 OA
ATOM      9  O   UNL     1     -47.354 -12.543  16.437  1.00  0.00    -0.545 OA
ENDBRANCH   1   7
BRANCH   4  10
ATOM     10  O   UNL     1     -52.357 -13.088  15.217  1.00  0.00    -0.504 OA
ATOM     11  H   UNL     1     -52.771 -12.202  15.479  1.00  0.00     0.293 HD
ENDBRANCH   4  10
BRANCH   5  12
ATOM     12  O   UNL     1     -50.003 -14.000  11.087  1.00  0.00    -0.504 OA
ATOM     13  H   UNL     1     -49.449 -13.522  10.387  1.00  0.00     0.293 HD
ENDBRANCH   5  12
BRANCH   6  14
ATOM     14  O   UNL     1     -52.378 -13.874  12.508  1.00  0.00    -0.502 OA
ATOM     15  H   UNL     1     -52.401 -14.239  11.564  1.00  0.00     0.293 HD
ENDBRANCH   6  14
TORSDOF 4
ENDMDL
MODEL 9
REMARK VINA RESULT:    -4.965      2.545      4.943
REMARK INTER + INTRA:          -5.739
REMARK INTER:                  -5.688
REMARK INTRA:                  -0.052
REMARK UNBOUND:                -0.048
REMARK SMILES O=C([O-])c1cc(O)c(O)c(O)c1
REMARK SMILES IDX 4 1 5 2 12 3 6 4 10 5 8 6 2 7 1 8 3 9 7 10 11 12 9 14
REMARK H PARENT 7 11 11 13 9 15
REMARK Flexibility Score: inf
ROOT
ATOM      1  C   UNL     1     -48.827 -12.877  14.393  1.00  0.00     0.005 A 
ATOM      2  C   UNL     1     -48.833 -13.263  13.041  1.00  0.00     0.060 A 
ATOM      3  C   UNL     1     -50.037 -12.881  15.108  1.00  0.00     0.060 A 
ATOM      4  C   UNL     1     -50.027 -13.647  12.413  1.00  0.00     0.162 A 
ATOM      5  C   UNL     1     -51.232 -13.265  14.485  1.00  0.00     0.162 A 
ATOM      6  C   UNL     1     -51.230 -13.647  13.138  1.00  0.00     0.200 A 
ENDROOT
BRANCH   1   7
ATOM      7  C   UNL     1     -47.569 -12.471  15.056  1.00  0.00     0.072 C 
ATOM      8  O   UNL     1     -46.566 -12.129  14.374  1.00  0.00    -0.545 OA
ATOM      9  O   UNL     1     -47.474 -12.461  16.443  1.00  0.00    -0.545 OA
ENDBRANCH   1   7
BRANCH   4  10
ATOM     10  O   UNL     1     -50.020 -14.028  11.072  1.00  0.00    -0.504 OA
ATOM     11  H   UNL     1     -50.812 -13.852  10.465  1.00  0.00     0.293 HD
ENDBRANCH   4  10
BRANCH   5  12
ATOM     12  O   UNL     1     -52.429 -13.268  15.200  1.00  0.00    -0.504 OA
ATOM     13  H   UNL     1     -53.291 -12.926  14.793  1.00  0.00     0.293 HD
ENDBRANCH   5  12
BRANCH   6  14
ATOM     14  O   UNL     1     -52.430 -14.026  12.536  1.00  0.00    -0.502 OA
ATOM     15  H   UNL     1     -53.178 -13.365  12.364  1.00  0.00     0.293 HD
ENDBRANCH   6  14
TORSDOF 4
ENDMDL
