MODEL 1
REMARK VINA RESULT:    -3.783      0.000      0.000
REMARK INTER + INTRA:          -5.201
REMARK INTER:                  -4.888
REMARK INTRA:                  -0.312
REMARK UNBOUND:                -0.312
REMARK SMILES CCCCCCC(=O)[O-]
REMARK SMILES IDX 5 1 6 2 7 3 8 4 9 5 4 6 3 7 2 8 1 9
REMARK H PARENT
REMARK Flexibility Score: inf
ROOT
ATOM      1  C   UNL     1     -37.814  18.484 -28.086  1.00  0.00     0.006 C 
ENDROOT
BRANCH   1   2
ATOM      2  C   UNL     1     -36.734  18.867 -29.106  1.00  0.00     0.053 C 
BRANCH   2   3
ATOM      3  C   UNL     1     -36.308  17.692 -29.933  1.00  0.00     0.041 C 
ATOM      4  O   UNL     1     -35.117  17.594 -30.328  1.00  0.00    -0.550 OA
ATOM      5  O   UNL     1     -37.235  16.724 -30.297  1.00  0.00    -0.550 OA
ENDBRANCH   2   3
ENDBRANCH   1   2
BRANCH   1   6
ATOM      6  C   UNL     1     -39.193  19.047 -28.459  1.00  0.00     0.000 C 
BRANCH   6   7
ATOM      7  C   UNL     1     -39.077  20.087 -29.584  1.00  0.00    -0.000 C 
BRANCH   7   8
ATOM      8  C   UNL     1     -39.381  21.514 -29.104  1.00  0.00    -0.003 C 
ATOM      9  C   UNL     1     -38.121  22.364 -28.938  1.00  0.00     0.004 C 
ENDBRANCH   7   8
ENDBRANCH   6   7
ENDBRANCH   1   6
TORSDOF 5
ENDMDL
MODEL 2
REMARK VINA RESULT:    -3.768      1.984      2.582
REMARK INTER + INTRA:          -5.182
REMARK INTER:                  -4.726
REMARK INTRA:                  -0.456
REMARK UNBOUND:                -0.312
REMARK SMILES CCCCCCC(=O)[O-]
REMARK SMILES IDX 5 1 6 2 7 3 8 4 9 5 4 6 3 7 2 8 1 9
REMARK H PARENT
REMARK Flexibility Score: inf
ROOT
ATOM      1  C   UNL     1     -38.426  18.789 -30.655  1.00  0.00     0.006 C 
ENDROOT
BRANCH   1   2
ATOM      2  C   UNL     1     -37.455  18.099 -29.688  1.00  0.00     0.053 C 
BRANCH   2   3
ATOM      3  C   UNL     1     -37.761  18.433 -28.260  1.00  0.00     0.041 C 
ATOM      4  O   UNL     1     -38.947  18.652 -27.901  1.00  0.00    -0.550 OA
ATOM      5  O   UNL     1     -36.732  18.535 -27.333  1.00  0.00    -0.550 OA
ENDBRANCH   2   3
ENDBRANCH   1   2
BRANCH   1   6
ATOM      6  C   UNL     1     -38.065  20.263 -30.891  1.00  0.00     0.000 C 
BRANCH   6   7
ATOM      7  C   UNL     1     -39.175  21.191 -30.375  1.00  0.00    -0.000 C 
BRANCH   7   8
ATOM      8  C   UNL     1     -38.749  21.989 -29.133  1.00  0.00    -0.003 C 
ATOM      9  C   UNL     1     -37.231  22.071 -28.973  1.00  0.00     0.004 C 
ENDBRANCH   7   8
ENDBRANCH   6   7
ENDBRANCH   1   6
TORSDOF 5
ENDMDL
MODEL 3
REMARK VINA RESULT:    -3.686      2.997      3.955
REMARK INTER + INTRA:          -5.075
REMARK INTER:                  -4.711
REMARK INTRA:                  -0.364
REMARK UNBOUND:                -0.312
REMARK SMILES CCCCCCC(=O)[O-]
REMARK SMILES IDX 5 1 6 2 7 3 8 4 9 5 4 6 3 7 2 8 1 9
REMARK H PARENT
REMARK Flexibility Score: inf
ROOT
ATOM      1  C   UNL     1     -37.855  20.411 -31.465  1.00  0.00     0.006 C 
ENDROOT
BRANCH   1   2
ATOM      2  C   UNL     1     -36.558  20.855 -30.777  1.00  0.00     0.053 C 
BRANCH   2   3
ATOM      3  C   UNL     1     -36.731  22.151 -30.046  1.00  0.00     0.041 C 
ATOM      4  O   UNL     1     -35.938  23.107 -30.255  1.00  0.00    -0.550 OA
ATOM      5  O   UNL     1     -37.746  22.292 -29.109  1.00  0.00    -0.550 OA
ENDBRANCH   2   3
ENDBRANCH   1   2
BRANCH   1   6
ATOM      6  C   UNL     1     -38.461  19.160 -30.813  1.00  0.00     0.000 C 
BRANCH   6   7
ATOM      7  C   UNL     1     -37.511  18.575 -29.757  1.00  0.00    -0.000 C 
BRANCH   7   8
ATOM      8  C   UNL     1     -38.115  18.592 -28.344  1.00  0.00    -0.003 C 
ATOM      9  C   UNL     1     -39.572  19.052 -28.328  1.00  0.00     0.004 C 
ENDBRANCH   7   8
ENDBRANCH   6   7
ENDBRANCH   1   6
TORSDOF 5
ENDMDL
MODEL 4
REMARK VINA RESULT:    -3.678      2.761      4.051
REMARK INTER + INTRA:          -5.065
REMARK INTER:                  -4.704
REMARK INTRA:                  -0.361
REMARK UNBOUND:                -0.312
REMARK SMILES CCCCCCC(=O)[O-]
REMARK SMILES IDX 5 1 6 2 7 3 8 4 9 5 4 6 3 7 2 8 1 9
REMARK H PARENT
REMARK Flexibility Score: inf
ROOT
ATOM      1  C   UNL     1     -38.847  18.976 -28.139  1.00  0.00     0.006 C 
ENDROOT
BRANCH   1   2
ATOM      2  C   UNL     1     -39.125  19.660 -29.484  1.00  0.00     0.053 C 
BRANCH   2   3
ATOM      3  C   UNL     1     -39.082  21.153 -29.368  1.00  0.00     0.041 C 
ATOM      4  O   UNL     1     -38.046  21.726 -28.941  1.00  0.00    -0.550 OA
ATOM      5  O   UNL     1     -40.199  21.910 -29.699  1.00  0.00    -0.550 OA
ENDBRANCH   2   3
ENDBRANCH   1   2
BRANCH   1   6
ATOM      6  C   UNL     1     -37.565  18.131 -28.170  1.00  0.00     0.000 C 
BRANCH   6   7
ATOM      7  C   UNL     1     -37.261  17.642 -29.594  1.00  0.00    -0.000 C 
BRANCH   7   8
ATOM      8  C   UNL     1     -35.811  17.919 -30.017  1.00  0.00    -0.003 C 
ATOM      9  C   UNL     1     -35.487  19.412 -30.080  1.00  0.00     0.004 C 
ENDBRANCH   7   8
ENDBRANCH   6   7
ENDBRANCH   1   6
TORSDOF 5
ENDMDL
MODEL 5
REMARK VINA RESULT:    -3.671      2.184      3.577
REMARK INTER + INTRA:          -5.056
REMARK INTER:                  -4.725
REMARK INTRA:                  -0.331
REMARK UNBOUND:                -0.312
REMARK SMILES CCCCCCC(=O)[O-]
REMARK SMILES IDX 5 1 6 2 7 3 8 4 9 5 4 6 3 7 2 8 1 9
REMARK H PARENT
REMARK Flexibility Score: inf
ROOT
ATOM      1  C   UNL     1     -39.467  20.428 -29.128  1.00  0.00     0.006 C 
ENDROOT
BRANCH   1   2
ATOM      2  C   UNL     1     -38.118  21.098 -29.412  1.00  0.00     0.053 C 
BRANCH   2   3
ATOM      3  C   UNL     1     -37.695  20.917 -30.838  1.00  0.00     0.041 C 
ATOM      4  O   UNL     1     -36.473  20.853 -31.133  1.00  0.00    -0.550 OA
ATOM      5  O   UNL     1     -38.650  20.852 -31.845  1.00  0.00    -0.550 OA
ENDBRANCH   2   3
ENDBRANCH   1   2
BRANCH   1   6
ATOM      6  C   UNL     1     -39.306  19.055 -28.458  1.00  0.00     0.000 C 
BRANCH   6   7
ATOM      7  C   UNL     1     -37.874  18.860 -27.940  1.00  0.00    -0.000 C 
BRANCH   7   8
ATOM      8  C   UNL     1     -37.267  17.516 -28.370  1.00  0.00    -0.003 C 
ATOM      9  C   UNL     1     -36.922  17.471 -29.858  1.00  0.00     0.004 C 
ENDBRANCH   7   8
ENDBRANCH   6   7
ENDBRANCH   1   6
TORSDOF 5
ENDMDL
MODEL 6
REMARK VINA RESULT:    -3.660      2.796      4.180
REMARK INTER + INTRA:          -5.041
REMARK INTER:                  -4.663
REMARK INTRA:                  -0.378
REMARK UNBOUND:                -0.312
REMARK SMILES CCCCCCC(=O)[O-]
REMARK SMILES IDX 5 1 6 2 7 3 8 4 9 5 4 6 3 7 2 8 1 9
REMARK H PARENT
REMARK Flexibility Score: inf
ROOT
ATOM      1  C   UNL     1     -38.316  19.168 -30.842  1.00  0.00     0.006 C 
ENDROOT
BRANCH   1   2
ATOM      2  C   UNL     1     -38.388  20.699 -30.777  1.00  0.00     0.053 C 
BRANCH   2   3
ATOM      3  C   UNL     1     -38.856  21.178 -29.437  1.00  0.00     0.041 C 
ATOM      4  O   UNL     1     -39.737  20.535 -28.808  1.00  0.00    -0.550 OA
ATOM      5  O   UNL     1     -38.345  22.352 -28.899  1.00  0.00    -0.550 OA
ENDBRANCH   2   3
ENDBRANCH   1   2
BRANCH   1   6
ATOM      6  C   UNL     1     -37.005  18.622 -30.257  1.00  0.00     0.000 C 
BRANCH   6   7
ATOM      7  C   UNL     1     -37.282  17.524 -29.219  1.00  0.00    -0.000 C 
BRANCH   7   8
ATOM      8  C   UNL     1     -37.390  18.076 -27.789  1.00  0.00    -0.003 C 
ATOM      9  C   UNL     1     -36.162  18.885 -27.372  1.00  0.00     0.004 C 
ENDBRANCH   7   8
ENDBRANCH   6   7
ENDBRANCH   1   6
TORSDOF 5
ENDMDL
MODEL 7
REMARK VINA RESULT:    -3.599      2.525      4.041
REMARK INTER + INTRA:          -4.963
REMARK INTER:                  -4.603
REMARK INTRA:                  -0.360
REMARK UNBOUND:                -0.312
REMARK SMILES CCCCCCC(=O)[O-]
REMARK SMILES IDX 5 1 6 2 7 3 8 4 9 5 4 6 3 7 2 8 1 9
REMARK H PARENT
REMARK Flexibility Score: inf
ROOT
ATOM      1  C   UNL     1     -39.120  19.783 -29.469  1.00  0.00     0.006 C 
ENDROOT
BRANCH   1   2
ATOM      2  C   UNL     1     -39.127  21.294 -29.206  1.00  0.00     0.053 C 
BRANCH   2   3
ATOM      3  C   UNL     1     -37.767  21.896 -29.390  1.00  0.00     0.041 C 
ATOM      4  O   UNL     1     -37.053  21.560 -30.371  1.00  0.00    -0.550 OA
ATOM      5  O   UNL     1     -37.275  22.803 -28.460  1.00  0.00    -0.550 OA
ENDBRANCH   2   3
ENDBRANCH   1   2
BRANCH   1   6
ATOM      6  C   UNL     1     -38.993  18.967 -28.174  1.00  0.00     0.000 C 
BRANCH   6   7
ATOM      7  C   UNL     1     -37.617  18.290 -28.084  1.00  0.00    -0.000 C 
BRANCH   7   8
ATOM      8  C   UNL     1     -37.119  17.778 -29.444  1.00  0.00    -0.003 C 
ATOM      9  C   UNL     1     -35.716  18.278 -29.787  1.00  0.00     0.004 C 
ENDBRANCH   7   8
ENDBRANCH   6   7
ENDBRANCH   1   6
TORSDOF 5
ENDMDL
MODEL 8
REMARK VINA RESULT:    -3.553      2.315      3.401
REMARK INTER + INTRA:          -4.903
REMARK INTER:                  -4.511
REMARK INTRA:                  -0.392
REMARK UNBOUND:                -0.312
REMARK SMILES CCCCCCC(=O)[O-]
REMARK SMILES IDX 5 1 6 2 7 3 8 4 9 5 4 6 3 7 2 8 1 9
REMARK H PARENT
REMARK Flexibility Score: inf
ROOT
ATOM      1  C   UNL     1     -36.705  19.381 -28.175  1.00  0.00     0.006 C 
ENDROOT
BRANCH   1   2
ATOM      2  C   UNL     1     -37.909  18.502 -27.813  1.00  0.00     0.053 C 
BRANCH   2   3
ATOM      3  C   UNL     1     -39.128  18.879 -28.598  1.00  0.00     0.041 C 
ATOM      4  O   UNL     1     -40.127  19.377 -28.016  1.00  0.00    -0.550 OA
ATOM      5  O   UNL     1     -39.175  18.649 -29.967  1.00  0.00    -0.550 OA
ENDBRANCH   2   3
ENDBRANCH   1   2
BRANCH   1   6
ATOM      6  C   UNL     1     -35.756  18.689 -29.165  1.00  0.00     0.000 C 
BRANCH   6   7
ATOM      7  C   UNL     1     -35.556  19.545 -30.425  1.00  0.00    -0.000 C 
BRANCH   7   8
ATOM      8  C   UNL     1     -36.311  20.881 -30.358  1.00  0.00    -0.003 C 
ATOM      9  C   UNL     1     -37.224  21.107 -31.563  1.00  0.00     0.004 C 
ENDBRANCH   7   8
ENDBRANCH   6   7
ENDBRANCH   1   6
TORSDOF 5
ENDMDL
MODEL 9
REMARK VINA RESULT:    -3.476      1.272      2.055
REMARK INTER + INTRA:          -4.804
REMARK INTER:                  -4.586
REMARK INTRA:                  -0.217
REMARK UNBOUND:                -0.312
REMARK SMILES CCCCCCC(=O)[O-]
REMARK SMILES IDX 5 1 6 2 7 3 8 4 9 5 4 6 3 7 2 8 1 9
REMARK H PARENT
REMARK Flexibility Score: inf
ROOT
ATOM      1  C   UNL     1     -38.524  18.574 -30.824  1.00  0.00     0.006 C 
ENDROOT
BRANCH   1   2
ATOM      2  C   UNL     1     -37.593  18.210 -29.660  1.00  0.00     0.053 C 
BRANCH   2   3
ATOM      3  C   UNL     1     -36.622  17.134 -30.040  1.00  0.00     0.041 C 
ATOM      4  O   UNL     1     -36.967  15.924 -29.993  1.00  0.00    -0.550 OA
ATOM      5  O   UNL     1     -35.325  17.466 -30.412  1.00  0.00    -0.550 OA
ENDBRANCH   2   3
ENDBRANCH   1   2
BRANCH   1   6
ATOM      6  C   UNL     1     -38.403  20.051 -31.227  1.00  0.00     0.000 C 
BRANCH   6   7
ATOM      7  C   UNL     1     -37.532  20.825 -30.225  1.00  0.00    -0.000 C 
BRANCH   7   8
ATOM      8  C   UNL     1     -38.363  21.680 -29.257  1.00  0.00    -0.003 C 
ATOM      9  C   UNL     1     -39.845  21.724 -29.627  1.00  0.00     0.004 C 
ENDBRANCH   7   8
ENDBRANCH   6   7
ENDBRANCH   1   6
TORSDOF 5
ENDMDL
