MODEL 1
REMARK VINA RESULT:   140.104      0.000      0.000
REMARK INTER + INTRA:         153.006
REMARK INTER:                 152.390
REMARK INTRA:                   0.616
REMARK UNBOUND:                 0.616
REMARK SMILES CC1(C)CC[C@]2(C(=O)[O-])CC[C@]3(C)C(=CC[C@@H]4[C@@]5(C)CC[C@@H](O)C(C)(C)[C@@H]5CC[C@@]43C)[C@H]2C1
REMARK SMILES IDX 6 1 5 2 10 3 32 4 4 5 11 6 14 7 33 8 2 9 12 10 15 11 1 12
REMARK SMILES IDX 3 13 13 14 30 15 16 16 17 17 29 18 31 19 18 20 28 21 27 22
REMARK SMILES IDX 20 23 19 24 24 25 21 26 22 27 25 28 26 29 7 30 8 31 9 32
REMARK SMILES IDX 23 33
REMARK H PARENT 23 34
REMARK Flexibility Score: inf
ROOT
ATOM      1  C   UNL     1       3.852  -1.610  13.036  1.00  0.00     0.017 C 
ATOM      2  C   UNL     1       3.818  -0.659  14.262  1.00  0.00     0.014 C 
ATOM      3  C   UNL     1       2.460  -1.582  12.369  1.00  0.00     0.014 C 
ATOM      4  C   UNL     1       4.115  -3.069  13.519  1.00  0.00     0.028 C 
ATOM      5  C   UNL     1       5.117  -0.716  15.074  1.00  0.00     0.007 C 
ATOM      6  C   UNL     1       2.381  -2.517  11.155  1.00  0.00     0.013 C 
ATOM      7  C   UNL     1       4.018  -4.068  12.339  1.00  0.00    -0.064 C 
ATOM      8  C   UNL     1       5.404  -3.159  14.393  1.00  0.00     0.015 C 
ATOM      9  C   UNL     1       5.448  -2.144  15.572  1.00  0.00    -0.035 C 
ATOM     10  C   UNL     1       2.781  -4.017  11.427  1.00  0.00    -0.006 C 
ATOM     11  C   UNL     1       4.806  -5.159  12.309  1.00  0.00    -0.027 C 
ATOM     12  C   UNL     1       6.875  -2.137  16.162  1.00  0.00     0.011 C 
ATOM     13  C   UNL     1       4.475  -2.568  16.698  1.00  0.00     0.011 C 
ATOM     14  C   UNL     1       1.641  -4.695  12.256  1.00  0.00     0.017 C 
ATOM     15  C   UNL     1       3.025  -4.790  10.024  1.00  0.00    -0.020 C 
ATOM     16  C   UNL     1       4.787  -6.202  11.241  1.00  0.00     0.032 C 
ATOM     17  C   UNL     1       3.546  -6.269  10.290  1.00  0.00     0.006 C 
ATOM     18  C   UNL     1       4.129  -4.073   9.148  1.00  0.00     0.008 C 
ATOM     19  C   UNL     1       1.663  -4.782   9.222  1.00  0.00     0.012 C 
ATOM     20  C   UNL     1       3.848  -7.158   8.960  1.00  0.00    -0.025 C 
ATOM     21  C   UNL     1       4.844  -4.957   8.083  1.00  0.00     0.005 C 
ATOM     22  C   UNL     1       4.026  -6.214   7.713  1.00  0.00     0.003 C 
ATOM     23  C   UNL     1       2.672  -8.163   8.663  1.00  0.00     0.010 C 
ATOM     24  C   UNL     1       5.119  -8.057   9.167  1.00  0.00     0.012 C 
ATOM     25  C   UNL     1       4.345  -6.909   6.325  1.00  0.00    -0.006 C 
ATOM     26  C   UNL     1       2.355  -8.373   7.160  1.00  0.00     0.033 C 
ATOM     27  C   UNL     1       3.607  -8.305   6.246  1.00  0.00     0.120 C 
ATOM     28  C   UNL     1       5.865  -7.102   6.092  1.00  0.00     0.014 C 
ATOM     29  C   UNL     1       3.839  -5.986   5.174  1.00  0.00     0.014 C 
ENDROOT
BRANCH   1  30
ATOM     30  C   UNL     1       4.898  -1.105  12.042  1.00  0.00     0.048 C 
ATOM     31  O   UNL     1       5.210   0.115  12.026  1.00  0.00    -0.550 OA
ATOM     32  O   UNL     1       5.497  -1.957  11.121  1.00  0.00    -0.550 OA
ENDBRANCH   1  30
BRANCH  27  33
ATOM     33  O   UNL     1       3.282  -8.663   4.922  1.00  0.00    -0.393 OA
ATOM     34  H   UNL     1       3.753  -8.046   4.303  1.00  0.00     0.210 HD
ENDBRANCH  27  33
TORSDOF 2
ENDMDL
