MODEL 1
REMARK VINA RESULT:    -8.215      0.000      0.000
REMARK INTER + INTRA:         -12.935
REMARK INTER:                 -12.297
REMARK INTRA:                  -0.638
REMARK UNBOUND:                -0.638
REMARK SMILES O=c1c(O[C@H]2O[C@H](CO)[C@H](O)[C@H](O)[C@H]2O)c(-c2cc(O)c(O)c(O)c2)oc2cc(O)cc(O)c12
REMARK SMILES IDX 4 1 3 2 16 3 26 4 2 5 27 6 1 7 34 8 28 9 32 10 29 11 31 12
REMARK SMILES IDX 17 13 18 14 19 15 25 16 21 17 23 18 20 19 22 21 24 23 33 25
REMARK SMILES IDX 30 27 5 29 14 30 6 31 12 32 7 33 10 34 15 35 13 37 8 39 9 40
REMARK SMILES IDX 11 42
REMARK H PARENT 20 20 22 22 24 24 33 26 30 28 15 36 13 38 9 41 11 43
REMARK Flexibility Score: inf
ROOT
ATOM      1  O   UNL     1       1.331 -23.584  27.655  1.00  0.00    -0.454 OA
ENDROOT
BRANCH   1   2
ATOM      2  C   UNL     1       0.783 -22.540  26.882  1.00  0.00     0.214 A 
ATOM      3  C   UNL     1      -0.270 -21.786  27.440  1.00  0.00     0.181 A 
ATOM      4  O   UNL     1      -0.855 -20.826  26.733  1.00  0.00    -0.452 OA
ATOM      5  C   UNL     1       1.206 -22.226  25.569  1.00  0.00     0.239 A 
ATOM      6  C   UNL     1      -0.487 -20.498  25.502  1.00  0.00     0.146 A 
ATOM      7  O   UNL     1       2.137 -22.876  25.026  1.00  0.00    -0.285 OA
ATOM      8  C   UNL     1       0.570 -21.182  24.861  1.00  0.00     0.111 A 
ATOM      9  C   UNL     1      -1.162 -19.465  24.846  1.00  0.00     0.094 A 
ATOM     10  C   UNL     1       0.938 -20.801  23.547  1.00  0.00     0.134 A 
ATOM     11  C   UNL     1      -0.794 -19.094  23.549  1.00  0.00     0.123 A 
ATOM     12  C   UNL     1       0.251 -19.760  22.906  1.00  0.00     0.093 A 
BRANCH   3  13
ATOM     13  C   UNL     1      -0.775 -22.047  28.806  1.00  0.00     0.029 A 
ATOM     14  C   UNL     1      -1.006 -20.998  29.709  1.00  0.00     0.062 A 
ATOM     15  C   UNL     1      -1.485 -21.260  31.000  1.00  0.00     0.162 A 
ATOM     16  C   UNL     1      -1.073 -23.362  29.194  1.00  0.00     0.062 A 
ATOM     17  C   UNL     1      -1.757 -22.582  31.390  1.00  0.00     0.200 A 
ATOM     18  C   UNL     1      -1.555 -23.633  30.479  1.00  0.00     0.162 A 
BRANCH  15  19
ATOM     19  O   UNL     1      -1.693 -20.210  31.893  1.00  0.00    -0.504 OA
ATOM     20  H   UNL     1      -2.467 -20.214  32.547  1.00  0.00     0.293 HD
ENDBRANCH  15  19
BRANCH  17  21
ATOM     21  O   UNL     1      -2.232 -22.862  32.672  1.00  0.00    -0.502 OA
ATOM     22  H   UNL     1      -2.255 -23.804  33.045  1.00  0.00     0.293 HD
ENDBRANCH  17  21
BRANCH  18  23
ATOM     23  O   UNL     1      -1.825 -24.955  30.832  1.00  0.00    -0.504 OA
ATOM     24  H   UNL     1      -1.741 -25.717  30.170  1.00  0.00     0.293 HD
ENDBRANCH  18  23
ENDBRANCH   3  13
BRANCH  10  25
ATOM     25  O   UNL     1       1.978 -21.445  22.875  1.00  0.00    -0.507 OA
ATOM     26  H   UNL     1       2.552 -22.147  23.327  1.00  0.00     0.293 HD
ENDBRANCH  10  25
BRANCH  11  27
ATOM     27  O   UNL     1      -1.462 -18.064  22.889  1.00  0.00    -0.508 OA
ATOM     28  H   UNL     1      -0.960 -17.295  22.462  1.00  0.00     0.293 HD
ENDBRANCH  11  27
ENDBRANCH   1   2
BRANCH   1  29
ATOM     29  C   UNL     1       2.714 -23.924  27.811  1.00  0.00     0.339 C 
ATOM     30  C   UNL     1       2.929 -25.424  27.532  1.00  0.00     0.214 C 
ATOM     31  O   UNL     1       3.198 -23.567  29.099  1.00  0.00    -0.332 OA
ATOM     32  C   UNL     1       2.286 -26.275  28.645  1.00  0.00     0.180 C 
ATOM     33  C   UNL     1       2.505 -24.259  30.126  1.00  0.00     0.179 C 
ATOM     34  C   UNL     1       2.755 -25.778  30.025  1.00  0.00     0.177 C 
BRANCH  30  35
ATOM     35  O   UNL     1       2.366 -25.749  26.286  1.00  0.00    -0.384 OA
ATOM     36  H   UNL     1       2.696 -25.077  25.635  1.00  0.00     0.211 HD
ENDBRANCH  30  35
BRANCH  32  37
ATOM     37  O   UNL     1       2.634 -27.627  28.489  1.00  0.00    -0.387 OA
ATOM     38  H   UNL     1       3.424 -27.792  29.066  1.00  0.00     0.211 HD
ENDBRANCH  32  37
BRANCH  33  39
ATOM     39  C   UNL     1       2.961 -23.713  31.487  1.00  0.00     0.191 C 
BRANCH  39  40
ATOM     40  O   UNL     1       3.760 -24.658  32.148  1.00  0.00    -0.394 OA
ATOM     41  H   UNL     1       3.788 -24.389  33.103  1.00  0.00     0.210 HD
ENDBRANCH  39  40
ENDBRANCH  33  39
BRANCH  34  42
ATOM     42  O   UNL     1       4.125 -26.049  30.200  1.00  0.00    -0.387 OA
ATOM     43  H   UNL     1       4.209 -27.025  30.359  1.00  0.00     0.211 HD
ENDBRANCH  34  42
ENDBRANCH   1  29
TORSDOF 13
ENDMDL
MODEL 2
REMARK VINA RESULT:    -7.997      2.435      4.144
REMARK INTER + INTRA:         -12.609
REMARK INTER:                 -10.697
REMARK INTRA:                  -1.912
REMARK UNBOUND:                -0.638
REMARK SMILES O=c1c(O[C@H]2O[C@H](CO)[C@H](O)[C@H](O)[C@H]2O)c(-c2cc(O)c(O)c(O)c2)oc2cc(O)cc(O)c12
REMARK SMILES IDX 4 1 3 2 16 3 26 4 2 5 27 6 1 7 34 8 28 9 32 10 29 11 31 12
REMARK SMILES IDX 17 13 18 14 19 15 25 16 21 17 23 18 20 19 22 21 24 23 33 25
REMARK SMILES IDX 30 27 5 29 14 30 6 31 12 32 7 33 10 34 15 35 13 37 8 39 9 40
REMARK SMILES IDX 11 42
REMARK H PARENT 20 20 22 22 24 24 33 26 30 28 15 36 13 38 9 41 11 43
REMARK Flexibility Score: inf
ROOT
ATOM      1  O   UNL     1      -0.023 -20.908  26.104  1.00  0.00    -0.454 OA
ENDROOT
BRANCH   1   2
ATOM      2  C   UNL     1      -0.533 -19.618  26.355  1.00  0.00     0.214 A 
ATOM      3  C   UNL     1      -1.042 -19.346  27.642  1.00  0.00     0.181 A 
ATOM      4  O   UNL     1      -1.580 -18.163  27.915  1.00  0.00    -0.452 OA
ATOM      5  C   UNL     1      -0.593 -18.591  25.384  1.00  0.00     0.239 A 
ATOM      6  C   UNL     1      -1.653 -17.174  27.035  1.00  0.00     0.146 A 
ATOM      7  O   UNL     1      -0.158 -18.788  24.219  1.00  0.00    -0.285 OA
ATOM      8  C   UNL     1      -1.155 -17.340  25.723  1.00  0.00     0.111 A 
ATOM      9  C   UNL     1      -2.231 -15.963  27.424  1.00  0.00     0.094 A 
ATOM     10  C   UNL     1      -1.246 -16.259  24.812  1.00  0.00     0.134 A 
ATOM     11  C   UNL     1      -2.318 -14.899  26.520  1.00  0.00     0.123 A 
ATOM     12  C   UNL     1      -1.827 -15.050  25.221  1.00  0.00     0.093 A 
BRANCH   3  13
ATOM     13  C   UNL     1      -1.019 -20.362  28.718  1.00  0.00     0.029 A 
ATOM     14  C   UNL     1      -1.801 -21.525  28.637  1.00  0.00     0.062 A 
ATOM     15  C   UNL     1      -1.769 -22.479  29.663  1.00  0.00     0.162 A 
ATOM     16  C   UNL     1      -0.170 -20.184  29.820  1.00  0.00     0.062 A 
ATOM     17  C   UNL     1      -0.934 -22.282  30.776  1.00  0.00     0.200 A 
ATOM     18  C   UNL     1      -0.129 -21.132  30.848  1.00  0.00     0.162 A 
BRANCH  15  19
ATOM     19  O   UNL     1      -2.563 -23.621  29.579  1.00  0.00    -0.504 OA
ATOM     20  H   UNL     1      -3.540 -23.571  29.316  1.00  0.00     0.293 HD
ENDBRANCH  15  19
BRANCH  17  21
ATOM     21  O   UNL     1      -0.891 -23.219  31.809  1.00  0.00    -0.502 OA
ATOM     22  H   UNL     1      -0.290 -23.106  32.616  1.00  0.00     0.293 HD
ENDBRANCH  17  21
BRANCH  18  23
ATOM     23  O   UNL     1       0.719 -20.912  31.934  1.00  0.00    -0.504 OA
ATOM     24  H   UNL     1       1.718 -20.789  31.821  1.00  0.00     0.293 HD
ENDBRANCH  18  23
ENDBRANCH   3  13
BRANCH  10  25
ATOM     25  O   UNL     1      -0.764 -16.374  23.507  1.00  0.00    -0.507 OA
ATOM     26  H   UNL     1      -0.868 -17.229  22.973  1.00  0.00     0.293 HD
ENDBRANCH  10  25
BRANCH  11  27
ATOM     27  O   UNL     1      -2.893 -13.689  26.901  1.00  0.00    -0.508 OA
ATOM     28  H   UNL     1      -3.828 -13.645  27.287  1.00  0.00     0.293 HD
ENDBRANCH  11  27
ENDBRANCH   1   2
BRANCH   1  29
ATOM     29  C   UNL     1       1.347 -21.289  25.930  1.00  0.00     0.339 C 
ATOM     30  C   UNL     1       1.521 -22.070  24.614  1.00  0.00     0.214 C 
ATOM     31  O   UNL     1       1.825 -22.039  27.039  1.00  0.00    -0.332 OA
ATOM     32  C   UNL     1       0.839 -23.448  24.712  1.00  0.00     0.180 C 
ATOM     33  C   UNL     1       1.099 -23.247  27.202  1.00  0.00     0.179 C 
ATOM     34  C   UNL     1       1.305 -24.176  25.986  1.00  0.00     0.177 C 
BRANCH  30  35
ATOM     35  O   UNL     1       0.964 -21.327  23.558  1.00  0.00    -0.384 OA
ATOM     36  H   UNL     1       1.715 -21.048  22.973  1.00  0.00     0.211 HD
ENDBRANCH  30  35
BRANCH  32  37
ATOM     37  O   UNL     1       1.148 -24.228  23.585  1.00  0.00    -0.387 OA
ATOM     38  H   UNL     1       0.484 -24.965  23.551  1.00  0.00     0.211 HD
ENDBRANCH  32  37
BRANCH  33  39
ATOM     39  C   UNL     1       1.553 -23.929  28.501  1.00  0.00     0.191 C 
BRANCH  39  40
ATOM     40  O   UNL     1       1.340 -25.313  28.425  1.00  0.00    -0.394 OA
ATOM     41  H   UNL     1       0.558 -25.449  27.829  1.00  0.00     0.210 HD
ENDBRANCH  39  40
ENDBRANCH  33  39
BRANCH  34  42
ATOM     42  O   UNL     1       2.664 -24.525  25.878  1.00  0.00    -0.387 OA
ATOM     43  H   UNL     1       3.147 -24.028  26.588  1.00  0.00     0.211 HD
ENDBRANCH  34  42
ENDBRANCH   1  29
TORSDOF 13
ENDMDL
MODEL 3
REMARK VINA RESULT:    -7.903      1.937      6.694
REMARK INTER + INTRA:         -12.468
REMARK INTER:                 -10.434
REMARK INTRA:                  -2.034
REMARK UNBOUND:                -0.638
REMARK SMILES O=c1c(O[C@H]2O[C@H](CO)[C@H](O)[C@H](O)[C@H]2O)c(-c2cc(O)c(O)c(O)c2)oc2cc(O)cc(O)c12
REMARK SMILES IDX 4 1 3 2 16 3 26 4 2 5 27 6 1 7 34 8 28 9 32 10 29 11 31 12
REMARK SMILES IDX 17 13 18 14 19 15 25 16 21 17 23 18 20 19 22 21 24 23 33 25
REMARK SMILES IDX 30 27 5 29 14 30 6 31 12 32 7 33 10 34 15 35 13 37 8 39 9 40
REMARK SMILES IDX 11 42
REMARK H PARENT 20 20 22 22 24 24 33 26 30 28 15 36 13 38 9 41 11 43
REMARK Flexibility Score: inf
ROOT
ATOM      1  O   UNL     1       0.962 -21.493  26.504  1.00  0.00    -0.454 OA
ENDROOT
BRANCH   1   2
ATOM      2  C   UNL     1       1.230 -22.586  27.353  1.00  0.00     0.214 A 
ATOM      3  C   UNL     1       1.026 -22.414  28.738  1.00  0.00     0.181 A 
ATOM      4  O   UNL     1       1.311 -23.396  29.585  1.00  0.00    -0.452 OA
ATOM      5  C   UNL     1       1.720 -23.833  26.901  1.00  0.00     0.239 A 
ATOM      6  C   UNL     1       1.770 -24.580  29.203  1.00  0.00     0.146 A 
ATOM      7  O   UNL     1       1.925 -24.033  25.675  1.00  0.00    -0.285 OA
ATOM      8  C   UNL     1       1.991 -24.858  27.835  1.00  0.00     0.111 A 
ATOM      9  C   UNL     1       2.032 -25.551  30.173  1.00  0.00     0.094 A 
ATOM     10  C   UNL     1       2.477 -26.136  27.464  1.00  0.00     0.134 A 
ATOM     11  C   UNL     1       2.512 -26.810  29.801  1.00  0.00     0.123 A 
ATOM     12  C   UNL     1       2.732 -27.098  28.452  1.00  0.00     0.093 A 
BRANCH   3  13
ATOM     13  C   UNL     1       0.516 -21.143  29.298  1.00  0.00     0.029 A 
ATOM     14  C   UNL     1      -0.861 -20.886  29.384  1.00  0.00     0.062 A 
ATOM     15  C   UNL     1      -1.330 -19.677  29.917  1.00  0.00     0.162 A 
ATOM     16  C   UNL     1       1.421 -20.192  29.792  1.00  0.00     0.062 A 
ATOM     17  C   UNL     1      -0.416 -18.720  30.388  1.00  0.00     0.200 A 
ATOM     18  C   UNL     1       0.963 -18.984  30.329  1.00  0.00     0.162 A 
BRANCH  15  19
ATOM     19  O   UNL     1      -2.700 -19.428  29.981  1.00  0.00    -0.504 OA
ATOM     20  H   UNL     1      -3.263 -19.335  29.144  1.00  0.00     0.293 HD
ENDBRANCH  15  19
BRANCH  17  21
ATOM     21  O   UNL     1      -0.864 -17.509  30.919  1.00  0.00    -0.502 OA
ATOM     22  H   UNL     1      -0.585 -16.615  30.534  1.00  0.00     0.293 HD
ENDBRANCH  17  21
BRANCH  18  23
ATOM     23  O   UNL     1       1.896 -18.058  30.797  1.00  0.00    -0.504 OA
ATOM     24  H   UNL     1       1.640 -17.105  31.024  1.00  0.00     0.293 HD
ENDBRANCH  18  23
ENDBRANCH   3  13
BRANCH  10  25
ATOM     25  O   UNL     1       2.707 -26.458  26.125  1.00  0.00    -0.507 OA
ATOM     26  H   UNL     1       3.320 -25.904  25.541  1.00  0.00     0.293 HD
ENDBRANCH  10  25
BRANCH  11  27
ATOM     27  O   UNL     1       2.775 -27.783  30.763  1.00  0.00    -0.508 OA
ATOM     28  H   UNL     1       2.028 -28.244  31.268  1.00  0.00     0.293 HD
ENDBRANCH  11  27
ENDBRANCH   1   2
BRANCH   1  29
ATOM     29  C   UNL     1      -0.074 -21.382  25.521  1.00  0.00     0.339 C 
ATOM     30  C   UNL     1       0.528 -21.019  24.150  1.00  0.00     0.214 C 
ATOM     31  O   UNL     1      -1.065 -20.440  25.911  1.00  0.00    -0.332 OA
ATOM     32  C   UNL     1       1.077 -19.579  24.168  1.00  0.00     0.180 C 
ATOM     33  C   UNL     1      -0.520 -19.139  26.056  1.00  0.00     0.179 C 
ATOM     34  C   UNL     1       0.004 -18.613  24.703  1.00  0.00     0.177 C 
BRANCH  30  35
ATOM     35  O   UNL     1       1.555 -21.926  23.841  1.00  0.00    -0.384 OA
ATOM     36  H   UNL     1       1.434 -22.714  24.431  1.00  0.00     0.211 HD
ENDBRANCH  30  35
BRANCH  32  37
ATOM     37  O   UNL     1       1.461 -19.186  22.875  1.00  0.00    -0.387 OA
ATOM     38  H   UNL     1       2.367 -18.787  22.950  1.00  0.00     0.211 HD
ENDBRANCH  32  37
BRANCH  33  39
ATOM     39  C   UNL     1      -1.598 -18.208  26.630  1.00  0.00     0.191 C 
BRANCH  39  40
ATOM     40  O   UNL     1      -2.733 -18.947  26.997  1.00  0.00    -0.394 OA
ATOM     41  H   UNL     1      -2.816 -18.871  27.983  1.00  0.00     0.210 HD
ENDBRANCH  39  40
ENDBRANCH  33  39
BRANCH  34  42
ATOM     42  O   UNL     1      -1.060 -18.513  23.787  1.00  0.00    -0.387 OA
ATOM     43  H   UNL     1      -0.682 -18.153  22.943  1.00  0.00     0.211 HD
ENDBRANCH  34  42
ENDBRANCH   1  29
TORSDOF 13
ENDMDL
MODEL 4
REMARK VINA RESULT:    -7.886      2.751      8.238
REMARK INTER + INTRA:         -12.443
REMARK INTER:                 -10.638
REMARK INTRA:                  -1.805
REMARK UNBOUND:                -0.638
REMARK SMILES O=c1c(O[C@H]2O[C@H](CO)[C@H](O)[C@H](O)[C@H]2O)c(-c2cc(O)c(O)c(O)c2)oc2cc(O)cc(O)c12
REMARK SMILES IDX 4 1 3 2 16 3 26 4 2 5 27 6 1 7 34 8 28 9 32 10 29 11 31 12
REMARK SMILES IDX 17 13 18 14 19 15 25 16 21 17 23 18 20 19 22 21 24 23 33 25
REMARK SMILES IDX 30 27 5 29 14 30 6 31 12 32 7 33 10 34 15 35 13 37 8 39 9 40
REMARK SMILES IDX 11 42
REMARK H PARENT 20 20 22 22 24 24 33 26 30 28 15 36 13 38 9 41 11 43
REMARK Flexibility Score: inf
ROOT
ATOM      1  O   UNL     1      -1.117 -19.753  28.795  1.00  0.00    -0.454 OA
ENDROOT
BRANCH   1   2
ATOM      2  C   UNL     1      -1.122 -21.119  29.142  1.00  0.00     0.214 A 
ATOM      3  C   UNL     1      -0.561 -22.036  28.230  1.00  0.00     0.181 A 
ATOM      4  O   UNL     1      -0.586 -23.339  28.486  1.00  0.00    -0.452 OA
ATOM      5  C   UNL     1      -1.683 -21.627  30.338  1.00  0.00     0.239 A 
ATOM      6  C   UNL     1      -1.100 -23.855  29.594  1.00  0.00     0.146 A 
ATOM      7  O   UNL     1      -2.202 -20.849  31.180  1.00  0.00    -0.285 OA
ATOM      8  C   UNL     1      -1.670 -23.018  30.579  1.00  0.00     0.111 A 
ATOM      9  C   UNL     1      -1.070 -25.240  29.773  1.00  0.00     0.094 A 
ATOM     10  C   UNL     1      -2.205 -23.605  31.753  1.00  0.00     0.134 A 
ATOM     11  C   UNL     1      -1.600 -25.814  30.933  1.00  0.00     0.123 A 
ATOM     12  C   UNL     1      -2.163 -24.998  31.916  1.00  0.00     0.093 A 
BRANCH   3  13
ATOM     13  C   UNL     1       0.048 -21.592  26.956  1.00  0.00     0.029 A 
ATOM     14  C   UNL     1       1.429 -21.703  26.731  1.00  0.00     0.062 A 
ATOM     15  C   UNL     1       1.991 -21.279  25.519  1.00  0.00     0.162 A 
ATOM     16  C   UNL     1      -0.774 -21.091  25.934  1.00  0.00     0.062 A 
ATOM     17  C   UNL     1       1.165 -20.755  24.510  1.00  0.00     0.200 A 
ATOM     18  C   UNL     1      -0.222 -20.668  24.720  1.00  0.00     0.162 A 
BRANCH  15  19
ATOM     19  O   UNL     1       3.366 -21.378  25.316  1.00  0.00    -0.504 OA
ATOM     20  H   UNL     1       3.897 -20.625  24.895  1.00  0.00     0.293 HD
ENDBRANCH  15  19
BRANCH  17  21
ATOM     21  O   UNL     1       1.707 -20.325  23.298  1.00  0.00    -0.502 OA
ATOM     22  H   UNL     1       1.443 -20.738  22.412  1.00  0.00     0.293 HD
ENDBRANCH  17  21
BRANCH  18  23
ATOM     23  O   UNL     1      -1.070 -20.163  23.735  1.00  0.00    -0.504 OA
ATOM     24  H   UNL     1      -0.716 -19.701  22.905  1.00  0.00     0.293 HD
ENDBRANCH  18  23
ENDBRANCH   3  13
BRANCH  10  25
ATOM     25  O   UNL     1      -2.774 -22.820  32.756  1.00  0.00    -0.507 OA
ATOM     26  H   UNL     1      -3.578 -23.133  33.288  1.00  0.00     0.293 HD
ENDBRANCH  10  25
BRANCH  11  27
ATOM     27  O   UNL     1      -1.573 -27.194  31.118  1.00  0.00    -0.508 OA
ATOM     28  H   UNL     1      -0.991 -27.622  31.829  1.00  0.00     0.293 HD
ENDBRANCH  11  27
ENDBRANCH   1   2
BRANCH   1  29
ATOM     29  C   UNL     1      -0.040 -18.818  28.934  1.00  0.00     0.339 C 
ATOM     30  C   UNL     1      -0.390 -17.754  29.991  1.00  0.00     0.214 C 
ATOM     31  O   UNL     1       0.292 -18.216  27.690  1.00  0.00    -0.332 OA
ATOM     32  C   UNL     1      -1.516 -16.836  29.478  1.00  0.00     0.180 C 
ATOM     33  C   UNL     1      -0.800 -17.481  27.159  1.00  0.00     0.179 C 
ATOM     34  C   UNL     1      -1.160 -16.297  28.080  1.00  0.00     0.177 C 
BRANCH  30  35
ATOM     35  O   UNL     1      -0.788 -18.393  31.178  1.00  0.00    -0.384 OA
ATOM     36  H   UNL     1      -0.674 -19.368  31.034  1.00  0.00     0.211 HD
ENDBRANCH  30  35
BRANCH  32  37
ATOM     37  O   UNL     1      -1.711 -15.760  30.361  1.00  0.00    -0.387 OA
ATOM     38  H   UNL     1      -2.656 -15.471  30.262  1.00  0.00     0.211 HD
ENDBRANCH  32  37
BRANCH  33  39
ATOM     39  C   UNL     1      -0.432 -16.993  25.750  1.00  0.00     0.191 C 
BRANCH  39  40
ATOM     40  O   UNL     1      -1.402 -17.405  24.824  1.00  0.00    -0.394 OA
ATOM     41  H   UNL     1      -1.015 -17.259  23.921  1.00  0.00     0.210 HD
ENDBRANCH  39  40
ENDBRANCH  33  39
BRANCH  34  42
ATOM     42  O   UNL     1      -0.070 -15.410  28.164  1.00  0.00    -0.387 OA
ATOM     43  H   UNL     1       0.601 -15.712  27.498  1.00  0.00     0.211 HD
ENDBRANCH  34  42
ENDBRANCH   1  29
TORSDOF 13
ENDMDL
MODEL 5
REMARK VINA RESULT:    -7.662      2.546      7.926
REMARK INTER + INTRA:         -12.107
REMARK INTER:                 -11.212
REMARK INTRA:                  -0.895
REMARK UNBOUND:                -0.638
REMARK SMILES O=c1c(O[C@H]2O[C@H](CO)[C@H](O)[C@H](O)[C@H]2O)c(-c2cc(O)c(O)c(O)c2)oc2cc(O)cc(O)c12
REMARK SMILES IDX 4 1 3 2 16 3 26 4 2 5 27 6 1 7 34 8 28 9 32 10 29 11 31 12
REMARK SMILES IDX 17 13 18 14 19 15 25 16 21 17 23 18 20 19 22 21 24 23 33 25
REMARK SMILES IDX 30 27 5 29 14 30 6 31 12 32 7 33 10 34 15 35 13 37 8 39 9 40
REMARK SMILES IDX 11 42
REMARK H PARENT 20 20 22 22 24 24 33 26 30 28 15 36 13 38 9 41 11 43
REMARK Flexibility Score: inf
ROOT
ATOM      1  O   UNL     1      -0.314 -20.207  28.030  1.00  0.00    -0.454 OA
ENDROOT
BRANCH   1   2
ATOM      2  C   UNL     1      -0.527 -21.465  28.630  1.00  0.00     0.214 A 
ATOM      3  C   UNL     1      -0.056 -22.609  27.954  1.00  0.00     0.181 A 
ATOM      4  O   UNL     1      -0.277 -23.821  28.451  1.00  0.00    -0.452 OA
ATOM      5  C   UNL     1      -1.213 -21.648  29.853  1.00  0.00     0.239 A 
ATOM      6  C   UNL     1      -0.912 -24.035  29.595  1.00  0.00     0.146 A 
ATOM      7  O   UNL     1      -1.659 -20.658  30.490  1.00  0.00    -0.285 OA
ATOM      8  C   UNL     1      -1.407 -22.953  30.357  1.00  0.00     0.111 A 
ATOM      9  C   UNL     1      -1.085 -25.350  30.037  1.00  0.00     0.094 A 
ATOM     10  C   UNL     1      -2.077 -23.222  31.576  1.00  0.00     0.134 A 
ATOM     11  C   UNL     1      -1.748 -25.608  31.241  1.00  0.00     0.123 A 
ATOM     12  C   UNL     1      -2.239 -24.547  32.005  1.00  0.00     0.093 A 
BRANCH   3  13
ATOM     13  C   UNL     1       0.671 -22.510  26.669  1.00  0.00     0.029 A 
ATOM     14  C   UNL     1       0.041 -22.025  25.512  1.00  0.00     0.062 A 
ATOM     15  C   UNL     1       0.742 -21.936  24.302  1.00  0.00     0.162 A 
ATOM     16  C   UNL     1       2.027 -22.864  26.612  1.00  0.00     0.062 A 
ATOM     17  C   UNL     1       2.094 -22.315  24.247  1.00  0.00     0.200 A 
ATOM     18  C   UNL     1       2.736 -22.776  25.409  1.00  0.00     0.162 A 
BRANCH  15  19
ATOM     19  O   UNL     1       0.100 -21.469  23.156  1.00  0.00    -0.504 OA
ATOM     20  H   UNL     1      -0.900 -21.307  23.136  1.00  0.00     0.293 HD
ENDBRANCH  15  19
BRANCH  17  21
ATOM     21  O   UNL     1       2.807 -22.237  23.050  1.00  0.00    -0.502 OA
ATOM     22  H   UNL     1       2.559 -21.585  22.316  1.00  0.00     0.293 HD
ENDBRANCH  17  21
BRANCH  18  23
ATOM     23  O   UNL     1       4.080 -23.151  25.390  1.00  0.00    -0.504 OA
ATOM     24  H   UNL     1       4.703 -22.961  26.166  1.00  0.00     0.293 HD
ENDBRANCH  18  23
ENDBRANCH   3  13
BRANCH  10  25
ATOM     25  O   UNL     1      -2.580 -22.186  32.365  1.00  0.00    -0.507 OA
ATOM     26  H   UNL     1      -3.165 -21.456  31.977  1.00  0.00     0.293 HD
ENDBRANCH  10  25
BRANCH  11  27
ATOM     27  O   UNL     1      -1.924 -26.916  31.688  1.00  0.00    -0.508 OA
ATOM     28  H   UNL     1      -1.235 -27.373  32.273  1.00  0.00     0.293 HD
ENDBRANCH  11  27
ENDBRANCH   1   2
BRANCH   1  29
ATOM     29  C   UNL     1      -1.206 -19.086  28.006  1.00  0.00     0.339 C 
ATOM     30  C   UNL     1      -1.868 -18.960  26.621  1.00  0.00     0.214 C 
ATOM     31  O   UNL     1      -0.542 -17.883  28.370  1.00  0.00    -0.332 OA
ATOM     32  C   UNL     1      -0.828 -18.534  25.566  1.00  0.00     0.180 C 
ATOM     33  C   UNL     1       0.504 -17.571  27.464  1.00  0.00     0.179 C 
ATOM     34  C   UNL     1      -0.059 -17.294  26.054  1.00  0.00     0.177 C 
BRANCH  30  35
ATOM     35  O   UNL     1      -2.442 -20.192  26.267  1.00  0.00    -0.384 OA
ATOM     36  H   UNL     1      -2.936 -20.049  25.420  1.00  0.00     0.211 HD
ENDBRANCH  30  35
BRANCH  32  37
ATOM     37  O   UNL     1      -1.461 -18.245  24.345  1.00  0.00    -0.387 OA
ATOM     38  H   UNL     1      -2.261 -17.697  24.555  1.00  0.00     0.211 HD
ENDBRANCH  32  37
BRANCH  33  39
ATOM     39  C   UNL     1       1.280 -16.358  27.998  1.00  0.00     0.191 C 
BRANCH  39  40
ATOM     40  O   UNL     1       0.520 -15.681  28.963  1.00  0.00    -0.394 OA
ATOM     41  H   UNL     1       0.235 -14.823  28.552  1.00  0.00     0.210 HD
ENDBRANCH  39  40
ENDBRANCH  33  39
BRANCH  34  42
ATOM     42  O   UNL     1      -0.914 -16.176  26.094  1.00  0.00    -0.387 OA
ATOM     43  H   UNL     1      -0.831 -15.717  25.218  1.00  0.00     0.211 HD
ENDBRANCH  34  42
ENDBRANCH   1  29
TORSDOF 13
ENDMDL
MODEL 6
REMARK VINA RESULT:    -7.620      2.543      5.682
REMARK INTER + INTRA:         -12.043
REMARK INTER:                 -10.173
REMARK INTRA:                  -1.870
REMARK UNBOUND:                -0.638
REMARK SMILES O=c1c(O[C@H]2O[C@H](CO)[C@H](O)[C@H](O)[C@H]2O)c(-c2cc(O)c(O)c(O)c2)oc2cc(O)cc(O)c12
REMARK SMILES IDX 4 1 3 2 16 3 26 4 2 5 27 6 1 7 34 8 28 9 32 10 29 11 31 12
REMARK SMILES IDX 17 13 18 14 19 15 25 16 21 17 23 18 20 19 22 21 24 23 33 25
REMARK SMILES IDX 30 27 5 29 14 30 6 31 12 32 7 33 10 34 15 35 13 37 8 39 9 40
REMARK SMILES IDX 11 42
REMARK H PARENT 20 20 22 22 24 24 33 26 30 28 15 36 13 38 9 41 11 43
REMARK Flexibility Score: inf
ROOT
ATOM      1  O   UNL     1      -0.544 -20.756  28.713  1.00  0.00    -0.454 OA
ENDROOT
BRANCH   1   2
ATOM      2  C   UNL     1      -0.785 -19.622  27.912  1.00  0.00     0.214 A 
ATOM      3  C   UNL     1      -0.302 -19.633  26.587  1.00  0.00     0.181 A 
ATOM      4  O   UNL     1      -0.458 -18.569  25.807  1.00  0.00    -0.452 OA
ATOM      5  C   UNL     1      -1.454 -18.462  28.368  1.00  0.00     0.239 A 
ATOM      6  C   UNL     1      -1.081 -17.465  26.194  1.00  0.00     0.146 A 
ATOM      7  O   UNL     1      -1.897 -18.402  29.545  1.00  0.00    -0.285 OA
ATOM      8  C   UNL     1      -1.617 -17.362  27.498  1.00  0.00     0.111 A 
ATOM      9  C   UNL     1      -1.201 -16.403  25.294  1.00  0.00     0.094 A 
ATOM     10  C   UNL     1      -2.280 -16.168  27.875  1.00  0.00     0.134 A 
ATOM     11  C   UNL     1      -1.856 -15.227  25.672  1.00  0.00     0.123 A 
ATOM     12  C   UNL     1      -2.393 -15.113  26.957  1.00  0.00     0.093 A 
BRANCH   3  13
ATOM     13  C   UNL     1       0.410 -20.804  26.027  1.00  0.00     0.029 A 
ATOM     14  C   UNL     1       1.721 -21.114  26.421  1.00  0.00     0.062 A 
ATOM     15  C   UNL     1       2.382 -22.227  25.883  1.00  0.00     0.162 A 
ATOM     16  C   UNL     1      -0.250 -21.646  25.121  1.00  0.00     0.062 A 
ATOM     17  C   UNL     1       1.723 -23.052  24.956  1.00  0.00     0.200 A 
ATOM     18  C   UNL     1       0.400 -22.761  24.581  1.00  0.00     0.162 A 
BRANCH  15  19
ATOM     19  O   UNL     1       3.691 -22.514  26.269  1.00  0.00    -0.504 OA
ATOM     20  H   UNL     1       3.892 -23.076  27.087  1.00  0.00     0.293 HD
ENDBRANCH  15  19
BRANCH  17  21
ATOM     21  O   UNL     1       2.367 -24.162  24.408  1.00  0.00    -0.502 OA
ATOM     22  H   UNL     1       1.915 -24.772  23.738  1.00  0.00     0.293 HD
ENDBRANCH  17  21
BRANCH  18  23
ATOM     23  O   UNL     1      -0.285 -23.566  23.671  1.00  0.00    -0.504 OA
ATOM     24  H   UNL     1       0.145 -24.374  23.237  1.00  0.00     0.293 HD
ENDBRANCH  18  23
ENDBRANCH   3  13
BRANCH  10  25
ATOM     25  O   UNL     1      -2.829 -16.020  29.150  1.00  0.00    -0.507 OA
ATOM     26  H   UNL     1      -3.632 -16.559  29.451  1.00  0.00     0.293 HD
ENDBRANCH  10  25
BRANCH  11  27
ATOM     27  O   UNL     1      -1.980 -14.164  24.780  1.00  0.00    -0.508 OA
ATOM     28  H   UNL     1      -2.714 -14.140  24.083  1.00  0.00     0.293 HD
ENDBRANCH  11  27
ENDBRANCH   1   2
BRANCH   1  29
ATOM     29  C   UNL     1      -1.280 -21.985  28.735  1.00  0.00     0.339 C 
ATOM     30  C   UNL     1      -1.969 -22.170  30.100  1.00  0.00     0.214 C 
ATOM     31  O   UNL     1      -0.450 -23.096  28.424  1.00  0.00    -0.332 OA
ATOM     32  C   UNL     1      -0.921 -22.432  31.199  1.00  0.00     0.180 C 
ATOM     33  C   UNL     1       0.594 -23.248  29.371  1.00  0.00     0.179 C 
ATOM     34  C   UNL     1       0.022 -23.569  30.768  1.00  0.00     0.177 C 
BRANCH  30  35
ATOM     35  O   UNL     1      -2.713 -21.018  30.404  1.00  0.00    -0.384 OA
ATOM     36  H   UNL     1      -3.671 -21.263  30.330  1.00  0.00     0.211 HD
ENDBRANCH  30  35
BRANCH  32  37
ATOM     37  O   UNL     1      -1.553 -22.778  32.406  1.00  0.00    -0.387 OA
ATOM     38  H   UNL     1      -2.450 -23.132  32.172  1.00  0.00     0.211 HD
ENDBRANCH  32  37
BRANCH  33  39
ATOM     39  C   UNL     1       1.542 -24.358  28.893  1.00  0.00     0.191 C 
BRANCH  39  40
ATOM     40  O   UNL     1       0.829 -25.334  28.181  1.00  0.00    -0.394 OA
ATOM     41  H   UNL     1       0.126 -25.677  28.793  1.00  0.00     0.210 HD
ENDBRANCH  39  40
ENDBRANCH  33  39
BRANCH  34  42
ATOM     42  O   UNL     1      -0.675 -24.791  30.727  1.00  0.00    -0.387 OA
ATOM     43  H   UNL     1      -0.236 -25.352  30.036  1.00  0.00     0.211 HD
ENDBRANCH  34  42
ENDBRANCH   1  29
TORSDOF 13
ENDMDL
MODEL 7
REMARK VINA RESULT:    -7.605      2.509      4.454
REMARK INTER + INTRA:         -12.022
REMARK INTER:                 -10.587
REMARK INTRA:                  -1.434
REMARK UNBOUND:                -0.638
REMARK SMILES O=c1c(O[C@H]2O[C@H](CO)[C@H](O)[C@H](O)[C@H]2O)c(-c2cc(O)c(O)c(O)c2)oc2cc(O)cc(O)c12
REMARK SMILES IDX 4 1 3 2 16 3 26 4 2 5 27 6 1 7 34 8 28 9 32 10 29 11 31 12
REMARK SMILES IDX 17 13 18 14 19 15 25 16 21 17 23 18 20 19 22 21 24 23 33 25
REMARK SMILES IDX 30 27 5 29 14 30 6 31 12 32 7 33 10 34 15 35 13 37 8 39 9 40
REMARK SMILES IDX 11 42
REMARK H PARENT 20 20 22 22 24 24 33 26 30 28 15 36 13 38 9 41 11 43
REMARK Flexibility Score: inf
ROOT
ATOM      1  O   UNL     1       0.864 -20.682  26.813  1.00  0.00    -0.454 OA
ENDROOT
BRANCH   1   2
ATOM      2  C   UNL     1       0.110 -19.492  26.879  1.00  0.00     0.214 A 
ATOM      3  C   UNL     1      -0.603 -19.225  28.065  1.00  0.00     0.181 A 
ATOM      4  O   UNL     1      -1.369 -18.144  28.160  1.00  0.00    -0.452 OA
ATOM      5  C   UNL     1       0.003 -18.567  25.813  1.00  0.00     0.239 A 
ATOM      6  C   UNL     1      -1.495 -17.252  27.187  1.00  0.00     0.146 A 
ATOM      7  O   UNL     1       0.615 -18.765  24.731  1.00  0.00    -0.285 OA
ATOM      8  C   UNL     1      -0.807 -17.420  25.964  1.00  0.00     0.111 A 
ATOM      9  C   UNL     1      -2.320 -16.142  27.388  1.00  0.00     0.094 A 
ATOM     10  C   UNL     1      -0.962 -16.443  24.949  1.00  0.00     0.134 A 
ATOM     11  C   UNL     1      -2.469 -15.182  26.382  1.00  0.00     0.123 A 
ATOM     12  C   UNL     1      -1.793 -15.334  25.171  1.00  0.00     0.093 A 
BRANCH   3  13
ATOM     13  C   UNL     1      -0.548 -20.138  29.229  1.00  0.00     0.029 A 
ATOM     14  C   UNL     1       0.367 -19.932  30.273  1.00  0.00     0.062 A 
ATOM     15  C   UNL     1       0.407 -20.805  31.369  1.00  0.00     0.162 A 
ATOM     16  C   UNL     1      -1.454 -21.206  29.314  1.00  0.00     0.062 A 
ATOM     17  C   UNL     1      -0.487 -21.886  31.435  1.00  0.00     0.200 A 
ATOM     18  C   UNL     1      -1.424 -22.081  30.405  1.00  0.00     0.162 A 
BRANCH  15  19
ATOM     19  O   UNL     1       1.333 -20.599  32.391  1.00  0.00    -0.504 OA
ATOM     20  H   UNL     1       2.293 -20.911  32.309  1.00  0.00     0.293 HD
ENDBRANCH  15  19
BRANCH  17  21
ATOM     21  O   UNL     1      -0.459 -22.768  32.517  1.00  0.00    -0.502 OA
ATOM     22  H   UNL     1       0.279 -23.451  32.637  1.00  0.00     0.293 HD
ENDBRANCH  17  21
BRANCH  18  23
ATOM     23  O   UNL     1      -2.332 -23.138  30.447  1.00  0.00    -0.504 OA
ATOM     24  H   UNL     1      -2.927 -23.368  29.660  1.00  0.00     0.293 HD
ENDBRANCH  18  23
ENDBRANCH   3  13
BRANCH  10  25
ATOM     25  O   UNL     1      -0.300 -16.563  23.726  1.00  0.00    -0.507 OA
ATOM     26  H   UNL     1       0.562 -17.086  23.636  1.00  0.00     0.293 HD
ENDBRANCH  10  25
BRANCH  11  27
ATOM     27  O   UNL     1      -3.290 -14.073  26.576  1.00  0.00    -0.508 OA
ATOM     28  H   UNL     1      -3.325 -13.316  25.905  1.00  0.00     0.293 HD
ENDBRANCH  11  27
ENDBRANCH   1   2
BRANCH   1  29
ATOM     29  C   UNL     1       0.376 -22.018  26.650  1.00  0.00     0.339 C 
ATOM     30  C   UNL     1       1.360 -23.025  27.275  1.00  0.00     0.214 C 
ATOM     31  O   UNL     1       0.131 -22.322  25.283  1.00  0.00    -0.332 OA
ATOM     32  C   UNL     1       2.664 -23.083  26.455  1.00  0.00     0.180 C 
ATOM     33  C   UNL     1       1.317 -22.240  24.510  1.00  0.00     0.179 C 
ATOM     34  C   UNL     1       2.340 -23.302  24.966  1.00  0.00     0.177 C 
BRANCH  30  35
ATOM     35  O   UNL     1       1.636 -22.643  28.599  1.00  0.00    -0.384 OA
ATOM     36  H   UNL     1       2.604 -22.798  28.749  1.00  0.00     0.211 HD
ENDBRANCH  30  35
BRANCH  32  37
ATOM     37  O   UNL     1       3.486 -24.124  26.915  1.00  0.00    -0.387 OA
ATOM     38  H   UNL     1       3.589 -24.001  27.895  1.00  0.00     0.211 HD
ENDBRANCH  32  37
BRANCH  33  39
ATOM     39  C   UNL     1       0.958 -22.419  23.027  1.00  0.00     0.191 C 
BRANCH  39  40
ATOM     40  O   UNL     1       0.012 -23.444  22.876  1.00  0.00    -0.394 OA
ATOM     41  H   UNL     1      -0.809 -23.146  23.348  1.00  0.00     0.210 HD
ENDBRANCH  39  40
ENDBRANCH  33  39
BRANCH  34  42
ATOM     42  O   UNL     1       1.809 -24.590  24.768  1.00  0.00    -0.387 OA
ATOM     43  H   UNL     1       2.573 -25.187  24.552  1.00  0.00     0.211 HD
ENDBRANCH  34  42
ENDBRANCH   1  29
TORSDOF 13
ENDMDL
MODEL 8
REMARK VINA RESULT:    -7.544      2.384      4.515
REMARK INTER + INTRA:         -11.930
REMARK INTER:                 -10.954
REMARK INTRA:                  -0.977
REMARK UNBOUND:                -0.638
REMARK SMILES O=c1c(O[C@H]2O[C@H](CO)[C@H](O)[C@H](O)[C@H]2O)c(-c2cc(O)c(O)c(O)c2)oc2cc(O)cc(O)c12
REMARK SMILES IDX 4 1 3 2 16 3 26 4 2 5 27 6 1 7 34 8 28 9 32 10 29 11 31 12
REMARK SMILES IDX 17 13 18 14 19 15 25 16 21 17 23 18 20 19 22 21 24 23 33 25
REMARK SMILES IDX 30 27 5 29 14 30 6 31 12 32 7 33 10 34 15 35 13 37 8 39 9 40
REMARK SMILES IDX 11 42
REMARK H PARENT 20 20 22 22 24 24 33 26 30 28 15 36 13 38 9 41 11 43
REMARK Flexibility Score: inf
ROOT
ATOM      1  O   UNL     1      -0.271 -21.379  24.924  1.00  0.00    -0.454 OA
ENDROOT
BRANCH   1   2
ATOM      2  C   UNL     1      -0.575 -20.095  25.417  1.00  0.00     0.214 A 
ATOM      3  C   UNL     1      -0.699 -19.933  26.812  1.00  0.00     0.181 A 
ATOM      4  O   UNL     1      -1.034 -18.754  27.324  1.00  0.00    -0.452 OA
ATOM      5  C   UNL     1      -0.795 -18.966  24.593  1.00  0.00     0.239 A 
ATOM      6  C   UNL     1      -1.246 -17.672  26.588  1.00  0.00     0.146 A 
ATOM      7  O   UNL     1      -0.703 -19.061  23.341  1.00  0.00    -0.285 OA
ATOM      8  C   UNL     1      -1.129 -17.726  25.181  1.00  0.00     0.111 A 
ATOM      9  C   UNL     1      -1.586 -16.475  27.225  1.00  0.00     0.094 A 
ATOM     10  C   UNL     1      -1.358 -16.548  24.428  1.00  0.00     0.134 A 
ATOM     11  C   UNL     1      -1.811 -15.316  26.476  1.00  0.00     0.123 A 
ATOM     12  C   UNL     1      -1.696 -15.355  25.084  1.00  0.00     0.093 A 
BRANCH   3  13
ATOM     13  C   UNL     1      -0.487 -21.060  27.748  1.00  0.00     0.029 A 
ATOM     14  C   UNL     1       0.801 -21.416  28.178  1.00  0.00     0.062 A 
ATOM     15  C   UNL     1       0.986 -22.485  29.065  1.00  0.00     0.162 A 
ATOM     16  C   UNL     1      -1.594 -21.759  28.250  1.00  0.00     0.062 A 
ATOM     17  C   UNL     1      -0.126 -23.197  29.545  1.00  0.00     0.200 A 
ATOM     18  C   UNL     1      -1.419 -22.826  29.138  1.00  0.00     0.162 A 
BRANCH  15  19
ATOM     19  O   UNL     1       2.272 -22.840  29.471  1.00  0.00    -0.504 OA
ATOM     20  H   UNL     1       2.985 -22.142  29.647  1.00  0.00     0.293 HD
ENDBRANCH  15  19
BRANCH  17  21
ATOM     21  O   UNL     1       0.040 -24.267  30.426  1.00  0.00    -0.502 OA
ATOM     22  H   UNL     1       0.222 -24.130  31.412  1.00  0.00     0.293 HD
ENDBRANCH  17  21
BRANCH  18  23
ATOM     23  O   UNL     1      -2.544 -23.506  29.605  1.00  0.00    -0.504 OA
ATOM     24  H   UNL     1      -3.095 -24.110  29.006  1.00  0.00     0.293 HD
ENDBRANCH  18  23
ENDBRANCH   3  13
BRANCH  10  25
ATOM     25  O   UNL     1      -1.250 -16.550  23.036  1.00  0.00    -0.507 OA
ATOM     26  H   UNL     1      -0.376 -16.346  22.568  1.00  0.00     0.293 HD
ENDBRANCH  10  25
BRANCH  11  27
ATOM     27  O   UNL     1      -2.150 -14.120  27.104  1.00  0.00    -0.508 OA
ATOM     28  H   UNL     1      -1.709 -13.832  27.968  1.00  0.00     0.293 HD
ENDBRANCH  11  27
ENDBRANCH   1   2
BRANCH   1  29
ATOM     29  C   UNL     1       0.702 -21.728  23.932  1.00  0.00     0.339 C 
ATOM     30  C   UNL     1       0.945 -23.249  23.934  1.00  0.00     0.214 C 
ATOM     31  O   UNL     1       1.917 -21.014  24.119  1.00  0.00    -0.332 OA
ATOM     32  C   UNL     1       1.670 -23.676  25.225  1.00  0.00     0.180 C 
ATOM     33  C   UNL     1       2.509 -21.314  25.372  1.00  0.00     0.179 C 
ATOM     34  C   UNL     1       2.918 -22.800  25.442  1.00  0.00     0.177 C 
BRANCH  30  35
ATOM     35  O   UNL     1      -0.288 -23.915  23.827  1.00  0.00    -0.384 OA
ATOM     36  H   UNL     1      -0.106 -24.883  23.947  1.00  0.00     0.211 HD
ENDBRANCH  30  35
BRANCH  32  37
ATOM     37  O   UNL     1       2.051 -25.026  25.149  1.00  0.00    -0.387 OA
ATOM     38  H   UNL     1       1.915 -25.313  24.209  1.00  0.00     0.211 HD
ENDBRANCH  32  37
BRANCH  33  39
ATOM     39  C   UNL     1       3.724 -20.397  25.580  1.00  0.00     0.191 C 
BRANCH  39  40
ATOM     40  O   UNL     1       3.347 -19.052  25.450  1.00  0.00    -0.394 OA
ATOM     41  H   UNL     1       2.650 -19.018  24.744  1.00  0.00     0.210 HD
ENDBRANCH  39  40
ENDBRANCH  33  39
BRANCH  34  42
ATOM     42  O   UNL     1       3.883 -23.076  24.455  1.00  0.00    -0.387 OA
ATOM     43  H   UNL     1       3.671 -23.973  24.086  1.00  0.00     0.211 HD
ENDBRANCH  34  42
ENDBRANCH   1  29
TORSDOF 13
ENDMDL
MODEL 9
REMARK VINA RESULT:    -7.406      3.567      6.550
REMARK INTER + INTRA:         -11.724
REMARK INTER:                 -10.045
REMARK INTRA:                  -1.679
REMARK UNBOUND:                -0.638
REMARK SMILES O=c1c(O[C@H]2O[C@H](CO)[C@H](O)[C@H](O)[C@H]2O)c(-c2cc(O)c(O)c(O)c2)oc2cc(O)cc(O)c12
REMARK SMILES IDX 4 1 3 2 16 3 26 4 2 5 27 6 1 7 34 8 28 9 32 10 29 11 31 12
REMARK SMILES IDX 17 13 18 14 19 15 25 16 21 17 23 18 20 19 22 21 24 23 33 25
REMARK SMILES IDX 30 27 5 29 14 30 6 31 12 32 7 33 10 34 15 35 13 37 8 39 9 40
REMARK SMILES IDX 11 42
REMARK H PARENT 20 20 22 22 24 24 33 26 30 28 15 36 13 38 9 41 11 43
REMARK Flexibility Score: inf
ROOT
ATOM      1  O   UNL     1      -0.383 -19.049  27.058  1.00  0.00    -0.454 OA
ENDROOT
BRANCH   1   2
ATOM      2  C   UNL     1      -1.022 -17.942  27.651  1.00  0.00     0.214 A 
ATOM      3  C   UNL     1      -1.283 -17.990  29.036  1.00  0.00     0.181 A 
ATOM      4  O   UNL     1      -1.928 -16.995  29.633  1.00  0.00    -0.452 OA
ATOM      5  C   UNL     1      -1.444 -16.798  26.933  1.00  0.00     0.239 A 
ATOM      6  C   UNL     1      -2.338 -15.906  28.997  1.00  0.00     0.146 A 
ATOM      7  O   UNL     1      -1.240 -16.711  25.693  1.00  0.00    -0.285 OA
ATOM      8  C   UNL     1      -2.109 -15.753  27.612  1.00  0.00     0.111 A 
ATOM      9  C   UNL     1      -3.001 -14.910  29.719  1.00  0.00     0.094 A 
ATOM     10  C   UNL     1      -2.557 -14.573  26.967  1.00  0.00     0.134 A 
ATOM     11  C   UNL     1      -3.442 -13.748  29.078  1.00  0.00     0.123 A 
ATOM     12  C   UNL     1      -3.219 -13.583  27.709  1.00  0.00     0.093 A 
BRANCH   3  13
ATOM     13  C   UNL     1      -0.877 -19.148  29.863  1.00  0.00     0.029 A 
ATOM     14  C   UNL     1      -1.747 -20.227  30.082  1.00  0.00     0.062 A 
ATOM     15  C   UNL     1      -1.348 -21.317  30.868  1.00  0.00     0.162 A 
ATOM     16  C   UNL     1       0.417 -19.191  30.404  1.00  0.00     0.062 A 
ATOM     17  C   UNL     1      -0.059 -21.342  31.427  1.00  0.00     0.200 A 
ATOM     18  C   UNL     1       0.825 -20.276  31.187  1.00  0.00     0.162 A 
BRANCH  15  19
ATOM     19  O   UNL     1      -2.228 -22.375  31.093  1.00  0.00    -0.504 OA
ATOM     20  H   UNL     1      -1.895 -23.302  31.327  1.00  0.00     0.293 HD
ENDBRANCH  15  19
BRANCH  17  21
ATOM     21  O   UNL     1       0.354 -22.417  32.215  1.00  0.00    -0.502 OA
ATOM     22  H   UNL     1       0.339 -22.382  33.227  1.00  0.00     0.293 HD
ENDBRANCH  17  21
BRANCH  18  23
ATOM     23  O   UNL     1       2.115 -20.276  31.720  1.00  0.00    -0.504 OA
ATOM     24  H   UNL     1       2.565 -19.427  32.040  1.00  0.00     0.293 HD
ENDBRANCH  18  23
ENDBRANCH   3  13
BRANCH  10  25
ATOM     25  O   UNL     1      -2.350 -14.374  25.601  1.00  0.00    -0.507 OA
ATOM     26  H   UNL     1      -2.504 -13.474  25.164  1.00  0.00     0.293 HD
ENDBRANCH  10  25
BRANCH  11  27
ATOM     27  O   UNL     1      -4.104 -12.751  29.791  1.00  0.00    -0.508 OA
ATOM     28  H   UNL     1      -3.614 -11.938  30.143  1.00  0.00     0.293 HD
ENDBRANCH  11  27
ENDBRANCH   1   2
BRANCH   1  29
ATOM     29  C   UNL     1      -0.996 -20.165  26.401  1.00  0.00     0.339 C 
ATOM     30  C   UNL     1      -0.051 -21.381  26.420  1.00  0.00     0.214 C 
ATOM     31  O   UNL     1      -1.386 -19.839  25.073  1.00  0.00    -0.332 OA
ATOM     32  C   UNL     1       1.165 -21.131  25.508  1.00  0.00     0.180 C 
ATOM     33  C   UNL     1      -0.270 -19.480  24.276  1.00  0.00     0.179 C 
ATOM     34  C   UNL     1       0.694 -20.674  24.116  1.00  0.00     0.177 C 
BRANCH  30  35
ATOM     35  O   UNL     1       0.372 -21.618  27.739  1.00  0.00    -0.384 OA
ATOM     36  H   UNL     1       0.566 -20.734  28.145  1.00  0.00     0.211 HD
ENDBRANCH  30  35
BRANCH  32  37
ATOM     37  O   UNL     1       1.932 -22.302  25.384  1.00  0.00    -0.387 OA
ATOM     38  H   UNL     1       2.639 -22.116  24.712  1.00  0.00     0.211 HD
ENDBRANCH  32  37
BRANCH  33  39
ATOM     39  C   UNL     1      -0.772 -18.987  22.910  1.00  0.00     0.191 C 
BRANCH  39  40
ATOM     40  O   UNL     1      -1.548 -17.829  23.065  1.00  0.00    -0.394 OA
ATOM     41  H   UNL     1      -1.197 -17.355  23.863  1.00  0.00     0.210 HD
ENDBRANCH  39  40
ENDBRANCH  33  39
BRANCH  34  42
ATOM     42  O   UNL     1       0.039 -21.729  23.453  1.00  0.00    -0.387 OA
ATOM     43  H   UNL     1      -0.175 -22.413  24.139  1.00  0.00     0.211 HD
ENDBRANCH  34  42
ENDBRANCH   1  29
TORSDOF 13
ENDMDL
