MODEL 1
REMARK VINA RESULT:    -4.118      0.000      0.000
REMARK INTER + INTRA:          -6.656
REMARK INTER:                  -6.284
REMARK INTRA:                  -0.372
REMARK UNBOUND:                -0.372
REMARK SMILES O=C([O-])CCCCCCCCC(=O)[O-]
REMARK SMILES IDX 7 1 6 2 5 3 4 4 2 5 1 6 3 7 8 8 9 9 10 10 11 11 12 12 13 13
REMARK SMILES IDX 14 14
REMARK H PARENT
REMARK Flexibility Score: inf
ROOT
ATOM      1  C   UNL     1      -7.688  -9.093  -0.506  1.00  0.00     0.000 C 
ENDROOT
BRANCH   1   2
ATOM      2  C   UNL     1      -7.248  -7.690  -0.051  1.00  0.00     0.000 C 
BRANCH   2   3
ATOM      3  C   UNL     1      -8.404  -6.876   0.551  1.00  0.00     0.006 C 
BRANCH   3   4
ATOM      4  C   UNL     1      -9.765  -7.561   0.369  1.00  0.00     0.053 C 
BRANCH   4   5
ATOM      5  C   UNL     1     -10.873  -6.632   0.753  1.00  0.00     0.041 C 
ATOM      6  O   UNL     1     -11.412  -5.896  -0.115  1.00  0.00    -0.550 OA
ATOM      7  O   UNL     1     -11.277  -6.542   2.078  1.00  0.00    -0.550 OA
ENDBRANCH   4   5
ENDBRANCH   3   4
ENDBRANCH   2   3
ENDBRANCH   1   2
BRANCH   1   8
ATOM      8  C   UNL     1      -7.046 -10.213   0.329  1.00  0.00     0.000 C 
BRANCH   8   9
ATOM      9  C   UNL     1      -6.039 -11.048  -0.479  1.00  0.00     0.000 C 
BRANCH   9  10
ATOM     10  C   UNL     1      -5.154 -11.890   0.453  1.00  0.00     0.006 C 
BRANCH  10  11
ATOM     11  C   UNL     1      -5.226 -13.387   0.125  1.00  0.00     0.053 C 
BRANCH  11  12
ATOM     12  C   UNL     1      -6.345 -14.061   0.857  1.00  0.00     0.041 C 
ATOM     13  O   UNL     1      -6.916 -15.066   0.356  1.00  0.00    -0.550 OA
ATOM     14  O   UNL     1      -6.781 -13.560   2.076  1.00  0.00    -0.550 OA
ENDBRANCH  11  12
ENDBRANCH  10  11
ENDBRANCH   9  10
ENDBRANCH   8   9
ENDBRANCH   1   8
TORSDOF 9
ENDMDL
MODEL 2
REMARK VINA RESULT:    -4.057      1.422      6.618
REMARK INTER + INTRA:          -6.564
REMARK INTER:                  -5.864
REMARK INTRA:                  -0.700
REMARK UNBOUND:                -0.372
REMARK SMILES O=C([O-])CCCCCCCCC(=O)[O-]
REMARK SMILES IDX 7 1 6 2 5 3 4 4 2 5 1 6 3 7 8 8 9 9 10 10 11 11 12 12 13 13
REMARK SMILES IDX 14 14
REMARK H PARENT
REMARK Flexibility Score: inf
ROOT
ATOM      1  C   UNL     1      -6.614  -7.462  -0.238  1.00  0.00     0.000 C 
ENDROOT
BRANCH   1   2
ATOM      2  C   UNL     1      -6.708  -8.729   0.630  1.00  0.00     0.000 C 
BRANCH   2   3
ATOM      3  C   UNL     1      -7.107  -9.973  -0.180  1.00  0.00     0.006 C 
BRANCH   3   4
ATOM      4  C   UNL     1      -5.981 -11.012  -0.256  1.00  0.00     0.053 C 
BRANCH   4   5
ATOM      5  C   UNL     1      -6.283 -12.174   0.636  1.00  0.00     0.041 C 
ATOM      6  O   UNL     1      -6.201 -13.351   0.194  1.00  0.00    -0.550 OA
ATOM      7  O   UNL     1      -6.703 -11.958   1.943  1.00  0.00    -0.550 OA
ENDBRANCH   4   5
ENDBRANCH   3   4
ENDBRANCH   2   3
ENDBRANCH   1   2
BRANCH   1   8
ATOM      8  C   UNL     1      -6.689  -6.170   0.591  1.00  0.00     0.000 C 
BRANCH   8   9
ATOM      9  C   UNL     1      -7.425  -6.367   1.926  1.00  0.00     0.000 C 
BRANCH   9  10
ATOM     10  C   UNL     1      -8.774  -5.634   1.921  1.00  0.00     0.006 C 
BRANCH  10  11
ATOM     11  C   UNL     1      -9.963  -6.604   1.937  1.00  0.00     0.053 C 
BRANCH  11  12
ATOM     12  C   UNL     1     -10.460  -6.894   0.555  1.00  0.00     0.041 C 
ATOM     13  O   UNL     1     -10.081  -7.931  -0.051  1.00  0.00    -0.550 OA
ATOM     14  O   UNL     1     -11.317  -6.003  -0.077  1.00  0.00    -0.550 OA
ENDBRANCH  11  12
ENDBRANCH  10  11
ENDBRANCH   9  10
ENDBRANCH   8   9
ENDBRANCH   1   8
TORSDOF 9
ENDMDL
MODEL 3
REMARK VINA RESULT:    -4.052      1.018      7.137
REMARK INTER + INTRA:          -6.557
REMARK INTER:                  -6.166
REMARK INTRA:                  -0.391
REMARK UNBOUND:                -0.372
REMARK SMILES O=C([O-])CCCCCCCCC(=O)[O-]
REMARK SMILES IDX 7 1 6 2 5 3 4 4 2 5 1 6 3 7 8 8 9 9 10 10 11 11 12 12 13 13
REMARK SMILES IDX 14 14
REMARK H PARENT
REMARK Flexibility Score: inf
ROOT
ATOM      1  C   UNL     1      -6.190 -10.040   0.948  1.00  0.00     0.000 C 
ENDROOT
BRANCH   1   2
ATOM      2  C   UNL     1      -5.399 -11.356   1.046  1.00  0.00     0.000 C 
BRANCH   2   3
ATOM      3  C   UNL     1      -6.035 -12.490   0.226  1.00  0.00     0.006 C 
BRANCH   3   4
ATOM      4  C   UNL     1      -5.563 -13.878   0.676  1.00  0.00     0.053 C 
BRANCH   4   5
ATOM      5  C   UNL     1      -6.677 -14.614   1.351  1.00  0.00     0.041 C 
ATOM      6  O   UNL     1      -7.206 -15.613   0.795  1.00  0.00    -0.550 OA
ATOM      7  O   UNL     1      -7.166 -14.169   2.572  1.00  0.00    -0.550 OA
ENDBRANCH   4   5
ENDBRANCH   3   4
ENDBRANCH   2   3
ENDBRANCH   1   2
BRANCH   1   8
ATOM      8  C   UNL     1      -6.971  -9.916  -0.371  1.00  0.00     0.000 C 
BRANCH   8   9
ATOM      9  C   UNL     1      -7.721  -8.581  -0.490  1.00  0.00     0.000 C 
BRANCH   9  10
ATOM     10  C   UNL     1      -9.155  -8.708   0.046  1.00  0.00     0.006 C 
BRANCH  10  11
ATOM     11  C   UNL     1      -9.450  -7.695   1.161  1.00  0.00     0.053 C 
BRANCH  11  12
ATOM     12  C   UNL     1     -10.423  -6.648   0.715  1.00  0.00     0.041 C 
ATOM     13  O   UNL     1     -11.264  -6.907  -0.187  1.00  0.00    -0.550 OA
ATOM     14  O   UNL     1     -10.381  -5.377   1.272  1.00  0.00    -0.550 OA
ENDBRANCH  11  12
ENDBRANCH  10  11
ENDBRANCH   9  10
ENDBRANCH   8   9
ENDBRANCH   1   8
TORSDOF 9
ENDMDL
MODEL 4
REMARK VINA RESULT:    -3.930      1.918      2.540
REMARK INTER + INTRA:          -6.370
REMARK INTER:                  -5.845
REMARK INTRA:                  -0.526
REMARK UNBOUND:                -0.372
REMARK SMILES O=C([O-])CCCCCCCCC(=O)[O-]
REMARK SMILES IDX 7 1 6 2 5 3 4 4 2 5 1 6 3 7 8 8 9 9 10 10 11 11 12 12 13 13
REMARK SMILES IDX 14 14
REMARK H PARENT
REMARK Flexibility Score: inf
ROOT
ATOM      1  C   UNL     1      -9.320  -8.758   0.082  1.00  0.00     0.000 C 
ENDROOT
BRANCH   1   2
ATOM      2  C   UNL     1     -10.083  -7.423   0.149  1.00  0.00     0.000 C 
BRANCH   2   3
ATOM      3  C   UNL     1     -10.235  -6.902   1.587  1.00  0.00     0.006 C 
BRANCH   3   4
ATOM      4  C   UNL     1     -10.085  -5.378   1.679  1.00  0.00     0.053 C 
BRANCH   4   5
ATOM      5  C   UNL     1      -8.847  -5.022   2.441  1.00  0.00     0.041 C 
ATOM      6  O   UNL     1      -8.413  -3.840   2.428  1.00  0.00    -0.550 OA
ATOM      7  O   UNL     1      -8.143  -6.005   3.125  1.00  0.00    -0.550 OA
ENDBRANCH   4   5
ENDBRANCH   3   4
ENDBRANCH   2   3
ENDBRANCH   1   2
BRANCH   1   8
ATOM      8  C   UNL     1      -8.091  -8.783   1.006  1.00  0.00     0.000 C 
BRANCH   8   9
ATOM      9  C   UNL     1      -6.779  -9.000   0.236  1.00  0.00     0.000 C 
BRANCH   9  10
ATOM     10  C   UNL     1      -6.821 -10.312  -0.561  1.00  0.00     0.006 C 
BRANCH  10  11
ATOM     11  C   UNL     1      -5.695 -11.273  -0.156  1.00  0.00     0.053 C 
BRANCH  11  12
ATOM     12  C   UNL     1      -6.203 -12.391   0.702  1.00  0.00     0.041 C 
ATOM     13  O   UNL     1      -6.160 -13.579   0.286  1.00  0.00    -0.550 OA
ATOM     14  O   UNL     1      -6.753 -12.118   1.947  1.00  0.00    -0.550 OA
ENDBRANCH  11  12
ENDBRANCH  10  11
ENDBRANCH   9  10
ENDBRANCH   8   9
ENDBRANCH   1   8
TORSDOF 9
ENDMDL
MODEL 5
REMARK VINA RESULT:    -3.833     18.687     19.803
REMARK INTER + INTRA:          -6.222
REMARK INTER:                  -5.454
REMARK INTRA:                  -0.768
REMARK UNBOUND:                -0.372
REMARK SMILES O=C([O-])CCCCCCCCC(=O)[O-]
REMARK SMILES IDX 7 1 6 2 5 3 4 4 2 5 1 6 3 7 8 8 9 9 10 10 11 11 12 12 13 13
REMARK SMILES IDX 14 14
REMARK H PARENT
REMARK Flexibility Score: inf
ROOT
ATOM      1  C   UNL     1     -19.380  -4.314 -14.386  1.00  0.00     0.000 C 
ENDROOT
BRANCH   1   2
ATOM      2  C   UNL     1     -20.026  -3.087 -15.055  1.00  0.00     0.000 C 
BRANCH   2   3
ATOM      3  C   UNL     1     -20.861  -2.251 -14.072  1.00  0.00     0.006 C 
BRANCH   3   4
ATOM      4  C   UNL     1     -21.196  -3.016 -12.785  1.00  0.00     0.053 C 
BRANCH   4   5
ATOM      5  C   UNL     1     -22.597  -3.538 -12.839  1.00  0.00     0.041 C 
ATOM      6  O   UNL     1     -23.158  -3.737 -13.950  1.00  0.00    -0.550 OA
ATOM      7  O   UNL     1     -23.303  -3.760 -11.664  1.00  0.00    -0.550 OA
ENDBRANCH   4   5
ENDBRANCH   3   4
ENDBRANCH   2   3
ENDBRANCH   1   2
BRANCH   1   8
ATOM      8  C   UNL     1     -19.728  -5.629 -15.102  1.00  0.00     0.000 C 
BRANCH   8   9
ATOM      9  C   UNL     1     -20.837  -6.415 -14.386  1.00  0.00     0.000 C 
BRANCH   9  10
ATOM     10  C   UNL     1     -20.489  -6.627 -12.905  1.00  0.00     0.006 C 
BRANCH  10  11
ATOM     11  C   UNL     1     -20.716  -8.078 -12.458  1.00  0.00     0.053 C 
BRANCH  11  12
ATOM     12  C   UNL     1     -20.216  -9.056 -13.474  1.00  0.00     0.041 C 
ATOM     13  O   UNL     1     -18.985  -9.128 -13.734  1.00  0.00    -0.550 OA
ATOM     14  O   UNL     1     -21.111  -9.866 -14.160  1.00  0.00    -0.550 OA
ENDBRANCH  11  12
ENDBRANCH  10  11
ENDBRANCH   9  10
ENDBRANCH   8   9
ENDBRANCH   1   8
TORSDOF 9
ENDMDL
MODEL 6
REMARK VINA RESULT:    -3.802      1.641      2.580
REMARK INTER + INTRA:          -6.174
REMARK INTER:                  -5.495
REMARK INTRA:                  -0.679
REMARK UNBOUND:                -0.372
REMARK SMILES O=C([O-])CCCCCCCCC(=O)[O-]
REMARK SMILES IDX 7 1 6 2 5 3 4 4 2 5 1 6 3 7 8 8 9 9 10 10 11 11 12 12 13 13
REMARK SMILES IDX 14 14
REMARK H PARENT
REMARK Flexibility Score: inf
ROOT
ATOM      1  C   UNL     1      -7.734  -7.454   2.060  1.00  0.00     0.000 C 
ENDROOT
BRANCH   1   2
ATOM      2  C   UNL     1      -8.202  -6.226   1.259  1.00  0.00     0.000 C 
BRANCH   2   3
ATOM      3  C   UNL     1      -9.249  -5.392   2.014  1.00  0.00     0.006 C 
BRANCH   3   4
ATOM      4  C   UNL     1     -10.662  -5.979   1.899  1.00  0.00     0.053 C 
BRANCH   4   5
ATOM      5  C   UNL     1     -11.097  -6.017   0.468  1.00  0.00     0.041 C 
ATOM      6  O   UNL     1     -11.399  -4.952  -0.131  1.00  0.00    -0.550 OA
ATOM      7  O   UNL     1     -11.215  -7.234  -0.191  1.00  0.00    -0.550 OA
ENDBRANCH   4   5
ENDBRANCH   3   4
ENDBRANCH   2   3
ENDBRANCH   1   2
BRANCH   1   8
ATOM      8  C   UNL     1      -8.406  -8.755   1.593  1.00  0.00     0.000 C 
BRANCH   8   9
ATOM      9  C   UNL     1      -8.216  -9.011   0.090  1.00  0.00     0.000 C 
BRANCH   9  10
ATOM     10  C   UNL     1      -6.792  -9.503  -0.207  1.00  0.00     0.006 C 
BRANCH  10  11
ATOM     11  C   UNL     1      -6.691 -11.035  -0.187  1.00  0.00     0.053 C 
BRANCH  11  12
ATOM     12  C   UNL     1      -6.177 -11.539   1.126  1.00  0.00     0.041 C 
ATOM     13  O   UNL     1      -5.496 -10.787   1.872  1.00  0.00    -0.550 OA
ATOM     14  O   UNL     1      -6.422 -12.851   1.510  1.00  0.00    -0.550 OA
ENDBRANCH  11  12
ENDBRANCH  10  11
ENDBRANCH   9  10
ENDBRANCH   8   9
ENDBRANCH   1   8
TORSDOF 9
ENDMDL
MODEL 7
REMARK VINA RESULT:    -3.800     18.874     20.157
REMARK INTER + INTRA:          -6.172
REMARK INTER:                  -5.269
REMARK INTRA:                  -0.903
REMARK UNBOUND:                -0.372
REMARK SMILES O=C([O-])CCCCCCCCC(=O)[O-]
REMARK SMILES IDX 7 1 6 2 5 3 4 4 2 5 1 6 3 7 8 8 9 9 10 10 11 11 12 12 13 13
REMARK SMILES IDX 14 14
REMARK H PARENT
REMARK Flexibility Score: inf
ROOT
ATOM      1  C   UNL     1     -19.954  -4.188 -13.041  1.00  0.00     0.000 C 
ENDROOT
BRANCH   1   2
ATOM      2  C   UNL     1     -20.891  -3.037 -12.635  1.00  0.00     0.000 C 
BRANCH   2   3
ATOM      3  C   UNL     1     -22.226  -3.537 -12.059  1.00  0.00     0.006 C 
BRANCH   3   4
ATOM      4  C   UNL     1     -22.752  -4.780 -12.789  1.00  0.00     0.053 C 
BRANCH   4   5
ATOM      5  C   UNL     1     -23.492  -4.384 -14.027  1.00  0.00     0.041 C 
ATOM      6  O   UNL     1     -24.167  -3.322 -14.049  1.00  0.00    -0.550 OA
ATOM      7  O   UNL     1     -23.476  -5.212 -15.142  1.00  0.00    -0.550 OA
ENDBRANCH   4   5
ENDBRANCH   3   4
ENDBRANCH   2   3
ENDBRANCH   1   2
BRANCH   1   8
ATOM      8  C   UNL     1     -19.448  -4.055 -14.487  1.00  0.00     0.000 C 
BRANCH   8   9
ATOM      9  C   UNL     1     -19.950  -5.188 -15.395  1.00  0.00     0.000 C 
BRANCH   9  10
ATOM     10  C   UNL     1     -19.545  -6.560 -14.834  1.00  0.00     0.006 C 
BRANCH  10  11
ATOM     11  C   UNL     1     -20.762  -7.430 -14.494  1.00  0.00     0.053 C 
BRANCH  11  12
ATOM     12  C   UNL     1     -20.503  -8.308 -13.310  1.00  0.00     0.041 C 
ATOM     13  O   UNL     1     -20.804  -7.916 -12.151  1.00  0.00    -0.550 OA
ATOM     14  O   UNL     1     -19.898  -9.546 -13.481  1.00  0.00    -0.550 OA
ENDBRANCH  11  12
ENDBRANCH  10  11
ENDBRANCH   9  10
ENDBRANCH   8   9
ENDBRANCH   1   8
TORSDOF 9
ENDMDL
MODEL 8
REMARK VINA RESULT:    -3.773     18.816     21.042
REMARK INTER + INTRA:          -6.130
REMARK INTER:                  -5.130
REMARK INTRA:                  -1.001
REMARK UNBOUND:                -0.372
REMARK SMILES O=C([O-])CCCCCCCCC(=O)[O-]
REMARK SMILES IDX 7 1 6 2 5 3 4 4 2 5 1 6 3 7 8 8 9 9 10 10 11 11 12 12 13 13
REMARK SMILES IDX 14 14
REMARK H PARENT
REMARK Flexibility Score: inf
ROOT
ATOM      1  C   UNL     1     -20.188  -4.933 -12.879  1.00  0.00     0.000 C 
ENDROOT
BRANCH   1   2
ATOM      2  C   UNL     1     -19.648  -5.138 -14.305  1.00  0.00     0.000 C 
BRANCH   2   3
ATOM      3  C   UNL     1     -19.767  -6.595 -14.779  1.00  0.00     0.006 C 
BRANCH   3   4
ATOM      4  C   UNL     1     -20.625  -7.451 -13.838  1.00  0.00     0.053 C 
BRANCH   4   5
ATOM      5  C   UNL     1     -20.111  -8.855 -13.796  1.00  0.00     0.041 C 
ATOM      6  O   UNL     1     -20.915  -9.825 -13.797  1.00  0.00    -0.550 OA
ATOM      7  O   UNL     1     -18.746  -9.094 -13.706  1.00  0.00    -0.550 OA
ENDBRANCH   4   5
ENDBRANCH   3   4
ENDBRANCH   2   3
ENDBRANCH   1   2
BRANCH   1   8
ATOM      8  C   UNL     1     -20.652  -3.490 -12.624  1.00  0.00     0.000 C 
BRANCH   8   9
ATOM      9  C   UNL     1     -22.112  -3.415 -12.149  1.00  0.00     0.000 C 
BRANCH   9  10
ATOM     10  C   UNL     1     -22.924  -4.605 -12.683  1.00  0.00     0.006 C 
BRANCH  10  11
ATOM     11  C   UNL     1     -23.794  -4.220 -13.886  1.00  0.00     0.053 C 
BRANCH  11  12
ATOM     12  C   UNL     1     -23.220  -4.730 -15.171  1.00  0.00     0.041 C 
ATOM     13  O   UNL     1     -23.367  -5.938 -15.497  1.00  0.00    -0.550 OA
ATOM     14  O   UNL     1     -22.493  -3.879 -15.994  1.00  0.00    -0.550 OA
ENDBRANCH  11  12
ENDBRANCH  10  11
ENDBRANCH   9  10
ENDBRANCH   8   9
ENDBRANCH   1   8
TORSDOF 9
ENDMDL
MODEL 9
REMARK VINA RESULT:    -3.763     18.727     21.203
REMARK INTER + INTRA:          -6.114
REMARK INTER:                  -5.200
REMARK INTRA:                  -0.914
REMARK UNBOUND:                -0.372
REMARK SMILES O=C([O-])CCCCCCCCC(=O)[O-]
REMARK SMILES IDX 7 1 6 2 5 3 4 4 2 5 1 6 3 7 8 8 9 9 10 10 11 11 12 12 13 13
REMARK SMILES IDX 14 14
REMARK H PARENT
REMARK Flexibility Score: inf
ROOT
ATOM      1  C   UNL     1     -21.133  -4.069 -12.759  1.00  0.00     0.000 C 
ENDROOT
BRANCH   1   2
ATOM      2  C   UNL     1     -20.050  -5.140 -12.980  1.00  0.00     0.000 C 
BRANCH   2   3
ATOM      3  C   UNL     1     -20.569  -6.565 -12.733  1.00  0.00     0.006 C 
BRANCH   3   4
ATOM      4  C   UNL     1     -19.991  -7.582 -13.725  1.00  0.00     0.053 C 
BRANCH   4   5
ATOM      5  C   UNL     1     -20.509  -8.954 -13.428  1.00  0.00     0.041 C 
ATOM      6  O   UNL     1     -20.239  -9.510 -12.331  1.00  0.00    -0.550 OA
ATOM      7  O   UNL     1     -21.251  -9.639 -14.381  1.00  0.00    -0.550 OA
ENDBRANCH   4   5
ENDBRANCH   3   4
ENDBRANCH   2   3
ENDBRANCH   1   2
BRANCH   1   8
ATOM      8  C   UNL     1     -22.555  -4.654 -12.783  1.00  0.00     0.000 C 
BRANCH   8   9
ATOM      9  C   UNL     1     -23.355  -4.208 -14.016  1.00  0.00     0.000 C 
BRANCH   9  10
ATOM     10  C   UNL     1     -23.201  -5.217 -15.164  1.00  0.00     0.006 C 
BRANCH  10  11
ATOM     11  C   UNL     1     -22.664  -4.563 -16.444  1.00  0.00     0.053 C 
BRANCH  11  12
ATOM     12  C   UNL     1     -21.169  -4.613 -16.507  1.00  0.00     0.041 C 
ATOM     13  O   UNL     1     -20.496  -3.548 -16.475  1.00  0.00    -0.550 OA
ATOM     14  O   UNL     1     -20.519  -5.833 -16.634  1.00  0.00    -0.550 OA
ENDBRANCH  11  12
ENDBRANCH  10  11
ENDBRANCH   9  10
ENDBRANCH   8   9
ENDBRANCH   1   8
TORSDOF 9
ENDMDL
