MODEL 1
REMARK VINA RESULT:    -3.715      0.000      0.000
REMARK INTER + INTRA:          -4.214
REMARK INTER:                  -3.932
REMARK INTRA:                  -0.281
REMARK UNBOUND:                -0.281
REMARK SMILES C=C1CC[C@@]2(C(C)C)C[C@@H]12
REMARK SMILES IDX 5 1 4 2 3 3 2 4 1 5 10 6 9 7 6 8 7 9 8 10
REMARK H PARENT
REMARK Flexibility Score: inf
ROOT
ATOM      1  C   UNL     1      12.873   5.849  16.641  1.00  0.00    -0.020 C 
ATOM      2  C   UNL     1      12.447   4.871  17.750  1.00  0.00     0.012 C 
ATOM      3  C   UNL     1      11.792   5.695  18.860  1.00  0.00     0.031 C 
ATOM      4  C   UNL     1      11.794   7.098  18.354  1.00  0.00    -0.074 C 
ATOM      5  C   UNL     1      11.258   8.120  19.026  1.00  0.00     0.008 C 
ATOM      6  C   UNL     1      12.430   7.254  17.020  1.00  0.00     0.021 C 
ATOM      7  C   UNL     1      11.735   6.525  15.875  1.00  0.00     0.016 C 
ENDROOT
BRANCH   1   8
ATOM      8  C   UNL     1      14.203   5.582  15.875  1.00  0.00    -0.011 C 
ATOM      9  C   UNL     1      14.705   4.128  15.890  1.00  0.00     0.008 C 
ATOM     10  C   UNL     1      15.297   6.526  16.388  1.00  0.00     0.008 C 
ENDBRANCH   1   8
TORSDOF 1
ENDMDL
MODEL 2
REMARK VINA RESULT:    -3.641      1.419      2.246
REMARK INTER + INTRA:          -4.136
REMARK INTER:                  -3.848
REMARK INTRA:                  -0.287
REMARK UNBOUND:                -0.281
REMARK SMILES C=C1CC[C@@]2(C(C)C)C[C@@H]12
REMARK SMILES IDX 5 1 4 2 3 3 2 4 1 5 10 6 9 7 6 8 7 9 8 10
REMARK H PARENT
REMARK Flexibility Score: inf
ROOT
ATOM      1  C   UNL     1      12.900   5.172  17.466  1.00  0.00    -0.020 C 
ATOM      2  C   UNL     1      13.530   6.388  18.167  1.00  0.00     0.012 C 
ATOM      3  C   UNL     1      12.882   7.642  17.578  1.00  0.00     0.031 C 
ATOM      4  C   UNL     1      11.864   7.136  16.613  1.00  0.00    -0.074 C 
ATOM      5  C   UNL     1      11.046   7.936  15.923  1.00  0.00     0.008 C 
ATOM      6  C   UNL     1      11.826   5.654  16.503  1.00  0.00     0.021 C 
ATOM      7  C   UNL     1      11.424   4.915  17.775  1.00  0.00     0.016 C 
ENDROOT
BRANCH   1   8
ATOM      8  C   UNL     1      13.799   3.940  17.148  1.00  0.00    -0.011 C 
ATOM      9  C   UNL     1      14.725   3.474  18.285  1.00  0.00     0.008 C 
ATOM     10  C   UNL     1      14.612   4.203  15.875  1.00  0.00     0.008 C 
ENDBRANCH   1   8
TORSDOF 1
ENDMDL
MODEL 3
REMARK VINA RESULT:    -3.571      1.334      3.710
REMARK INTER + INTRA:          -4.061
REMARK INTER:                  -3.761
REMARK INTRA:                  -0.300
REMARK UNBOUND:                -0.281
REMARK SMILES C=C1CC[C@@]2(C(C)C)C[C@@H]12
REMARK SMILES IDX 5 1 4 2 3 3 2 4 1 5 10 6 9 7 6 8 7 9 8 10
REMARK H PARENT
REMARK Flexibility Score: inf
ROOT
ATOM      1  C   UNL     1      11.864   6.144  17.315  1.00  0.00    -0.020 C 
ATOM      2  C   UNL     1      12.756   6.080  16.064  1.00  0.00     0.012 C 
ATOM      3  C   UNL     1      13.824   5.013  16.318  1.00  0.00     0.031 C 
ATOM      4  C   UNL     1      13.496   4.448  17.658  1.00  0.00    -0.074 C 
ATOM      5  C   UNL     1      14.179   3.446  18.219  1.00  0.00     0.008 C 
ATOM      6  C   UNL     1      12.323   5.087  18.309  1.00  0.00     0.021 C 
ATOM      7  C   UNL     1      10.995   4.913  17.579  1.00  0.00     0.016 C 
ENDROOT
BRANCH   1   8
ATOM      8  C   UNL     1      11.318   7.528  17.778  1.00  0.00    -0.011 C 
ATOM      9  C   UNL     1      10.876   8.483  16.655  1.00  0.00     0.008 C 
ATOM     10  C   UNL     1      12.344   8.215  18.686  1.00  0.00     0.008 C 
ENDBRANCH   1   8
TORSDOF 1
ENDMDL
MODEL 4
REMARK VINA RESULT:    -3.538      0.805      4.017
REMARK INTER + INTRA:          -4.027
REMARK INTER:                  -3.723
REMARK INTRA:                  -0.303
REMARK UNBOUND:                -0.281
REMARK SMILES C=C1CC[C@@]2(C(C)C)C[C@@H]12
REMARK SMILES IDX 5 1 4 2 3 3 2 4 1 5 10 6 9 7 6 8 7 9 8 10
REMARK H PARENT
REMARK Flexibility Score: inf
ROOT
ATOM      1  C   UNL     1      12.122   7.073  17.110  1.00  0.00    -0.020 C 
ATOM      2  C   UNL     1      13.276   8.055  16.846  1.00  0.00     0.012 C 
ATOM      3  C   UNL     1      14.475   7.233  16.368  1.00  0.00     0.031 C 
ATOM      4  C   UNL     1      13.982   5.827  16.304  1.00  0.00    -0.074 C 
ATOM      5  C   UNL     1      14.730   4.806  15.880  1.00  0.00     0.008 C 
ATOM      6  C   UNL     1      12.569   5.667  16.737  1.00  0.00     0.021 C 
ATOM      7  C   UNL     1      11.536   6.385  15.875  1.00  0.00     0.016 C 
ENDROOT
BRANCH   1   8
ATOM      8  C   UNL     1      11.166   7.342  18.310  1.00  0.00    -0.011 C 
ATOM      9  C   UNL     1      10.905   8.822  18.639  1.00  0.00     0.008 C 
ATOM     10  C   UNL     1      11.672   6.603  19.554  1.00  0.00     0.008 C 
ENDBRANCH   1   8
TORSDOF 1
ENDMDL
MODEL 5
REMARK VINA RESULT:    -3.414      1.290      2.330
REMARK INTER + INTRA:          -3.895
REMARK INTER:                  -3.681
REMARK INTRA:                  -0.213
REMARK UNBOUND:                -0.281
REMARK SMILES C=C1CC[C@@]2(C(C)C)C[C@@H]12
REMARK SMILES IDX 5 1 4 2 3 3 2 4 1 5 10 6 9 7 6 8 7 9 8 10
REMARK H PARENT
REMARK Flexibility Score: inf
ROOT
ATOM      1  C   UNL     1      12.939   6.337  16.930  1.00  0.00    -0.020 C 
ATOM      2  C   UNL     1      11.828   6.194  15.875  1.00  0.00     0.012 C 
ATOM      3  C   UNL     1      10.900   7.402  16.022  1.00  0.00     0.031 C 
ATOM      4  C   UNL     1      11.516   8.236  17.094  1.00  0.00    -0.074 C 
ATOM      5  C   UNL     1      11.019   9.414  17.483  1.00  0.00     0.008 C 
ATOM      6  C   UNL     1      12.749   7.647  17.679  1.00  0.00     0.021 C 
ATOM      7  C   UNL     1      13.920   7.491  16.714  1.00  0.00     0.016 C 
ENDROOT
BRANCH   1   8
ATOM      8  C   UNL     1      13.473   5.055  17.636  1.00  0.00    -0.011 C 
ATOM      9  C   UNL     1      14.120   4.004  16.717  1.00  0.00     0.008 C 
ATOM     10  C   UNL     1      12.357   4.416  18.470  1.00  0.00     0.008 C 
ENDBRANCH   1   8
TORSDOF 1
ENDMDL
MODEL 6
REMARK VINA RESULT:    -3.387      1.627      2.443
REMARK INTER + INTRA:          -3.867
REMARK INTER:                  -3.567
REMARK INTRA:                  -0.300
REMARK UNBOUND:                -0.281
REMARK SMILES C=C1CC[C@@]2(C(C)C)C[C@@H]12
REMARK SMILES IDX 5 1 4 2 3 3 2 4 1 5 10 6 9 7 6 8 7 9 8 10
REMARK H PARENT
REMARK Flexibility Score: inf
ROOT
ATOM      1  C   UNL     1      13.233   5.154  17.550  1.00  0.00    -0.020 C 
ATOM      2  C   UNL     1      11.775   4.708  17.758  1.00  0.00     0.012 C 
ATOM      3  C   UNL     1      10.877   5.785  17.145  1.00  0.00     0.031 C 
ATOM      4  C   UNL     1      11.814   6.781  16.551  1.00  0.00    -0.074 C 
ATOM      5  C   UNL     1      11.407   7.859  15.875  1.00  0.00     0.008 C 
ATOM      6  C   UNL     1      13.248   6.454  16.760  1.00  0.00     0.021 C 
ATOM      7  C   UNL     1      13.728   5.164  16.103  1.00  0.00     0.016 C 
ENDROOT
BRANCH   1   8
ATOM      8  C   UNL     1      14.275   4.858  18.669  1.00  0.00    -0.011 C 
ATOM      9  C   UNL     1      14.014   3.597  19.512  1.00  0.00     0.008 C 
ATOM     10  C   UNL     1      14.425   6.083  19.579  1.00  0.00     0.008 C 
ENDBRANCH   1   8
TORSDOF 1
ENDMDL
MODEL 7
REMARK VINA RESULT:    -3.245      1.701      3.700
REMARK INTER + INTRA:          -3.716
REMARK INTER:                  -3.531
REMARK INTRA:                  -0.185
REMARK UNBOUND:                -0.281
REMARK SMILES C=C1CC[C@@]2(C(C)C)C[C@@H]12
REMARK SMILES IDX 5 1 4 2 3 3 2 4 1 5 10 6 9 7 6 8 7 9 8 10
REMARK H PARENT
REMARK Flexibility Score: inf
ROOT
ATOM      1  C   UNL     1      12.102   6.948  18.129  1.00  0.00    -0.020 C 
ATOM      2  C   UNL     1      10.934   5.948  18.142  1.00  0.00     0.012 C 
ATOM      3  C   UNL     1      11.534   4.542  18.063  1.00  0.00     0.031 C 
ATOM      4  C   UNL     1      13.010   4.750  18.070  1.00  0.00    -0.074 C 
ATOM      5  C   UNL     1      13.892   3.747  18.060  1.00  0.00     0.008 C 
ATOM      6  C   UNL     1      13.415   6.180  18.112  1.00  0.00     0.021 C 
ATOM      7  C   UNL     1      13.000   6.940  19.368  1.00  0.00     0.016 C 
ENDROOT
BRANCH   1   8
ATOM      8  C   UNL     1      11.928   8.297  17.371  1.00  0.00    -0.011 C 
ATOM      9  C   UNL     1      10.875   9.260  17.949  1.00  0.00     0.008 C 
ATOM     10  C   UNL     1      11.644   8.028  15.888  1.00  0.00     0.008 C 
ENDBRANCH   1   8
TORSDOF 1
ENDMDL
MODEL 8
REMARK VINA RESULT:    -0.900      1.367      1.789
REMARK INTER + INTRA:          -1.234
REMARK INTER:                  -0.967
REMARK INTRA:                  -0.267
REMARK UNBOUND:                -0.281
REMARK SMILES C=C1CC[C@@]2(C(C)C)C[C@@H]12
REMARK SMILES IDX 5 1 4 2 3 3 2 4 1 5 10 6 9 7 6 8 7 9 8 10
REMARK H PARENT
REMARK Flexibility Score: inf
ROOT
ATOM      1  C   UNL     1      12.822   4.963  17.668  1.00  0.00    -0.020 C 
ATOM      2  C   UNL     1      13.371   3.885  18.619  1.00  0.00     0.012 C 
ATOM      3  C   UNL     1      13.128   4.371  20.050  1.00  0.00     0.031 C 
ATOM      4  C   UNL     1      12.399   5.663  19.902  1.00  0.00    -0.074 C 
ATOM      5  C   UNL     1      11.962   6.382  20.940  1.00  0.00     0.008 C 
ATOM      6  C   UNL     1      12.183   6.072  18.489  1.00  0.00     0.021 C 
ATOM      7  C   UNL     1      11.302   5.138  17.666  1.00  0.00     0.016 C 
ENDROOT
BRANCH   1   8
ATOM      8  C   UNL     1      13.586   5.255  16.343  1.00  0.00    -0.011 C 
ATOM      9  C   UNL     1      14.560   4.158  15.875  1.00  0.00     0.008 C 
ATOM     10  C   UNL     1      14.313   6.601  16.446  1.00  0.00     0.008 C 
ENDBRANCH   1   8
TORSDOF 1
ENDMDL
