MODEL 1
REMARK VINA RESULT:    -2.958      0.000      0.000
REMARK INTER + INTRA:          -3.347
REMARK INTER:                  -3.303
REMARK INTRA:                  -0.044
REMARK UNBOUND:                -0.044
REMARK SMILES CCCC(=O)[O-]
REMARK SMILES IDX 3 1 4 2 5 3 6 4 2 5 1 6
REMARK H PARENT
REMARK Flexibility Score: inf
ROOT
ATOM      1  C   UNL     1     -52.493  24.485 -14.275  1.00  0.00     0.052 C 
ENDROOT
BRANCH   1   2
ATOM      2  C   UNL     1     -51.267  23.782 -14.772  1.00  0.00     0.041 C 
ATOM      3  O   UNL     1     -50.146  24.356 -14.733  1.00  0.00    -0.550 OA
ATOM      4  O   UNL     1     -51.367  22.505 -15.310  1.00  0.00    -0.550 OA
ENDBRANCH   1   2
BRANCH   1   5
ATOM      5  C   UNL     1     -53.339  23.580 -13.372  1.00  0.00     0.003 C 
ATOM      6  C   UNL     1     -52.566  23.101 -12.142  1.00  0.00     0.004 C 
ENDBRANCH   1   5
TORSDOF 2
ENDMDL
MODEL 2
REMARK VINA RESULT:    -2.918      1.842      2.986
REMARK INTER + INTRA:          -3.302
REMARK INTER:                  -3.292
REMARK INTRA:                  -0.010
REMARK UNBOUND:                -0.044
REMARK SMILES CCCC(=O)[O-]
REMARK SMILES IDX 3 1 4 2 5 3 6 4 2 5 1 6
REMARK H PARENT
REMARK Flexibility Score: inf
ROOT
ATOM      1  C   UNL     1     -52.382  24.828 -14.715  1.00  0.00     0.052 C 
ENDROOT
BRANCH   1   2
ATOM      2  C   UNL     1     -51.748  23.528 -14.323  1.00  0.00     0.041 C 
ATOM      3  O   UNL     1     -51.205  22.800 -15.195  1.00  0.00    -0.550 OA
ATOM      4  O   UNL     1     -51.787  23.105 -13.001  1.00  0.00    -0.550 OA
ENDBRANCH   1   2
BRANCH   1   5
ATOM      5  C   UNL     1     -51.337  25.858 -15.158  1.00  0.00     0.003 C 
ATOM      6  C   UNL     1     -51.915  26.897 -16.119  1.00  0.00     0.004 C 
ENDBRANCH   1   5
TORSDOF 2
ENDMDL
MODEL 3
REMARK VINA RESULT:    -2.911      8.731     10.181
REMARK INTER + INTRA:          -3.295
REMARK INTER:                  -3.289
REMARK INTRA:                  -0.006
REMARK UNBOUND:                -0.044
REMARK SMILES CCCC(=O)[O-]
REMARK SMILES IDX 3 1 4 2 5 3 6 4 2 5 1 6
REMARK H PARENT
REMARK Flexibility Score: inf
ROOT
ATOM      1  C   UNL     1     -43.756  26.702 -18.967  1.00  0.00     0.052 C 
ENDROOT
BRANCH   1   2
ATOM      2  C   UNL     1     -45.142  26.141 -18.868  1.00  0.00     0.041 C 
ATOM      3  O   UNL     1     -45.338  24.904 -19.009  1.00  0.00    -0.550 OA
ATOM      4  O   UNL     1     -46.222  26.987 -18.653  1.00  0.00    -0.550 OA
ENDBRANCH   1   2
BRANCH   1   5
ATOM      5  C   UNL     1     -43.438  27.179 -20.389  1.00  0.00     0.003 C 
ATOM      6  C   UNL     1     -42.358  28.260 -20.412  1.00  0.00     0.004 C 
ENDBRANCH   1   5
TORSDOF 2
ENDMDL
MODEL 4
REMARK VINA RESULT:    -2.884      8.772     10.077
REMARK INTER + INTRA:          -3.265
REMARK INTER:                  -3.242
REMARK INTRA:                  -0.023
REMARK UNBOUND:                -0.044
REMARK SMILES CCCC(=O)[O-]
REMARK SMILES IDX 3 1 4 2 5 3 6 4 2 5 1 6
REMARK H PARENT
REMARK Flexibility Score: inf
ROOT
ATOM      1  C   UNL     1     -43.894  26.822 -19.618  1.00  0.00     0.052 C 
ENDROOT
BRANCH   1   2
ATOM      2  C   UNL     1     -44.702  26.053 -18.618  1.00  0.00     0.041 C 
ATOM      3  O   UNL     1     -44.738  26.421 -17.414  1.00  0.00    -0.550 OA
ATOM      4  O   UNL     1     -45.387  24.910 -19.009  1.00  0.00    -0.550 OA
ENDBRANCH   1   2
BRANCH   1   5
ATOM      5  C   UNL     1     -43.618  28.254 -19.144  1.00  0.00     0.003 C 
ATOM      6  C   UNL     1     -42.196  28.711 -19.470  1.00  0.00     0.004 C 
ENDBRANCH   1   5
TORSDOF 2
ENDMDL
MODEL 5
REMARK VINA RESULT:    -2.867      8.514      9.931
REMARK INTER + INTRA:          -3.246
REMARK INTER:                  -3.240
REMARK INTRA:                  -0.006
REMARK UNBOUND:                -0.044
REMARK SMILES CCCC(=O)[O-]
REMARK SMILES IDX 3 1 4 2 5 3 6 4 2 5 1 6
REMARK H PARENT
REMARK Flexibility Score: inf
ROOT
ATOM      1  C   UNL     1     -43.868  26.923 -18.772  1.00  0.00     0.052 C 
ENDROOT
BRANCH   1   2
ATOM      2  C   UNL     1     -45.042  26.092 -18.355  1.00  0.00     0.041 C 
ATOM      3  O   UNL     1     -45.747  26.440 -17.371  1.00  0.00    -0.550 OA
ATOM      4  O   UNL     1     -45.338  24.915 -19.031  1.00  0.00    -0.550 OA
ENDBRANCH   1   2
BRANCH   1   5
ATOM      5  C   UNL     1     -43.771  27.042 -20.298  1.00  0.00     0.003 C 
ATOM      6  C   UNL     1     -42.645  27.978 -20.738  1.00  0.00     0.004 C 
ENDBRANCH   1   5
TORSDOF 2
ENDMDL
MODEL 6
REMARK VINA RESULT:    -2.856      7.196      8.643
REMARK INTER + INTRA:          -3.233
REMARK INTER:                  -3.199
REMARK INTRA:                  -0.034
REMARK UNBOUND:                -0.044
REMARK SMILES CCCC(=O)[O-]
REMARK SMILES IDX 3 1 4 2 5 3 6 4 2 5 1 6
REMARK H PARENT
REMARK Flexibility Score: inf
ROOT
ATOM      1  C   UNL     1     -45.300  25.545 -18.849  1.00  0.00     0.052 C 
ENDROOT
BRANCH   1   2
ATOM      2  C   UNL     1     -46.552  26.002 -18.163  1.00  0.00     0.041 C 
ATOM      3  O   UNL     1     -46.688  27.208 -17.829  1.00  0.00    -0.550 OA
ATOM      4  O   UNL     1     -47.553  25.087 -17.862  1.00  0.00    -0.550 OA
ENDBRANCH   1   2
BRANCH   1   5
ATOM      5  C   UNL     1     -44.140  26.522 -18.621  1.00  0.00     0.003 C 
ATOM      6  C   UNL     1     -43.541  27.029 -19.933  1.00  0.00     0.004 C 
ENDBRANCH   1   5
TORSDOF 2
ENDMDL
MODEL 7
REMARK VINA RESULT:    -2.732      7.924      8.699
REMARK INTER + INTRA:          -3.095
REMARK INTER:                  -3.057
REMARK INTRA:                  -0.038
REMARK UNBOUND:                -0.044
REMARK SMILES CCCC(=O)[O-]
REMARK SMILES IDX 3 1 4 2 5 3 6 4 2 5 1 6
REMARK H PARENT
REMARK Flexibility Score: inf
ROOT
ATOM      1  C   UNL     1     -45.648  27.218 -18.203  1.00  0.00     0.052 C 
ENDROOT
BRANCH   1   2
ATOM      2  C   UNL     1     -44.977  26.177 -19.046  1.00  0.00     0.041 C 
ATOM      3  O   UNL     1     -45.354  24.977 -18.993  1.00  0.00    -0.550 OA
ATOM      4  O   UNL     1     -43.912  26.527 -19.866  1.00  0.00    -0.550 OA
ENDBRANCH   1   2
BRANCH   1   5
ATOM      5  C   UNL     1     -44.764  27.652 -17.028  1.00  0.00     0.003 C 
ATOM      6  C   UNL     1     -45.087  26.888 -15.743  1.00  0.00     0.004 C 
ENDBRANCH   1   5
TORSDOF 2
ENDMDL
MODEL 8
REMARK VINA RESULT:    -2.696     13.339     14.011
REMARK INTER + INTRA:          -3.055
REMARK INTER:                  -3.007
REMARK INTRA:                  -0.047
REMARK UNBOUND:                -0.044
REMARK SMILES CCCC(=O)[O-]
REMARK SMILES IDX 3 1 4 2 5 3 6 4 2 5 1 6
REMARK H PARENT
REMARK Flexibility Score: inf
ROOT
ATOM      1  C   UNL     1     -45.358  11.603 -14.214  1.00  0.00     0.052 C 
ENDROOT
BRANCH   1   2
ATOM      2  C   UNL     1     -46.258  10.507 -13.729  1.00  0.00     0.041 C 
ATOM      3  O   UNL     1     -47.433  10.769 -13.358  1.00  0.00    -0.550 OA
ATOM      4  O   UNL     1     -45.788   9.203 -13.654  1.00  0.00    -0.550 OA
ENDBRANCH   1   2
BRANCH   1   5
ATOM      5  C   UNL     1     -46.113  12.612 -15.087  1.00  0.00     0.003 C 
ATOM      6  C   UNL     1     -46.412  12.065 -16.483  1.00  0.00     0.004 C 
ENDBRANCH   1   5
TORSDOF 2
ENDMDL
MODEL 9
REMARK VINA RESULT:    -2.636      9.619     10.438
REMARK INTER + INTRA:          -2.988
REMARK INTER:                  -2.949
REMARK INTRA:                  -0.039
REMARK UNBOUND:                -0.044
REMARK SMILES CCCC(=O)[O-]
REMARK SMILES IDX 3 1 4 2 5 3 6 4 2 5 1 6
REMARK H PARENT
REMARK Flexibility Score: inf
ROOT
ATOM      1  C   UNL     1     -44.291  27.996 -18.515  1.00  0.00     0.052 C 
ENDROOT
BRANCH   1   2
ATOM      2  C   UNL     1     -43.193  28.375 -19.461  1.00  0.00     0.041 C 
ATOM      3  O   UNL     1     -42.257  29.125 -19.078  1.00  0.00    -0.550 OA
ATOM      4  O   UNL     1     -43.222  27.927 -20.776  1.00  0.00    -0.550 OA
ENDBRANCH   1   2
BRANCH   1   5
ATOM      5  C   UNL     1     -44.250  26.502 -18.168  1.00  0.00     0.003 C 
ATOM      6  C   UNL     1     -45.348  25.710 -18.878  1.00  0.00     0.004 C 
ENDBRANCH   1   5
TORSDOF 2
ENDMDL
