MODEL 1
REMARK VINA RESULT:    -6.393      0.000      0.000
REMARK INTER + INTRA:         -10.190
REMARK INTER:                  -9.010
REMARK INTRA:                  -1.180
REMARK UNBOUND:                -1.180
REMARK SMILES OC[C@@H]1O[C@H](O[C@@H]2OC=C[C@@H]3[C@@H](O)[C@@H]4O[C@]4(CO)[C@@H]23)[C@H](O)[C@@H](O)[C@H]1O
REMARK SMILES IDX 6 1 7 2 10 3 9 4 11 5 8 6 19 7 12 8 16 9 14 10 15 11 13 12
REMARK SMILES IDX 17 14 18 15 5 17 20 18 4 19 22 20 3 21 24 22 21 23 23 25
REMARK SMILES IDX 2 27 1 28 25 30
REMARK H PARENT 13 13 18 16 21 24 23 26 1 29 25 31
REMARK Flexibility Score: inf
ROOT
ATOM      1  O   UNL     1     -16.949 -18.374  23.624  1.00  0.00    -0.310 OA
ENDROOT
BRANCH   1   2
ATOM      2  C   UNL     1     -17.908 -17.792  22.757  1.00  0.00     0.315 C 
ATOM      3  C   UNL     1     -18.752 -15.364  21.390  1.00  0.00     0.018 C 
ATOM      4  C   UNL     1     -17.688 -16.048  20.941  1.00  0.00     0.186 C 
ATOM      5  C   UNL     1     -19.558 -15.981  22.490  1.00  0.00     0.059 C 
ATOM      6  O   UNL     1     -17.263 -17.231  21.587  1.00  0.00    -0.472 OA
ATOM      7  C   UNL     1     -18.623 -16.641  23.487  1.00  0.00     0.105 C 
ATOM      8  C   UNL     1     -20.432 -15.076  23.343  1.00  0.00     0.154 C 
ATOM      9  C   UNL     1     -19.538 -16.899  24.681  1.00  0.00     0.130 C 
ATOM     10  C   UNL     1     -20.657 -15.921  24.607  1.00  0.00     0.183 C 
ATOM     11  O   UNL     1     -19.633 -15.809  25.572  1.00  0.00    -0.360 OA
BRANCH   8  12
ATOM     12  O   UNL     1     -21.647 -14.817  22.695  1.00  0.00    -0.390 OA
ATOM     13  H   UNL     1     -21.440 -14.185  21.957  1.00  0.00     0.211 HD
ENDBRANCH   8  12
BRANCH   9  14
ATOM     14  C   UNL     1     -19.818 -18.264  25.308  1.00  0.00     0.195 C 
BRANCH  14  15
ATOM     15  O   UNL     1     -18.694 -18.677  26.032  1.00  0.00    -0.393 OA
ATOM     16  H   UNL     1     -19.032 -19.281  26.744  1.00  0.00     0.210 HD
ENDBRANCH  14  15
ENDBRANCH   9  14
ENDBRANCH   1   2
BRANCH   1  17
ATOM     17  C   UNL     1     -16.189 -19.385  22.973  1.00  0.00     0.286 C 
ATOM     18  C   UNL     1     -16.467 -20.790  23.574  1.00  0.00     0.202 C 
ATOM     19  O   UNL     1     -14.818 -19.071  23.137  1.00  0.00    -0.341 OA
ATOM     20  C   UNL     1     -15.220 -21.703  23.462  1.00  0.00     0.179 C 
ATOM     21  C   UNL     1     -14.012 -19.828  22.240  1.00  0.00     0.178 C 
ATOM     22  C   UNL     1     -14.380 -21.346  22.221  1.00  0.00     0.177 C 
BRANCH  18  23
ATOM     23  O   UNL     1     -16.828 -20.677  24.926  1.00  0.00    -0.385 OA
ATOM     24  H   UNL     1     -17.812 -20.545  24.955  1.00  0.00     0.211 HD
ENDBRANCH  18  23
BRANCH  20  25
ATOM     25  O   UNL     1     -15.605 -23.052  23.406  1.00  0.00    -0.387 OA
ATOM     26  H   UNL     1     -15.637 -23.303  22.445  1.00  0.00     0.211 HD
ENDBRANCH  20  25
BRANCH  21  27
ATOM     27  C   UNL     1     -12.539 -19.606  22.613  1.00  0.00     0.191 C 
BRANCH  27  28
ATOM     28  O   UNL     1     -12.365 -18.358  23.231  1.00  0.00    -0.394 OA
ATOM     29  H   UNL     1     -11.817 -18.510  24.045  1.00  0.00     0.210 HD
ENDBRANCH  27  28
ENDBRANCH  21  27
BRANCH  22  30
ATOM     30  O   UNL     1     -15.109 -21.629  21.051  1.00  0.00    -0.387 OA
ATOM     31  H   UNL     1     -14.454 -21.699  20.307  1.00  0.00     0.211 HD
ENDBRANCH  22  30
ENDBRANCH   1  17
TORSDOF 10
ENDMDL
MODEL 2
REMARK VINA RESULT:    -6.238      1.639      7.260
REMARK INTER + INTRA:          -9.971
REMARK INTER:                  -9.054
REMARK INTRA:                  -0.917
REMARK UNBOUND:                -1.180
REMARK SMILES OC[C@@H]1O[C@H](O[C@@H]2OC=C[C@@H]3[C@@H](O)[C@@H]4O[C@]4(CO)[C@@H]23)[C@H](O)[C@@H](O)[C@H]1O
REMARK SMILES IDX 6 1 7 2 10 3 9 4 11 5 8 6 19 7 12 8 16 9 14 10 15 11 13 12
REMARK SMILES IDX 17 14 18 15 5 17 20 18 4 19 22 20 3 21 24 22 21 23 23 25
REMARK SMILES IDX 2 27 1 28 25 30
REMARK H PARENT 13 13 18 16 21 24 23 26 1 29 25 31
REMARK Flexibility Score: inf
ROOT
ATOM      1  O   UNL     1     -17.469 -16.950  22.472  1.00  0.00    -0.310 OA
ENDROOT
BRANCH   1   2
ATOM      2  C   UNL     1     -17.490 -18.329  22.802  1.00  0.00     0.315 C 
ATOM      3  C   UNL     1     -16.609 -20.363  24.688  1.00  0.00     0.018 C 
ATOM      4  C   UNL     1     -17.597 -19.521  25.027  1.00  0.00     0.186 C 
ATOM      5  C   UNL     1     -16.112 -20.316  23.277  1.00  0.00     0.059 C 
ATOM      6  O   UNL     1     -18.044 -18.528  24.125  1.00  0.00    -0.472 OA
ATOM      7  C   UNL     1     -16.049 -18.871  22.815  1.00  0.00     0.105 C 
ATOM      8  C   UNL     1     -14.725 -20.861  22.978  1.00  0.00     0.154 C 
ATOM      9  C   UNL     1     -15.219 -18.964  21.538  1.00  0.00     0.130 C 
ATOM     10  C   UNL     1     -14.383 -20.191  21.638  1.00  0.00     0.183 C 
ATOM     11  O   UNL     1     -13.826 -18.899  21.758  1.00  0.00    -0.360 OA
BRANCH   8  12
ATOM     12  O   UNL     1     -14.766 -22.255  22.841  1.00  0.00    -0.390 OA
ATOM     13  H   UNL     1     -15.225 -22.437  21.979  1.00  0.00     0.211 HD
ENDBRANCH   8  12
BRANCH   9  14
ATOM     14  C   UNL     1     -15.669 -18.514  20.150  1.00  0.00     0.195 C 
BRANCH  14  15
ATOM     15  O   UNL     1     -15.703 -17.116  20.108  1.00  0.00    -0.393 OA
ATOM     16  H   UNL     1     -16.660 -16.866  20.020  1.00  0.00     0.210 HD
ENDBRANCH  14  15
ENDBRANCH   9  14
ENDBRANCH   1   2
BRANCH   1  17
ATOM     17  C   UNL     1     -18.781 -16.412  22.355  1.00  0.00     0.286 C 
ATOM     18  C   UNL     1     -18.866 -15.342  21.232  1.00  0.00     0.202 C 
ATOM     19  O   UNL     1     -19.117 -15.815  23.594  1.00  0.00    -0.341 OA
ATOM     20  C   UNL     1     -19.938 -14.273  21.558  1.00  0.00     0.179 C 
ATOM     21  C   UNL     1     -20.516 -15.562  23.673  1.00  0.00     0.178 C 
ATOM     22  C   UNL     1     -21.086 -14.873  22.391  1.00  0.00     0.177 C 
BRANCH  18  23
ATOM     23  O   UNL     1     -17.624 -14.707  21.071  1.00  0.00    -0.385 OA
ATOM     24  H   UNL     1     -17.235 -15.039  20.220  1.00  0.00     0.211 HD
ENDBRANCH  18  23
BRANCH  20  25
ATOM     25  O   UNL     1     -20.448 -13.715  20.376  1.00  0.00    -0.387 OA
ATOM     26  H   UNL     1     -21.373 -13.412  20.575  1.00  0.00     0.211 HD
ENDBRANCH  20  25
BRANCH  21  27
ATOM     27  C   UNL     1     -20.783 -14.726  24.933  1.00  0.00     0.191 C 
BRANCH  27  28
ATOM     28  O   UNL     1     -22.142 -14.771  25.282  1.00  0.00    -0.394 OA
ATOM     29  H   UNL     1     -22.200 -15.216  26.167  1.00  0.00     0.210 HD
ENDBRANCH  27  28
ENDBRANCH  21  27
BRANCH  22  30
ATOM     30  O   UNL     1     -21.785 -15.826  21.628  1.00  0.00    -0.387 OA
ATOM     31  H   UNL     1     -22.740 -15.553  21.621  1.00  0.00     0.211 HD
ENDBRANCH  22  30
ENDBRANCH   1  17
TORSDOF 10
ENDMDL
MODEL 3
REMARK VINA RESULT:    -6.211      1.542      3.856
REMARK INTER + INTRA:          -9.934
REMARK INTER:                  -8.781
REMARK INTRA:                  -1.153
REMARK UNBOUND:                -1.180
REMARK SMILES OC[C@@H]1O[C@H](O[C@@H]2OC=C[C@@H]3[C@@H](O)[C@@H]4O[C@]4(CO)[C@@H]23)[C@H](O)[C@@H](O)[C@H]1O
REMARK SMILES IDX 6 1 7 2 10 3 9 4 11 5 8 6 19 7 12 8 16 9 14 10 15 11 13 12
REMARK SMILES IDX 17 14 18 15 5 17 20 18 4 19 22 20 3 21 24 22 21 23 23 25
REMARK SMILES IDX 2 27 1 28 25 30
REMARK H PARENT 13 13 18 16 21 24 23 26 1 29 25 31
REMARK Flexibility Score: inf
ROOT
ATOM      1  O   UNL     1     -17.154 -18.415  21.747  1.00  0.00    -0.310 OA
ENDROOT
BRANCH   1   2
ATOM      2  C   UNL     1     -17.619 -17.397  22.618  1.00  0.00     0.315 C 
ATOM      3  C   UNL     1     -19.887 -16.380  24.134  1.00  0.00     0.018 C 
ATOM      4  C   UNL     1     -19.223 -17.461  24.570  1.00  0.00     0.186 C 
ATOM      5  C   UNL     1     -19.320 -15.647  22.959  1.00  0.00     0.059 C 
ATOM      6  O   UNL     1     -18.116 -17.970  23.853  1.00  0.00    -0.472 OA
ATOM      7  C   UNL     1     -18.788 -16.650  21.951  1.00  0.00     0.105 C 
ATOM      8  C   UNL     1     -20.246 -14.758  22.144  1.00  0.00     0.154 C 
ATOM      9  C   UNL     1     -18.580 -15.792  20.706  1.00  0.00     0.130 C 
ATOM     10  C   UNL     1     -19.493 -14.622  20.811  1.00  0.00     0.183 C 
ATOM     11  O   UNL     1     -19.732 -15.673  19.898  1.00  0.00    -0.360 OA
BRANCH   8  12
ATOM     12  O   UNL     1     -20.394 -13.509  22.762  1.00  0.00    -0.390 OA
ATOM     13  H   UNL     1     -19.977 -13.591  23.659  1.00  0.00     0.211 HD
ENDBRANCH   8  12
BRANCH   9  14
ATOM     14  C   UNL     1     -17.257 -15.605  19.965  1.00  0.00     0.195 C 
BRANCH  14  15
ATOM     15  O   UNL     1     -16.914 -16.803  19.327  1.00  0.00    -0.393 OA
ATOM     16  H   UNL     1     -17.346 -16.773  18.435  1.00  0.00     0.210 HD
ENDBRANCH  14  15
ENDBRANCH   9  14
ENDBRANCH   1   2
BRANCH   1  17
ATOM     17  C   UNL     1     -16.147 -19.214  22.355  1.00  0.00     0.286 C 
ATOM     18  C   UNL     1     -14.732 -18.860  21.822  1.00  0.00     0.202 C 
ATOM     19  O   UNL     1     -16.431 -20.570  22.058  1.00  0.00    -0.341 OA
ATOM     20  C   UNL     1     -13.799 -20.096  21.845  1.00  0.00     0.179 C 
ATOM     21  C   UNL     1     -15.683 -21.442  22.899  1.00  0.00     0.178 C 
ATOM     22  C   UNL     1     -14.173 -21.052  22.994  1.00  0.00     0.177 C 
BRANCH  18  23
ATOM     23  O   UNL     1     -14.815 -18.378  20.505  1.00  0.00    -0.385 OA
ATOM     24  H   UNL     1     -14.003 -17.832  20.342  1.00  0.00     0.211 HD
ENDBRANCH  18  23
BRANCH  20  25
ATOM     25  O   UNL     1     -12.459 -19.697  21.975  1.00  0.00    -0.387 OA
ATOM     26  H   UNL     1     -12.245 -19.143  21.180  1.00  0.00     0.211 HD
ENDBRANCH  20  25
BRANCH  21  27
ATOM     27  C   UNL     1     -15.867 -22.878  22.387  1.00  0.00     0.191 C 
BRANCH  27  28
ATOM     28  O   UNL     1     -17.172 -23.332  22.637  1.00  0.00    -0.394 OA
ATOM     29  H   UNL     1     -17.628 -22.628  23.168  1.00  0.00     0.210 HD
ENDBRANCH  27  28
ENDBRANCH  21  27
BRANCH  22  30
ATOM     30  O   UNL     1     -13.935 -20.429  24.233  1.00  0.00    -0.387 OA
ATOM     31  H   UNL     1     -14.028 -19.450  24.092  1.00  0.00     0.211 HD
ENDBRANCH  22  30
ENDBRANCH   1  17
TORSDOF 10
ENDMDL
MODEL 4
REMARK VINA RESULT:    -6.074      1.743      6.670
REMARK INTER + INTRA:          -9.740
REMARK INTER:                  -8.768
REMARK INTRA:                  -0.972
REMARK UNBOUND:                -1.180
REMARK SMILES OC[C@@H]1O[C@H](O[C@@H]2OC=C[C@@H]3[C@@H](O)[C@@H]4O[C@]4(CO)[C@@H]23)[C@H](O)[C@@H](O)[C@H]1O
REMARK SMILES IDX 6 1 7 2 10 3 9 4 11 5 8 6 19 7 12 8 16 9 14 10 15 11 13 12
REMARK SMILES IDX 17 14 18 15 5 17 20 18 4 19 22 20 3 21 24 22 21 23 23 25
REMARK SMILES IDX 2 27 1 28 25 30
REMARK H PARENT 13 13 18 16 21 24 23 26 1 29 25 31
REMARK Flexibility Score: inf
ROOT
ATOM      1  O   UNL     1     -18.370 -17.805  22.976  1.00  0.00    -0.310 OA
ENDROOT
BRANCH   1   2
ATOM      2  C   UNL     1     -16.991 -17.849  22.648  1.00  0.00     0.315 C 
ATOM      3  C   UNL     1     -14.993 -18.855  20.786  1.00  0.00     0.018 C 
ATOM      4  C   UNL     1     -15.794 -17.841  20.423  1.00  0.00     0.186 C 
ATOM      5  C   UNL     1     -15.062 -19.317  22.208  1.00  0.00     0.059 C 
ATOM      6  O   UNL     1     -16.769 -17.334  21.313  1.00  0.00    -0.472 OA
ATOM      7  C   UNL     1     -16.508 -19.310  22.668  1.00  0.00     0.105 C 
ATOM      8  C   UNL     1     -14.574 -20.718  22.539  1.00  0.00     0.154 C 
ATOM      9  C   UNL     1     -16.450 -20.114  23.964  1.00  0.00     0.130 C 
ATOM     10  C   UNL     1     -15.258 -21.002  23.886  1.00  0.00     0.183 C 
ATOM     11  O   UNL     1     -16.572 -21.508  23.775  1.00  0.00    -0.360 OA
BRANCH   8  12
ATOM     12  O   UNL     1     -13.179 -20.730  22.677  1.00  0.00    -0.390 OA
ATOM     13  H   UNL     1     -12.855 -21.518  22.167  1.00  0.00     0.211 HD
ENDBRANCH   8  12
BRANCH   9  14
ATOM     14  C   UNL     1     -16.883 -19.614  25.341  1.00  0.00     0.195 C 
BRANCH  14  15
ATOM     15  O   UNL     1     -18.279 -19.645  25.423  1.00  0.00    -0.393 OA
ATOM     16  H   UNL     1     -18.499 -20.304  26.133  1.00  0.00     0.210 HD
ENDBRANCH  14  15
ENDBRANCH   9  14
ENDBRANCH   1   2
BRANCH   1  17
ATOM     17  C   UNL     1     -18.854 -16.471  23.061  1.00  0.00     0.286 C 
ATOM     18  C   UNL     1     -19.835 -16.289  24.251  1.00  0.00     0.202 C 
ATOM     19  O   UNL     1     -19.529 -16.176  21.851  1.00  0.00    -0.341 OA
ATOM     20  C   UNL     1     -20.890 -15.197  23.945  1.00  0.00     0.179 C 
ATOM     21  C   UNL     1     -19.741 -14.775  21.716  1.00  0.00     0.178 C 
ATOM     22  C   UNL     1     -20.315 -14.116  23.011  1.00  0.00     0.177 C 
BRANCH  18  23
ATOM     23  O   UNL     1     -20.497 -17.498  24.523  1.00  0.00    -0.385 OA
ATOM     24  H   UNL     1     -20.729 -17.493  25.488  1.00  0.00     0.211 HD
ENDBRANCH  18  23
BRANCH  20  25
ATOM     25  O   UNL     1     -21.343 -14.607  25.136  1.00  0.00    -0.387 OA
ATOM     26  H   UNL     1     -20.740 -13.841  25.325  1.00  0.00     0.211 HD
ENDBRANCH  20  25
BRANCH  21  27
ATOM     27  C   UNL     1     -20.659 -14.542  20.507  1.00  0.00     0.191 C 
BRANCH  27  28
ATOM     28  O   UNL     1     -20.599 -13.204  20.087  1.00  0.00    -0.394 OA
ATOM     29  H   UNL     1     -19.803 -13.119  19.500  1.00  0.00     0.210 HD
ENDBRANCH  27  28
ENDBRANCH  21  27
BRANCH  22  30
ATOM     30  O   UNL     1     -19.286 -13.414  23.666  1.00  0.00    -0.387 OA
ATOM     31  H   UNL     1     -19.069 -13.917  24.494  1.00  0.00     0.211 HD
ENDBRANCH  22  30
ENDBRANCH   1  17
TORSDOF 10
ENDMDL
MODEL 5
REMARK VINA RESULT:    -5.963      4.336      7.120
REMARK INTER + INTRA:          -9.583
REMARK INTER:                  -8.168
REMARK INTRA:                  -1.415
REMARK UNBOUND:                -1.180
REMARK SMILES OC[C@@H]1O[C@H](O[C@@H]2OC=C[C@@H]3[C@@H](O)[C@@H]4O[C@]4(CO)[C@@H]23)[C@H](O)[C@@H](O)[C@H]1O
REMARK SMILES IDX 6 1 7 2 10 3 9 4 11 5 8 6 19 7 12 8 16 9 14 10 15 11 13 12
REMARK SMILES IDX 17 14 18 15 5 17 20 18 4 19 22 20 3 21 24 22 21 23 23 25
REMARK SMILES IDX 2 27 1 28 25 30
REMARK H PARENT 13 13 18 16 21 24 23 26 1 29 25 31
REMARK Flexibility Score: inf
ROOT
ATOM      1  O   UNL     1     -12.863 -19.056  25.551  1.00  0.00    -0.310 OA
ENDROOT
BRANCH   1   2
ATOM      2  C   UNL     1     -12.347 -19.795  26.646  1.00  0.00     0.315 C 
ATOM      3  C   UNL     1     -12.735 -22.088  28.397  1.00  0.00     0.018 C 
ATOM      4  C   UNL     1     -12.319 -22.274  27.135  1.00  0.00     0.186 C 
ATOM      5  C   UNL     1     -12.825 -20.679  28.896  1.00  0.00     0.059 C 
ATOM      6  O   UNL     1     -12.120 -21.175  26.268  1.00  0.00    -0.472 OA
ATOM      7  C   UNL     1     -13.373 -19.791  27.793  1.00  0.00     0.105 C 
ATOM      8  C   UNL     1     -13.723 -20.388  30.087  1.00  0.00     0.154 C 
ATOM      9  C   UNL     1     -13.728 -18.510  28.543  1.00  0.00     0.130 C 
ATOM     10  C   UNL     1     -13.961 -18.875  29.967  1.00  0.00     0.183 C 
ATOM     11  O   UNL     1     -15.022 -18.519  29.106  1.00  0.00    -0.360 OA
BRANCH   8  12
ATOM     12  O   UNL     1     -13.062 -20.694  31.285  1.00  0.00    -0.390 OA
ATOM     13  H   UNL     1     -13.484 -21.524  31.632  1.00  0.00     0.211 HD
ENDBRANCH   8  12
BRANCH   9  14
ATOM     14  C   UNL     1     -13.171 -17.120  28.241  1.00  0.00     0.195 C 
BRANCH  14  15
ATOM     15  O   UNL     1     -13.845 -16.584  27.138  1.00  0.00    -0.393 OA
ATOM     16  H   UNL     1     -13.793 -15.598  27.235  1.00  0.00     0.210 HD
ENDBRANCH  14  15
ENDBRANCH   9  14
ENDBRANCH   1   2
BRANCH   1  17
ATOM     17  C   UNL     1     -14.141 -19.531  25.146  1.00  0.00     0.286 C 
ATOM     18  C   UNL     1     -14.258 -19.618  23.600  1.00  0.00     0.202 C 
ATOM     19  O   UNL     1     -15.116 -18.628  25.637  1.00  0.00    -0.341 OA
ATOM     20  C   UNL     1     -15.717 -19.385  23.135  1.00  0.00     0.179 C 
ATOM     21  C   UNL     1     -16.417 -19.201  25.573  1.00  0.00     0.178 C 
ATOM     22  C   UNL     1     -16.722 -19.873  24.195  1.00  0.00     0.177 C 
BRANCH  18  23
ATOM     23  O   UNL     1     -13.430 -18.659  22.995  1.00  0.00    -0.385 OA
ATOM     24  H   UNL     1     -13.717 -18.581  22.048  1.00  0.00     0.211 HD
ENDBRANCH  18  23
BRANCH  20  25
ATOM     25  O   UNL     1     -15.954 -20.042  21.917  1.00  0.00    -0.387 OA
ATOM     26  H   UNL     1     -15.478 -19.528  21.214  1.00  0.00     0.211 HD
ENDBRANCH  20  25
BRANCH  21  27
ATOM     27  C   UNL     1     -17.441 -18.108  25.910  1.00  0.00     0.191 C 
BRANCH  27  28
ATOM     28  O   UNL     1     -16.945 -17.250  26.905  1.00  0.00    -0.394 OA
ATOM     29  H   UNL     1     -16.257 -16.677  26.477  1.00  0.00     0.210 HD
ENDBRANCH  27  28
ENDBRANCH  21  27
BRANCH  22  30
ATOM     30  O   UNL     1     -16.634 -21.270  24.334  1.00  0.00    -0.387 OA
ATOM     31  H   UNL     1     -15.678 -21.489  24.496  1.00  0.00     0.211 HD
ENDBRANCH  22  30
ENDBRANCH   1  17
TORSDOF 10
ENDMDL
MODEL 6
REMARK VINA RESULT:    -5.856      2.462      6.938
REMARK INTER + INTRA:          -9.433
REMARK INTER:                  -8.272
REMARK INTRA:                  -1.161
REMARK UNBOUND:                -1.180
REMARK SMILES OC[C@@H]1O[C@H](O[C@@H]2OC=C[C@@H]3[C@@H](O)[C@@H]4O[C@]4(CO)[C@@H]23)[C@H](O)[C@@H](O)[C@H]1O
REMARK SMILES IDX 6 1 7 2 10 3 9 4 11 5 8 6 19 7 12 8 16 9 14 10 15 11 13 12
REMARK SMILES IDX 17 14 18 15 5 17 20 18 4 19 22 20 3 21 24 22 21 23 23 25
REMARK SMILES IDX 2 27 1 28 25 30
REMARK H PARENT 13 13 18 16 21 24 23 26 1 29 25 31
REMARK Flexibility Score: inf
ROOT
ATOM      1  O   UNL     1     -16.521 -19.958  24.628  1.00  0.00    -0.310 OA
ENDROOT
BRANCH   1   2
ATOM      2  C   UNL     1     -15.722 -19.716  23.482  1.00  0.00     0.315 C 
ATOM      3  C   UNL     1     -15.154 -20.503  20.737  1.00  0.00     0.018 C 
ATOM      4  C   UNL     1     -16.259 -19.794  21.014  1.00  0.00     0.186 C 
ATOM      5  C   UNL     1     -14.173 -20.718  21.848  1.00  0.00     0.059 C 
ATOM      6  O   UNL     1     -16.553 -19.397  22.339  1.00  0.00    -0.472 OA
ATOM      7  C   UNL     1     -14.927 -20.988  23.137  1.00  0.00     0.105 C 
ATOM      8  C   UNL     1     -13.197 -21.879  21.738  1.00  0.00     0.154 C 
ATOM      9  C   UNL     1     -13.833 -21.521  24.058  1.00  0.00     0.130 C 
ATOM     10  C   UNL     1     -12.760 -22.088  23.196  1.00  0.00     0.183 C 
ATOM     11  O   UNL     1     -13.624 -22.913  23.950  1.00  0.00    -0.360 OA
BRANCH   8  12
ATOM     12  O   UNL     1     -12.104 -21.524  20.937  1.00  0.00    -0.390 OA
ATOM     13  H   UNL     1     -12.050 -20.532  20.961  1.00  0.00     0.211 HD
ENDBRANCH   8  12
BRANCH   9  14
ATOM     14  C   UNL     1     -13.428 -20.915  25.401  1.00  0.00     0.195 C 
BRANCH  14  15
ATOM     15  O   UNL     1     -14.411 -21.211  26.353  1.00  0.00    -0.393 OA
ATOM     16  H   UNL     1     -14.208 -22.124  26.684  1.00  0.00     0.210 HD
ENDBRANCH  14  15
ENDBRANCH   9  14
ENDBRANCH   1   2
BRANCH   1  17
ATOM     17  C   UNL     1     -17.305 -18.824  24.977  1.00  0.00     0.286 C 
ATOM     18  C   UNL     1     -16.807 -18.161  26.290  1.00  0.00     0.202 C 
ATOM     19  O   UNL     1     -18.642 -19.259  25.152  1.00  0.00    -0.341 OA
ATOM     20  C   UNL     1     -17.975 -17.492  27.057  1.00  0.00     0.179 C 
ATOM     21  C   UNL     1     -19.539 -18.153  25.164  1.00  0.00     0.178 C 
ATOM     22  C   UNL     1     -19.060 -16.987  26.087  1.00  0.00     0.177 C 
BRANCH  18  23
ATOM     23  O   UNL     1     -16.208 -19.121  27.121  1.00  0.00    -0.385 OA
ATOM     24  H   UNL     1     -16.126 -19.957  26.590  1.00  0.00     0.211 HD
ENDBRANCH  18  23
BRANCH  20  25
ATOM     25  O   UNL     1     -17.500 -16.426  27.838  1.00  0.00    -0.387 OA
ATOM     26  H   UNL     1     -17.773 -15.589  27.379  1.00  0.00     0.211 HD
ENDBRANCH  20  25
BRANCH  21  27
ATOM     27  C   UNL     1     -20.928 -18.665  25.571  1.00  0.00     0.191 C 
BRANCH  27  28
ATOM     28  O   UNL     1     -21.931 -18.035  24.819  1.00  0.00    -0.394 OA
ATOM     29  H   UNL     1     -21.593 -17.131  24.583  1.00  0.00     0.210 HD
ENDBRANCH  27  28
ENDBRANCH  21  27
BRANCH  22  30
ATOM     30  O   UNL     1     -18.544 -15.950  25.289  1.00  0.00    -0.387 OA
ATOM     31  H   UNL     1     -18.970 -15.105  25.595  1.00  0.00     0.211 HD
ENDBRANCH  22  30
ENDBRANCH   1  17
TORSDOF 10
ENDMDL
MODEL 7
REMARK VINA RESULT:    -5.825      5.052      6.827
REMARK INTER + INTRA:          -9.389
REMARK INTER:                  -8.205
REMARK INTRA:                  -1.184
REMARK UNBOUND:                -1.180
REMARK SMILES OC[C@@H]1O[C@H](O[C@@H]2OC=C[C@@H]3[C@@H](O)[C@@H]4O[C@]4(CO)[C@@H]23)[C@H](O)[C@@H](O)[C@H]1O
REMARK SMILES IDX 6 1 7 2 10 3 9 4 11 5 8 6 19 7 12 8 16 9 14 10 15 11 13 12
REMARK SMILES IDX 17 14 18 15 5 17 20 18 4 19 22 20 3 21 24 22 21 23 23 25
REMARK SMILES IDX 2 27 1 28 25 30
REMARK H PARENT 13 13 18 16 21 24 23 26 1 29 25 31
REMARK Flexibility Score: inf
ROOT
ATOM      1  O   UNL     1     -14.150 -19.006  27.493  1.00  0.00    -0.310 OA
ENDROOT
BRANCH   1   2
ATOM      2  C   UNL     1     -15.162 -18.132  27.023  1.00  0.00     0.315 C 
ATOM      3  C   UNL     1     -18.015 -17.555  26.990  1.00  0.00     0.018 C 
ATOM      4  C   UNL     1     -17.296 -17.305  28.095  1.00  0.00     0.186 C 
ATOM      5  C   UNL     1     -17.272 -17.973  25.760  1.00  0.00     0.059 C 
ATOM      6  O   UNL     1     -15.909 -17.574  28.132  1.00  0.00    -0.472 OA
ATOM      7  C   UNL     1     -16.153 -18.922  26.149  1.00  0.00     0.105 C 
ATOM      8  C   UNL     1     -18.030 -18.720  24.674  1.00  0.00     0.154 C 
ATOM      9  C   UNL     1     -15.736 -19.514  24.806  1.00  0.00     0.130 C 
ATOM     10  C   UNL     1     -16.902 -19.405  23.888  1.00  0.00     0.183 C 
ATOM     11  O   UNL     1     -16.489 -20.645  24.423  1.00  0.00    -0.360 OA
BRANCH   8  12
ATOM     12  O   UNL     1     -18.730 -17.819  23.859  1.00  0.00    -0.390 OA
ATOM     13  H   UNL     1     -18.804 -18.251  22.967  1.00  0.00     0.211 HD
ENDBRANCH   8  12
BRANCH   9  14
ATOM     14  C   UNL     1     -14.336 -19.443  24.198  1.00  0.00     0.195 C 
BRANCH  14  15
ATOM     15  O   UNL     1     -13.486 -20.306  24.899  1.00  0.00    -0.393 OA
ATOM     16  H   UNL     1     -13.216 -19.819  25.721  1.00  0.00     0.210 HD
ENDBRANCH  14  15
ENDBRANCH   9  14
ENDBRANCH   1   2
BRANCH   1  17
ATOM     17  C   UNL     1     -13.231 -18.343  28.352  1.00  0.00     0.286 C 
ATOM     18  C   UNL     1     -11.770 -18.469  27.840  1.00  0.00     0.202 C 
ATOM     19  O   UNL     1     -13.329 -18.936  29.634  1.00  0.00    -0.341 OA
ATOM     20  C   UNL     1     -10.762 -18.460  29.016  1.00  0.00     0.179 C 
ATOM     21  C   UNL     1     -12.706 -18.120  30.621  1.00  0.00     0.178 C 
ATOM     22  C   UNL     1     -11.290 -17.618  30.193  1.00  0.00     0.177 C 
BRANCH  18  23
ATOM     23  O   UNL     1     -11.612 -19.661  27.114  1.00  0.00    -0.385 OA
ATOM     24  H   UNL     1     -11.690 -19.429  26.152  1.00  0.00     0.211 HD
ENDBRANCH  18  23
BRANCH  20  25
ATOM     25  O   UNL     1      -9.520 -17.961  28.592  1.00  0.00    -0.387 OA
ATOM     26  H   UNL     1      -9.355 -18.330  27.685  1.00  0.00     0.211 HD
ENDBRANCH  20  25
BRANCH  21  27
ATOM     27  C   UNL     1     -12.654 -18.912  31.936  1.00  0.00     0.191 C 
BRANCH  27  28
ATOM     28  O   UNL     1     -12.881 -20.278  31.704  1.00  0.00    -0.394 OA
ATOM     29  H   UNL     1     -12.545 -20.477  30.792  1.00  0.00     0.210 HD
ENDBRANCH  27  28
ENDBRANCH  21  27
BRANCH  22  30
ATOM     30  O   UNL     1     -11.376 -16.265  29.814  1.00  0.00    -0.387 OA
ATOM     31  H   UNL     1     -12.284 -15.948  30.064  1.00  0.00     0.211 HD
ENDBRANCH  22  30
ENDBRANCH   1  17
TORSDOF 10
ENDMDL
MODEL 8
REMARK VINA RESULT:    -5.686      2.950      5.093
REMARK INTER + INTRA:          -9.193
REMARK INTER:                  -8.009
REMARK INTRA:                  -1.184
REMARK UNBOUND:                -1.180
REMARK SMILES OC[C@@H]1O[C@H](O[C@@H]2OC=C[C@@H]3[C@@H](O)[C@@H]4O[C@]4(CO)[C@@H]23)[C@H](O)[C@@H](O)[C@H]1O
REMARK SMILES IDX 6 1 7 2 10 3 9 4 11 5 8 6 19 7 12 8 16 9 14 10 15 11 13 12
REMARK SMILES IDX 17 14 18 15 5 17 20 18 4 19 22 20 3 21 24 22 21 23 23 25
REMARK SMILES IDX 2 27 1 28 25 30
REMARK H PARENT 13 13 18 16 21 24 23 26 1 29 25 31
REMARK Flexibility Score: inf
ROOT
ATOM      1  O   UNL     1     -15.273 -19.357  23.174  1.00  0.00    -0.310 OA
ENDROOT
BRANCH   1   2
ATOM      2  C   UNL     1     -16.039 -19.518  24.356  1.00  0.00     0.315 C 
ATOM      3  C   UNL     1     -17.852 -18.236  26.240  1.00  0.00     0.018 C 
ATOM      4  C   UNL     1     -18.298 -18.606  25.030  1.00  0.00     0.186 C 
ATOM      5  C   UNL     1     -16.466 -18.652  26.624  1.00  0.00     0.059 C 
ATOM      6  O   UNL     1     -17.437 -19.234  24.100  1.00  0.00    -0.472 OA
ATOM      7  C   UNL     1     -15.551 -18.519  25.420  1.00  0.00     0.105 C 
ATOM      8  C   UNL     1     -15.753 -17.876  27.719  1.00  0.00     0.154 C 
ATOM      9  C   UNL     1     -14.162 -18.632  26.043  1.00  0.00     0.130 C 
ATOM     10  C   UNL     1     -14.277 -18.220  27.469  1.00  0.00     0.183 C 
ATOM     11  O   UNL     1     -13.644 -17.403  26.507  1.00  0.00    -0.360 OA
BRANCH   8  12
ATOM     12  O   UNL     1     -16.162 -18.326  28.982  1.00  0.00    -0.390 OA
ATOM     13  H   UNL     1     -15.622 -19.137  29.177  1.00  0.00     0.211 HD
ENDBRANCH   8  12
BRANCH   9  14
ATOM     14  C   UNL     1     -13.107 -19.675  25.680  1.00  0.00     0.195 C 
BRANCH  14  15
ATOM     15  O   UNL     1     -12.438 -19.269  24.520  1.00  0.00    -0.393 OA
ATOM     16  H   UNL     1     -12.186 -20.102  24.042  1.00  0.00     0.210 HD
ENDBRANCH  14  15
ENDBRANCH   9  14
ENDBRANCH   1   2
BRANCH   1  17
ATOM     17  C   UNL     1     -15.386 -20.482  22.312  1.00  0.00     0.286 C 
ATOM     18  C   UNL     1     -13.996 -20.973  21.821  1.00  0.00     0.202 C 
ATOM     19  O   UNL     1     -16.165 -20.096  21.193  1.00  0.00    -0.341 OA
ATOM     20  C   UNL     1     -14.092 -21.609  20.412  1.00  0.00     0.179 C 
ATOM     21  C   UNL     1     -16.608 -21.236  20.464  1.00  0.00     0.178 C 
ATOM     22  C   UNL     1     -15.467 -22.269  20.193  1.00  0.00     0.177 C 
BRANCH  18  23
ATOM     23  O   UNL     1     -13.091 -19.899  21.774  1.00  0.00    -0.385 OA
ATOM     24  H   UNL     1     -13.538 -19.123  22.203  1.00  0.00     0.211 HD
ENDBRANCH  18  23
BRANCH  20  25
ATOM     25  O   UNL     1     -13.074 -22.559  20.233  1.00  0.00    -0.387 OA
ATOM     26  H   UNL     1     -12.250 -22.058  19.996  1.00  0.00     0.211 HD
ENDBRANCH  20  25
BRANCH  21  27
ATOM     27  C   UNL     1     -17.254 -20.750  19.159  1.00  0.00     0.191 C 
BRANCH  27  28
ATOM     28  O   UNL     1     -17.640 -19.405  19.265  1.00  0.00    -0.394 OA
ATOM     29  H   UNL     1     -18.552 -19.394  19.657  1.00  0.00     0.210 HD
ENDBRANCH  27  28
ENDBRANCH  21  27
BRANCH  22  30
ATOM     30  O   UNL     1     -15.619 -23.362  21.066  1.00  0.00    -0.387 OA
ATOM     31  H   UNL     1     -15.934 -23.001  21.936  1.00  0.00     0.211 HD
ENDBRANCH  22  30
ENDBRANCH   1  17
TORSDOF 10
ENDMDL
MODEL 9
REMARK VINA RESULT:    -5.662      2.169      6.844
REMARK INTER + INTRA:          -9.159
REMARK INTER:                  -7.839
REMARK INTRA:                  -1.320
REMARK UNBOUND:                -1.180
REMARK SMILES OC[C@@H]1O[C@H](O[C@@H]2OC=C[C@@H]3[C@@H](O)[C@@H]4O[C@]4(CO)[C@@H]23)[C@H](O)[C@@H](O)[C@H]1O
REMARK SMILES IDX 6 1 7 2 10 3 9 4 11 5 8 6 19 7 12 8 16 9 14 10 15 11 13 12
REMARK SMILES IDX 17 14 18 15 5 17 20 18 4 19 22 20 3 21 24 22 21 23 23 25
REMARK SMILES IDX 2 27 1 28 25 30
REMARK H PARENT 13 13 18 16 21 24 23 26 1 29 25 31
REMARK Flexibility Score: inf
ROOT
ATOM      1  O   UNL     1     -15.434 -19.192  22.165  1.00  0.00    -0.310 OA
ENDROOT
BRANCH   1   2
ATOM      2  C   UNL     1     -15.135 -20.491  21.683  1.00  0.00     0.315 C 
ATOM      3  C   UNL     1     -15.474 -23.351  22.106  1.00  0.00     0.018 C 
ATOM      4  C   UNL     1     -16.496 -22.620  21.636  1.00  0.00     0.186 C 
ATOM      5  C   UNL     1     -14.144 -22.677  22.238  1.00  0.00     0.059 C 
ATOM      6  O   UNL     1     -16.353 -21.230  21.419  1.00  0.00    -0.472 OA
ATOM      7  C   UNL     1     -14.346 -21.264  22.754  1.00  0.00     0.105 C 
ATOM      8  C   UNL     1     -13.119 -23.276  23.189  1.00  0.00     0.154 C 
ATOM      9  C   UNL     1     -12.934 -20.852  23.160  1.00  0.00     0.130 C 
ATOM     10  C   UNL     1     -12.169 -22.096  23.445  1.00  0.00     0.183 C 
ATOM     11  O   UNL     1     -12.587 -21.226  24.476  1.00  0.00    -0.360 OA
BRANCH   8  12
ATOM     12  O   UNL     1     -12.441 -24.337  22.573  1.00  0.00    -0.390 OA
ATOM     13  H   UNL     1     -11.985 -23.952  21.778  1.00  0.00     0.211 HD
ENDBRANCH   8  12
BRANCH   9  14
ATOM     14  C   UNL     1     -12.168 -19.649  22.613  1.00  0.00     0.195 C 
BRANCH  14  15
ATOM     15  O   UNL     1     -12.668 -18.480  23.199  1.00  0.00    -0.393 OA
ATOM     16  H   UNL     1     -12.210 -17.726  22.743  1.00  0.00     0.210 HD
ENDBRANCH  14  15
ENDBRANCH   9  14
ENDBRANCH   1   2
BRANCH   1  17
ATOM     17  C   UNL     1     -16.237 -19.233  23.338  1.00  0.00     0.286 C 
ATOM     18  C   UNL     1     -17.574 -18.466  23.147  1.00  0.00     0.202 C 
ATOM     19  O   UNL     1     -15.502 -18.633  24.389  1.00  0.00    -0.341 OA
ATOM     20  C   UNL     1     -18.070 -17.863  24.484  1.00  0.00     0.179 C 
ATOM     21  C   UNL     1     -16.083 -18.936  25.653  1.00  0.00     0.178 C 
ATOM     22  C   UNL     1     -17.631 -18.729  25.680  1.00  0.00     0.177 C 
BRANCH  18  23
ATOM     23  O   UNL     1     -17.410 -17.430  22.213  1.00  0.00    -0.385 OA
ATOM     24  H   UNL     1     -16.838 -16.740  22.641  1.00  0.00     0.211 HD
ENDBRANCH  18  23
BRANCH  20  25
ATOM     25  O   UNL     1     -19.468 -17.736  24.476  1.00  0.00    -0.387 OA
ATOM     26  H   UNL     1     -19.696 -17.100  23.748  1.00  0.00     0.211 HD
ENDBRANCH  20  25
BRANCH  21  27
ATOM     27  C   UNL     1     -15.378 -18.088  26.722  1.00  0.00     0.191 C 
BRANCH  27  28
ATOM     28  O   UNL     1     -16.303 -17.291  27.415  1.00  0.00    -0.394 OA
ATOM     29  H   UNL     1     -17.080 -17.157  26.811  1.00  0.00     0.210 HD
ENDBRANCH  27  28
ENDBRANCH  21  27
BRANCH  22  30
ATOM     30  O   UNL     1     -18.265 -19.983  25.623  1.00  0.00    -0.387 OA
ATOM     31  H   UNL     1     -19.066 -19.935  26.209  1.00  0.00     0.211 HD
ENDBRANCH  22  30
ENDBRANCH   1  17
TORSDOF 10
ENDMDL
