MODEL 1
REMARK VINA RESULT:    -4.038      0.000      0.000
REMARK INTER + INTRA:          -4.223
REMARK INTER:                  -4.392
REMARK INTRA:                   0.170
REMARK UNBOUND:                 0.170
REMARK SMILES C=C(C)[C@H]1CC[C@H](C)C[C@H]1O
REMARK SMILES IDX 8 1 7 2 6 3 5 4 4 5 10 6 9 7 11 8 2 10 1 11 3 12
REMARK H PARENT 11 9
REMARK Flexibility Score: inf
ROOT
ATOM      1  C   UNL     1       9.678  -1.236  24.649  1.00  0.00     0.008 C 
ATOM      2  C   UNL     1       8.334  -1.941  24.857  1.00  0.00    -0.012 C 
ATOM      3  C   UNL     1       7.170  -0.945  24.689  1.00  0.00     0.004 C 
ATOM      4  C   UNL     1       5.815  -1.642  24.865  1.00  0.00     0.011 C 
ATOM      5  C   UNL     1       5.673  -2.819  23.878  1.00  0.00     0.043 C 
ATOM      6  C   UNL     1       6.830  -3.834  24.044  1.00  0.00     0.121 C 
ATOM      7  C   UNL     1       8.187  -3.123  23.875  1.00  0.00     0.035 C 
ENDROOT
BRANCH   6   8
ATOM      8  O   UNL     1       6.770  -4.457  25.302  1.00  0.00    -0.392 OA
ATOM      9  H   UNL     1       6.037  -5.126  25.257  1.00  0.00     0.210 HD
ENDBRANCH   6   8
BRANCH   5  10
ATOM     10  C   UNL     1       4.304  -3.488  23.968  1.00  0.00    -0.075 C 
ATOM     11  C   UNL     1       3.175  -2.773  24.122  1.00  0.00     0.008 C 
ATOM     12  C   UNL     1       4.192  -4.989  23.876  1.00  0.00     0.039 C 
ENDBRANCH   5  10
TORSDOF 2
ENDMDL
MODEL 2
REMARK VINA RESULT:    -3.509     18.940     21.085
REMARK INTER + INTRA:          -3.647
REMARK INTER:                  -3.455
REMARK INTRA:                  -0.192
REMARK UNBOUND:                 0.170
REMARK SMILES C=C(C)[C@H]1CC[C@H](C)C[C@H]1O
REMARK SMILES IDX 8 1 7 2 6 3 5 4 4 5 10 6 9 7 11 8 2 10 1 11 3 12
REMARK H PARENT 11 9
REMARK Flexibility Score: inf
ROOT
ATOM      1  C   UNL     1      16.112  13.242  39.264  1.00  0.00     0.008 C 
ATOM      2  C   UNL     1      15.129  13.065  38.103  1.00  0.00    -0.012 C 
ATOM      3  C   UNL     1      15.385  14.125  37.014  1.00  0.00     0.004 C 
ATOM      4  C   UNL     1      14.428  13.943  35.829  1.00  0.00     0.011 C 
ATOM      5  C   UNL     1      14.546  12.520  35.244  1.00  0.00     0.043 C 
ATOM      6  C   UNL     1      14.280  11.444  36.325  1.00  0.00     0.121 C 
ATOM      7  C   UNL     1      15.239  11.641  37.515  1.00  0.00     0.035 C 
ENDROOT
BRANCH   6   8
ATOM      8  O   UNL     1      12.949  11.503  36.769  1.00  0.00    -0.392 OA
ATOM      9  H   UNL     1      12.442  10.824  36.251  1.00  0.00     0.210 HD
ENDBRANCH   6   8
BRANCH   5  10
ATOM     10  C   UNL     1      13.666  12.327  34.011  1.00  0.00    -0.075 C 
ATOM     11  C   UNL     1      13.740  11.218  33.254  1.00  0.00     0.008 C 
ATOM     12  C   UNL     1      12.676  13.395  33.619  1.00  0.00     0.039 C 
ENDBRANCH   5  10
TORSDOF 2
ENDMDL
MODEL 3
REMARK VINA RESULT:    -3.361     19.121     21.239
REMARK INTER + INTRA:          -3.486
REMARK INTER:                  -3.340
REMARK INTRA:                  -0.146
REMARK UNBOUND:                 0.170
REMARK SMILES C=C(C)[C@H]1CC[C@H](C)C[C@H]1O
REMARK SMILES IDX 8 1 7 2 6 3 5 4 4 5 10 6 9 7 11 8 2 10 1 11 3 12
REMARK H PARENT 11 9
REMARK Flexibility Score: inf
ROOT
ATOM      1  C   UNL     1      15.862  13.181  39.316  1.00  0.00     0.008 C 
ATOM      2  C   UNL     1      15.512  13.000  37.836  1.00  0.00    -0.012 C 
ATOM      3  C   UNL     1      14.879  11.616  37.596  1.00  0.00     0.004 C 
ATOM      4  C   UNL     1      14.495  11.430  36.122  1.00  0.00     0.011 C 
ATOM      5  C   UNL     1      13.543  12.553  35.659  1.00  0.00     0.043 C 
ATOM      6  C   UNL     1      14.171  13.950  35.884  1.00  0.00     0.121 C 
ATOM      7  C   UNL     1      14.563  14.123  37.365  1.00  0.00     0.035 C 
ENDROOT
BRANCH   6   8
ATOM      8  O   UNL     1      15.301  14.125  35.067  1.00  0.00    -0.392 OA
ATOM      9  H   UNL     1      15.097  14.876  34.451  1.00  0.00     0.210 HD
ENDBRANCH   6   8
BRANCH   5  10
ATOM     10  C   UNL     1      13.075  12.357  34.220  1.00  0.00    -0.075 C 
ATOM     11  C   UNL     1      13.279  11.204  33.559  1.00  0.00     0.008 C 
ATOM     12  C   UNL     1      12.355  13.473  33.505  1.00  0.00     0.039 C 
ENDBRANCH   5  10
TORSDOF 2
ENDMDL
MODEL 4
REMARK VINA RESULT:    -3.044     19.646     21.891
REMARK INTER + INTRA:          -3.141
REMARK INTER:                  -3.569
REMARK INTRA:                   0.428
REMARK UNBOUND:                 0.170
REMARK SMILES C=C(C)[C@H]1CC[C@H](C)C[C@H]1O
REMARK SMILES IDX 8 1 7 2 6 3 5 4 4 5 10 6 9 7 11 8 2 10 1 11 3 12
REMARK H PARENT 11 9
REMARK Flexibility Score: inf
ROOT
ATOM      1  C   UNL     1      13.980  11.485  33.358  1.00  0.00     0.008 C 
ATOM      2  C   UNL     1      14.515  12.176  34.616  1.00  0.00    -0.012 C 
ATOM      3  C   UNL     1      13.669  13.422  34.948  1.00  0.00     0.004 C 
ATOM      4  C   UNL     1      14.175  14.109  36.224  1.00  0.00     0.011 C 
ATOM      5  C   UNL     1      14.184  13.123  37.410  1.00  0.00     0.043 C 
ATOM      6  C   UNL     1      15.040  11.872  37.094  1.00  0.00     0.121 C 
ATOM      7  C   UNL     1      14.531  11.194  35.807  1.00  0.00     0.035 C 
ENDROOT
BRANCH   6   8
ATOM      8  O   UNL     1      16.393  12.218  36.949  1.00  0.00    -0.392 OA
ATOM      9  H   UNL     1      16.794  11.560  36.323  1.00  0.00     0.210 HD
ENDBRANCH   6   8
BRANCH   5  10
ATOM     10  C   UNL     1      14.604  13.793  38.716  1.00  0.00    -0.075 C 
ATOM     11  C   UNL     1      13.713  14.098  39.675  1.00  0.00     0.008 C 
ATOM     12  C   UNL     1      16.056  14.125  38.957  1.00  0.00     0.039 C 
ENDBRANCH   5  10
TORSDOF 2
ENDMDL
MODEL 5
REMARK VINA RESULT:    -2.905     19.450     21.780
REMARK INTER + INTRA:          -2.991
REMARK INTER:                  -3.444
REMARK INTRA:                   0.453
REMARK UNBOUND:                 0.170
REMARK SMILES C=C(C)[C@H]1CC[C@H](C)C[C@H]1O
REMARK SMILES IDX 8 1 7 2 6 3 5 4 4 5 10 6 9 7 11 8 2 10 1 11 3 12
REMARK H PARENT 11 9
REMARK Flexibility Score: inf
ROOT
ATOM      1  C   UNL     1      13.908  11.261  33.260  1.00  0.00     0.008 C 
ATOM      2  C   UNL     1      13.841  11.853  34.672  1.00  0.00    -0.012 C 
ATOM      3  C   UNL     1      14.510  10.904  35.686  1.00  0.00     0.004 C 
ATOM      4  C   UNL     1      14.477  11.497  37.102  1.00  0.00     0.011 C 
ATOM      5  C   UNL     1      15.147  12.886  37.129  1.00  0.00     0.043 C 
ATOM      6  C   UNL     1      14.479  13.853  36.122  1.00  0.00     0.121 C 
ATOM      7  C   UNL     1      14.507  13.245  34.705  1.00  0.00     0.035 C 
ENDROOT
BRANCH   6   8
ATOM      8  O   UNL     1      13.153  14.125  36.499  1.00  0.00    -0.392 OA
ATOM      9  H   UNL     1      12.840  13.349  37.033  1.00  0.00     0.210 HD
ENDBRANCH   6   8
BRANCH   5  10
ATOM     10  C   UNL     1      15.207  13.472  38.537  1.00  0.00    -0.075 C 
ATOM     11  C   UNL     1      14.161  14.119  39.080  1.00  0.00     0.008 C 
ATOM     12  C   UNL     1      16.462  13.325  39.360  1.00  0.00     0.039 C 
ENDBRANCH   5  10
TORSDOF 2
ENDMDL
MODEL 6
REMARK VINA RESULT:    -1.702      1.439      2.334
REMARK INTER + INTRA:          -1.681
REMARK INTER:                  -2.098
REMARK INTRA:                   0.417
REMARK UNBOUND:                 0.170
REMARK SMILES C=C(C)[C@H]1CC[C@H](C)C[C@H]1O
REMARK SMILES IDX 8 1 7 2 6 3 5 4 4 5 10 6 9 7 11 8 2 10 1 11 3 12
REMARK H PARENT 11 9
REMARK Flexibility Score: inf
ROOT
ATOM      1  C   UNL     1       9.992  -0.636  24.985  1.00  0.00     0.008 C 
ATOM      2  C   UNL     1       8.667  -1.239  24.509  1.00  0.00    -0.012 C 
ATOM      3  C   UNL     1       8.803  -2.763  24.324  1.00  0.00     0.004 C 
ATOM      4  C   UNL     1       7.475  -3.387  23.876  1.00  0.00     0.011 C 
ATOM      5  C   UNL     1       6.350  -3.058  24.878  1.00  0.00     0.043 C 
ATOM      6  C   UNL     1       6.194  -1.529  25.066  1.00  0.00     0.121 C 
ATOM      7  C   UNL     1       7.535  -0.910  25.506  1.00  0.00     0.035 C 
ENDROOT
BRANCH   6   8
ATOM      8  O   UNL     1       5.756  -0.924  23.876  1.00  0.00    -0.392 OA
ATOM      9  H   UNL     1       6.329  -0.126  23.731  1.00  0.00     0.210 HD
ENDBRANCH   6   8
BRANCH   5  10
ATOM     10  C   UNL     1       5.030  -3.730  24.508  1.00  0.00    -0.075 C 
ATOM     11  C   UNL     1       4.916  -5.067  24.421  1.00  0.00     0.008 C 
ATOM     12  C   UNL     1       3.808  -2.889  24.236  1.00  0.00     0.039 C 
ENDBRANCH   5  10
TORSDOF 2
ENDMDL
