MODEL 1
REMARK VINA RESULT:    -3.253      0.000      0.000
REMARK INTER + INTRA:          -4.182
REMARK INTER:                  -4.109
REMARK INTRA:                  -0.073
REMARK UNBOUND:                -0.073
REMARK SMILES CSCC[C@@H]([NH3+])C(=O)[O-]
REMARK SMILES IDX 4 1 5 2 6 3 7 7 8 8 9 9 3 10 2 11 1 12
REMARK H PARENT 6 4 6 5 6 6
REMARK Flexibility Score: inf
ROOT
ATOM      1  C   UNL     1      23.988  28.240  28.456  1.00  0.00     0.082 C 
ENDROOT
BRANCH   1   2
ATOM      2  C   UNL     1      24.742  29.027  27.363  1.00  0.00     0.228 C 
BRANCH   2   3
ATOM      3  N   UNL     1      25.886  28.253  26.868  1.00  0.00    -0.350 N 
ATOM      4  H   UNL     1      26.708  28.389  27.502  1.00  0.00     0.345 HD
ATOM      5  H   UNL     1      25.653  27.234  26.825  1.00  0.00     0.345 HD
ATOM      6  H   UNL     1      26.154  28.585  25.913  1.00  0.00     0.345 HD
ENDBRANCH   2   3
BRANCH   2   7
ATOM      7  C   UNL     1      23.828  29.389  26.221  1.00  0.00     0.099 C 
ATOM      8  O   UNL     1      22.866  30.182  26.398  1.00  0.00    -0.544 OA
ATOM      9  O   UNL     1      24.051  28.854  24.959  1.00  0.00    -0.544 OA
ENDBRANCH   2   7
ENDBRANCH   1   2
BRANCH   1  10
ATOM     10  C   UNL     1      23.634  29.116  29.663  1.00  0.00     0.076 C 
BRANCH  10  11
ATOM     11  S   UNL     1      22.009  28.636  30.350  1.00  0.00    -0.165 SA
ATOM     12  C   UNL     1      21.593  30.277  31.024  1.00  0.00     0.085 C 
ENDBRANCH  10  11
ENDBRANCH   1  10
TORSDOF 5
ENDMDL
MODEL 2
REMARK VINA RESULT:    -3.245      0.960      1.123
REMARK INTER + INTRA:          -4.172
REMARK INTER:                  -3.954
REMARK INTRA:                  -0.218
REMARK UNBOUND:                -0.073
REMARK SMILES CSCC[C@@H]([NH3+])C(=O)[O-]
REMARK SMILES IDX 4 1 5 2 6 3 7 7 8 8 9 9 3 10 2 11 1 12
REMARK H PARENT 6 4 6 5 6 6
REMARK Flexibility Score: inf
ROOT
ATOM      1  C   UNL     1      23.994  28.283  28.475  1.00  0.00     0.082 C 
ENDROOT
BRANCH   1   2
ATOM      2  C   UNL     1      24.768  29.035  27.371  1.00  0.00     0.228 C 
BRANCH   2   3
ATOM      3  N   UNL     1      25.896  28.227  26.892  1.00  0.00    -0.350 N 
ATOM      4  H   UNL     1      26.712  28.339  27.538  1.00  0.00     0.345 HD
ATOM      5  H   UNL     1      25.633  27.215  26.847  1.00  0.00     0.345 HD
ATOM      6  H   UNL     1      26.187  28.551  25.941  1.00  0.00     0.345 HD
ENDBRANCH   2   3
BRANCH   2   7
ATOM      7  C   UNL     1      23.865  29.398  26.220  1.00  0.00     0.099 C 
ATOM      8  O   UNL     1      22.939  30.238  26.375  1.00  0.00    -0.544 OA
ATOM      9  O   UNL     1      24.059  28.813  24.976  1.00  0.00    -0.544 OA
ENDBRANCH   2   7
ENDBRANCH   1   2
BRANCH   1  10
ATOM     10  C   UNL     1      23.651  29.189  29.663  1.00  0.00     0.076 C 
BRANCH  10  11
ATOM     11  S   UNL     1      21.843  29.436  29.780  1.00  0.00    -0.165 SA
ATOM     12  C   UNL     1      21.385  27.976  28.790  1.00  0.00     0.085 C 
ENDBRANCH  10  11
ENDBRANCH   1  10
TORSDOF 5
ENDMDL
MODEL 3
REMARK VINA RESULT:    -3.233      0.162      1.090
REMARK INTER + INTRA:          -4.156
REMARK INTER:                  -4.086
REMARK INTRA:                  -0.071
REMARK UNBOUND:                -0.073
REMARK SMILES CSCC[C@@H]([NH3+])C(=O)[O-]
REMARK SMILES IDX 4 1 5 2 6 3 7 7 8 8 9 9 3 10 2 11 1 12
REMARK H PARENT 6 4 6 5 6 6
REMARK Flexibility Score: inf
ROOT
ATOM      1  C   UNL     1      23.979  28.300  28.470  1.00  0.00     0.082 C 
ENDROOT
BRANCH   1   2
ATOM      2  C   UNL     1      24.760  29.045  27.366  1.00  0.00     0.228 C 
BRANCH   2   3
ATOM      3  N   UNL     1      25.894  28.237  26.903  1.00  0.00    -0.350 N 
ATOM      4  H   UNL     1      25.543  27.363  26.445  1.00  0.00     0.345 HD
ATOM      5  H   UNL     1      26.475  28.773  26.218  1.00  0.00     0.345 HD
ATOM      6  H   UNL     1      26.489  27.959  27.718  1.00  0.00     0.345 HD
ENDBRANCH   2   3
BRANCH   2   7
ATOM      7  C   UNL     1      23.865  29.394  26.205  1.00  0.00     0.099 C 
ATOM      8  O   UNL     1      24.074  28.900  25.066  1.00  0.00    -0.544 OA
ATOM      9  O   UNL     1      22.793  30.258  26.391  1.00  0.00    -0.544 OA
ENDBRANCH   2   7
ENDBRANCH   1   2
BRANCH   1  10
ATOM     10  C   UNL     1      23.654  29.206  29.663  1.00  0.00     0.076 C 
BRANCH  10  11
ATOM     11  S   UNL     1      22.102  28.672  30.470  1.00  0.00    -0.165 SA
ATOM     12  C   UNL     1      21.402  30.344  30.664  1.00  0.00     0.085 C 
ENDBRANCH  10  11
ENDBRANCH   1  10
TORSDOF 5
ENDMDL
MODEL 4
REMARK VINA RESULT:    -3.039      1.503      1.935
REMARK INTER + INTRA:          -3.911
REMARK INTER:                  -3.729
REMARK INTRA:                  -0.183
REMARK UNBOUND:                -0.073
REMARK SMILES CSCC[C@@H]([NH3+])C(=O)[O-]
REMARK SMILES IDX 4 1 5 2 6 3 7 7 8 8 9 9 3 10 2 11 1 12
REMARK H PARENT 6 4 6 5 6 6
REMARK Flexibility Score: inf
ROOT
ATOM      1  C   UNL     1      24.114  28.687  27.768  1.00  0.00     0.082 C 
ENDROOT
BRANCH   1   2
ATOM      2  C   UNL     1      23.630  29.803  26.818  1.00  0.00     0.228 C 
BRANCH   2   3
ATOM      3  N   UNL     1      24.263  29.667  25.500  1.00  0.00    -0.350 N 
ATOM      4  H   UNL     1      24.345  30.607  25.048  1.00  0.00     0.345 HD
ATOM      5  H   UNL     1      25.216  29.245  25.589  1.00  0.00     0.345 HD
ATOM      6  H   UNL     1      23.674  29.061  24.884  1.00  0.00     0.345 HD
ENDBRANCH   2   3
BRANCH   2   7
ATOM      7  C   UNL     1      22.130  29.788  26.676  1.00  0.00     0.099 C 
ATOM      8  O   UNL     1      21.561  28.895  25.994  1.00  0.00    -0.544 OA
ATOM      9  O   UNL     1      21.364  30.757  27.310  1.00  0.00    -0.544 OA
ENDBRANCH   2   7
ENDBRANCH   1   2
BRANCH   1  10
ATOM     10  C   UNL     1      24.069  29.117  29.239  1.00  0.00     0.076 C 
BRANCH  10  11
ATOM     11  S   UNL     1      22.622  28.377  30.078  1.00  0.00    -0.165 SA
ATOM     12  C   UNL     1      21.973  29.940  30.754  1.00  0.00     0.085 C 
ENDBRANCH  10  11
ENDBRANCH   1  10
TORSDOF 5
ENDMDL
MODEL 5
REMARK VINA RESULT:    -3.034      2.861      4.033
REMARK INTER + INTRA:          -3.904
REMARK INTER:                  -3.682
REMARK INTRA:                  -0.223
REMARK UNBOUND:                -0.073
REMARK SMILES CSCC[C@@H]([NH3+])C(=O)[O-]
REMARK SMILES IDX 4 1 5 2 6 3 7 7 8 8 9 9 3 10 2 11 1 12
REMARK H PARENT 6 4 6 5 6 6
REMARK Flexibility Score: inf
ROOT
ATOM      1  C   UNL     1      23.982  29.225  25.647  1.00  0.00     0.082 C 
ENDROOT
BRANCH   1   2
ATOM      2  C   UNL     1      24.376  28.298  26.817  1.00  0.00     0.228 C 
BRANCH   2   3
ATOM      3  N   UNL     1      25.829  28.320  27.023  1.00  0.00    -0.350 N 
ATOM      4  H   UNL     1      26.082  27.700  27.827  1.00  0.00     0.345 HD
ATOM      5  H   UNL     1      26.330  27.989  26.166  1.00  0.00     0.345 HD
ATOM      6  H   UNL     1      26.142  29.292  27.251  1.00  0.00     0.345 HD
ENDBRANCH   2   3
BRANCH   2   7
ATOM      7  C   UNL     1      23.667  28.691  28.088  1.00  0.00     0.099 C 
ATOM      8  O   UNL     1      22.412  28.624  28.166  1.00  0.00    -0.544 OA
ATOM      9  O   UNL     1      24.400  29.121  29.186  1.00  0.00    -0.544 OA
ENDBRANCH   2   7
ENDBRANCH   1   2
BRANCH   1  10
ATOM     10  C   UNL     1      23.497  28.439  24.423  1.00  0.00     0.076 C 
BRANCH  10  11
ATOM     11  S   UNL     1      23.137  26.705  24.876  1.00  0.00    -0.165 SA
ATOM     12  C   UNL     1      21.349  26.943  25.140  1.00  0.00     0.085 C 
ENDBRANCH  10  11
ENDBRANCH   1  10
TORSDOF 5
ENDMDL
MODEL 6
REMARK VINA RESULT:    -3.020      2.793      3.998
REMARK INTER + INTRA:          -3.887
REMARK INTER:                  -3.672
REMARK INTRA:                  -0.215
REMARK UNBOUND:                -0.073
REMARK SMILES CSCC[C@@H]([NH3+])C(=O)[O-]
REMARK SMILES IDX 4 1 5 2 6 3 7 7 8 8 9 9 3 10 2 11 1 12
REMARK H PARENT 6 4 6 5 6 6
REMARK Flexibility Score: inf
ROOT
ATOM      1  C   UNL     1      24.122  29.119  25.497  1.00  0.00     0.082 C 
ENDROOT
BRANCH   1   2
ATOM      2  C   UNL     1      24.439  28.289  26.760  1.00  0.00     0.228 C 
BRANCH   2   3
ATOM      3  N   UNL     1      25.887  28.245  26.996  1.00  0.00    -0.350 N 
ATOM      4  H   UNL     1      26.248  27.281  26.802  1.00  0.00     0.345 HD
ATOM      5  H   UNL     1      26.384  28.927  26.377  1.00  0.00     0.345 HD
ATOM      6  H   UNL     1      26.092  28.473  27.996  1.00  0.00     0.345 HD
ENDBRANCH   2   3
BRANCH   2   7
ATOM      7  C   UNL     1      23.734  28.846  27.971  1.00  0.00     0.099 C 
ATOM      8  O   UNL     1      24.318  28.892  29.085  1.00  0.00    -0.544 OA
ATOM      9  O   UNL     1      22.435  29.323  27.858  1.00  0.00    -0.544 OA
ENDBRANCH   2   7
ENDBRANCH   1   2
BRANCH   1  10
ATOM     10  C   UNL     1      23.320  28.318  24.464  1.00  0.00     0.076 C 
BRANCH  10  11
ATOM     11  S   UNL     1      23.191  26.566  24.970  1.00  0.00    -0.165 SA
ATOM     12  C   UNL     1      21.416  26.615  25.380  1.00  0.00     0.085 C 
ENDBRANCH  10  11
ENDBRANCH   1  10
TORSDOF 5
ENDMDL
MODEL 7
REMARK VINA RESULT:    -2.967      1.529      1.735
REMARK INTER + INTRA:          -3.820
REMARK INTER:                  -3.685
REMARK INTRA:                  -0.135
REMARK UNBOUND:                -0.073
REMARK SMILES CSCC[C@@H]([NH3+])C(=O)[O-]
REMARK SMILES IDX 4 1 5 2 6 3 7 7 8 8 9 9 3 10 2 11 1 12
REMARK H PARENT 6 4 6 5 6 6
REMARK Flexibility Score: inf
ROOT
ATOM      1  C   UNL     1      24.445  28.689  28.033  1.00  0.00     0.082 C 
ENDROOT
BRANCH   1   2
ATOM      2  C   UNL     1      23.369  28.987  26.967  1.00  0.00     0.228 C 
BRANCH   2   3
ATOM      3  N   UNL     1      23.229  30.435  26.768  1.00  0.00    -0.350 N 
ATOM      4  H   UNL     1      24.163  30.854  26.549  1.00  0.00     0.345 HD
ATOM      5  H   UNL     1      22.571  30.638  25.981  1.00  0.00     0.345 HD
ATOM      6  H   UNL     1      22.869  30.881  27.643  1.00  0.00     0.345 HD
ENDBRANCH   2   3
BRANCH   2   7
ATOM      7  C   UNL     1      23.696  28.314  25.659  1.00  0.00     0.099 C 
ATOM      8  O   UNL     1      23.970  28.998  24.638  1.00  0.00    -0.544 OA
ATOM      9  O   UNL     1      23.707  26.927  25.576  1.00  0.00    -0.544 OA
ENDBRANCH   2   7
ENDBRANCH   1   2
BRANCH   1  10
ATOM     10  C   UNL     1      24.039  29.194  29.423  1.00  0.00     0.076 C 
BRANCH  10  11
ATOM     11  S   UNL     1      22.460  28.435  29.945  1.00  0.00    -0.165 SA
ATOM     12  C   UNL     1      21.612  30.001  30.331  1.00  0.00     0.085 C 
ENDBRANCH  10  11
ENDBRANCH   1  10
TORSDOF 5
ENDMDL
MODEL 8
REMARK VINA RESULT:    -2.935      3.097      4.055
REMARK INTER + INTRA:          -3.780
REMARK INTER:                  -3.555
REMARK INTRA:                  -0.225
REMARK UNBOUND:                -0.073
REMARK SMILES CSCC[C@@H]([NH3+])C(=O)[O-]
REMARK SMILES IDX 4 1 5 2 6 3 7 7 8 8 9 9 3 10 2 11 1 12
REMARK H PARENT 6 4 6 5 6 6
REMARK Flexibility Score: inf
ROOT
ATOM      1  C   UNL     1      24.056  29.167  29.226  1.00  0.00     0.082 C 
ENDROOT
BRANCH   1   2
ATOM      2  C   UNL     1      22.692  29.133  29.948  1.00  0.00     0.228 C 
BRANCH   2   3
ATOM      3  N   UNL     1      22.589  30.242  30.904  1.00  0.00    -0.350 N 
ATOM      4  H   UNL     1      22.653  29.874  31.882  1.00  0.00     0.345 HD
ATOM      5  H   UNL     1      23.356  30.937  30.749  1.00  0.00     0.345 HD
ATOM      6  H   UNL     1      21.664  30.720  30.796  1.00  0.00     0.345 HD
ENDBRANCH   2   3
BRANCH   2   7
ATOM      7  C   UNL     1      21.552  29.190  28.964  1.00  0.00     0.099 C 
ATOM      8  O   UNL     1      21.345  30.229  28.284  1.00  0.00    -0.544 OA
ATOM      9  O   UNL     1      20.728  28.085  28.794  1.00  0.00    -0.544 OA
ENDBRANCH   2   7
ENDBRANCH   1   2
BRANCH   1  10
ATOM     10  C   UNL     1      24.138  28.140  28.091  1.00  0.00     0.076 C 
BRANCH  10  11
ATOM     11  S   UNL     1      24.439  28.973  26.492  1.00  0.00    -0.165 SA
ATOM     12  C   UNL     1      22.988  28.278  25.636  1.00  0.00     0.085 C 
ENDBRANCH  10  11
ENDBRANCH   1  10
TORSDOF 5
ENDMDL
MODEL 9
REMARK VINA RESULT:    -2.917      2.281      2.538
REMARK INTER + INTRA:          -3.758
REMARK INTER:                  -3.526
REMARK INTRA:                  -0.232
REMARK UNBOUND:                -0.073
REMARK SMILES CSCC[C@@H]([NH3+])C(=O)[O-]
REMARK SMILES IDX 4 1 5 2 6 3 7 7 8 8 9 9 3 10 2 11 1 12
REMARK H PARENT 6 4 6 5 6 6
REMARK Flexibility Score: inf
ROOT
ATOM      1  C   UNL     1      21.617  29.158  27.955  1.00  0.00     0.082 C 
ENDROOT
BRANCH   1   2
ATOM      2  C   UNL     1      22.324  29.900  26.801  1.00  0.00     0.228 C 
BRANCH   2   3
ATOM      3  N   UNL     1      22.176  31.352  26.955  1.00  0.00    -0.350 N 
ATOM      4  H   UNL     1      22.908  31.716  27.609  1.00  0.00     0.345 HD
ATOM      5  H   UNL     1      22.272  31.834  26.031  1.00  0.00     0.345 HD
ATOM      6  H   UNL     1      21.237  31.572  27.362  1.00  0.00     0.345 HD
ENDBRANCH   2   3
BRANCH   2   7
ATOM      7  C   UNL     1      23.785  29.533  26.730  1.00  0.00     0.099 C 
ATOM      8  O   UNL     1      24.523  29.651  27.743  1.00  0.00    -0.544 OA
ATOM      9  O   UNL     1      24.322  29.051  25.543  1.00  0.00    -0.544 OA
ENDBRANCH   2   7
ENDBRANCH   1   2
BRANCH   1  10
ATOM     10  C   UNL     1      21.097  30.120  29.030  1.00  0.00     0.076 C 
BRANCH  10  11
ATOM     11  S   UNL     1      21.952  29.827  30.620  1.00  0.00    -0.165 SA
ATOM     12  C   UNL     1      22.509  28.136  30.229  1.00  0.00     0.085 C 
ENDBRANCH  10  11
ENDBRANCH   1  10
TORSDOF 5
ENDMDL
