MODEL 1
REMARK VINA RESULT:    -4.444      0.000      0.000
REMARK INTER + INTRA:         -10.110
REMARK INTER:                  -8.082
REMARK INTRA:                  -2.028
REMARK UNBOUND:                -2.028
REMARK SMILES CCCCCCCCCCCCCCCC(=O)[O-]
REMARK SMILES IDX 9 1 10 2 11 3 12 4 13 5 14 6 15 7 16 8 17 9 18 10 8 11 7 12
REMARK SMILES IDX 6 13 5 14 4 15 3 16 2 17 1 18
REMARK H PARENT
REMARK Flexibility Score: inf
ROOT
ATOM      1  C   UNL     1      54.127  -3.230  31.922  1.00  0.00     0.000 C 
ENDROOT
BRANCH   1   2
ATOM      2  C   UNL     1      55.182  -4.337  31.762  1.00  0.00     0.000 C 
BRANCH   2   3
ATOM      3  C   UNL     1      56.619  -3.786  31.747  1.00  0.00     0.000 C 
BRANCH   3   4
ATOM      4  C   UNL     1      57.418  -4.228  30.508  1.00  0.00     0.000 C 
BRANCH   4   5
ATOM      5  C   UNL     1      58.857  -3.683  30.430  1.00  0.00     0.000 C 
BRANCH   5   6
ATOM      6  C   UNL     1      59.458  -3.774  29.018  1.00  0.00     0.006 C 
BRANCH   6   7
ATOM      7  C   UNL     1      60.516  -2.692  28.768  1.00  0.00     0.053 C 
BRANCH   7   8
ATOM      8  C   UNL     1      61.829  -3.288  28.359  1.00  0.00     0.041 C 
ATOM      9  O   UNL     1      62.670  -3.630  29.232  1.00  0.00    -0.550 OA
ATOM     10  O   UNL     1      62.137  -3.433  27.013  1.00  0.00    -0.550 OA
ENDBRANCH   7   8
ENDBRANCH   6   7
ENDBRANCH   5   6
ENDBRANCH   4   5
ENDBRANCH   3   4
ENDBRANCH   2   3
ENDBRANCH   1   2
BRANCH   1  11
ATOM     11  C   UNL     1      54.662  -1.842  31.540  1.00  0.00     0.000 C 
BRANCH  11  12
ATOM     12  C   UNL     1      53.808  -1.210  30.432  1.00  0.00    -0.000 C 
BRANCH  12  13
ATOM     13  C   UNL     1      54.399  -1.508  29.046  1.00  0.00    -0.000 C 
BRANCH  13  14
ATOM     14  C   UNL     1      55.913  -1.256  28.980  1.00  0.00    -0.000 C 
BRANCH  14  15
ATOM     15  C   UNL     1      56.258   0.154  28.470  1.00  0.00    -0.000 C 
BRANCH  15  16
ATOM     16  C   UNL     1      57.154   0.928  29.460  1.00  0.00    -0.000 C 
BRANCH  16  17
ATOM     17  C   UNL     1      58.343   0.105  29.986  1.00  0.00    -0.003 C 
ATOM     18  C   UNL     1      58.274  -0.154  31.489  1.00  0.00     0.004 C 
ENDBRANCH  16  17
ENDBRANCH  15  16
ENDBRANCH  14  15
ENDBRANCH  13  14
ENDBRANCH  12  13
ENDBRANCH  11  12
ENDBRANCH   1  11
TORSDOF 14
ENDMDL
MODEL 2
REMARK VINA RESULT:    -4.399      1.008      3.749
REMARK INTER + INTRA:         -10.027
REMARK INTER:                  -8.208
REMARK INTRA:                  -1.819
REMARK UNBOUND:                -2.028
REMARK SMILES CCCCCCCCCCCCCCCC(=O)[O-]
REMARK SMILES IDX 9 1 10 2 11 3 12 4 13 5 14 6 15 7 16 8 17 9 18 10 8 11 7 12
REMARK SMILES IDX 6 13 5 14 4 15 3 16 2 17 1 18
REMARK H PARENT
REMARK Flexibility Score: inf
ROOT
ATOM      1  C   UNL     1      56.106   0.266  28.339  1.00  0.00     0.000 C 
ENDROOT
BRANCH   1   2
ATOM      2  C   UNL     1      57.141   1.066  29.146  1.00  0.00     0.000 C 
BRANCH   2   3
ATOM      3  C   UNL     1      57.345   0.507  30.565  1.00  0.00     0.000 C 
BRANCH   3   4
ATOM      4  C   UNL     1      58.666  -0.267  30.721  1.00  0.00     0.000 C 
BRANCH   4   5
ATOM      5  C   UNL     1      59.482  -0.435  29.425  1.00  0.00     0.000 C 
BRANCH   5   6
ATOM      6  C   UNL     1      60.157  -1.812  29.314  1.00  0.00     0.006 C 
BRANCH   6   7
ATOM      7  C   UNL     1      61.143  -1.882  28.142  1.00  0.00     0.053 C 
BRANCH   7   8
ATOM      8  C   UNL     1      62.547  -2.109  28.614  1.00  0.00     0.041 C 
ATOM      9  O   UNL     1      62.836  -1.973  29.832  1.00  0.00    -0.550 OA
ATOM     10  O   UNL     1      63.542  -2.435  27.702  1.00  0.00    -0.550 OA
ENDBRANCH   7   8
ENDBRANCH   6   7
ENDBRANCH   5   6
ENDBRANCH   4   5
ENDBRANCH   3   4
ENDBRANCH   2   3
ENDBRANCH   1   2
BRANCH   1  11
ATOM     11  C   UNL     1      55.797  -1.103  28.964  1.00  0.00     0.000 C 
BRANCH  11  12
ATOM     12  C   UNL     1      54.299  -1.422  28.873  1.00  0.00    -0.000 C 
BRANCH  12  13
ATOM     13  C   UNL     1      53.640  -1.367  30.259  1.00  0.00    -0.000 C 
BRANCH  13  14
ATOM     14  C   UNL     1      54.585  -1.818  31.384  1.00  0.00    -0.000 C 
BRANCH  14  15
ATOM     15  C   UNL     1      54.199  -3.188  31.970  1.00  0.00    -0.000 C 
BRANCH  15  16
ATOM     16  C   UNL     1      55.340  -4.219  31.841  1.00  0.00    -0.000 C 
BRANCH  16  17
ATOM     17  C   UNL     1      56.733  -3.580  31.702  1.00  0.00    -0.003 C 
ATOM     18  C   UNL     1      57.476  -4.031  30.447  1.00  0.00     0.004 C 
ENDBRANCH  16  17
ENDBRANCH  15  16
ENDBRANCH  14  15
ENDBRANCH  13  14
ENDBRANCH  12  13
ENDBRANCH  11  12
ENDBRANCH   1  11
TORSDOF 14
ENDMDL
MODEL 3
REMARK VINA RESULT:    -4.328      1.061      3.469
REMARK INTER + INTRA:          -9.898
REMARK INTER:                  -7.574
REMARK INTRA:                  -2.324
REMARK UNBOUND:                -2.028
REMARK SMILES CCCCCCCCCCCCCCCC(=O)[O-]
REMARK SMILES IDX 9 1 10 2 11 3 12 4 13 5 14 6 15 7 16 8 17 9 18 10 8 11 7 12
REMARK SMILES IDX 6 13 5 14 4 15 3 16 2 17 1 18
REMARK H PARENT
REMARK Flexibility Score: inf
ROOT
ATOM      1  C   UNL     1      57.480   0.785  30.668  1.00  0.00     0.000 C 
ENDROOT
BRANCH   1   2
ATOM      2  C   UNL     1      58.246  -0.082  31.680  1.00  0.00     0.000 C 
BRANCH   2   3
ATOM      3  C   UNL     1      59.120  -1.150  31.000  1.00  0.00     0.000 C 
BRANCH   3   4
ATOM      4  C   UNL     1      58.859  -2.569  31.536  1.00  0.00     0.000 C 
BRANCH   4   5
ATOM      5  C   UNL     1      58.977  -3.694  30.491  1.00  0.00     0.000 C 
BRANCH   5   6
ATOM      6  C   UNL     1      59.319  -3.173  29.085  1.00  0.00     0.006 C 
BRANCH   6   7
ATOM      7  C   UNL     1      60.739  -3.559  28.654  1.00  0.00     0.053 C 
BRANCH   7   8
ATOM      8  C   UNL     1      61.515  -2.370  28.176  1.00  0.00     0.041 C 
ATOM      9  O   UNL     1      60.971  -1.234  28.131  1.00  0.00    -0.550 OA
ATOM     10  O   UNL     1      62.827  -2.522  27.747  1.00  0.00    -0.550 OA
ENDBRANCH   7   8
ENDBRANCH   6   7
ENDBRANCH   5   6
ENDBRANCH   4   5
ENDBRANCH   3   4
ENDBRANCH   2   3
ENDBRANCH   1   2
BRANCH   1  11
ATOM     11  C   UNL     1      57.660   0.306  29.220  1.00  0.00     0.000 C 
BRANCH  11  12
ATOM     12  C   UNL     1      56.309  -0.061  28.591  1.00  0.00    -0.000 C 
BRANCH  12  13
ATOM     13  C   UNL     1      55.862  -1.463  29.029  1.00  0.00    -0.000 C 
BRANCH  13  14
ATOM     14  C   UNL     1      54.350  -1.547  29.293  1.00  0.00    -0.000 C 
BRANCH  14  15
ATOM     15  C   UNL     1      54.010  -1.557  30.794  1.00  0.00    -0.000 C 
BRANCH  15  16
ATOM     16  C   UNL     1      55.106  -2.244  31.635  1.00  0.00    -0.000 C 
BRANCH  16  17
ATOM     17  C   UNL     1      54.764  -3.693  32.024  1.00  0.00    -0.003 C 
ATOM     18  C   UNL     1      55.584  -4.728  31.258  1.00  0.00     0.004 C 
ENDBRANCH  16  17
ENDBRANCH  15  16
ENDBRANCH  14  15
ENDBRANCH  13  14
ENDBRANCH  12  13
ENDBRANCH  11  12
ENDBRANCH   1  11
TORSDOF 14
ENDMDL
MODEL 4
REMARK VINA RESULT:    -4.316      1.418      2.467
REMARK INTER + INTRA:          -9.877
REMARK INTER:                  -8.054
REMARK INTRA:                  -1.823
REMARK UNBOUND:                -2.028
REMARK SMILES CCCCCCCCCCCCCCCC(=O)[O-]
REMARK SMILES IDX 9 1 10 2 11 3 12 4 13 5 14 6 15 7 16 8 17 9 18 10 8 11 7 12
REMARK SMILES IDX 6 13 5 14 4 15 3 16 2 17 1 18
REMARK H PARENT
REMARK Flexibility Score: inf
ROOT
ATOM      1  C   UNL     1      55.976  -4.542  30.820  1.00  0.00     0.000 C 
ENDROOT
BRANCH   1   2
ATOM      2  C   UNL     1      57.368  -3.938  30.573  1.00  0.00     0.000 C 
BRANCH   2   3
ATOM      3  C   UNL     1      58.016  -3.400  31.860  1.00  0.00     0.000 C 
BRANCH   3   4
ATOM      4  C   UNL     1      58.175  -1.869  31.858  1.00  0.00     0.000 C 
BRANCH   4   5
ATOM      5  C   UNL     1      59.431  -1.345  31.136  1.00  0.00     0.000 C 
BRANCH   5   6
ATOM      6  C   UNL     1      60.697  -2.150  31.474  1.00  0.00     0.006 C 
BRANCH   6   7
ATOM      7  C   UNL     1      61.578  -2.389  30.242  1.00  0.00     0.053 C 
BRANCH   7   8
ATOM      8  C   UNL     1      60.778  -2.352  28.975  1.00  0.00     0.041 C 
ATOM      9  O   UNL     1      60.122  -3.363  28.610  1.00  0.00    -0.550 OA
ATOM     10  O   UNL     1      60.786  -1.213  28.181  1.00  0.00    -0.550 OA
ENDBRANCH   7   8
ENDBRANCH   6   7
ENDBRANCH   5   6
ENDBRANCH   4   5
ENDBRANCH   3   4
ENDBRANCH   2   3
ENDBRANCH   1   2
BRANCH   1  11
ATOM     11  C   UNL     1      55.336  -4.043  32.124  1.00  0.00     0.000 C 
BRANCH  11  12
ATOM     12  C   UNL     1      54.067  -3.229  31.836  1.00  0.00    -0.000 C 
BRANCH  12  13
ATOM     13  C   UNL     1      54.418  -1.807  31.374  1.00  0.00    -0.000 C 
BRANCH  13  14
ATOM     14  C   UNL     1      53.706  -1.415  30.070  1.00  0.00    -0.000 C 
BRANCH  14  15
ATOM     15  C   UNL     1      54.637  -1.471  28.846  1.00  0.00    -0.000 C 
BRANCH  15  16
ATOM     16  C   UNL     1      56.029  -0.875  29.145  1.00  0.00    -0.000 C 
BRANCH  16  17
ATOM     17  C   UNL     1      56.352   0.380  28.315  1.00  0.00    -0.003 C 
ATOM     18  C   UNL     1      57.273   1.357  29.042  1.00  0.00     0.004 C 
ENDBRANCH  16  17
ENDBRANCH  15  16
ENDBRANCH  14  15
ENDBRANCH  13  14
ENDBRANCH  12  13
ENDBRANCH  11  12
ENDBRANCH   1  11
TORSDOF 14
ENDMDL
MODEL 5
REMARK VINA RESULT:    -4.230      1.407      2.628
REMARK INTER + INTRA:          -9.719
REMARK INTER:                  -8.055
REMARK INTRA:                  -1.665
REMARK UNBOUND:                -2.028
REMARK SMILES CCCCCCCCCCCCCCCC(=O)[O-]
REMARK SMILES IDX 9 1 10 2 11 3 12 4 13 5 14 6 15 7 16 8 17 9 18 10 8 11 7 12
REMARK SMILES IDX 6 13 5 14 4 15 3 16 2 17 1 18
REMARK H PARENT
REMARK Flexibility Score: inf
ROOT
ATOM      1  C   UNL     1      56.357  -4.269  30.329  1.00  0.00     0.000 C 
ENDROOT
BRANCH   1   2
ATOM      2  C   UNL     1      57.880  -4.263  30.532  1.00  0.00     0.000 C 
BRANCH   2   3
ATOM      3  C   UNL     1      58.628  -3.584  29.372  1.00  0.00     0.000 C 
BRANCH   3   4
ATOM      4  C   UNL     1      60.116  -3.335  29.680  1.00  0.00     0.000 C 
BRANCH   4   5
ATOM      5  C   UNL     1      60.638  -1.939  29.292  1.00  0.00     0.000 C 
BRANCH   5   6
ATOM      6  C   UNL     1      61.832  -1.993  28.324  1.00  0.00     0.006 C 
BRANCH   6   7
ATOM      7  C   UNL     1      62.185  -3.429  27.919  1.00  0.00     0.053 C 
BRANCH   7   8
ATOM      8  C   UNL     1      62.707  -3.496  26.516  1.00  0.00     0.041 C 
ATOM      9  O   UNL     1      63.095  -4.593  26.035  1.00  0.00    -0.550 OA
ATOM     10  O   UNL     1      62.799  -2.339  25.754  1.00  0.00    -0.550 OA
ENDBRANCH   7   8
ENDBRANCH   6   7
ENDBRANCH   5   6
ENDBRANCH   4   5
ENDBRANCH   3   4
ENDBRANCH   2   3
ENDBRANCH   1   2
BRANCH   1  11
ATOM     11  C   UNL     1      55.582  -4.285  31.656  1.00  0.00     0.000 C 
BRANCH  11  12
ATOM     12  C   UNL     1      54.646  -3.074  31.760  1.00  0.00    -0.000 C 
BRANCH  12  13
ATOM     13  C   UNL     1      55.007  -2.009  30.713  1.00  0.00    -0.000 C 
BRANCH  13  14
ATOM     14  C   UNL     1      55.622  -0.747  31.339  1.00  0.00    -0.000 C 
BRANCH  14  15
ATOM     15  C   UNL     1      57.143  -0.866  31.541  1.00  0.00    -0.000 C 
BRANCH  15  16
ATOM     16  C   UNL     1      57.918   0.234  30.785  1.00  0.00    -0.000 C 
BRANCH  16  17
ATOM     17  C   UNL     1      57.704   0.200  29.261  1.00  0.00    -0.003 C 
ATOM     18  C   UNL     1      57.105   1.493  28.713  1.00  0.00     0.004 C 
ENDBRANCH  16  17
ENDBRANCH  15  16
ENDBRANCH  14  15
ENDBRANCH  13  14
ENDBRANCH  12  13
ENDBRANCH  11  12
ENDBRANCH   1  11
TORSDOF 14
ENDMDL
MODEL 6
REMARK VINA RESULT:    -4.212      2.655      5.421
REMARK INTER + INTRA:          -9.687
REMARK INTER:                  -8.023
REMARK INTRA:                  -1.665
REMARK UNBOUND:                -2.028
REMARK SMILES CCCCCCCCCCCCCCCC(=O)[O-]
REMARK SMILES IDX 9 1 10 2 11 3 12 4 13 5 14 6 15 7 16 8 17 9 18 10 8 11 7 12
REMARK SMILES IDX 6 13 5 14 4 15 3 16 2 17 1 18
REMARK H PARENT
REMARK Flexibility Score: inf
ROOT
ATOM      1  C   UNL     1      57.323  -4.247  30.284  1.00  0.00     0.000 C 
ENDROOT
BRANCH   1   2
ATOM      2  C   UNL     1      56.754  -4.225  31.712  1.00  0.00     0.000 C 
BRANCH   2   3
ATOM      3  C   UNL     1      55.221  -4.351  31.739  1.00  0.00     0.000 C 
BRANCH   3   4
ATOM      4  C   UNL     1      54.515  -3.021  32.061  1.00  0.00     0.000 C 
BRANCH   4   5
ATOM      5  C   UNL     1      54.449  -2.018  30.894  1.00  0.00     0.000 C 
BRANCH   5   6
ATOM      6  C   UNL     1      55.451  -0.861  31.040  1.00  0.00     0.006 C 
BRANCH   6   7
ATOM      7  C   UNL     1      56.277  -0.646  29.765  1.00  0.00     0.053 C 
BRANCH   7   8
ATOM      8  C   UNL     1      57.082   0.616  29.835  1.00  0.00     0.041 C 
ATOM      9  O   UNL     1      57.841   0.831  30.817  1.00  0.00    -0.550 OA
ATOM     10  O   UNL     1      56.967   1.570  28.833  1.00  0.00    -0.550 OA
ENDBRANCH   7   8
ENDBRANCH   6   7
ENDBRANCH   5   6
ENDBRANCH   4   5
ENDBRANCH   3   4
ENDBRANCH   2   3
ENDBRANCH   1   2
BRANCH   1  11
ATOM     11  C   UNL     1      58.798  -3.823  30.227  1.00  0.00     0.000 C 
BRANCH  11  12
ATOM     12  C   UNL     1      59.066  -2.643  31.171  1.00  0.00    -0.000 C 
BRANCH  12  13
ATOM     13  C   UNL     1      60.157  -1.722  30.605  1.00  0.00    -0.000 C 
BRANCH  13  14
ATOM     14  C   UNL     1      60.063  -1.561  29.079  1.00  0.00    -0.000 C 
BRANCH  14  15
ATOM     15  C   UNL     1      61.426  -1.722  28.381  1.00  0.00    -0.000 C 
BRANCH  15  16
ATOM     16  C   UNL     1      61.624  -3.142  27.810  1.00  0.00    -0.000 C 
BRANCH  16  17
ATOM     17  C   UNL     1      62.944  -3.316  27.040  1.00  0.00    -0.003 C 
ATOM     18  C   UNL     1      62.749  -3.389  25.527  1.00  0.00     0.004 C 
ENDBRANCH  16  17
ENDBRANCH  15  16
ENDBRANCH  14  15
ENDBRANCH  13  14
ENDBRANCH  12  13
ENDBRANCH  11  12
ENDBRANCH   1  11
TORSDOF 14
ENDMDL
MODEL 7
REMARK VINA RESULT:    -4.090      1.373      3.482
REMARK INTER + INTRA:          -9.466
REMARK INTER:                  -7.713
REMARK INTRA:                  -1.753
REMARK UNBOUND:                -2.028
REMARK SMILES CCCCCCCCCCCCCCCC(=O)[O-]
REMARK SMILES IDX 9 1 10 2 11 3 12 4 13 5 14 6 15 7 16 8 17 9 18 10 8 11 7 12
REMARK SMILES IDX 6 13 5 14 4 15 3 16 2 17 1 18
REMARK H PARENT
REMARK Flexibility Score: inf
ROOT
ATOM      1  C   UNL     1      58.036  -3.484  31.935  1.00  0.00     0.000 C 
ENDROOT
BRANCH   1   2
ATOM      2  C   UNL     1      58.607  -2.070  31.735  1.00  0.00     0.000 C 
BRANCH   2   3
ATOM      3  C   UNL     1      59.900  -2.068  30.900  1.00  0.00     0.000 C 
BRANCH   3   4
ATOM      4  C   UNL     1      59.806  -1.172  29.652  1.00  0.00     0.000 C 
BRANCH   4   5
ATOM      5  C   UNL     1      60.761  -1.551  28.504  1.00  0.00     0.000 C 
BRANCH   5   6
ATOM      6  C   UNL     1      60.844  -3.068  28.268  1.00  0.00     0.006 C 
BRANCH   6   7
ATOM      7  C   UNL     1      62.293  -3.573  28.250  1.00  0.00     0.053 C 
BRANCH   7   8
ATOM      8  C   UNL     1      62.744  -3.904  26.860  1.00  0.00     0.041 C 
ATOM      9  O   UNL     1      63.203  -5.047  26.597  1.00  0.00    -0.550 OA
ATOM     10  O   UNL     1      62.693  -2.937  25.864  1.00  0.00    -0.550 OA
ENDBRANCH   7   8
ENDBRANCH   6   7
ENDBRANCH   5   6
ENDBRANCH   4   5
ENDBRANCH   3   4
ENDBRANCH   2   3
ENDBRANCH   1   2
BRANCH   1  11
ATOM     11  C   UNL     1      57.544  -4.115  30.624  1.00  0.00     0.000 C 
BRANCH  11  12
ATOM     12  C   UNL     1      56.058  -4.489  30.719  1.00  0.00    -0.000 C 
BRANCH  12  13
ATOM     13  C   UNL     1      55.442  -3.963  32.024  1.00  0.00    -0.000 C 
BRANCH  13  14
ATOM     14  C   UNL     1      54.139  -3.182  31.791  1.00  0.00    -0.000 C 
BRANCH  14  15
ATOM     15  C   UNL     1      54.389  -1.737  31.323  1.00  0.00    -0.000 C 
BRANCH  15  16
ATOM     16  C   UNL     1      53.667  -1.422  29.996  1.00  0.00    -0.000 C 
BRANCH  16  17
ATOM     17  C   UNL     1      54.620  -1.286  28.795  1.00  0.00    -0.003 C 
ATOM     18  C   UNL     1      56.061  -0.992  29.205  1.00  0.00     0.004 C 
ENDBRANCH  16  17
ENDBRANCH  15  16
ENDBRANCH  14  15
ENDBRANCH  13  14
ENDBRANCH  12  13
ENDBRANCH  11  12
ENDBRANCH   1  11
TORSDOF 14
ENDMDL
MODEL 8
REMARK VINA RESULT:    -3.917      3.308      6.252
REMARK INTER + INTRA:          -9.150
REMARK INTER:                  -7.337
REMARK INTRA:                  -1.813
REMARK UNBOUND:                -2.028
REMARK SMILES CCCCCCCCCCCCCCCC(=O)[O-]
REMARK SMILES IDX 9 1 10 2 11 3 12 4 13 5 14 6 15 7 16 8 17 9 18 10 8 11 7 12
REMARK SMILES IDX 6 13 5 14 4 15 3 16 2 17 1 18
REMARK H PARENT
REMARK Flexibility Score: inf
ROOT
ATOM      1  C   UNL     1      58.022  -2.375  32.113  1.00  0.00     0.000 C 
ENDROOT
BRANCH   1   2
ATOM      2  C   UNL     1      58.046  -0.841  32.017  1.00  0.00     0.000 C 
BRANCH   2   3
ATOM      3  C   UNL     1      58.962  -0.333  30.890  1.00  0.00     0.000 C 
BRANCH   3   4
ATOM      4  C   UNL     1      58.195  -0.006  29.595  1.00  0.00     0.000 C 
BRANCH   4   5
ATOM      5  C   UNL     1      56.673   0.156  29.762  1.00  0.00     0.000 C 
BRANCH   5   6
ATOM      6  C   UNL     1      55.866  -0.730  28.798  1.00  0.00     0.006 C 
BRANCH   6   7
ATOM      7  C   UNL     1      55.407  -2.036  29.459  1.00  0.00     0.053 C 
BRANCH   7   8
ATOM      8  C   UNL     1      54.322  -1.795  30.464  1.00  0.00     0.041 C 
ATOM      9  O   UNL     1      53.318  -1.099  30.158  1.00  0.00    -0.550 OA
ATOM     10  O   UNL     1      54.438  -2.309  31.749  1.00  0.00    -0.550 OA
ENDBRANCH   7   8
ENDBRANCH   6   7
ENDBRANCH   5   6
ENDBRANCH   4   5
ENDBRANCH   3   4
ENDBRANCH   2   3
ENDBRANCH   1   2
BRANCH   1  11
ATOM     11  C   UNL     1      59.166  -3.035  31.328  1.00  0.00     0.000 C 
BRANCH  11  12
ATOM     12  C   UNL     1      58.619  -3.879  30.169  1.00  0.00    -0.000 C 
BRANCH  12  13
ATOM     13  C   UNL     1      59.478  -3.704  28.908  1.00  0.00    -0.000 C 
BRANCH  13  14
ATOM     14  C   UNL     1      60.734  -2.856  29.160  1.00  0.00    -0.000 C 
BRANCH  14  15
ATOM     15  C   UNL     1      61.981  -3.417  28.452  1.00  0.00    -0.000 C 
BRANCH  15  16
ATOM     16  C   UNL     1      62.380  -2.574  27.222  1.00  0.00    -0.000 C 
BRANCH  16  17
ATOM     17  C   UNL     1      62.635  -3.414  25.958  1.00  0.00    -0.003 C 
ATOM     18  C   UNL     1      63.360  -4.726  26.248  1.00  0.00     0.004 C 
ENDBRANCH  16  17
ENDBRANCH  15  16
ENDBRANCH  14  15
ENDBRANCH  13  14
ENDBRANCH  12  13
ENDBRANCH  11  12
ENDBRANCH   1  11
TORSDOF 14
ENDMDL
MODEL 9
REMARK VINA RESULT:    -3.824      1.468      3.782
REMARK INTER + INTRA:          -8.981
REMARK INTER:                  -7.161
REMARK INTRA:                  -1.820
REMARK UNBOUND:                -2.028
REMARK SMILES CCCCCCCCCCCCCCCC(=O)[O-]
REMARK SMILES IDX 9 1 10 2 11 3 12 4 13 5 14 6 15 7 16 8 17 9 18 10 8 11 7 12
REMARK SMILES IDX 6 13 5 14 4 15 3 16 2 17 1 18
REMARK H PARENT
REMARK Flexibility Score: inf
ROOT
ATOM      1  C   UNL     1      58.989  -1.185  31.836  1.00  0.00     0.000 C 
ENDROOT
BRANCH   1   2
ATOM      2  C   UNL     1      60.227  -1.664  31.060  1.00  0.00     0.000 C 
BRANCH   2   3
ATOM      3  C   UNL     1      60.136  -3.147  30.661  1.00  0.00     0.000 C 
BRANCH   3   4
ATOM      4  C   UNL     1      60.194  -3.364  29.139  1.00  0.00     0.000 C 
BRANCH   4   5
ATOM      5  C   UNL     1      60.892  -2.243  28.346  1.00  0.00     0.000 C 
BRANCH   5   6
ATOM      6  C   UNL     1      62.290  -2.644  27.845  1.00  0.00     0.006 C 
BRANCH   6   7
ATOM      7  C   UNL     1      62.476  -4.166  27.802  1.00  0.00     0.053 C 
BRANCH   7   8
ATOM      8  C   UNL     1      63.119  -4.608  26.523  1.00  0.00     0.041 C 
ATOM      9  O   UNL     1      63.800  -5.667  26.488  1.00  0.00    -0.550 OA
ATOM     10  O   UNL     1      62.996  -3.831  25.378  1.00  0.00    -0.550 OA
ENDBRANCH   7   8
ENDBRANCH   6   7
ENDBRANCH   5   6
ENDBRANCH   4   5
ENDBRANCH   3   4
ENDBRANCH   2   3
ENDBRANCH   1   2
BRANCH   1  11
ATOM     11  C   UNL     1      58.326   0.043  31.194  1.00  0.00     0.000 C 
BRANCH  11  12
ATOM     12  C   UNL     1      58.314  -0.077  29.664  1.00  0.00    -0.000 C 
BRANCH  12  13
ATOM     13  C   UNL     1      56.881  -0.244  29.137  1.00  0.00    -0.000 C 
BRANCH  13  14
ATOM     14  C   UNL     1      55.874  -0.566  30.251  1.00  0.00    -0.000 C 
BRANCH  14  15
ATOM     15  C   UNL     1      55.216  -1.947  30.075  1.00  0.00    -0.000 C 
BRANCH  15  16
ATOM     16  C   UNL     1      55.055  -2.690  31.418  1.00  0.00    -0.000 C 
BRANCH  16  17
ATOM     17  C   UNL     1      56.285  -3.531  31.806  1.00  0.00    -0.003 C 
ATOM     18  C   UNL     1      56.754  -4.456  30.687  1.00  0.00     0.004 C 
ENDBRANCH  16  17
ENDBRANCH  15  16
ENDBRANCH  14  15
ENDBRANCH  13  14
ENDBRANCH  12  13
ENDBRANCH  11  12
ENDBRANCH   1  11
TORSDOF 14
ENDMDL
