MODEL 1
REMARK VINA RESULT:    -4.024      0.000      0.000
REMARK INTER + INTRA:          -6.383
REMARK INTER:                  -5.906
REMARK INTRA:                  -0.477
REMARK UNBOUND:                -0.477
REMARK SMILES C=C1C=C[C@@H](C(C)C)CCC(C)=CCC1
REMARK SMILES IDX 3 1 4 2 5 3 9 4 10 5 11 6 12 7 13 8 6 10 7 11 8 12 2 13 1 14
REMARK SMILES IDX 15 15 14 16
REMARK H PARENT
REMARK Flexibility Score: 70.00
ROOT
ATOM      1  C   UNL     1      10.302   5.003  28.357  1.00  0.00    -0.001 C 
ATOM      2  C   UNL     1       9.472   6.022  28.072  1.00  0.00    -0.023 C 
ENDROOT
BRANCH   2   3
ATOM      3  C   UNL     1       9.641   7.509  28.353  1.00  0.00     0.014 C 
BRANCH   3   4
ATOM      4  C   UNL     1      10.606   8.256  27.395  1.00  0.00     0.012 C 
BRANCH   4   5
ATOM      5  C   UNL     1      10.898   7.584  26.044  1.00  0.00     0.031 C 
BRANCH   5   6
ATOM      6  C   UNL     1      12.390   7.566  25.792  1.00  0.00    -0.077 C 
ATOM      7  C   UNL     1      13.027   8.761  25.132  1.00  0.00     0.039 C 
ATOM      8  C   UNL     1      13.157   6.483  26.048  1.00  0.00    -0.028 CG0
ATOM      9  G   UNL     1      12.679   5.236  26.752  1.00  0.00     0.000 G0
ENDBRANCH   5   6
ENDBRANCH   4   5
ENDBRANCH   3   4
BRANCH   3  10
ATOM     10  C   UNL     1       9.708   7.898  29.871  1.00  0.00    -0.010 C 
ATOM     11  C   UNL     1       8.621   7.254  30.747  1.00  0.00     0.008 C 
ATOM     12  C   UNL     1       9.639   9.426  30.047  1.00  0.00     0.008 C 
ENDBRANCH   3  10
ENDBRANCH   2   3
BRANCH   1  13
ATOM     13  C   UNL     1      11.588   5.073  29.077  1.00  0.00    -0.055 C 
ATOM     14  C   UNL     1      11.632   4.536  30.302  1.00  0.00     0.012 C 
BRANCH  13  15
ATOM     15  C   UNL     1      12.867   5.255  28.285  1.00  0.00     0.039 C 
BRANCH  15  16
ATOM     16  C   UNL     1      12.681   5.224  26.747  1.00  0.00     0.032 CG0
ATOM     17  G   UNL     1      13.162   6.477  26.055  1.00  0.00     0.000 G0
ENDBRANCH  15  16
ENDBRANCH  13  15
ENDBRANCH   1  13
TORSDOF 1
ENDMDL
MODEL 2
REMARK VINA RESULT:    -3.919      2.222      4.409
REMARK INTER + INTRA:          -6.229
REMARK INTER:                  -5.911
REMARK INTRA:                  -0.319
REMARK UNBOUND:                -0.477
REMARK SMILES C=C1C=C[C@@H](C(C)C)CCC(C)=CCC1
REMARK SMILES IDX 3 1 4 2 5 3 9 4 10 5 11 6 12 7 13 8 6 10 7 11 8 12 2 13 1 14
REMARK SMILES IDX 15 15 14 16
REMARK H PARENT
REMARK Flexibility Score: 70.00
ROOT
ATOM      1  C   UNL     1      10.409   4.368  28.685  1.00  0.00    -0.001 C 
ATOM      2  C   UNL     1      10.580   5.131  27.590  1.00  0.00    -0.023 C 
ENDROOT
BRANCH   2   3
ATOM      3  C   UNL     1      11.496   6.330  27.386  1.00  0.00     0.014 C 
BRANCH   3   4
ATOM      4  C   UNL     1      10.840   7.712  27.644  1.00  0.00     0.012 C 
BRANCH   4   5
ATOM      5  C   UNL     1       9.378   7.707  28.119  1.00  0.00     0.031 C 
BRANCH   5   6
ATOM      6  C   UNL     1       9.291   8.290  29.514  1.00  0.00    -0.077 C 
ATOM      7  C   UNL     1       9.410   9.782  29.683  1.00  0.00     0.039 C 
ATOM      8  C   UNL     1       9.207   7.518  30.620  1.00  0.00    -0.028 CG0
ATOM      9  G   UNL     1       9.028   6.019  30.612  1.00  0.00     0.000 G0
ENDBRANCH   5   6
ENDBRANCH   4   5
ENDBRANCH   3   4
BRANCH   3  10
ATOM     10  C   UNL     1      12.469   6.225  26.161  1.00  0.00    -0.010 C 
ATOM     11  C   UNL     1      13.470   5.060  26.234  1.00  0.00     0.008 C 
ATOM     12  C   UNL     1      13.255   7.536  25.974  1.00  0.00     0.008 C 
ENDBRANCH   3  10
ENDBRANCH   2   3
BRANCH   1  13
ATOM     13  C   UNL     1      11.040   4.546  30.006  1.00  0.00    -0.055 C 
ATOM     14  C   UNL     1      12.377   4.512  30.054  1.00  0.00     0.012 C 
BRANCH  13  15
ATOM     15  C   UNL     1      10.262   5.239  31.107  1.00  0.00     0.039 C 
BRANCH  15  16
ATOM     16  C   UNL     1       9.017   6.022  30.619  1.00  0.00     0.032 CG0
ATOM     17  G   UNL     1       9.202   7.521  30.633  1.00  0.00     0.000 G0
ENDBRANCH  15  16
ENDBRANCH  13  15
ENDBRANCH   1  13
TORSDOF 1
ENDMDL
MODEL 3
REMARK VINA RESULT:    -3.832      3.278      5.829
REMARK INTER + INTRA:          -6.101
REMARK INTER:                  -5.637
REMARK INTRA:                  -0.464
REMARK UNBOUND:                -0.477
REMARK SMILES C=C1C=C[C@@H](C(C)C)CCC(C)=CCC1
REMARK SMILES IDX 3 1 4 2 5 3 9 4 10 5 11 6 12 7 13 8 6 10 7 11 8 12 2 13 1 14
REMARK SMILES IDX 15 15 14 16
REMARK H PARENT
REMARK Flexibility Score: 70.00
ROOT
ATOM      1  C   UNL     1      13.586   6.513  25.100  1.00  0.00    -0.001 C 
ATOM      2  C   UNL     1      14.562   7.268  24.566  1.00  0.00    -0.023 C 
ENDROOT
BRANCH   2   3
ATOM      3  C   UNL     1      14.639   8.782  24.424  1.00  0.00     0.014 C 
BRANCH   3   4
ATOM      4  C   UNL     1      14.342   9.327  23.002  1.00  0.00     0.012 C 
BRANCH   4   5
ATOM      5  C   UNL     1      13.817   8.318  21.969  1.00  0.00     0.031 C 
BRANCH   5   6
ATOM      6  C   UNL     1      12.377   8.634  21.628  1.00  0.00    -0.077 C 
ATOM      7  C   UNL     1      12.093   9.737  20.642  1.00  0.00     0.039 C 
ATOM      8  C   UNL     1      11.335   8.033  22.244  1.00  0.00    -0.028 CG0
ATOM      9  G   UNL     1      11.456   6.879  23.210  1.00  0.00     0.000 G0
ENDBRANCH   5   6
ENDBRANCH   4   5
ENDBRANCH   3   4
BRANCH   3  10
ATOM     10  C   UNL     1      15.806   9.468  25.216  1.00  0.00    -0.010 C 
ATOM     11  C   UNL     1      16.938  10.025  24.336  1.00  0.00     0.008 C 
ATOM     12  C   UNL     1      16.415   8.496  26.243  1.00  0.00     0.008 C 
ENDBRANCH   3  10
ENDBRANCH   2   3
BRANCH   1  13
ATOM     13  C   UNL     1      12.294   6.974  25.642  1.00  0.00    -0.055 C 
ATOM     14  C   UNL     1      12.306   7.540  26.854  1.00  0.00     0.012 C 
BRANCH  13  15
ATOM     15  C   UNL     1      11.155   7.264  24.684  1.00  0.00     0.039 C 
BRANCH  15  16
ATOM     16  C   UNL     1      11.437   6.869  23.212  1.00  0.00     0.032 CG0
ATOM     17  G   UNL     1      11.337   8.025  22.246  1.00  0.00     0.000 G0
ENDBRANCH  15  16
ENDBRANCH  13  15
ENDBRANCH   1  13
TORSDOF 1
ENDMDL
MODEL 4
REMARK VINA RESULT:    -3.815      0.900      3.359
REMARK INTER + INTRA:          -6.077
REMARK INTER:                  -5.752
REMARK INTRA:                  -0.325
REMARK UNBOUND:                -0.477
REMARK SMILES C=C1C=C[C@@H](C(C)C)CCC(C)=CCC1
REMARK SMILES IDX 3 1 4 2 5 3 9 4 10 5 11 6 12 7 13 8 6 10 7 11 8 12 2 13 1 14
REMARK SMILES IDX 15 15 14 16
REMARK H PARENT
REMARK Flexibility Score: 70.00
ROOT
ATOM      1  C   UNL     1      11.309   8.606  26.288  1.00  0.00    -0.001 C 
ATOM      2  C   UNL     1      10.384   8.672  27.263  1.00  0.00    -0.023 C 
ENDROOT
BRANCH   2   3
ATOM      3  C   UNL     1      10.015   7.632  28.312  1.00  0.00     0.014 C 
BRANCH   3   4
ATOM      4  C   UNL     1       9.067   6.506  27.820  1.00  0.00     0.012 C 
BRANCH   4   5
ATOM      5  C   UNL     1       9.713   5.150  27.494  1.00  0.00     0.031 C 
BRANCH   5   6
ATOM      6  C   UNL     1      10.679   4.765  28.595  1.00  0.00    -0.077 C 
ATOM      7  C   UNL     1      10.123   4.312  29.919  1.00  0.00     0.039 C 
ATOM      8  C   UNL     1      12.017   4.902  28.468  1.00  0.00    -0.028 CG0
ATOM      9  G   UNL     1      12.726   5.290  27.192  1.00  0.00     0.000 G0
ENDBRANCH   5   6
ENDBRANCH   4   5
ENDBRANCH   3   4
BRANCH   3  10
ATOM     10  C   UNL     1       9.755   8.198  29.751  1.00  0.00    -0.010 C 
ATOM     11  C   UNL     1       8.626   7.495  30.523  1.00  0.00     0.008 C 
ATOM     12  C   UNL     1       9.448   9.706  29.697  1.00  0.00     0.008 C 
ENDBRANCH   3  10
ENDBRANCH   2   3
BRANCH   1  13
ATOM     13  C   UNL     1      12.174   7.460  25.954  1.00  0.00    -0.055 C 
ATOM     14  C   UNL     1      12.554   7.331  24.678  1.00  0.00     0.012 C 
BRANCH  13  15
ATOM     15  C   UNL     1      12.988   6.806  27.054  1.00  0.00     0.039 C 
BRANCH  15  16
ATOM     16  C   UNL     1      12.765   5.279  27.197  1.00  0.00     0.032 CG0
ATOM     17  G   UNL     1      12.023   4.893  28.455  1.00  0.00     0.000 G0
ENDBRANCH  15  16
ENDBRANCH  13  15
ENDBRANCH   1  13
TORSDOF 1
ENDMDL
MODEL 5
REMARK VINA RESULT:    -3.737      3.728      6.807
REMARK INTER + INTRA:          -5.961
REMARK INTER:                  -5.487
REMARK INTRA:                  -0.475
REMARK UNBOUND:                -0.477
REMARK SMILES C=C1C=C[C@@H](C(C)C)CCC(C)=CCC1
REMARK SMILES IDX 3 1 4 2 5 3 9 4 10 5 11 6 12 7 13 8 6 10 7 11 8 12 2 13 1 14
REMARK SMILES IDX 15 15 14 16
REMARK H PARENT
REMARK Flexibility Score: 70.00
ROOT
ATOM      1  C   UNL     1      13.746   9.910  21.346  1.00  0.00    -0.001 C 
ATOM      2  C   UNL     1      14.692   9.934  22.301  1.00  0.00    -0.023 C 
ENDROOT
BRANCH   2   3
ATOM      3  C   UNL     1      14.718   9.228  23.650  1.00  0.00     0.014 C 
BRANCH   3   4
ATOM      4  C   UNL     1      13.787   9.837  24.731  1.00  0.00     0.012 C 
BRANCH   4   5
ATOM      5  C   UNL     1      12.404   9.188  24.900  1.00  0.00     0.031 C 
BRANCH   5   6
ATOM      6  C   UNL     1      12.553   7.686  25.015  1.00  0.00    -0.077 C 
ATOM      7  C   UNL     1      13.211   7.116  26.244  1.00  0.00     0.039 C 
ATOM      8  C   UNL     1      12.205   6.843  24.017  1.00  0.00    -0.028 CG0
ATOM      9  G   UNL     1      11.489   7.254  22.753  1.00  0.00     0.000 G0
ENDBRANCH   5   6
ENDBRANCH   4   5
ENDBRANCH   3   4
BRANCH   3  10
ATOM     10  C   UNL     1      16.132   8.744  24.123  1.00  0.00    -0.010 C 
ATOM     11  C   UNL     1      16.364   7.228  24.009  1.00  0.00     0.008 C 
ATOM     12  C   UNL     1      16.398   9.173  25.578  1.00  0.00     0.008 C 
ENDBRANCH   3  10
ENDBRANCH   2   3
BRANCH   1  13
ATOM     13  C   UNL     1      12.443   9.220  21.396  1.00  0.00    -0.055 C 
ATOM     14  C   UNL     1      11.401   9.838  20.829  1.00  0.00     0.012 C 
BRANCH  13  15
ATOM     15  C   UNL     1      12.413   7.718  21.597  1.00  0.00     0.039 C 
BRANCH  15  16
ATOM     16  C   UNL     1      11.472   7.240  22.732  1.00  0.00     0.032 CG0
ATOM     17  G   UNL     1      12.199   6.859  23.999  1.00  0.00     0.000 G0
ENDBRANCH  15  16
ENDBRANCH  13  15
ENDBRANCH   1  13
TORSDOF 1
ENDMDL
MODEL 6
REMARK VINA RESULT:    -3.672     12.898     14.556
REMARK INTER + INTRA:          -5.867
REMARK INTER:                  -5.466
REMARK INTRA:                  -0.401
REMARK UNBOUND:                -0.477
REMARK SMILES C=C1C=C[C@@H](C(C)C)CCC(C)=CCC1
REMARK SMILES IDX 3 1 4 2 5 3 9 4 10 5 11 6 12 7 13 8 6 10 7 11 8 12 2 13 1 14
REMARK SMILES IDX 15 15 14 16
REMARK H PARENT
REMARK Flexibility Score: 70.00
ROOT
ATOM      1  C   UNL     1       4.600   6.387  15.451  1.00  0.00    -0.001 C 
ATOM      2  C   UNL     1       5.540   7.049  16.151  1.00  0.00    -0.023 C 
ENDROOT
BRANCH   2   3
ATOM      3  C   UNL     1       5.949   8.513  16.067  1.00  0.00     0.014 C 
BRANCH   3   4
ATOM      4  C   UNL     1       6.957   8.853  14.937  1.00  0.00     0.012 C 
BRANCH   4   5
ATOM      5  C   UNL     1       7.751   7.680  14.341  1.00  0.00     0.031 C 
BRANCH   5   6
ATOM      6  C   UNL     1       7.647   7.705  12.831  1.00  0.00    -0.077 C 
ATOM      7  C   UNL     1       8.620   8.551  12.053  1.00  0.00     0.039 C 
ATOM      8  C   UNL     1       6.657   7.075  12.160  1.00  0.00    -0.028 CG0
ATOM      9  G   UNL     1       5.643   6.151  12.790  1.00  0.00     0.000 G0
ENDBRANCH   5   6
ENDBRANCH   4   5
ENDBRANCH   3   4
BRANCH   3  10
ATOM     10  C   UNL     1       6.167   9.225  17.447  1.00  0.00    -0.010 C 
ATOM     11  C   UNL     1       6.610   8.294  18.587  1.00  0.00     0.008 C 
ATOM     12  C   UNL     1       4.890   9.966  17.887  1.00  0.00     0.008 C 
ENDBRANCH   3  10
ENDBRANCH   2   3
BRANCH   1  13
ATOM     13  C   UNL     1       3.755   6.919  14.366  1.00  0.00    -0.055 C 
ATOM     14  C   UNL     1       2.859   7.857  14.693  1.00  0.00     0.012 C 
BRANCH  13  15
ATOM     15  C   UNL     1       4.233   6.797  12.932  1.00  0.00     0.039 C 
BRANCH  15  16
ATOM     16  C   UNL     1       5.631   6.148  12.775  1.00  0.00     0.032 CG0
ATOM     17  G   UNL     1       6.659   7.069  12.162  1.00  0.00     0.000 G0
ENDBRANCH  15  16
ENDBRANCH  13  15
ENDBRANCH   1  13
TORSDOF 1
ENDMDL
MODEL 7
REMARK VINA RESULT:    -3.590     11.204     12.739
REMARK INTER + INTRA:          -5.746
REMARK INTER:                  -5.263
REMARK INTRA:                  -0.483
REMARK UNBOUND:                -0.477
REMARK SMILES C=C1C=C[C@@H](C(C)C)CCC(C)=CCC1
REMARK SMILES IDX 3 1 4 2 5 3 9 4 10 5 11 6 12 7 13 8 6 10 7 11 8 12 2 13 1 14
REMARK SMILES IDX 15 15 14 16
REMARK H PARENT
REMARK Flexibility Score: 70.00
ROOT
ATOM      1  C   UNL     1       4.585   9.893  19.218  1.00  0.00    -0.001 C 
ATOM      2  C   UNL     1       3.846  10.125  18.119  1.00  0.00    -0.023 C 
ENDROOT
BRANCH   2   3
ATOM      3  C   UNL     1       2.940   9.173  17.350  1.00  0.00     0.014 C 
BRANCH   3   4
ATOM      4  C   UNL     1       3.493   8.696  15.981  1.00  0.00     0.012 C 
BRANCH   4   5
ATOM      5  C   UNL     1       4.984   8.949  15.711  1.00  0.00     0.031 C 
BRANCH   5   6
ATOM      6  C   UNL     1       5.748   7.645  15.790  1.00  0.00    -0.077 C 
ATOM      7  C   UNL     1       5.723   6.718  14.604  1.00  0.00     0.039 C 
ATOM      8  C   UNL     1       6.372   7.235  16.917  1.00  0.00    -0.028 CG0
ATOM      9  G   UNL     1       6.530   8.070  18.166  1.00  0.00     0.000 G0
ENDBRANCH   5   6
ENDBRANCH   4   5
ENDBRANCH   3   4
BRANCH   3  10
ATOM     10  C   UNL     1       1.409   9.509  17.417  1.00  0.00    -0.010 C 
ATOM     11  C   UNL     1       0.608   8.656  18.415  1.00  0.00     0.008 C 
ATOM     12  C   UNL     1       0.759   9.379  16.027  1.00  0.00     0.008 C 
ENDBRANCH   3  10
ENDBRANCH   2   3
BRANCH   1  13
ATOM     13  C   UNL     1       4.746   8.613  19.934  1.00  0.00    -0.055 C 
ATOM     14  C   UNL     1       3.765   8.253  20.769  1.00  0.00     0.012 C 
BRANCH  13  15
ATOM     15  C   UNL     1       5.677   7.562  19.363  1.00  0.00     0.039 C 
BRANCH  15  16
ATOM     16  C   UNL     1       6.544   8.049  18.175  1.00  0.00     0.032 CG0
ATOM     17  G   UNL     1       6.371   7.224  16.922  1.00  0.00     0.000 G0
ENDBRANCH  15  16
ENDBRANCH  13  15
ENDBRANCH   1  13
TORSDOF 1
ENDMDL
MODEL 8
REMARK VINA RESULT:    -3.586      2.796      5.288
REMARK INTER + INTRA:          -5.740
REMARK INTER:                  -5.238
REMARK INTRA:                  -0.502
REMARK UNBOUND:                -0.477
REMARK SMILES C=C1C=C[C@@H](C(C)C)CCC(C)=CCC1
REMARK SMILES IDX 3 1 4 2 5 3 9 4 10 5 11 6 12 7 13 8 6 10 7 11 8 12 2 13 1 14
REMARK SMILES IDX 15 15 14 16
REMARK H PARENT
REMARK Flexibility Score: 70.00
ROOT
ATOM      1  C   UNL     1      11.636   7.266  23.342  1.00  0.00    -0.001 C 
ATOM      2  C   UNL     1      12.309   6.794  24.407  1.00  0.00    -0.023 C 
ENDROOT
BRANCH   2   3
ATOM      3  C   UNL     1      12.767   7.529  25.659  1.00  0.00     0.014 C 
BRANCH   3   4
ATOM      4  C   UNL     1      14.278   7.881  25.703  1.00  0.00     0.012 C 
BRANCH   4   5
ATOM      5  C   UNL     1      15.073   7.680  24.404  1.00  0.00     0.031 C 
BRANCH   5   6
ATOM      6  C   UNL     1      15.453   9.025  23.823  1.00  0.00    -0.077 C 
ATOM      7  C   UNL     1      16.624   9.765  24.416  1.00  0.00     0.039 C 
ATOM      8  C   UNL     1      14.727   9.631  22.858  1.00  0.00    -0.028 CG0
ATOM      9  G   UNL     1      13.565   8.999  22.130  1.00  0.00     0.000 G0
ENDBRANCH   5   6
ENDBRANCH   4   5
ENDBRANCH   3   4
BRANCH   3  10
ATOM     10  C   UNL     1      12.116   7.034  26.998  1.00  0.00    -0.010 C 
ATOM     11  C   UNL     1      11.720   5.548  27.009  1.00  0.00     0.008 C 
ATOM     12  C   UNL     1      10.875   7.876  27.345  1.00  0.00     0.008 C 
ENDBRANCH   3  10
ENDBRANCH   2   3
BRANCH   1  13
ATOM     13  C   UNL     1      11.215   8.658  23.098  1.00  0.00    -0.055 C 
ATOM     14  C   UNL     1      10.173   9.115  23.802  1.00  0.00     0.012 C 
BRANCH  13  15
ATOM     15  C   UNL     1      12.209   9.635  22.500  1.00  0.00     0.039 C 
BRANCH  15  16
ATOM     16  C   UNL     1      13.575   9.009  22.121  1.00  0.00     0.032 CG0
ATOM     17  G   UNL     1      14.744   9.618  22.859  1.00  0.00     0.000 G0
ENDBRANCH  15  16
ENDBRANCH  13  15
ENDBRANCH   1  13
TORSDOF 1
ENDMDL
MODEL 9
REMARK VINA RESULT:    -3.558     11.677     13.666
REMARK INTER + INTRA:          -5.699
REMARK INTER:                  -5.144
REMARK INTRA:                  -0.555
REMARK UNBOUND:                -0.477
REMARK SMILES C=C1C=C[C@@H](C(C)C)CCC(C)=CCC1
REMARK SMILES IDX 3 1 4 2 5 3 9 4 10 5 11 6 12 7 13 8 6 10 7 11 8 12 2 13 1 14
REMARK SMILES IDX 15 15 14 16
REMARK H PARENT
REMARK Flexibility Score: 70.00
ROOT
ATOM      1  C   UNL     1       5.525   9.541  17.736  1.00  0.00    -0.001 C 
ATOM      2  C   UNL     1       5.014   9.585  16.493  1.00  0.00    -0.023 C 
ENDROOT
BRANCH   2   3
ATOM      3  C   UNL     1       4.127   8.573  15.780  1.00  0.00     0.014 C 
BRANCH   3   4
ATOM      4  C   UNL     1       2.662   8.509  16.287  1.00  0.00     0.012 C 
BRANCH   4   5
ATOM      5  C   UNL     1       2.108   9.771  16.967  1.00  0.00     0.031 C 
BRANCH   5   6
ATOM      6  C   UNL     1       1.400   9.393  18.250  1.00  0.00    -0.077 C 
ATOM      7  C   UNL     1      -0.049   8.987  18.185  1.00  0.00     0.039 C 
ATOM      8  C   UNL     1       1.988   9.497  19.463  1.00  0.00    -0.028 CG0
ATOM      9  G   UNL     1       3.442   9.838  19.688  1.00  0.00     0.000 G0
ENDBRANCH   5   6
ENDBRANCH   4   5
ENDBRANCH   3   4
BRANCH   3  10
ATOM     10  C   UNL     1       4.816   7.209  15.432  1.00  0.00    -0.010 C 
ATOM     11  C   UNL     1       4.888   6.891  13.929  1.00  0.00     0.008 C 
ATOM     12  C   UNL     1       4.112   6.041  16.147  1.00  0.00     0.008 C 
ENDBRANCH   3  10
ENDBRANCH   2   3
BRANCH   1  13
ATOM     13  C   UNL     1       5.391   8.449  18.719  1.00  0.00    -0.055 C 
ATOM     14  C   UNL     1       6.445   7.641  18.883  1.00  0.00     0.012 C 
BRANCH  13  15
ATOM     15  C   UNL     1       4.354   8.570  19.818  1.00  0.00     0.039 C 
BRANCH  15  16
ATOM     16  C   UNL     1       3.445   9.821  19.709  1.00  0.00     0.032 CG0
ATOM     17  G   UNL     1       1.992   9.492  19.465  1.00  0.00     0.000 G0
ENDBRANCH  15  16
ENDBRANCH  13  15
ENDBRANCH   1  13
TORSDOF 1
ENDMDL
