MODEL 1
REMARK VINA RESULT:    11.800      0.000      0.000
REMARK INTER + INTRA:          14.535
REMARK INTER:                  14.214
REMARK INTRA:                   0.320
REMARK UNBOUND:                 0.320
REMARK SMILES O=c1c(O)c(-c2ccc(O)c(O)c2)oc2cc(O)cc(O)c12
REMARK SMILES IDX 5 1 3 2 2 3 1 4 22 5 20 6 19 7 17 8 16 9 15 10 14 11 6 12
REMARK SMILES IDX 7 13 8 14 9 15 13 16 11 17 10 18 12 20 4 22 21 24 18 26
REMARK H PARENT 10 19 12 21 4 23 21 25 18 27
REMARK Flexibility Score: inf
ROOT
ATOM      1  C   UNL     1     -35.133 -29.578 -11.497  1.00  0.00     0.180 A 
ATOM      2  C   UNL     1     -35.682 -29.472 -12.786  1.00  0.00     0.208 A 
ATOM      3  C   UNL     1     -37.078 -29.464 -12.934  1.00  0.00     0.238 A 
ATOM      4  O   UNL     1     -37.563 -29.424 -14.095  1.00  0.00    -0.285 OA
ATOM      5  C   UNL     1     -37.908 -29.547 -11.790  1.00  0.00     0.111 A 
ATOM      6  C   UNL     1     -39.334 -29.507 -11.819  1.00  0.00     0.134 A 
ATOM      7  C   UNL     1     -40.055 -29.728 -10.639  1.00  0.00     0.093 A 
ATOM      8  C   UNL     1     -39.400 -29.922  -9.420  1.00  0.00     0.123 A 
ATOM      9  C   UNL     1     -38.008 -29.903  -9.372  1.00  0.00     0.094 A 
ATOM     10  C   UNL     1     -37.261 -29.721 -10.539  1.00  0.00     0.146 A 
ATOM     11  O   UNL     1     -35.937 -29.720 -10.449  1.00  0.00    -0.452 OA
ENDROOT
BRANCH   1  12
ATOM     12  C   UNL     1     -33.671 -29.568 -11.260  1.00  0.00     0.025 A 
ATOM     13  C   UNL     1     -32.810 -30.105 -12.231  1.00  0.00     0.016 A 
ATOM     14  C   UNL     1     -31.429 -30.125 -12.019  1.00  0.00     0.051 A 
ATOM     15  C   UNL     1     -30.889 -29.625 -10.831  1.00  0.00     0.157 A 
ATOM     16  C   UNL     1     -33.127 -29.085 -10.057  1.00  0.00     0.062 A 
ATOM     17  C   UNL     1     -31.741 -29.106  -9.842  1.00  0.00     0.158 A 
BRANCH  15  18
ATOM     18  O   UNL     1     -29.506 -29.657 -10.649  1.00  0.00    -0.504 OA
ATOM     19  H   UNL     1     -29.017 -28.947 -10.117  1.00  0.00     0.293 HD
ENDBRANCH  15  18
BRANCH  17  20
ATOM     20  O   UNL     1     -31.210 -28.620  -8.648  1.00  0.00    -0.504 OA
ATOM     21  H   UNL     1     -31.761 -28.581  -7.798  1.00  0.00     0.293 HD
ENDBRANCH  17  20
ENDBRANCH   1  12
BRANCH   2  22
ATOM     22  O   UNL     1     -34.844 -29.414 -13.904  1.00  0.00    -0.502 OA
ATOM     23  H   UNL     1     -33.834 -29.460 -13.830  1.00  0.00     0.293 HD
ENDBRANCH   2  22
BRANCH   6  24
ATOM     24  O   UNL     1     -40.084 -29.229 -12.965  1.00  0.00    -0.507 OA
ATOM     25  H   UNL     1     -40.529 -29.926 -13.543  1.00  0.00     0.293 HD
ENDBRANCH   6  24
BRANCH   8  26
ATOM     26  O   UNL     1     -40.125 -30.125  -8.248  1.00  0.00    -0.508 OA
ATOM     27  H   UNL     1     -41.067 -30.497  -8.266  1.00  0.00     0.293 HD
ENDBRANCH   8  26
TORSDOF 6
ENDMDL
