MODEL 1
REMARK VINA RESULT:    -4.286      0.000      0.000
REMARK INTER + INTRA:          -6.942
REMARK INTER:                  -6.541
REMARK INTRA:                  -0.401
REMARK UNBOUND:                -0.401
REMARK SMILES O=C([O-])CCCCCCCCC(=O)[O-]
REMARK SMILES IDX 7 1 6 2 5 3 4 4 2 5 1 6 3 7 8 8 9 9 10 10 11 11 12 12 13 13
REMARK SMILES IDX 14 14
REMARK H PARENT
REMARK Flexibility Score: inf
ROOT
ATOM      1  C   UNL     1      -5.293  -2.143   3.228  1.00  0.00     0.000 C 
ENDROOT
BRANCH   1   2
ATOM      2  C   UNL     1      -4.852  -2.800   1.911  1.00  0.00     0.000 C 
BRANCH   2   3
ATOM      3  C   UNL     1      -5.215  -4.293   1.844  1.00  0.00     0.006 C 
BRANCH   3   4
ATOM      4  C   UNL     1      -4.659  -4.969   0.583  1.00  0.00     0.053 C 
BRANCH   4   5
ATOM      5  C   UNL     1      -5.710  -5.127  -0.472  1.00  0.00     0.041 C 
ATOM      6  O   UNL     1      -5.462  -5.775  -1.523  1.00  0.00    -0.550 OA
ATOM      7  O   UNL     1      -6.973  -4.582  -0.282  1.00  0.00    -0.550 OA
ENDBRANCH   4   5
ENDBRANCH   3   4
ENDBRANCH   2   3
ENDBRANCH   1   2
BRANCH   1   8
ATOM      8  C   UNL     1      -5.064  -3.046   4.449  1.00  0.00     0.000 C 
BRANCH   8   9
ATOM      9  C   UNL     1      -4.238  -2.319   5.521  1.00  0.00     0.000 C 
BRANCH   9  10
ATOM     10  C   UNL     1      -3.521  -1.075   4.975  1.00  0.00     0.006 C 
BRANCH  10  11
ATOM     11  C   UNL     1      -2.559  -0.451   5.994  1.00  0.00     0.053 C 
BRANCH  11  12
ATOM     12  C   UNL     1      -1.539   0.395   5.300  1.00  0.00     0.041 C 
ATOM     13  O   UNL     1      -1.829   1.562   4.929  1.00  0.00    -0.550 OA
ATOM     14  O   UNL     1      -0.281  -0.125   5.018  1.00  0.00    -0.550 OA
ENDBRANCH  11  12
ENDBRANCH  10  11
ENDBRANCH   9  10
ENDBRANCH   8   9
ENDBRANCH   1   8
TORSDOF 9
ENDMDL
MODEL 2
REMARK VINA RESULT:    -4.225      0.710      1.488
REMARK INTER + INTRA:          -6.849
REMARK INTER:                  -6.354
REMARK INTRA:                  -0.494
REMARK UNBOUND:                -0.401
REMARK SMILES O=C([O-])CCCCCCCCC(=O)[O-]
REMARK SMILES IDX 7 1 6 2 5 3 4 4 2 5 1 6 3 7 8 8 9 9 10 10 11 11 12 12 13 13
REMARK SMILES IDX 14 14
REMARK H PARENT
REMARK Flexibility Score: inf
ROOT
ATOM      1  C   UNL     1      -5.276  -3.417   3.722  1.00  0.00     0.000 C 
ENDROOT
BRANCH   1   2
ATOM      2  C   UNL     1      -5.380  -2.460   2.524  1.00  0.00     0.000 C 
BRANCH   2   3
ATOM      3  C   UNL     1      -4.902  -3.101   1.211  1.00  0.00     0.006 C 
BRANCH   3   4
ATOM      4  C   UNL     1      -4.899  -4.634   1.281  1.00  0.00     0.053 C 
BRANCH   4   5
ATOM      5  C   UNL     1      -5.821  -5.238   0.266  1.00  0.00     0.041 C 
ATOM      6  O   UNL     1      -7.038  -5.411   0.537  1.00  0.00    -0.550 OA
ATOM      7  O   UNL     1      -5.340  -5.585  -0.990  1.00  0.00    -0.550 OA
ENDBRANCH   4   5
ENDBRANCH   3   4
ENDBRANCH   2   3
ENDBRANCH   1   2
BRANCH   1   8
ATOM      8  C   UNL     1      -4.519  -2.804   4.909  1.00  0.00     0.000 C 
BRANCH   8   9
ATOM      9  C   UNL     1      -3.965  -1.417   4.549  1.00  0.00     0.000 C 
BRANCH   9  10
ATOM     10  C   UNL     1      -3.729  -0.534   5.784  1.00  0.00     0.006 C 
BRANCH  10  11
ATOM     11  C   UNL     1      -2.282  -0.601   6.290  1.00  0.00     0.053 C 
BRANCH  11  12
ATOM     12  C   UNL     1      -1.385   0.218   5.417  1.00  0.00     0.041 C 
ATOM     13  O   UNL     1      -0.216  -0.177   5.162  1.00  0.00    -0.550 OA
ATOM     14  O   UNL     1      -1.820   1.442   4.925  1.00  0.00    -0.550 OA
ENDBRANCH  11  12
ENDBRANCH  10  11
ENDBRANCH   9  10
ENDBRANCH   8   9
ENDBRANCH   1   8
TORSDOF 9
ENDMDL
MODEL 3
REMARK VINA RESULT:    -4.177      1.757      7.258
REMARK INTER + INTRA:          -6.777
REMARK INTER:                  -6.379
REMARK INTRA:                  -0.398
REMARK UNBOUND:                -0.401
REMARK SMILES O=C([O-])CCCCCCCCC(=O)[O-]
REMARK SMILES IDX 7 1 6 2 5 3 4 4 2 5 1 6 3 7 8 8 9 9 10 10 11 11 12 12 13 13
REMARK SMILES IDX 14 14
REMARK H PARENT
REMARK Flexibility Score: inf
ROOT
ATOM      1  C   UNL     1      -3.756  -1.662   5.802  1.00  0.00     0.000 C 
ENDROOT
BRANCH   1   2
ATOM      2  C   UNL     1      -3.321  -0.188   5.820  1.00  0.00     0.000 C 
BRANCH   2   3
ATOM      3  C   UNL     1      -2.002   0.049   5.066  1.00  0.00     0.006 C 
BRANCH   3   4
ATOM      4  C   UNL     1      -0.947   0.734   5.947  1.00  0.00     0.053 C 
BRANCH   4   5
ATOM      5  C   UNL     1      -0.516  -0.143   7.082  1.00  0.00     0.041 C 
ATOM      6  O   UNL     1       0.178  -1.171   6.862  1.00  0.00    -0.550 OA
ATOM      7  O   UNL     1      -0.857   0.190   8.386  1.00  0.00    -0.550 OA
ENDBRANCH   4   5
ENDBRANCH   3   4
ENDBRANCH   2   3
ENDBRANCH   1   2
BRANCH   1   8
ATOM      8  C   UNL     1      -4.482  -2.052   4.505  1.00  0.00     0.000 C 
BRANCH   8   9
ATOM      9  C   UNL     1      -4.979  -3.504   4.571  1.00  0.00     0.000 C 
BRANCH   9  10
ATOM     10  C   UNL     1      -5.257  -4.099   3.182  1.00  0.00     0.006 C 
BRANCH  10  11
ATOM     11  C   UNL     1      -4.907  -3.133   2.044  1.00  0.00     0.053 C 
BRANCH  11  12
ATOM     12  C   UNL     1      -4.825  -3.866   0.742  1.00  0.00     0.041 C 
ATOM     13  O   UNL     1      -5.067  -3.268  -0.339  1.00  0.00    -0.550 OA
ATOM     14  O   UNL     1      -4.530  -5.224   0.727  1.00  0.00    -0.550 OA
ENDBRANCH  11  12
ENDBRANCH  10  11
ENDBRANCH   9  10
ENDBRANCH   8   9
ENDBRANCH   1   8
TORSDOF 9
ENDMDL
MODEL 4
REMARK VINA RESULT:    -4.100      3.823      6.601
REMARK INTER + INTRA:          -6.659
REMARK INTER:                  -5.769
REMARK INTRA:                  -0.890
REMARK UNBOUND:                -0.401
REMARK SMILES O=C([O-])CCCCCCCCC(=O)[O-]
REMARK SMILES IDX 7 1 6 2 5 3 4 4 2 5 1 6 3 7 8 8 9 9 10 10 11 11 12 12 13 13
REMARK SMILES IDX 14 14
REMARK H PARENT
REMARK Flexibility Score: inf
ROOT
ATOM      1  C   UNL     1      -5.833  -1.845   1.638  1.00  0.00     0.000 C 
ENDROOT
BRANCH   1   2
ATOM      2  C   UNL     1      -4.829  -2.148   2.760  1.00  0.00     0.000 C 
BRANCH   2   3
ATOM      3  C   UNL     1      -5.509  -2.658   4.042  1.00  0.00     0.006 C 
BRANCH   3   4
ATOM      4  C   UNL     1      -4.998  -4.045   4.457  1.00  0.00     0.053 C 
BRANCH   4   5
ATOM      5  C   UNL     1      -5.836  -5.142   3.876  1.00  0.00     0.041 C 
ATOM      6  O   UNL     1      -5.462  -6.341   3.964  1.00  0.00    -0.550 OA
ATOM      7  O   UNL     1      -7.045  -4.842   3.261  1.00  0.00    -0.550 OA
ENDBRANCH   4   5
ENDBRANCH   3   4
ENDBRANCH   2   3
ENDBRANCH   1   2
BRANCH   1   8
ATOM      8  C   UNL     1      -5.571  -2.669   0.368  1.00  0.00     0.000 C 
BRANCH   8   9
ATOM      9  C   UNL     1      -4.608  -3.830   0.656  1.00  0.00     0.000 C 
BRANCH   9  10
ATOM     10  C   UNL     1      -5.165  -5.189   0.205  1.00  0.00     0.006 C 
BRANCH  10  11
ATOM     11  C   UNL     1      -6.378  -5.052  -0.724  1.00  0.00     0.053 C 
BRANCH  11  12
ATOM     12  C   UNL     1      -5.967  -5.236  -2.150  1.00  0.00     0.041 C 
ATOM     13  O   UNL     1      -5.251  -6.217  -2.482  1.00  0.00    -0.550 OA
ATOM     14  O   UNL     1      -6.333  -4.297  -3.107  1.00  0.00    -0.550 OA
ENDBRANCH  11  12
ENDBRANCH  10  11
ENDBRANCH   9  10
ENDBRANCH   8   9
ENDBRANCH   1   8
TORSDOF 9
ENDMDL
MODEL 5
REMARK VINA RESULT:    -4.094      0.866      7.493
REMARK INTER + INTRA:          -6.649
REMARK INTER:                  -6.401
REMARK INTRA:                  -0.249
REMARK UNBOUND:                -0.401
REMARK SMILES O=C([O-])CCCCCCCCC(=O)[O-]
REMARK SMILES IDX 7 1 6 2 5 3 4 4 2 5 1 6 3 7 8 8 9 9 10 10 11 11 12 12 13 13
REMARK SMILES IDX 14 14
REMARK H PARENT
REMARK Flexibility Score: inf
ROOT
ATOM      1  C   UNL     1      -4.419  -1.771   3.692  1.00  0.00     0.000 C 
ENDROOT
BRANCH   1   2
ATOM      2  C   UNL     1      -4.010  -1.852   5.170  1.00  0.00     0.000 C 
BRANCH   2   3
ATOM      3  C   UNL     1      -3.756  -0.467   5.790  1.00  0.00     0.006 C 
BRANCH   3   4
ATOM      4  C   UNL     1      -2.334  -0.337   6.354  1.00  0.00     0.053 C 
BRANCH   4   5
ATOM      5  C   UNL     1      -1.427   0.394   5.412  1.00  0.00     0.041 C 
ATOM      6  O   UNL     1      -0.372  -0.151   4.994  1.00  0.00    -0.550 OA
ATOM      7  O   UNL     1      -1.763   1.669   4.973  1.00  0.00    -0.550 OA
ENDBRANCH   4   5
ENDBRANCH   3   4
ENDBRANCH   2   3
ENDBRANCH   1   2
BRANCH   1   8
ATOM      8  C   UNL     1      -5.257  -2.978   3.240  1.00  0.00     0.000 C 
BRANCH   8   9
ATOM      9  C   UNL     1      -4.924  -3.364   1.791  1.00  0.00     0.000 C 
BRANCH   9  10
ATOM     10  C   UNL     1      -5.271  -4.827   1.473  1.00  0.00     0.006 C 
BRANCH  10  11
ATOM     11  C   UNL     1      -4.932  -5.214   0.028  1.00  0.00     0.053 C 
BRANCH  11  12
ATOM     12  C   UNL     1      -6.095  -4.938  -0.873  1.00  0.00     0.041 C 
ATOM     13  O   UNL     1      -6.153  -3.861  -1.522  1.00  0.00    -0.550 OA
ATOM     14  O   UNL     1      -7.140  -5.850  -0.957  1.00  0.00    -0.550 OA
ENDBRANCH  11  12
ENDBRANCH  10  11
ENDBRANCH   9  10
ENDBRANCH   8   9
ENDBRANCH   1   8
TORSDOF 9
ENDMDL
MODEL 6
REMARK VINA RESULT:    -4.077      1.167      7.028
REMARK INTER + INTRA:          -6.624
REMARK INTER:                  -6.247
REMARK INTRA:                  -0.377
REMARK UNBOUND:                -0.401
REMARK SMILES O=C([O-])CCCCCCCCC(=O)[O-]
REMARK SMILES IDX 7 1 6 2 5 3 4 4 2 5 1 6 3 7 8 8 9 9 10 10 11 11 12 12 13 13
REMARK SMILES IDX 14 14
REMARK H PARENT
REMARK Flexibility Score: inf
ROOT
ATOM      1  C   UNL     1      -4.216  -2.428   6.144  1.00  0.00     0.000 C 
ENDROOT
BRANCH   1   2
ATOM      2  C   UNL     1      -3.483  -1.125   5.791  1.00  0.00     0.000 C 
BRANCH   2   3
ATOM      3  C   UNL     1      -2.997  -0.364   7.037  1.00  0.00     0.006 C 
BRANCH   3   4
ATOM      4  C   UNL     1      -1.479  -0.130   7.017  1.00  0.00     0.053 C 
BRANCH   4   5
ATOM      5  C   UNL     1      -1.016   0.401   5.694  1.00  0.00     0.041 C 
ATOM      6  O   UNL     1      -1.466   1.492   5.255  1.00  0.00    -0.550 OA
ATOM      7  O   UNL     1      -0.067  -0.298   4.959  1.00  0.00    -0.550 OA
ENDBRANCH   4   5
ENDBRANCH   3   4
ENDBRANCH   2   3
ENDBRANCH   1   2
BRANCH   1   8
ATOM      8  C   UNL     1      -4.839  -3.111   4.916  1.00  0.00     0.000 C 
BRANCH   8   9
ATOM      9  C   UNL     1      -4.656  -2.249   3.658  1.00  0.00     0.000 C 
BRANCH   9  10
ATOM     10  C   UNL     1      -5.504  -2.739   2.475  1.00  0.00     0.006 C 
BRANCH  10  11
ATOM     11  C   UNL     1      -5.252  -4.215   2.138  1.00  0.00     0.053 C 
BRANCH  11  12
ATOM     12  C   UNL     1      -4.807  -4.357   0.717  1.00  0.00     0.041 C 
ATOM     13  O   UNL     1      -4.587  -5.499   0.233  1.00  0.00    -0.550 OA
ATOM     14  O   UNL     1      -4.585  -3.226  -0.059  1.00  0.00    -0.550 OA
ENDBRANCH  11  12
ENDBRANCH  10  11
ENDBRANCH   9  10
ENDBRANCH   8   9
ENDBRANCH   1   8
TORSDOF 9
ENDMDL
MODEL 7
REMARK VINA RESULT:    -4.054      3.891      8.725
REMARK INTER + INTRA:          -6.588
REMARK INTER:                  -6.116
REMARK INTRA:                  -0.472
REMARK UNBOUND:                -0.401
REMARK SMILES O=C([O-])CCCCCCCCC(=O)[O-]
REMARK SMILES IDX 7 1 6 2 5 3 4 4 2 5 1 6 3 7 8 8 9 9 10 10 11 11 12 12 13 13
REMARK SMILES IDX 14 14
REMARK H PARENT
REMARK Flexibility Score: inf
ROOT
ATOM      1  C   UNL     1      -6.579  -5.366  -0.154  1.00  0.00     0.000 C 
ENDROOT
BRANCH   1   2
ATOM      2  C   UNL     1      -5.056  -5.298   0.035  1.00  0.00     0.000 C 
BRANCH   2   3
ATOM      3  C   UNL     1      -4.608  -4.031   0.783  1.00  0.00     0.006 C 
BRANCH   3   4
ATOM      4  C   UNL     1      -5.406  -2.792   0.353  1.00  0.00     0.053 C 
BRANCH   4   5
ATOM      5  C   UNL     1      -5.590  -1.829   1.486  1.00  0.00     0.041 C 
ATOM      6  O   UNL     1      -4.727  -1.752   2.400  1.00  0.00    -0.550 OA
ATOM      7  O   UNL     1      -6.702  -0.997   1.517  1.00  0.00    -0.550 OA
ENDBRANCH   4   5
ENDBRANCH   3   4
ENDBRANCH   2   3
ENDBRANCH   1   2
BRANCH   1   8
ATOM      8  C   UNL     1      -6.984  -5.756  -1.584  1.00  0.00     0.000 C 
BRANCH   8   9
ATOM      9  C   UNL     1      -5.745  -6.027  -2.450  1.00  0.00     0.000 C 
BRANCH   9  10
ATOM     10  C   UNL     1      -6.102  -6.540  -3.853  1.00  0.00     0.006 C 
BRANCH  10  11
ATOM     11  C   UNL     1      -5.465  -7.900  -4.166  1.00  0.00     0.053 C 
BRANCH  11  12
ATOM     12  C   UNL     1      -4.265  -7.724  -5.044  1.00  0.00     0.041 C 
ATOM     13  O   UNL     1      -4.088  -6.644  -5.666  1.00  0.00    -0.550 OA
ATOM     14  O   UNL     1      -3.369  -8.772  -5.214  1.00  0.00    -0.550 OA
ENDBRANCH  11  12
ENDBRANCH  10  11
ENDBRANCH   9  10
ENDBRANCH   8   9
ENDBRANCH   1   8
TORSDOF 9
ENDMDL
MODEL 8
REMARK VINA RESULT:    -3.980      1.592      2.247
REMARK INTER + INTRA:          -6.476
REMARK INTER:                  -6.129
REMARK INTRA:                  -0.347
REMARK UNBOUND:                -0.401
REMARK SMILES O=C([O-])CCCCCCCCC(=O)[O-]
REMARK SMILES IDX 7 1 6 2 5 3 4 4 2 5 1 6 3 7 8 8 9 9 10 10 11 11 12 12 13 13
REMARK SMILES IDX 14 14
REMARK H PARENT
REMARK Flexibility Score: inf
ROOT
ATOM      1  C   UNL     1      -4.481  -2.117   4.340  1.00  0.00     0.000 C 
ENDROOT
BRANCH   1   2
ATOM      2  C   UNL     1      -4.888  -3.486   4.907  1.00  0.00     0.000 C 
BRANCH   2   3
ATOM      3  C   UNL     1      -5.294  -4.485   3.810  1.00  0.00     0.006 C 
BRANCH   3   4
ATOM      4  C   UNL     1      -5.305  -3.841   2.416  1.00  0.00     0.053 C 
BRANCH   4   5
ATOM      5  C   UNL     1      -5.510  -4.860   1.336  1.00  0.00     0.041 C 
ATOM      6  O   UNL     1      -4.527  -5.292   0.678  1.00  0.00    -0.550 OA
ATOM      7  O   UNL     1      -6.782  -5.351   1.076  1.00  0.00    -0.550 OA
ENDBRANCH   4   5
ENDBRANCH   3   4
ENDBRANCH   2   3
ENDBRANCH   1   2
BRANCH   1   8
ATOM      8  C   UNL     1      -4.506  -1.004   5.398  1.00  0.00     0.000 C 
BRANCH   8   9
ATOM      9  C   UNL     1      -3.108  -0.787   5.998  1.00  0.00     0.000 C 
BRANCH   9  10
ATOM     10  C   UNL     1      -2.175  -0.006   5.060  1.00  0.00     0.006 C 
BRANCH  10  11
ATOM     11  C   UNL     1      -0.991   0.629   5.800  1.00  0.00     0.053 C 
BRANCH  11  12
ATOM     12  C   UNL     1       0.062  -0.397   6.078  1.00  0.00     0.041 C 
ATOM     13  O   UNL     1       0.832  -0.780   5.158  1.00  0.00    -0.550 OA
ATOM     14  O   UNL     1       0.162  -0.967   7.341  1.00  0.00    -0.550 OA
ENDBRANCH  11  12
ENDBRANCH  10  11
ENDBRANCH   9  10
ENDBRANCH   8   9
ENDBRANCH   1   8
TORSDOF 9
ENDMDL
MODEL 9
REMARK VINA RESULT:    -3.923      4.081      4.958
REMARK INTER + INTRA:          -6.388
REMARK INTER:                  -5.818
REMARK INTRA:                  -0.571
REMARK UNBOUND:                -0.401
REMARK SMILES O=C([O-])CCCCCCCCC(=O)[O-]
REMARK SMILES IDX 7 1 6 2 5 3 4 4 2 5 1 6 3 7 8 8 9 9 10 10 11 11 12 12 13 13
REMARK SMILES IDX 14 14
REMARK H PARENT
REMARK Flexibility Score: inf
ROOT
ATOM      1  C   UNL     1      -4.896  -4.851   1.353  1.00  0.00     0.000 C 
ENDROOT
BRANCH   1   2
ATOM      2  C   UNL     1      -5.259  -5.212  -0.096  1.00  0.00     0.000 C 
BRANCH   2   3
ATOM      3  C   UNL     1      -6.777  -5.194  -0.348  1.00  0.00     0.006 C 
BRANCH   3   4
ATOM      4  C   UNL     1      -7.153  -5.878  -1.670  1.00  0.00     0.053 C 
BRANCH   4   5
ATOM      5  C   UNL     1      -6.200  -5.523  -2.770  1.00  0.00     0.041 C 
ATOM      6  O   UNL     1      -5.320  -6.346  -3.138  1.00  0.00    -0.550 OA
ATOM      7  O   UNL     1      -6.301  -4.293  -3.407  1.00  0.00    -0.550 OA
ENDBRANCH   4   5
ENDBRANCH   3   4
ENDBRANCH   2   3
ENDBRANCH   1   2
BRANCH   1   8
ATOM      8  C   UNL     1      -5.787  -3.740   1.930  1.00  0.00     0.000 C 
BRANCH   8   9
ATOM      9  C   UNL     1      -5.066  -2.384   1.890  1.00  0.00     0.000 C 
BRANCH   9  10
ATOM     10  C   UNL     1      -5.927  -1.273   1.271  1.00  0.00     0.006 C 
BRANCH  10  11
ATOM     11  C   UNL     1      -6.091  -1.429  -0.246  1.00  0.00     0.053 C 
BRANCH  11  12
ATOM     12  C   UNL     1      -5.975  -0.099  -0.924  1.00  0.00     0.041 C 
ATOM     13  O   UNL     1      -5.240   0.034  -1.937  1.00  0.00    -0.550 OA
ATOM     14  O   UNL     1      -6.639   1.006  -0.406  1.00  0.00    -0.550 OA
ENDBRANCH  11  12
ENDBRANCH  10  11
ENDBRANCH   9  10
ENDBRANCH   8   9
ENDBRANCH   1   8
TORSDOF 9
ENDMDL
