MODEL 1
REMARK VINA RESULT:    -3.481      0.000      0.000
REMARK INTER + INTRA:          -4.475
REMARK INTER:                  -4.193
REMARK INTRA:                  -0.282
REMARK UNBOUND:                -0.282
REMARK SMILES O=c1c(O)c(-c2ccc(O)c(O)c2)oc2cc(O)cc(O)c12
REMARK SMILES IDX 5 1 3 2 2 3 1 4 22 5 20 6 19 7 17 8 16 9 15 10 14 11 6 12
REMARK SMILES IDX 7 13 8 14 9 15 13 16 11 17 10 18 12 20 4 22 21 24 18 26
REMARK H PARENT 10 19 12 21 4 23 21 25 18 27
REMARK Flexibility Score: inf
ROOT
ATOM      1  C   UNL     1      12.476  45.088   9.066  1.00  0.00     0.180 A 
ATOM      2  C   UNL     1      12.619  45.249   7.676  1.00  0.00     0.208 A 
ATOM      3  C   UNL     1      13.644  46.075   7.189  1.00  0.00     0.238 A 
ATOM      4  O   UNL     1      13.801  46.172   5.944  1.00  0.00    -0.285 OA
ATOM      5  C   UNL     1      14.504  46.740   8.095  1.00  0.00     0.111 A 
ATOM      6  C   UNL     1      15.551  47.631   7.712  1.00  0.00     0.134 A 
ATOM      7  C   UNL     1      16.424  48.131   8.687  1.00  0.00     0.093 A 
ATOM      8  C   UNL     1      16.248  47.825  10.036  1.00  0.00     0.123 A 
ATOM      9  C   UNL     1      15.191  47.002  10.428  1.00  0.00     0.094 A 
ATOM     10  C   UNL     1      14.326  46.460   9.475  1.00  0.00     0.146 A 
ATOM     11  O   UNL     1      13.339  45.673   9.888  1.00  0.00    -0.452 OA
ENDROOT
BRANCH   1  12
ATOM     12  C   UNL     1      11.404  44.254   9.657  1.00  0.00     0.025 A 
ATOM     13  C   UNL     1      11.497  42.853   9.680  1.00  0.00     0.016 A 
ATOM     14  C   UNL     1      10.462  42.088  10.220  1.00  0.00     0.051 A 
ATOM     15  C   UNL     1       9.313  42.698  10.734  1.00  0.00     0.157 A 
ATOM     16  C   UNL     1      10.243  44.868  10.150  1.00  0.00     0.062 A 
ATOM     17  C   UNL     1       9.200  44.108  10.695  1.00  0.00     0.158 A 
BRANCH  15  18
ATOM     18  O   UNL     1       8.318  41.875  11.264  1.00  0.00    -0.504 OA
ATOM     19  H   UNL     1       8.425  40.881  11.407  1.00  0.00     0.293 HD
ENDBRANCH  15  18
BRANCH  17  20
ATOM     20  O   UNL     1       8.082  44.790  11.179  1.00  0.00    -0.504 OA
ATOM     21  H   UNL     1       7.782  45.694  10.844  1.00  0.00     0.293 HD
ENDBRANCH  17  20
ENDBRANCH   1  12
BRANCH   2  22
ATOM     22  O   UNL     1      11.772  44.566   6.799  1.00  0.00    -0.502 OA
ATOM     23  H   UNL     1      10.827  44.876   6.604  1.00  0.00     0.293 HD
ENDBRANCH   2  22
BRANCH   6  24
ATOM     24  O   UNL     1      15.760  48.075   6.403  1.00  0.00    -0.507 OA
ATOM     25  H   UNL     1      16.624  48.466   6.060  1.00  0.00     0.293 HD
ENDBRANCH   6  24
BRANCH   8  26
ATOM     26  O   UNL     1      17.125  48.354  10.981  1.00  0.00    -0.508 OA
ATOM     27  H   UNL     1      18.116  48.445  10.791  1.00  0.00     0.293 HD
ENDBRANCH   8  26
TORSDOF 6
ENDMDL
MODEL 2
REMARK VINA RESULT:    -3.413      2.356      5.831
REMARK INTER + INTRA:          -4.394
REMARK INTER:                  -4.080
REMARK INTRA:                  -0.313
REMARK UNBOUND:                -0.282
REMARK SMILES O=c1c(O)c(-c2ccc(O)c(O)c2)oc2cc(O)cc(O)c12
REMARK SMILES IDX 5 1 3 2 2 3 1 4 22 5 20 6 19 7 17 8 16 9 15 10 14 11 6 12
REMARK SMILES IDX 7 13 8 14 9 15 13 16 11 17 10 18 12 20 4 22 21 24 18 26
REMARK H PARENT 10 19 12 21 4 23 21 25 18 27
REMARK Flexibility Score: inf
ROOT
ATOM      1  C   UNL     1      14.560  46.381   9.751  1.00  0.00     0.180 A 
ATOM      2  C   UNL     1      14.844  47.237   8.672  1.00  0.00     0.208 A 
ATOM      3  C   UNL     1      14.185  47.032   7.449  1.00  0.00     0.238 A 
ATOM      4  O   UNL     1      14.403  47.835   6.504  1.00  0.00    -0.285 OA
ATOM      5  C   UNL     1      13.264  45.966   7.315  1.00  0.00     0.111 A 
ATOM      6  C   UNL     1      12.569  45.643   6.111  1.00  0.00     0.134 A 
ATOM      7  C   UNL     1      11.583  44.649   6.127  1.00  0.00     0.093 A 
ATOM      8  C   UNL     1      11.313  43.923   7.287  1.00  0.00     0.123 A 
ATOM      9  C   UNL     1      12.028  44.190   8.455  1.00  0.00     0.094 A 
ATOM     10  C   UNL     1      12.992  45.201   8.478  1.00  0.00     0.146 A 
ATOM     11  O   UNL     1      13.643  45.431   9.612  1.00  0.00    -0.452 OA
ENDROOT
BRANCH   1  12
ATOM     12  C   UNL     1      15.232  46.517  11.064  1.00  0.00     0.025 A 
ATOM     13  C   UNL     1      16.521  46.005  11.281  1.00  0.00     0.016 A 
ATOM     14  C   UNL     1      17.125  46.124  12.533  1.00  0.00     0.051 A 
ATOM     15  C   UNL     1      16.455  46.742  13.595  1.00  0.00     0.157 A 
ATOM     16  C   UNL     1      14.549  47.117  12.131  1.00  0.00     0.062 A 
ATOM     17  C   UNL     1      15.147  47.242  13.392  1.00  0.00     0.158 A 
BRANCH  15  18
ATOM     18  O   UNL     1      17.117  46.833  14.821  1.00  0.00    -0.504 OA
ATOM     19  H   UNL     1      16.647  46.943  15.708  1.00  0.00     0.293 HD
ENDBRANCH  15  18
BRANCH  17  20
ATOM     20  O   UNL     1      14.411  47.862  14.404  1.00  0.00    -0.504 OA
ATOM     21  H   UNL     1      13.956  47.366  15.156  1.00  0.00     0.293 HD
ENDBRANCH  17  20
ENDBRANCH   1  12
BRANCH   2  22
ATOM     22  O   UNL     1      15.742  48.297   8.833  1.00  0.00    -0.502 OA
ATOM     23  H   UNL     1      15.446  49.218   9.133  1.00  0.00     0.293 HD
ENDBRANCH   2  22
BRANCH   6  24
ATOM     24  O   UNL     1      12.827  46.244   4.875  1.00  0.00    -0.507 OA
ATOM     25  H   UNL     1      13.708  46.198   4.387  1.00  0.00     0.293 HD
ENDBRANCH   6  24
BRANCH   8  26
ATOM     26  O   UNL     1      10.336  42.929   7.263  1.00  0.00    -0.508 OA
ATOM     27  H   UNL     1      10.175  42.365   6.437  1.00  0.00     0.293 HD
ENDBRANCH   8  26
TORSDOF 6
ENDMDL
MODEL 3
REMARK VINA RESULT:    -3.359      2.102      3.414
REMARK INTER + INTRA:          -4.328
REMARK INTER:                  -4.013
REMARK INTRA:                  -0.315
REMARK UNBOUND:                -0.282
REMARK SMILES O=c1c(O)c(-c2ccc(O)c(O)c2)oc2cc(O)cc(O)c12
REMARK SMILES IDX 5 1 3 2 2 3 1 4 22 5 20 6 19 7 17 8 16 9 15 10 14 11 6 12
REMARK SMILES IDX 7 13 8 14 9 15 13 16 11 17 10 18 12 20 4 22 21 24 18 26
REMARK H PARENT 10 19 12 21 4 23 21 25 18 27
REMARK Flexibility Score: inf
ROOT
ATOM      1  C   UNL     1      13.354  46.373   8.895  1.00  0.00     0.180 A 
ATOM      2  C   UNL     1      14.607  46.699   9.444  1.00  0.00     0.208 A 
ATOM      3  C   UNL     1      15.315  47.793   8.922  1.00  0.00     0.238 A 
ATOM      4  O   UNL     1      16.410  48.113   9.454  1.00  0.00    -0.285 OA
ATOM      5  C   UNL     1      14.770  48.538   7.849  1.00  0.00     0.111 A 
ATOM      6  C   UNL     1      15.418  49.641   7.218  1.00  0.00     0.134 A 
ATOM      7  C   UNL     1      14.730  50.388   6.253  1.00  0.00     0.093 A 
ATOM      8  C   UNL     1      13.443  50.031   5.850  1.00  0.00     0.123 A 
ATOM      9  C   UNL     1      12.822  48.918   6.419  1.00  0.00     0.094 A 
ATOM     10  C   UNL     1      13.470  48.176   7.410  1.00  0.00     0.146 A 
ATOM     11  O   UNL     1      12.841  47.131   7.933  1.00  0.00    -0.452 OA
ENDROOT
BRANCH   1  12
ATOM     12  C   UNL     1      12.559  45.219   9.375  1.00  0.00     0.025 A 
ATOM     13  C   UNL     1      12.602  43.979   8.717  1.00  0.00     0.016 A 
ATOM     14  C   UNL     1      11.826  42.913   9.173  1.00  0.00     0.051 A 
ATOM     15  C   UNL     1      10.985  43.062  10.281  1.00  0.00     0.157 A 
ATOM     16  C   UNL     1      11.700  45.379  10.472  1.00  0.00     0.062 A 
ATOM     17  C   UNL     1      10.918  44.314  10.937  1.00  0.00     0.158 A 
BRANCH  15  18
ATOM     18  O   UNL     1      10.238  41.954  10.688  1.00  0.00    -0.504 OA
ATOM     19  H   UNL     1       9.589  41.966  11.463  1.00  0.00     0.293 HD
ENDBRANCH  15  18
BRANCH  17  20
ATOM     20  O   UNL     1      10.096  44.544  12.043  1.00  0.00    -0.504 OA
ATOM     21  H   UNL     1       9.328  45.200  12.049  1.00  0.00     0.293 HD
ENDBRANCH  17  20
ENDBRANCH   1  12
BRANCH   2  22
ATOM     22  O   UNL     1      15.117  45.963  10.518  1.00  0.00    -0.502 OA
ATOM     23  H   UNL     1      14.604  45.836  11.382  1.00  0.00     0.293 HD
ENDBRANCH   2  22
BRANCH   6  24
ATOM     24  O   UNL     1      16.736  50.027   7.479  1.00  0.00    -0.507 OA
ATOM     25  H   UNL     1      17.307  49.654   8.223  1.00  0.00     0.293 HD
ENDBRANCH   6  24
BRANCH   8  26
ATOM     26  O   UNL     1      12.794  50.786   4.875  1.00  0.00    -0.508 OA
ATOM     27  H   UNL     1      12.356  50.349   4.072  1.00  0.00     0.293 HD
ENDBRANCH   8  26
TORSDOF 6
ENDMDL
MODEL 4
REMARK VINA RESULT:    -3.306      2.857      5.442
REMARK INTER + INTRA:          -4.264
REMARK INTER:                  -3.969
REMARK INTRA:                  -0.294
REMARK UNBOUND:                -0.282
REMARK SMILES O=c1c(O)c(-c2ccc(O)c(O)c2)oc2cc(O)cc(O)c12
REMARK SMILES IDX 5 1 3 2 2 3 1 4 22 5 20 6 19 7 17 8 16 9 15 10 14 11 6 12
REMARK SMILES IDX 7 13 8 14 9 15 13 16 11 17 10 18 12 20 4 22 21 24 18 26
REMARK H PARENT 10 19 12 21 4 23 21 25 18 27
REMARK Flexibility Score: inf
ROOT
ATOM      1  C   UNL     1      14.378  46.753  10.192  1.00  0.00     0.180 A 
ATOM      2  C   UNL     1      13.330  45.913   9.775  1.00  0.00     0.208 A 
ATOM      3  C   UNL     1      13.125  45.710   8.401  1.00  0.00     0.238 A 
ATOM      4  O   UNL     1      12.220  44.915   8.037  1.00  0.00    -0.285 OA
ATOM      5  C   UNL     1      13.959  46.360   7.461  1.00  0.00     0.111 A 
ATOM      6  C   UNL     1      13.817  46.256   6.045  1.00  0.00     0.134 A 
ATOM      7  C   UNL     1      14.780  46.836   5.209  1.00  0.00     0.093 A 
ATOM      8  C   UNL     1      15.841  47.571   5.736  1.00  0.00     0.123 A 
ATOM      9  C   UNL     1      15.957  47.728   7.118  1.00  0.00     0.094 A 
ATOM     10  C   UNL     1      15.033  47.131   7.978  1.00  0.00     0.146 A 
ATOM     11  O   UNL     1      15.184  47.296   9.286  1.00  0.00    -0.452 OA
ENDROOT
BRANCH   1  12
ATOM     12  C   UNL     1      14.641  47.036  11.621  1.00  0.00     0.025 A 
ATOM     13  C   UNL     1      13.851  47.946  12.343  1.00  0.00     0.016 A 
ATOM     14  C   UNL     1      14.133  48.215  13.683  1.00  0.00     0.051 A 
ATOM     15  C   UNL     1      15.211  47.597  14.326  1.00  0.00     0.157 A 
ATOM     16  C   UNL     1      15.736  46.432  12.256  1.00  0.00     0.062 A 
ATOM     17  C   UNL     1      16.027  46.696  13.601  1.00  0.00     0.158 A 
BRANCH  15  18
ATOM     18  O   UNL     1      15.436  47.906  15.669  1.00  0.00    -0.504 OA
ATOM     19  H   UNL     1      15.038  47.390  16.440  1.00  0.00     0.293 HD
ENDBRANCH  15  18
BRANCH  17  20
ATOM     20  O   UNL     1      17.125  46.047  14.169  1.00  0.00    -0.504 OA
ATOM     21  H   UNL     1      17.136  45.673  15.107  1.00  0.00     0.293 HD
ENDBRANCH  17  20
ENDBRANCH   1  12
BRANCH   2  22
ATOM     22  O   UNL     1      12.531  45.265  10.722  1.00  0.00    -0.502 OA
ATOM     23  H   UNL     1      11.541  45.103  10.579  1.00  0.00     0.293 HD
ENDBRANCH   2  22
BRANCH   6  24
ATOM     24  O   UNL     1      12.743  45.623   5.412  1.00  0.00    -0.507 OA
ATOM     25  H   UNL     1      12.719  45.372   4.435  1.00  0.00     0.293 HD
ENDBRANCH   6  24
BRANCH   8  26
ATOM     26  O   UNL     1      16.772  48.149   4.875  1.00  0.00    -0.508 OA
ATOM     27  H   UNL     1      16.518  48.437   3.937  1.00  0.00     0.293 HD
ENDBRANCH   8  26
TORSDOF 6
ENDMDL
MODEL 5
REMARK VINA RESULT:    -3.288      2.812      4.865
REMARK INTER + INTRA:          -4.242
REMARK INTER:                  -3.908
REMARK INTRA:                  -0.335
REMARK UNBOUND:                -0.282
REMARK SMILES O=c1c(O)c(-c2ccc(O)c(O)c2)oc2cc(O)cc(O)c12
REMARK SMILES IDX 5 1 3 2 2 3 1 4 22 5 20 6 19 7 17 8 16 9 15 10 14 11 6 12
REMARK SMILES IDX 7 13 8 14 9 15 13 16 11 17 10 18 12 20 4 22 21 24 18 26
REMARK H PARENT 10 19 12 21 4 23 21 25 18 27
REMARK Flexibility Score: inf
ROOT
ATOM      1  C   UNL     1      11.679  45.121  10.339  1.00  0.00     0.180 A 
ATOM      2  C   UNL     1      11.657  43.721  10.214  1.00  0.00     0.208 A 
ATOM      3  C   UNL     1      12.022  43.140   8.989  1.00  0.00     0.238 A 
ATOM      4  O   UNL     1      12.053  41.885   8.901  1.00  0.00    -0.285 OA
ATOM      5  C   UNL     1      12.390  43.966   7.900  1.00  0.00     0.111 A 
ATOM      6  C   UNL     1      12.741  43.487   6.602  1.00  0.00     0.134 A 
ATOM      7  C   UNL     1      13.215  44.385   5.638  1.00  0.00     0.093 A 
ATOM      8  C   UNL     1      13.289  45.752   5.903  1.00  0.00     0.123 A 
ATOM      9  C   UNL     1      12.892  46.239   7.150  1.00  0.00     0.094 A 
ATOM     10  C   UNL     1      12.450  45.363   8.144  1.00  0.00     0.146 A 
ATOM     11  O   UNL     1      12.092  45.865   9.319  1.00  0.00    -0.452 OA
ENDROOT
BRANCH   1  12
ATOM     12  C   UNL     1      11.283  45.808  11.590  1.00  0.00     0.025 A 
ATOM     13  C   UNL     1       9.948  46.164  11.836  1.00  0.00     0.016 A 
ATOM     14  C   UNL     1       9.602  46.833  13.012  1.00  0.00     0.051 A 
ATOM     15  C   UNL     1      10.578  47.169  13.956  1.00  0.00     0.157 A 
ATOM     16  C   UNL     1      12.267  46.164  12.524  1.00  0.00     0.062 A 
ATOM     17  C   UNL     1      11.930  46.834  13.707  1.00  0.00     0.158 A 
BRANCH  15  18
ATOM     18  O   UNL     1      10.165  47.834  15.113  1.00  0.00    -0.504 OA
ATOM     19  H   UNL     1       9.443  48.540  15.130  1.00  0.00     0.293 HD
ENDBRANCH  15  18
BRANCH  17  20
ATOM     20  O   UNL     1      12.961  47.145  14.597  1.00  0.00    -0.504 OA
ATOM     21  H   UNL     1      12.813  47.425  15.555  1.00  0.00     0.293 HD
ENDBRANCH  17  20
ENDBRANCH   1  12
BRANCH   2  22
ATOM     22  O   UNL     1      11.311  42.923  11.310  1.00  0.00    -0.502 OA
ATOM     23  H   UNL     1      11.947  42.752  12.079  1.00  0.00     0.293 HD
ENDBRANCH   2  22
BRANCH   6  24
ATOM     24  O   UNL     1      12.617  42.153   6.203  1.00  0.00    -0.507 OA
ATOM     25  H   UNL     1      13.123  41.382   6.611  1.00  0.00     0.293 HD
ENDBRANCH   6  24
BRANCH   8  26
ATOM     26  O   UNL     1      13.749  46.620   4.915  1.00  0.00    -0.508 OA
ATOM     27  H   UNL     1      13.727  47.625   5.041  1.00  0.00     0.293 HD
ENDBRANCH   8  26
TORSDOF 6
ENDMDL
MODEL 6
REMARK VINA RESULT:    -3.272      1.796      3.643
REMARK INTER + INTRA:          -4.224
REMARK INTER:                  -3.901
REMARK INTRA:                  -0.323
REMARK UNBOUND:                -0.282
REMARK SMILES O=c1c(O)c(-c2ccc(O)c(O)c2)oc2cc(O)cc(O)c12
REMARK SMILES IDX 5 1 3 2 2 3 1 4 22 5 20 6 19 7 17 8 16 9 15 10 14 11 6 12
REMARK SMILES IDX 7 13 8 14 9 15 13 16 11 17 10 18 12 20 4 22 21 24 18 26
REMARK H PARENT 10 19 12 21 4 23 21 25 18 27
REMARK Flexibility Score: inf
ROOT
ATOM      1  C   UNL     1      12.286  45.816  11.048  1.00  0.00     0.180 A 
ATOM      2  C   UNL     1      12.833  46.100  12.312  1.00  0.00     0.208 A 
ATOM      3  C   UNL     1      14.135  46.621  12.389  1.00  0.00     0.238 A 
ATOM      4  O   UNL     1      14.598  46.924  13.520  1.00  0.00    -0.285 OA
ATOM      5  C   UNL     1      14.877  46.839  11.204  1.00  0.00     0.111 A 
ATOM      6  C   UNL     1      16.218  47.328  11.167  1.00  0.00     0.134 A 
ATOM      7  C   UNL     1      16.810  47.630   9.934  1.00  0.00     0.093 A 
ATOM      8  C   UNL     1      16.134  47.399   8.736  1.00  0.00     0.123 A 
ATOM      9  C   UNL     1      14.844  46.866   8.759  1.00  0.00     0.094 A 
ATOM     10  C   UNL     1      14.214  46.589   9.974  1.00  0.00     0.146 A 
ATOM     11  O   UNL     1      12.984  46.093   9.953  1.00  0.00    -0.452 OA
ENDROOT
BRANCH   1  12
ATOM     12  C   UNL     1      10.931  45.241  10.887  1.00  0.00     0.025 A 
ATOM     13  C   UNL     1       9.795  46.061  10.795  1.00  0.00     0.016 A 
ATOM     14  C   UNL     1       8.525  45.495  10.668  1.00  0.00     0.051 A 
ATOM     15  C   UNL     1       8.361  44.106  10.643  1.00  0.00     0.157 A 
ATOM     16  C   UNL     1      10.767  43.848  10.886  1.00  0.00     0.062 A 
ATOM     17  C   UNL     1       9.497  43.271  10.758  1.00  0.00     0.158 A 
BRANCH  15  18
ATOM     18  O   UNL     1       7.064  43.605  10.509  1.00  0.00    -0.504 OA
ATOM     19  H   UNL     1       6.301  43.845  11.125  1.00  0.00     0.293 HD
ENDBRANCH  15  18
BRANCH  17  20
ATOM     20  O   UNL     1       9.412  41.877  10.751  1.00  0.00    -0.504 OA
ATOM     21  H   UNL     1       9.322  41.321   9.913  1.00  0.00     0.293 HD
ENDBRANCH  17  20
ENDBRANCH   1  12
BRANCH   2  22
ATOM     22  O   UNL     1      12.074  45.896  13.469  1.00  0.00    -0.502 OA
ATOM     23  H   UNL     1      11.966  46.609  14.180  1.00  0.00     0.293 HD
ENDBRANCH   2  22
BRANCH   6  24
ATOM     24  O   UNL     1      17.015  47.506  12.301  1.00  0.00    -0.507 OA
ATOM     25  H   UNL     1      18.017  47.388  12.324  1.00  0.00     0.293 HD
ENDBRANCH   6  24
BRANCH   8  26
ATOM     26  O   UNL     1      16.759  47.695   7.527  1.00  0.00    -0.508 OA
ATOM     27  H   UNL     1      17.344  48.517   7.420  1.00  0.00     0.293 HD
ENDBRANCH   8  26
TORSDOF 6
ENDMDL
MODEL 7
REMARK VINA RESULT:    -3.242      1.639      7.032
REMARK INTER + INTRA:          -4.187
REMARK INTER:                  -3.919
REMARK INTRA:                  -0.269
REMARK UNBOUND:                -0.282
REMARK SMILES O=c1c(O)c(-c2ccc(O)c(O)c2)oc2cc(O)cc(O)c12
REMARK SMILES IDX 5 1 3 2 2 3 1 4 22 5 20 6 19 7 17 8 16 9 15 10 14 11 6 12
REMARK SMILES IDX 7 13 8 14 9 15 13 16 11 17 10 18 12 20 4 22 21 24 18 26
REMARK H PARENT 10 19 12 21 4 23 21 25 18 27
REMARK Flexibility Score: inf
ROOT
ATOM      1  C   UNL     1      11.820  45.113   9.849  1.00  0.00     0.180 A 
ATOM      2  C   UNL     1      11.652  43.722   9.722  1.00  0.00     0.208 A 
ATOM      3  C   UNL     1      10.516  43.119  10.284  1.00  0.00     0.238 A 
ATOM      4  O   UNL     1      10.345  41.883  10.120  1.00  0.00    -0.285 OA
ATOM      5  C   UNL     1       9.569  43.910  10.979  1.00  0.00     0.111 A 
ATOM      6  C   UNL     1       8.402  43.398  11.621  1.00  0.00     0.134 A 
ATOM      7  C   UNL     1       7.467  44.287  12.165  1.00  0.00     0.093 A 
ATOM      8  C   UNL     1       7.689  45.664  12.150  1.00  0.00     0.123 A 
ATOM      9  C   UNL     1       8.856  46.172  11.577  1.00  0.00     0.094 A 
ATOM     10  C   UNL     1       9.789  45.312  10.993  1.00  0.00     0.146 A 
ATOM     11  O   UNL     1      10.881  45.836  10.449  1.00  0.00    -0.452 OA
ENDROOT
BRANCH   1  12
ATOM     12  C   UNL     1      13.004  45.818   9.305  1.00  0.00     0.025 A 
ATOM     13  C   UNL     1      13.136  46.070   7.931  1.00  0.00     0.016 A 
ATOM     14  C   UNL     1      14.272  46.714   7.439  1.00  0.00     0.051 A 
ATOM     15  C   UNL     1      15.302  47.107   8.301  1.00  0.00     0.157 A 
ATOM     16  C   UNL     1      14.044  46.189  10.170  1.00  0.00     0.062 A 
ATOM     17  C   UNL     1      15.188  46.836   9.686  1.00  0.00     0.158 A 
BRANCH  15  18
ATOM     18  O   UNL     1      16.409  47.751   7.745  1.00  0.00    -0.504 OA
ATOM     19  H   UNL     1      17.262  47.943   8.251  1.00  0.00     0.293 HD
ENDBRANCH  15  18
BRANCH  17  20
ATOM     20  O   UNL     1      16.176  47.189  10.607  1.00  0.00    -0.504 OA
ATOM     21  H   UNL     1      16.550  48.122  10.704  1.00  0.00     0.293 HD
ENDBRANCH  17  20
ENDBRANCH   1  12
BRANCH   2  22
ATOM     22  O   UNL     1      12.589  42.964   9.013  1.00  0.00    -0.502 OA
ATOM     23  H   UNL     1      13.562  42.905   9.291  1.00  0.00     0.293 HD
ENDBRANCH   2  22
BRANCH   6  24
ATOM     24  O   UNL     1       8.129  42.036  11.773  1.00  0.00    -0.507 OA
ATOM     25  H   UNL     1       7.242  41.601  11.567  1.00  0.00     0.293 HD
ENDBRANCH   6  24
BRANCH   8  26
ATOM     26  O   UNL     1       6.745  46.519  12.716  1.00  0.00    -0.508 OA
ATOM     27  H   UNL     1       5.949  46.161  13.232  1.00  0.00     0.293 HD
ENDBRANCH   8  26
TORSDOF 6
ENDMDL
MODEL 8
REMARK VINA RESULT:    -3.187      1.548      6.374
REMARK INTER + INTRA:          -4.121
REMARK INTER:                  -3.797
REMARK INTRA:                  -0.324
REMARK UNBOUND:                -0.282
REMARK SMILES O=c1c(O)c(-c2ccc(O)c(O)c2)oc2cc(O)cc(O)c12
REMARK SMILES IDX 5 1 3 2 2 3 1 4 22 5 20 6 19 7 17 8 16 9 15 10 14 11 6 12
REMARK SMILES IDX 7 13 8 14 9 15 13 16 11 17 10 18 12 20 4 22 21 24 18 26
REMARK H PARENT 10 19 12 21 4 23 21 25 18 27
REMARK Flexibility Score: inf
ROOT
ATOM      1  C   UNL     1      13.377  45.777   9.320  1.00  0.00     0.180 A 
ATOM      2  C   UNL     1      13.375  45.594   7.926  1.00  0.00     0.208 A 
ATOM      3  C   UNL     1      12.523  44.627   7.367  1.00  0.00     0.238 A 
ATOM      4  O   UNL     1      12.486  44.507   6.115  1.00  0.00    -0.285 OA
ATOM      5  C   UNL     1      11.696  43.846   8.209  1.00  0.00     0.111 A 
ATOM      6  C   UNL     1      10.823  42.813   7.754  1.00  0.00     0.134 A 
ATOM      7  C   UNL     1       9.954  42.194   8.660  1.00  0.00     0.093 A 
ATOM      8  C   UNL     1       9.972  42.524  10.015  1.00  0.00     0.123 A 
ATOM      9  C   UNL     1      10.863  43.491  10.481  1.00  0.00     0.094 A 
ATOM     10  C   UNL     1      11.717  44.152   9.595  1.00  0.00     0.146 A 
ATOM     11  O   UNL     1      12.542  45.073  10.077  1.00  0.00    -0.452 OA
ENDROOT
BRANCH   1  12
ATOM     12  C   UNL     1      14.266  46.757   9.986  1.00  0.00     0.025 A 
ATOM     13  C   UNL     1      15.519  46.380  10.495  1.00  0.00     0.016 A 
ATOM     14  C   UNL     1      16.328  47.317  11.139  1.00  0.00     0.051 A 
ATOM     15  C   UNL     1      15.902  48.640  11.301  1.00  0.00     0.157 A 
ATOM     16  C   UNL     1      13.826  48.077  10.166  1.00  0.00     0.062 A 
ATOM     17  C   UNL     1      14.632  49.024  10.811  1.00  0.00     0.158 A 
BRANCH  15  18
ATOM     18  O   UNL     1      16.762  49.527  11.951  1.00  0.00    -0.504 OA
ATOM     19  H   UNL     1      16.596  50.521  12.024  1.00  0.00     0.293 HD
ENDBRANCH  15  18
BRANCH  17  20
ATOM     20  O   UNL     1      14.133  50.322  10.943  1.00  0.00    -0.504 OA
ATOM     21  H   UNL     1      13.840  50.896  10.165  1.00  0.00     0.293 HD
ENDBRANCH  17  20
ENDBRANCH   1  12
BRANCH   2  22
ATOM     22  O   UNL     1      14.185  46.391   7.112  1.00  0.00    -0.502 OA
ATOM     23  H   UNL     1      14.717  47.173   7.474  1.00  0.00     0.293 HD
ENDBRANCH   2  22
BRANCH   6  24
ATOM     24  O   UNL     1      10.791  42.342   6.438  1.00  0.00    -0.507 OA
ATOM     25  H   UNL     1      10.298  42.789   5.680  1.00  0.00     0.293 HD
ENDBRANCH   6  24
BRANCH   8  26
ATOM     26  O   UNL     1       9.104  41.876  10.892  1.00  0.00    -0.508 OA
ATOM     27  H   UNL     1       8.275  41.397  10.560  1.00  0.00     0.293 HD
ENDBRANCH   8  26
TORSDOF 6
ENDMDL
MODEL 9
REMARK VINA RESULT:    -3.088      3.454      6.305
REMARK INTER + INTRA:          -4.002
REMARK INTER:                  -3.717
REMARK INTRA:                  -0.285
REMARK UNBOUND:                -0.282
REMARK SMILES O=c1c(O)c(-c2ccc(O)c(O)c2)oc2cc(O)cc(O)c12
REMARK SMILES IDX 5 1 3 2 2 3 1 4 22 5 20 6 19 7 17 8 16 9 15 10 14 11 6 12
REMARK SMILES IDX 7 13 8 14 9 15 13 16 11 17 10 18 12 20 4 22 21 24 18 26
REMARK H PARENT 10 19 12 21 4 23 21 25 18 27
REMARK Flexibility Score: inf
ROOT
ATOM      1  C   UNL     1      14.597  46.862  11.310  1.00  0.00     0.180 A 
ATOM      2  C   UNL     1      15.804  46.481  11.923  1.00  0.00     0.208 A 
ATOM      3  C   UNL     1      15.997  46.769  13.284  1.00  0.00     0.238 A 
ATOM      4  O   UNL     1      17.056  46.376  13.840  1.00  0.00    -0.285 OA
ATOM      5  C   UNL     1      14.989  47.447  14.010  1.00  0.00     0.111 A 
ATOM      6  C   UNL     1      15.095  47.824  15.382  1.00  0.00     0.134 A 
ATOM      7  C   UNL     1      13.985  48.375  16.036  1.00  0.00     0.093 A 
ATOM      8  C   UNL     1      12.796  48.622  15.350  1.00  0.00     0.123 A 
ATOM      9  C   UNL     1      12.701  48.312  13.992  1.00  0.00     0.094 A 
ATOM     10  C   UNL     1      13.780  47.728  13.323  1.00  0.00     0.146 A 
ATOM     11  O   UNL     1      13.645  47.439  12.034  1.00  0.00    -0.452 OA
ENDROOT
BRANCH   1  12
ATOM     12  C   UNL     1      14.330  46.616   9.874  1.00  0.00     0.025 A 
ATOM     13  C   UNL     1      14.924  47.405   8.875  1.00  0.00     0.016 A 
ATOM     14  C   UNL     1      14.639  47.170   7.529  1.00  0.00     0.051 A 
ATOM     15  C   UNL     1      13.750  46.157   7.153  1.00  0.00     0.157 A 
ATOM     16  C   UNL     1      13.421  45.616   9.501  1.00  0.00     0.062 A 
ATOM     17  C   UNL     1      13.129  45.372   8.153  1.00  0.00     0.158 A 
BRANCH  15  18
ATOM     18  O   UNL     1      13.511  45.971   5.790  1.00  0.00    -0.504 OA
ATOM     19  H   UNL     1      12.740  46.392   5.290  1.00  0.00     0.293 HD
ENDBRANCH  15  18
BRANCH  17  20
ATOM     20  O   UNL     1      12.224  44.350   7.857  1.00  0.00    -0.504 OA
ATOM     21  H   UNL     1      11.393  44.157   8.398  1.00  0.00     0.293 HD
ENDBRANCH  17  20
ENDBRANCH   1  12
BRANCH   2  22
ATOM     22  O   UNL     1      16.777  45.793  11.192  1.00  0.00    -0.502 OA
ATOM     23  H   UNL     1      16.541  45.123  10.469  1.00  0.00     0.293 HD
ENDBRANCH   2  22
BRANCH   6  24
ATOM     24  O   UNL     1      16.266  47.705  16.137  1.00  0.00    -0.507 OA
ATOM     25  H   UNL     1      17.011  48.385  16.151  1.00  0.00     0.293 HD
ENDBRANCH   6  24
BRANCH   8  26
ATOM     26  O   UNL     1      11.717  49.186  16.027  1.00  0.00    -0.508 OA
ATOM     27  H   UNL     1      11.684  50.177  16.238  1.00  0.00     0.293 HD
ENDBRANCH   8  26
TORSDOF 6
ENDMDL
