MODEL 1
REMARK VINA RESULT:    -7.430      0.000      0.000
REMARK INTER + INTRA:          -9.044
REMARK INTER:                  -8.733
REMARK INTRA:                  -0.311
REMARK UNBOUND:                -0.311
REMARK SMILES O=c1cc(-c2ccc(O)c(O)c2)oc2cc(O)cc(O)c12
REMARK SMILES IDX 4 1 3 2 2 3 1 4 21 5 19 6 18 7 16 8 15 9 14 10 13 11 5 12
REMARK SMILES IDX 6 13 7 14 8 15 12 16 10 17 9 18 11 20 20 22 17 24
REMARK H PARENT 9 19 11 21 20 23 17 25
REMARK Flexibility Score: inf
ROOT
ATOM      1  C   UNL     1      22.859  34.166   6.224  1.00  0.00     0.138 A 
ATOM      2  C   UNL     1      22.840  35.186   5.264  1.00  0.00     0.100 A 
ATOM      3  C   UNL     1      21.734  36.033   5.177  1.00  0.00     0.197 A 
ATOM      4  O   UNL     1      21.772  36.974   4.342  1.00  0.00    -0.289 OA
ATOM      5  C   UNL     1      20.625  35.832   6.032  1.00  0.00     0.107 A 
ATOM      6  C   UNL     1      19.428  36.610   6.011  1.00  0.00     0.134 A 
ATOM      7  C   UNL     1      18.438  36.380   6.974  1.00  0.00     0.093 A 
ATOM      8  C   UNL     1      18.573  35.364   7.920  1.00  0.00     0.123 A 
ATOM      9  C   UNL     1      19.717  34.564   7.918  1.00  0.00     0.094 A 
ATOM     10  C   UNL     1      20.738  34.791   6.993  1.00  0.00     0.146 A 
ATOM     11  O   UNL     1      21.818  34.019   7.038  1.00  0.00    -0.456 OA
ENDROOT
BRANCH   1  12
ATOM     12  C   UNL     1      24.007  33.235   6.360  1.00  0.00     0.021 A 
ATOM     13  C   UNL     1      24.910  33.014   5.303  1.00  0.00     0.016 A 
ATOM     14  C   UNL     1      25.988  32.140   5.462  1.00  0.00     0.051 A 
ATOM     15  C   UNL     1      26.189  31.478   6.680  1.00  0.00     0.157 A 
ATOM     16  C   UNL     1      24.224  32.577   7.583  1.00  0.00     0.062 A 
ATOM     17  C   UNL     1      25.303  31.700   7.746  1.00  0.00     0.158 A 
BRANCH  15  18
ATOM     18  O   UNL     1      27.265  30.605   6.835  1.00  0.00    -0.504 OA
ATOM     19  H   UNL     1      27.192  29.624   6.594  1.00  0.00     0.293 HD
ENDBRANCH  15  18
BRANCH  17  20
ATOM     20  O   UNL     1      25.476  31.060   8.973  1.00  0.00    -0.504 OA
ATOM     21  H   UNL     1      24.990  31.360   9.809  1.00  0.00     0.293 HD
ENDBRANCH  17  20
ENDBRANCH   1  12
BRANCH   6  22
ATOM     22  O   UNL     1      19.153  37.599   5.061  1.00  0.00    -0.507 OA
ATOM     23  H   UNL     1      18.993  38.572   5.268  1.00  0.00     0.293 HD
ENDBRANCH   6  22
BRANCH   8  24
ATOM     24  O   UNL     1      17.560  35.154   8.853  1.00  0.00    -0.508 OA
ATOM     25  H   UNL     1      16.611  34.948   8.567  1.00  0.00     0.293 HD
ENDBRANCH   8  24
TORSDOF 5
ENDMDL
MODEL 2
REMARK VINA RESULT:    -6.735      1.544      6.857
REMARK INTER + INTRA:          -8.228
REMARK INTER:                  -7.951
REMARK INTRA:                  -0.277
REMARK UNBOUND:                -0.311
REMARK SMILES O=c1cc(-c2ccc(O)c(O)c2)oc2cc(O)cc(O)c12
REMARK SMILES IDX 4 1 3 2 2 3 1 4 21 5 19 6 18 7 16 8 15 9 14 10 13 11 5 12
REMARK SMILES IDX 6 13 7 14 8 15 12 16 10 17 9 18 11 20 20 22 17 24
REMARK H PARENT 9 19 11 21 20 23 17 25
REMARK Flexibility Score: inf
ROOT
ATOM      1  C   UNL     1      22.112  34.140   5.795  1.00  0.00     0.138 A 
ATOM      2  C   UNL     1      22.519  33.656   4.545  1.00  0.00     0.100 A 
ATOM      3  C   UNL     1      23.681  32.891   4.445  1.00  0.00     0.197 A 
ATOM      4  O   UNL     1      23.989  32.424   3.317  1.00  0.00    -0.289 OA
ATOM      5  C   UNL     1      24.462  32.641   5.599  1.00  0.00     0.107 A 
ATOM      6  C   UNL     1      25.684  31.904   5.613  1.00  0.00     0.134 A 
ATOM      7  C   UNL     1      26.315  31.638   6.834  1.00  0.00     0.093 A 
ATOM      8  C   UNL     1      25.803  32.130   8.034  1.00  0.00     0.123 A 
ATOM      9  C   UNL     1      24.635  32.894   8.027  1.00  0.00     0.094 A 
ATOM     10  C   UNL     1      23.963  33.148   6.830  1.00  0.00     0.146 A 
ATOM     11  O   UNL     1      22.845  33.864   6.870  1.00  0.00    -0.456 OA
ENDROOT
BRANCH   1  12
ATOM     12  C   UNL     1      20.886  34.961   5.959  1.00  0.00     0.021 A 
ATOM     13  C   UNL     1      20.731  36.199   5.309  1.00  0.00     0.016 A 
ATOM     14  C   UNL     1      19.561  36.945   5.474  1.00  0.00     0.051 A 
ATOM     15  C   UNL     1      18.524  36.465   6.283  1.00  0.00     0.157 A 
ATOM     16  C   UNL     1      19.834  34.480   6.759  1.00  0.00     0.062 A 
ATOM     17  C   UNL     1      18.661  35.225   6.927  1.00  0.00     0.158 A 
BRANCH  15  18
ATOM     18  O   UNL     1      17.358  37.213   6.446  1.00  0.00    -0.504 OA
ATOM     19  H   UNL     1      16.441  36.799   6.330  1.00  0.00     0.293 HD
ENDBRANCH  15  18
BRANCH  17  20
ATOM     20  O   UNL     1      17.646  34.717   7.736  1.00  0.00    -0.504 OA
ATOM     21  H   UNL     1      17.110  35.307   8.360  1.00  0.00     0.293 HD
ENDBRANCH  17  20
ENDBRANCH   1  12
BRANCH   6  22
ATOM     22  O   UNL     1      26.328  31.432   4.464  1.00  0.00    -0.507 OA
ATOM     23  H   UNL     1      27.155  30.857   4.459  1.00  0.00     0.293 HD
ENDBRANCH   6  22
BRANCH   8  24
ATOM     24  O   UNL     1      26.467  31.857   9.228  1.00  0.00    -0.508 OA
ATOM     25  H   UNL     1      26.386  30.957   9.686  1.00  0.00     0.293 HD
ENDBRANCH   8  24
TORSDOF 5
ENDMDL
MODEL 3
REMARK VINA RESULT:    -6.411      1.735      6.995
REMARK INTER + INTRA:          -7.847
REMARK INTER:                  -7.555
REMARK INTRA:                  -0.292
REMARK UNBOUND:                -0.311
REMARK SMILES O=c1cc(-c2ccc(O)c(O)c2)oc2cc(O)cc(O)c12
REMARK SMILES IDX 4 1 3 2 2 3 1 4 21 5 19 6 18 7 16 8 15 9 14 10 13 11 5 12
REMARK SMILES IDX 6 13 7 14 8 15 12 16 10 17 9 18 11 20 20 22 17 24
REMARK H PARENT 9 19 11 21 20 23 17 25
REMARK Flexibility Score: inf
ROOT
ATOM      1  C   UNL     1      22.123  33.900   6.034  1.00  0.00     0.138 A 
ATOM      2  C   UNL     1      22.120  33.611   4.663  1.00  0.00     0.100 A 
ATOM      3  C   UNL     1      23.166  32.871   4.111  1.00  0.00     0.197 A 
ATOM      4  O   UNL     1      23.107  32.580   2.888  1.00  0.00    -0.289 OA
ATOM      5  C   UNL     1      24.240  32.450   4.932  1.00  0.00     0.107 A 
ATOM      6  C   UNL     1      25.378  31.720   4.473  1.00  0.00     0.134 A 
ATOM      7  C   UNL     1      26.330  31.273   5.399  1.00  0.00     0.093 A 
ATOM      8  C   UNL     1      26.216  31.577   6.755  1.00  0.00     0.123 A 
ATOM      9  C   UNL     1      25.134  32.333   7.207  1.00  0.00     0.094 A 
ATOM     10  C   UNL     1      24.150  32.765   6.315  1.00  0.00     0.146 A 
ATOM     11  O   UNL     1      23.126  33.466   6.789  1.00  0.00    -0.456 OA
ENDROOT
BRANCH   1  12
ATOM     12  C   UNL     1      21.037  34.686   6.673  1.00  0.00     0.021 A 
ATOM     13  C   UNL     1      20.860  34.706   8.069  1.00  0.00     0.016 A 
ATOM     14  C   UNL     1      19.835  35.463   8.643  1.00  0.00     0.051 A 
ATOM     15  C   UNL     1      18.975  36.218   7.835  1.00  0.00     0.157 A 
ATOM     16  C   UNL     1      20.177  35.457   5.871  1.00  0.00     0.062 A 
ATOM     17  C   UNL     1      19.149  36.216   6.442  1.00  0.00     0.158 A 
BRANCH  15  18
ATOM     18  O   UNL     1      17.953  36.970   8.412  1.00  0.00    -0.504 OA
ATOM     19  H   UNL     1      17.811  36.993   9.415  1.00  0.00     0.293 HD
ENDBRANCH  15  18
BRANCH  17  20
ATOM     20  O   UNL     1      18.313  36.959   5.610  1.00  0.00    -0.504 OA
ATOM     21  H   UNL     1      17.441  36.588   5.254  1.00  0.00     0.293 HD
ENDBRANCH  17  20
ENDBRANCH   1  12
BRANCH   6  22
ATOM     22  O   UNL     1      25.633  31.428   3.130  1.00  0.00    -0.507 OA
ATOM     23  H   UNL     1      26.452  31.719   2.619  1.00  0.00     0.293 HD
ENDBRANCH   6  22
BRANCH   8  24
ATOM     24  O   UNL     1      27.190  31.128   7.644  1.00  0.00    -0.508 OA
ATOM     25  H   UNL     1      28.127  31.514   7.643  1.00  0.00     0.293 HD
ENDBRANCH   8  24
TORSDOF 5
ENDMDL
MODEL 4
REMARK VINA RESULT:    -6.311      1.474      7.242
REMARK INTER + INTRA:          -7.729
REMARK INTER:                  -7.456
REMARK INTRA:                  -0.273
REMARK UNBOUND:                -0.311
REMARK SMILES O=c1cc(-c2ccc(O)c(O)c2)oc2cc(O)cc(O)c12
REMARK SMILES IDX 4 1 3 2 2 3 1 4 21 5 19 6 18 7 16 8 15 9 14 10 13 11 5 12
REMARK SMILES IDX 6 13 7 14 8 15 12 16 10 17 9 18 11 20 20 22 17 24
REMARK H PARENT 9 19 11 21 20 23 17 25
REMARK Flexibility Score: inf
ROOT
ATOM      1  C   UNL     1      22.319  33.980   6.449  1.00  0.00     0.138 A 
ATOM      2  C   UNL     1      22.849  33.634   7.699  1.00  0.00     0.100 A 
ATOM      3  C   UNL     1      24.007  32.858   7.767  1.00  0.00     0.197 A 
ATOM      4  O   UNL     1      24.490  32.611   8.903  1.00  0.00    -0.289 OA
ATOM      5  C   UNL     1      24.615  32.394   6.577  1.00  0.00     0.107 A 
ATOM      6  C   UNL     1      25.777  31.567   6.524  1.00  0.00     0.134 A 
ATOM      7  C   UNL     1      26.345  31.254   5.282  1.00  0.00     0.093 A 
ATOM      8  C   UNL     1      25.762  31.687   4.092  1.00  0.00     0.123 A 
ATOM      9  C   UNL     1      24.597  32.454   4.130  1.00  0.00     0.094 A 
ATOM     10  C   UNL     1      24.025  32.812   5.353  1.00  0.00     0.146 A 
ATOM     11  O   UNL     1      22.927  33.559   5.345  1.00  0.00    -0.456 OA
ENDROOT
BRANCH   1  12
ATOM     12  C   UNL     1      21.089  34.801   6.318  1.00  0.00     0.021 A 
ATOM     13  C   UNL     1      21.028  35.911   5.455  1.00  0.00     0.016 A 
ATOM     14  C   UNL     1      19.853  36.659   5.345  1.00  0.00     0.051 A 
ATOM     15  C   UNL     1      18.718  36.309   6.087  1.00  0.00     0.157 A 
ATOM     16  C   UNL     1      19.940  34.448   7.049  1.00  0.00     0.062 A 
ATOM     17  C   UNL     1      18.762  35.197   6.942  1.00  0.00     0.158 A 
BRANCH  15  18
ATOM     18  O   UNL     1      17.548  37.059   5.975  1.00  0.00    -0.504 OA
ATOM     19  H   UNL     1      17.408  37.713   5.213  1.00  0.00     0.293 HD
ENDBRANCH  15  18
BRANCH  17  20
ATOM     20  O   UNL     1      17.649  34.819   7.691  1.00  0.00    -0.504 OA
ATOM     21  H   UNL     1      17.534  35.093   8.659  1.00  0.00     0.293 HD
ENDBRANCH  17  20
ENDBRANCH   1  12
BRANCH   6  22
ATOM     22  O   UNL     1      26.397  31.013   7.648  1.00  0.00    -0.507 OA
ATOM     23  H   UNL     1      26.033  31.050   8.587  1.00  0.00     0.293 HD
ENDBRANCH   6  22
BRANCH   8  24
ATOM     24  O   UNL     1      26.347  31.343   2.875  1.00  0.00    -0.508 OA
ATOM     25  H   UNL     1      27.238  31.730   2.587  1.00  0.00     0.293 HD
ENDBRANCH   8  24
TORSDOF 5
ENDMDL
MODEL 5
REMARK VINA RESULT:    -6.282      2.370      7.088
REMARK INTER + INTRA:          -7.695
REMARK INTER:                  -7.432
REMARK INTRA:                  -0.263
REMARK UNBOUND:                -0.311
REMARK SMILES O=c1cc(-c2ccc(O)c(O)c2)oc2cc(O)cc(O)c12
REMARK SMILES IDX 4 1 3 2 2 3 1 4 21 5 19 6 18 7 16 8 15 9 14 10 13 11 5 12
REMARK SMILES IDX 6 13 7 14 8 15 12 16 10 17 9 18 11 20 20 22 17 24
REMARK H PARENT 9 19 11 21 20 23 17 25
REMARK Flexibility Score: inf
ROOT
ATOM      1  C   UNL     1      22.343  33.083   5.229  1.00  0.00     0.138 A 
ATOM      2  C   UNL     1      22.070  32.152   4.218  1.00  0.00     0.100 A 
ATOM      3  C   UNL     1      22.729  30.921   4.217  1.00  0.00     0.197 A 
ATOM      4  O   UNL     1      22.421  30.085   3.328  1.00  0.00    -0.289 OA
ATOM      5  C   UNL     1      23.693  30.637   5.214  1.00  0.00     0.107 A 
ATOM      6  C   UNL     1      24.451  29.431   5.294  1.00  0.00     0.134 A 
ATOM      7  C   UNL     1      25.305  29.224   6.384  1.00  0.00     0.093 A 
ATOM      8  C   UNL     1      25.473  30.200   7.366  1.00  0.00     0.123 A 
ATOM      9  C   UNL     1      24.773  31.404   7.271  1.00  0.00     0.094 A 
ATOM     10  C   UNL     1      23.888  31.628   6.215  1.00  0.00     0.146 A 
ATOM     11  O   UNL     1      23.228  32.780   6.172  1.00  0.00    -0.456 OA
ENDROOT
BRANCH   1  12
ATOM     12  C   UNL     1      21.674  34.407   5.277  1.00  0.00     0.021 A 
ATOM     13  C   UNL     1      22.352  35.593   4.934  1.00  0.00     0.016 A 
ATOM     14  C   UNL     1      21.693  36.824   4.979  1.00  0.00     0.051 A 
ATOM     15  C   UNL     1      20.347  36.894   5.359  1.00  0.00     0.157 A 
ATOM     16  C   UNL     1      20.319  34.485   5.644  1.00  0.00     0.062 A 
ATOM     17  C   UNL     1      19.657  35.718   5.691  1.00  0.00     0.158 A 
BRANCH  15  18
ATOM     18  O   UNL     1      19.694  38.125   5.404  1.00  0.00    -0.504 OA
ATOM     19  H   UNL     1      18.707  38.195   5.625  1.00  0.00     0.293 HD
ENDBRANCH  15  18
BRANCH  17  20
ATOM     20  O   UNL     1      18.315  35.751   6.069  1.00  0.00    -0.504 OA
ATOM     21  H   UNL     1      18.031  35.815   7.039  1.00  0.00     0.293 HD
ENDBRANCH  17  20
ENDBRANCH   1  12
BRANCH   6  22
ATOM     22  O   UNL     1      24.422  28.421   4.327  1.00  0.00    -0.507 OA
ATOM     23  H   UNL     1      25.234  28.011   3.893  1.00  0.00     0.293 HD
ENDBRANCH   6  22
BRANCH   8  24
ATOM     24  O   UNL     1      26.342  29.964   8.428  1.00  0.00    -0.508 OA
ATOM     25  H   UNL     1      26.005  29.879   9.380  1.00  0.00     0.293 HD
ENDBRANCH   8  24
TORSDOF 5
ENDMDL
MODEL 6
REMARK VINA RESULT:    -6.269      1.618      7.414
REMARK INTER + INTRA:          -7.680
REMARK INTER:                  -7.409
REMARK INTRA:                  -0.271
REMARK UNBOUND:                -0.311
REMARK SMILES O=c1cc(-c2ccc(O)c(O)c2)oc2cc(O)cc(O)c12
REMARK SMILES IDX 4 1 3 2 2 3 1 4 21 5 19 6 18 7 16 8 15 9 14 10 13 11 5 12
REMARK SMILES IDX 6 13 7 14 8 15 12 16 10 17 9 18 11 20 20 22 17 24
REMARK H PARENT 9 19 11 21 20 23 17 25
REMARK Flexibility Score: inf
ROOT
ATOM      1  C   UNL     1      23.646  33.316   6.501  1.00  0.00     0.138 A 
ATOM      2  C   UNL     1      24.426  33.234   7.662  1.00  0.00     0.100 A 
ATOM      3  C   UNL     1      25.526  32.375   7.697  1.00  0.00     0.197 A 
ATOM      4  O   UNL     1      26.238  32.366   8.734  1.00  0.00    -0.289 OA
ATOM      5  C   UNL     1      25.824  31.567   6.574  1.00  0.00     0.107 A 
ATOM      6  C   UNL     1      26.898  30.630   6.506  1.00  0.00     0.134 A 
ATOM      7  C   UNL     1      27.155  29.959   5.304  1.00  0.00     0.093 A 
ATOM      8  C   UNL     1      26.342  30.146   4.186  1.00  0.00     0.123 A 
ATOM      9  C   UNL     1      25.258  31.023   4.256  1.00  0.00     0.094 A 
ATOM     10  C   UNL     1      24.997  31.733   5.429  1.00  0.00     0.146 A 
ATOM     11  O   UNL     1      23.966  32.571   5.448  1.00  0.00    -0.456 OA
ENDROOT
BRANCH   1  12
ATOM     12  C   UNL     1      22.464  34.209   6.410  1.00  0.00     0.021 A 
ATOM     13  C   UNL     1      22.292  35.104   5.337  1.00  0.00     0.016 A 
ATOM     14  C   UNL     1      21.165  35.926   5.273  1.00  0.00     0.051 A 
ATOM     15  C   UNL     1      20.186  35.865   6.273  1.00  0.00     0.157 A 
ATOM     16  C   UNL     1      21.470  34.144   7.402  1.00  0.00     0.062 A 
ATOM     17  C   UNL     1      20.339  34.967   7.341  1.00  0.00     0.158 A 
BRANCH  15  18
ATOM     18  O   UNL     1      19.062  36.687   6.206  1.00  0.00    -0.504 OA
ATOM     19  H   UNL     1      18.124  36.304   6.188  1.00  0.00     0.293 HD
ENDBRANCH  15  18
BRANCH  17  20
ATOM     20  O   UNL     1      19.382  34.878   8.351  1.00  0.00    -0.504 OA
ATOM     21  H   UNL     1      19.463  34.214   9.112  1.00  0.00     0.293 HD
ENDBRANCH  17  20
ENDBRANCH   1  12
BRANCH   6  22
ATOM     22  O   UNL     1      27.725  30.307   7.587  1.00  0.00    -0.507 OA
ATOM     23  H   UNL     1      27.470  29.700   8.350  1.00  0.00     0.293 HD
ENDBRANCH   6  22
BRANCH   8  24
ATOM     24  O   UNL     1      26.619  29.450   3.011  1.00  0.00    -0.508 OA
ATOM     25  H   UNL     1      27.531  29.489   2.574  1.00  0.00     0.293 HD
ENDBRANCH   8  24
TORSDOF 5
ENDMDL
MODEL 7
REMARK VINA RESULT:    -5.991      1.359      2.548
REMARK INTER + INTRA:          -7.353
REMARK INTER:                  -7.064
REMARK INTRA:                  -0.290
REMARK UNBOUND:                -0.311
REMARK SMILES O=c1cc(-c2ccc(O)c(O)c2)oc2cc(O)cc(O)c12
REMARK SMILES IDX 4 1 3 2 2 3 1 4 21 5 19 6 18 7 16 8 15 9 14 10 13 11 5 12
REMARK SMILES IDX 6 13 7 14 8 15 12 16 10 17 9 18 11 20 20 22 17 24
REMARK H PARENT 9 19 11 21 20 23 17 25
REMARK Flexibility Score: inf
ROOT
ATOM      1  C   UNL     1      22.071  34.063   7.198  1.00  0.00     0.138 A 
ATOM      2  C   UNL     1      21.623  34.392   8.484  1.00  0.00     0.100 A 
ATOM      3  C   UNL     1      20.436  35.110   8.640  1.00  0.00     0.197 A 
ATOM      4  O   UNL     1      20.032  35.342   9.809  1.00  0.00    -0.289 OA
ATOM      5  C   UNL     1      19.713  35.532   7.498  1.00  0.00     0.107 A 
ATOM      6  C   UNL     1      18.510  36.298   7.533  1.00  0.00     0.134 A 
ATOM      7  C   UNL     1      17.831  36.571   6.338  1.00  0.00     0.093 A 
ATOM      8  C   UNL     1      18.340  36.157   5.108  1.00  0.00     0.123 A 
ATOM      9  C   UNL     1      19.542  35.450   5.058  1.00  0.00     0.094 A 
ATOM     10  C   UNL     1      20.226  35.132   6.234  1.00  0.00     0.146 A 
ATOM     11  O   UNL     1      21.357  34.442   6.143  1.00  0.00    -0.456 OA
ENDROOT
BRANCH   1  12
ATOM     12  C   UNL     1      23.327  33.304   6.975  1.00  0.00     0.021 A 
ATOM     13  C   UNL     1      24.021  33.363   5.752  1.00  0.00     0.016 A 
ATOM     14  C   UNL     1      25.206  32.646   5.574  1.00  0.00     0.051 A 
ATOM     15  C   UNL     1      25.724  31.863   6.614  1.00  0.00     0.157 A 
ATOM     16  C   UNL     1      23.861  32.527   8.019  1.00  0.00     0.062 A 
ATOM     17  C   UNL     1      25.048  31.806   7.843  1.00  0.00     0.158 A 
BRANCH  15  18
ATOM     18  O   UNL     1      26.906  31.148   6.432  1.00  0.00    -0.504 OA
ATOM     19  H   UNL     1      27.766  31.417   6.896  1.00  0.00     0.293 HD
ENDBRANCH  15  18
BRANCH  17  20
ATOM     20  O   UNL     1      25.538  31.041   8.900  1.00  0.00    -0.504 OA
ATOM     21  H   UNL     1      25.461  31.343   9.864  1.00  0.00     0.293 HD
ENDBRANCH  17  20
ENDBRANCH   1  12
BRANCH   6  22
ATOM     22  O   UNL     1      17.953  36.830   8.700  1.00  0.00    -0.507 OA
ATOM     23  H   UNL     1      17.023  36.637   9.038  1.00  0.00     0.293 HD
ENDBRANCH   6  22
BRANCH   8  24
ATOM     24  O   UNL     1      17.644  36.460   3.939  1.00  0.00    -0.508 OA
ATOM     25  H   UNL     1      17.749  35.901   3.101  1.00  0.00     0.293 HD
ENDBRANCH   8  24
TORSDOF 5
ENDMDL
MODEL 8
REMARK VINA RESULT:    -5.783      2.226      7.016
REMARK INTER + INTRA:          -7.108
REMARK INTER:                  -6.814
REMARK INTRA:                  -0.294
REMARK UNBOUND:                -0.311
REMARK SMILES O=c1cc(-c2ccc(O)c(O)c2)oc2cc(O)cc(O)c12
REMARK SMILES IDX 4 1 3 2 2 3 1 4 21 5 19 6 18 7 16 8 15 9 14 10 13 11 5 12
REMARK SMILES IDX 6 13 7 14 8 15 12 16 10 17 9 18 11 20 20 22 17 24
REMARK H PARENT 9 19 11 21 20 23 17 25
REMARK Flexibility Score: inf
ROOT
ATOM      1  C   UNL     1      22.545  33.919   5.456  1.00  0.00     0.138 A 
ATOM      2  C   UNL     1      23.866  34.346   5.641  1.00  0.00     0.100 A 
ATOM      3  C   UNL     1      24.917  33.452   5.429  1.00  0.00     0.197 A 
ATOM      4  O   UNL     1      26.094  33.881   5.549  1.00  0.00    -0.289 OA
ATOM      5  C   UNL     1      24.640  32.113   5.066  1.00  0.00     0.107 A 
ATOM      6  C   UNL     1      25.628  31.104   4.857  1.00  0.00     0.134 A 
ATOM      7  C   UNL     1      25.236  29.838   4.403  1.00  0.00     0.093 A 
ATOM      8  C   UNL     1      23.892  29.526   4.205  1.00  0.00     0.123 A 
ATOM      9  C   UNL     1      22.913  30.490   4.454  1.00  0.00     0.094 A 
ATOM     10  C   UNL     1      23.273  31.772   4.875  1.00  0.00     0.146 A 
ATOM     11  O   UNL     1      22.312  32.665   5.083  1.00  0.00    -0.456 OA
ENDROOT
BRANCH   1  12
ATOM     12  C   UNL     1      21.389  34.826   5.670  1.00  0.00     0.021 A 
ATOM     13  C   UNL     1      21.379  36.143   5.172  1.00  0.00     0.016 A 
ATOM     14  C   UNL     1      20.273  36.970   5.381  1.00  0.00     0.051 A 
ATOM     15  C   UNL     1      19.156  36.497   6.080  1.00  0.00     0.157 A 
ATOM     16  C   UNL     1      20.258  34.354   6.359  1.00  0.00     0.062 A 
ATOM     17  C   UNL     1      19.148  35.182   6.570  1.00  0.00     0.158 A 
BRANCH  15  18
ATOM     18  O   UNL     1      18.054  37.327   6.287  1.00  0.00    -0.504 OA
ATOM     19  H   UNL     1      17.464  37.231   7.105  1.00  0.00     0.293 HD
ENDBRANCH  15  18
BRANCH  17  20
ATOM     20  O   UNL     1      18.051  34.678   7.267  1.00  0.00    -0.504 OA
ATOM     21  H   UNL     1      18.074  33.777   7.728  1.00  0.00     0.293 HD
ENDBRANCH  17  20
ENDBRANCH   1  12
BRANCH   6  22
ATOM     22  O   UNL     1      26.993  31.282   5.100  1.00  0.00    -0.507 OA
ATOM     23  H   UNL     1      27.511  32.125   4.905  1.00  0.00     0.293 HD
ENDBRANCH   6  22
BRANCH   8  24
ATOM     24  O   UNL     1      23.539  28.252   3.767  1.00  0.00    -0.508 OA
ATOM     25  H   UNL     1      22.759  27.749   4.174  1.00  0.00     0.293 HD
ENDBRANCH   8  24
TORSDOF 5
ENDMDL
MODEL 9
REMARK VINA RESULT:    -5.570      5.120      8.168
REMARK INTER + INTRA:          -6.858
REMARK INTER:                  -6.548
REMARK INTRA:                  -0.310
REMARK UNBOUND:                -0.311
REMARK SMILES O=c1cc(-c2ccc(O)c(O)c2)oc2cc(O)cc(O)c12
REMARK SMILES IDX 4 1 3 2 2 3 1 4 21 5 19 6 18 7 16 8 15 9 14 10 13 11 5 12
REMARK SMILES IDX 6 13 7 14 8 15 12 16 10 17 9 18 11 20 20 22 17 24
REMARK H PARENT 9 19 11 21 20 23 17 25
REMARK Flexibility Score: inf
ROOT
ATOM      1  C   UNL     1      24.158  27.724   6.673  1.00  0.00     0.138 A 
ATOM      2  C   UNL     1      25.490  27.402   6.963  1.00  0.00     0.100 A 
ATOM      3  C   UNL     1      26.373  28.407   7.360  1.00  0.00     0.197 A 
ATOM      4  O   UNL     1      27.548  28.077   7.667  1.00  0.00    -0.289 OA
ATOM      5  C   UNL     1      25.927  29.749   7.431  1.00  0.00     0.107 A 
ATOM      6  C   UNL     1      26.745  30.862   7.790  1.00  0.00     0.134 A 
ATOM      7  C   UNL     1      26.166  32.130   7.922  1.00  0.00     0.093 A 
ATOM      8  C   UNL     1      24.814  32.338   7.652  1.00  0.00     0.123 A 
ATOM      9  C   UNL     1      24.015  31.266   7.252  1.00  0.00     0.094 A 
ATOM     10  C   UNL     1      24.554  29.982   7.144  1.00  0.00     0.146 A 
ATOM     11  O   UNL     1      23.755  28.986   6.778  1.00  0.00    -0.456 OA
ENDROOT
BRANCH   1  12
ATOM     12  C   UNL     1      23.177  26.696   6.244  1.00  0.00     0.021 A 
ATOM     13  C   UNL     1      23.318  25.342   6.603  1.00  0.00     0.016 A 
ATOM     14  C   UNL     1      22.373  24.398   6.193  1.00  0.00     0.051 A 
ATOM     15  C   UNL     1      21.269  24.788   5.425  1.00  0.00     0.157 A 
ATOM     16  C   UNL     1      22.058  27.081   5.484  1.00  0.00     0.062 A 
ATOM     17  C   UNL     1      21.110  26.137   5.071  1.00  0.00     0.158 A 
BRANCH  15  18
ATOM     18  O   UNL     1      20.329  23.842   5.017  1.00  0.00    -0.504 OA
ATOM     19  H   UNL     1      19.342  23.955   5.216  1.00  0.00     0.293 HD
ENDBRANCH  15  18
BRANCH  17  20
ATOM     20  O   UNL     1      20.020  26.560   4.311  1.00  0.00    -0.504 OA
ATOM     21  H   UNL     1      19.527  27.421   4.512  1.00  0.00     0.293 HD
ENDBRANCH  17  20
ENDBRANCH   1  12
BRANCH   6  22
ATOM     22  O   UNL     1      28.125  30.783   8.005  1.00  0.00    -0.507 OA
ATOM     23  H   UNL     1      28.702  31.536   8.345  1.00  0.00     0.293 HD
ENDBRANCH   6  22
BRANCH   8  24
ATOM     24  O   UNL     1      24.276  33.616   7.779  1.00  0.00    -0.508 OA
ATOM     25  H   UNL     1      23.276  33.776   7.743  1.00  0.00     0.293 HD
ENDBRANCH   8  24
TORSDOF 5
ENDMDL
