MODEL 1
REMARK VINA RESULT:    -6.485      0.000      0.000
REMARK INTER + INTRA:          -9.039
REMARK INTER:                  -8.191
REMARK INTRA:                  -0.849
REMARK UNBOUND:                -0.849
REMARK SMILES CC(C)[C@@H](C)C=C[C@@H](C)[C@@H]1CC[C@H]2C3=CC=C4C[C@H](O)CC[C@]4(C)[C@H]3CC[C@@]21C
REMARK SMILES IDX 8 1 9 2 7 3 6 4 4 5 5 6 2 7 1 8 3 9 10 10 11 11 28 12 12 13
REMARK SMILES IDX 13 14 27 15 29 16 14 17 26 18 25 19 15 20 23 21 16 22 17 23
REMARK SMILES IDX 22 24 24 25 18 26 21 27 19 28 20 29
REMARK H PARENT 20 30
REMARK Flexibility Score: inf
ROOT
ATOM      1  C   UNL     1      12.223 -11.493  25.641  1.00  0.00     0.012 C 
ATOM      2  C   UNL     1      11.783 -10.845  24.311  1.00  0.00     0.012 C 
ENDROOT
BRANCH   1   3
ATOM      3  C   UNL     1      11.803 -10.587  26.780  1.00  0.00    -0.028 C 
ATOM      4  C   UNL     1      11.043  -9.500  26.566  1.00  0.00    -0.028 C 
BRANCH   4   5
ATOM      5  C   UNL     1      10.676  -8.561  27.693  1.00  0.00     0.011 C 
ATOM      6  C   UNL     1      10.023  -9.353  28.840  1.00  0.00     0.012 C 
BRANCH   5   7
ATOM      7  C   UNL     1       9.800  -7.383  27.169  1.00  0.00    -0.011 C 
ATOM      8  C   UNL     1       9.831  -7.235  25.638  1.00  0.00     0.008 C 
ATOM      9  C   UNL     1       8.350  -7.478  27.664  1.00  0.00     0.008 C 
ENDBRANCH   5   7
ENDBRANCH   4   5
ENDBRANCH   1   3
BRANCH   1  10
ATOM     10  C   UNL     1      13.746 -11.844  25.773  1.00  0.00     0.002 C 
ATOM     11  C   UNL     1      14.708 -10.666  25.429  1.00  0.00     0.005 C 
ATOM     12  C   UNL     1      14.292 -13.047  24.939  1.00  0.00    -0.023 C 
ATOM     13  C   UNL     1      15.569 -11.101  24.227  1.00  0.00     0.009 C 
ATOM     14  C   UNL     1      14.862 -12.345  23.703  1.00  0.00     0.021 C 
ATOM     15  C   UNL     1      13.285 -14.142  24.473  1.00  0.00     0.008 C 
ATOM     16  C   UNL     1      15.408 -13.741  25.789  1.00  0.00     0.012 C 
ATOM     17  C   UNL     1      15.541 -13.347  22.803  1.00  0.00    -0.063 C 
ATOM     18  C   UNL     1      13.915 -15.124  23.441  1.00  0.00     0.009 C 
ATOM     19  C   UNL     1      14.590 -14.388  22.237  1.00  0.00     0.025 C 
ATOM     20  C   UNL     1      16.860 -13.568  22.834  1.00  0.00    -0.000 C 
ATOM     21  C   UNL     1      15.258 -15.312  21.134  1.00  0.00    -0.005 C 
ATOM     22  C   UNL     1      17.456 -14.730  22.173  1.00  0.00    -0.000 C 
ATOM     23  C   UNL     1      16.739 -15.567  21.406  1.00  0.00    -0.061 C 
ATOM     24  C   UNL     1      15.201 -14.587  19.753  1.00  0.00     0.014 C 
ATOM     25  C   UNL     1      14.484 -16.655  21.029  1.00  0.00     0.017 C 
ATOM     26  C   UNL     1      17.485 -16.397  20.390  1.00  0.00     0.063 C 
ATOM     27  C   UNL     1      15.980 -15.319  18.631  1.00  0.00     0.033 C 
ATOM     28  C   UNL     1      17.430 -15.673  19.029  1.00  0.00     0.118 C 
BRANCH  28  29
ATOM     29  O   UNL     1      18.196 -14.497  19.074  1.00  0.00    -0.393 OA
ATOM     30  H   UNL     1      17.807 -13.874  18.406  1.00  0.00     0.210 HD
ENDBRANCH  28  29
ENDBRANCH   1  10
TORSDOF 5
ENDMDL
MODEL 2
REMARK VINA RESULT:    -6.430      8.777     11.907
REMARK INTER + INTRA:          -8.970
REMARK INTER:                  -8.068
REMARK INTRA:                  -0.902
REMARK UNBOUND:                -0.849
REMARK SMILES CC(C)[C@@H](C)C=C[C@@H](C)[C@@H]1CC[C@H]2C3=CC=C4C[C@H](O)CC[C@]4(C)[C@H]3CC[C@@]21C
REMARK SMILES IDX 8 1 9 2 7 3 6 4 4 5 5 6 2 7 1 8 3 9 10 10 11 11 28 12 12 13
REMARK SMILES IDX 13 14 27 15 29 16 14 17 26 18 25 19 15 20 23 21 16 22 17 23
REMARK SMILES IDX 22 24 24 25 18 26 21 27 19 28 20 29
REMARK H PARENT 20 30
REMARK Flexibility Score: inf
ROOT
ATOM      1  C   UNL     1      12.203  -0.245  27.097  1.00  0.00     0.012 C 
ATOM      2  C   UNL     1      12.200  -0.160  28.638  1.00  0.00     0.012 C 
ENDROOT
BRANCH   1   3
ATOM      3  C   UNL     1      12.375  -1.695  26.696  1.00  0.00    -0.028 C 
ATOM      4  C   UNL     1      11.650  -2.239  25.703  1.00  0.00    -0.028 C 
BRANCH   4   5
ATOM      5  C   UNL     1      11.777  -3.702  25.344  1.00  0.00     0.011 C 
ATOM      6  C   UNL     1      10.378  -4.320  25.174  1.00  0.00     0.012 C 
BRANCH   5   7
ATOM      7  C   UNL     1      12.669  -4.451  26.380  1.00  0.00    -0.011 C 
ATOM      8  C   UNL     1      12.092  -5.810  26.811  1.00  0.00     0.008 C 
ATOM      9  C   UNL     1      14.112  -4.620  25.882  1.00  0.00     0.008 C 
ENDBRANCH   5   7
ENDBRANCH   4   5
ENDBRANCH   1   3
BRANCH   1  10
ATOM     10  C   UNL     1      13.260   0.643  26.353  1.00  0.00     0.002 C 
ATOM     11  C   UNL     1      12.954   0.877  24.843  1.00  0.00     0.005 C 
ATOM     12  C   UNL     1      14.751   0.174  26.379  1.00  0.00    -0.023 C 
ATOM     13  C   UNL     1      14.118   0.278  24.031  1.00  0.00     0.009 C 
ATOM     14  C   UNL     1      14.873  -0.571  25.046  1.00  0.00     0.021 C 
ATOM     15  C   UNL     1      15.209  -0.775  27.527  1.00  0.00     0.008 C 
ATOM     16  C   UNL     1      15.646   1.457  26.420  1.00  0.00     0.012 C 
ATOM     17  C   UNL     1      16.296  -1.021  24.831  1.00  0.00    -0.063 C 
ATOM     18  C   UNL     1      16.629  -1.363  27.277  1.00  0.00     0.009 C 
ATOM     19  C   UNL     1      16.772  -2.026  25.866  1.00  0.00     0.025 C 
ATOM     20  C   UNL     1      17.172  -0.322  24.101  1.00  0.00    -0.000 C 
ATOM     21  C   UNL     1      18.188  -2.654  25.526  1.00  0.00    -0.005 C 
ATOM     22  C   UNL     1      18.606  -0.615  24.140  1.00  0.00    -0.000 C 
ATOM     23  C   UNL     1      19.107  -1.665  24.810  1.00  0.00    -0.061 C 
ATOM     24  C   UNL     1      17.997  -3.845  24.536  1.00  0.00     0.014 C 
ATOM     25  C   UNL     1      18.860  -3.181  26.824  1.00  0.00     0.017 C 
ATOM     26  C   UNL     1      20.466  -2.176  24.396  1.00  0.00     0.063 C 
ATOM     27  C   UNL     1      19.327  -4.427  23.995  1.00  0.00     0.033 C 
ATOM     28  C   UNL     1      20.270  -3.350  23.414  1.00  0.00     0.118 C 
BRANCH  28  29
ATOM     29  O   UNL     1      19.743  -2.883  22.198  1.00  0.00    -0.393 OA
ATOM     30  H   UNL     1      18.755  -2.925  22.278  1.00  0.00     0.210 HD
ENDBRANCH  28  29
ENDBRANCH   1  10
TORSDOF 5
ENDMDL
MODEL 3
REMARK VINA RESULT:    -6.394      2.595      4.351
REMARK INTER + INTRA:          -8.925
REMARK INTER:                  -8.348
REMARK INTRA:                  -0.577
REMARK UNBOUND:                -0.849
REMARK SMILES CC(C)[C@@H](C)C=C[C@@H](C)[C@@H]1CC[C@H]2C3=CC=C4C[C@H](O)CC[C@]4(C)[C@H]3CC[C@@]21C
REMARK SMILES IDX 8 1 9 2 7 3 6 4 4 5 5 6 2 7 1 8 3 9 10 10 11 11 28 12 12 13
REMARK SMILES IDX 13 14 27 15 29 16 14 17 26 18 25 19 15 20 23 21 16 22 17 23
REMARK SMILES IDX 22 24 24 25 18 26 21 27 19 28 20 29
REMARK H PARENT 20 30
REMARK Flexibility Score: inf
ROOT
ATOM      1  C   UNL     1      12.082 -14.078  24.716  1.00  0.00     0.012 C 
ATOM      2  C   UNL     1      11.677 -13.421  23.379  1.00  0.00     0.012 C 
ENDROOT
BRANCH   1   3
ATOM      3  C   UNL     1      12.132 -13.005  25.784  1.00  0.00    -0.028 C 
ATOM      4  C   UNL     1      12.189 -11.701  25.464  1.00  0.00    -0.028 C 
BRANCH   4   5
ATOM      5  C   UNL     1      12.302 -10.633  26.529  1.00  0.00     0.011 C 
ATOM      6  C   UNL     1      11.512 -11.057  27.780  1.00  0.00     0.012 C 
BRANCH   5   7
ATOM      7  C   UNL     1      11.879  -9.242  25.965  1.00  0.00    -0.011 C 
ATOM      8  C   UNL     1      11.375  -9.302  24.513  1.00  0.00     0.008 C 
ATOM      9  C   UNL     1      10.842  -8.548  26.860  1.00  0.00     0.008 C 
ENDBRANCH   5   7
ENDBRANCH   4   5
ENDBRANCH   1   3
BRANCH   1  10
ATOM     10  C   UNL     1      13.424 -14.890  24.714  1.00  0.00     0.002 C 
ATOM     11  C   UNL     1      13.988 -15.203  26.133  1.00  0.00     0.005 C 
ATOM     12  C   UNL     1      14.639 -14.285  23.938  1.00  0.00    -0.023 C 
ATOM     13  C   UNL     1      15.367 -14.527  26.248  1.00  0.00     0.009 C 
ATOM     14  C   UNL     1      15.410 -13.579  25.057  1.00  0.00     0.021 C 
ATOM     15  C   UNL     1      14.354 -13.259  22.800  1.00  0.00     0.008 C 
ATOM     16  C   UNL     1      15.448 -15.478  23.329  1.00  0.00     0.012 C 
ATOM     17  C   UNL     1      16.699 -13.007  24.519  1.00  0.00    -0.063 C 
ATOM     18  C   UNL     1      15.650 -12.552  22.304  1.00  0.00     0.009 C 
ATOM     19  C   UNL     1      16.486 -11.928  23.471  1.00  0.00     0.025 C 
ATOM     20  C   UNL     1      17.868 -13.647  24.616  1.00  0.00    -0.000 C 
ATOM     21  C   UNL     1      17.824 -11.185  23.057  1.00  0.00    -0.005 C 
ATOM     22  C   UNL     1      19.039 -13.222  23.845  1.00  0.00    -0.000 C 
ATOM     23  C   UNL     1      19.040 -12.108  23.096  1.00  0.00    -0.061 C 
ATOM     24  C   UNL     1      18.122 -10.050  24.087  1.00  0.00     0.014 C 
ATOM     25  C   UNL     1      17.665 -10.553  21.646  1.00  0.00     0.017 C 
ATOM     26  C   UNL     1      20.377 -11.489  22.765  1.00  0.00     0.063 C 
ATOM     27  C   UNL     1      19.498  -9.368  23.883  1.00  0.00     0.033 C 
ATOM     28  C   UNL     1      20.668 -10.373  23.790  1.00  0.00     0.118 C 
BRANCH  28  29
ATOM     29  O   UNL     1      20.901 -10.928  25.059  1.00  0.00    -0.393 OA
ATOM     30  H   UNL     1      20.933 -10.172  25.702  1.00  0.00     0.210 HD
ENDBRANCH  28  29
ENDBRANCH   1  10
TORSDOF 5
ENDMDL
MODEL 4
REMARK VINA RESULT:    -6.258      1.552      2.255
REMARK INTER + INTRA:          -8.753
REMARK INTER:                  -7.951
REMARK INTRA:                  -0.802
REMARK UNBOUND:                -0.849
REMARK SMILES CC(C)[C@@H](C)C=C[C@@H](C)[C@@H]1CC[C@H]2C3=CC=C4C[C@H](O)CC[C@]4(C)[C@H]3CC[C@@]21C
REMARK SMILES IDX 8 1 9 2 7 3 6 4 4 5 5 6 2 7 1 8 3 9 10 10 11 11 28 12 12 13
REMARK SMILES IDX 13 14 27 15 29 16 14 17 26 18 25 19 15 20 23 21 16 22 17 23
REMARK SMILES IDX 22 24 24 25 18 26 21 27 19 28 20 29
REMARK H PARENT 20 30
REMARK Flexibility Score: inf
ROOT
ATOM      1  C   UNL     1      11.223 -10.276  25.093  1.00  0.00     0.012 C 
ATOM      2  C   UNL     1      11.930  -9.612  23.892  1.00  0.00     0.012 C 
ENDROOT
BRANCH   1   3
ATOM      3  C   UNL     1      10.618  -9.188  25.956  1.00  0.00    -0.028 C 
ATOM      4  C   UNL     1      10.503  -7.924  25.513  1.00  0.00    -0.028 C 
BRANCH   4   5
ATOM      5  C   UNL     1       9.957  -6.825  26.396  1.00  0.00     0.011 C 
ATOM      6  C   UNL     1       8.969  -7.418  27.416  1.00  0.00     0.012 C 
BRANCH   5   7
ATOM      7  C   UNL     1       9.353  -5.673  25.538  1.00  0.00    -0.011 C 
ATOM      8  C   UNL     1      10.356  -4.545  25.240  1.00  0.00     0.008 C 
ATOM      9  C   UNL     1       8.733  -6.191  24.232  1.00  0.00     0.008 C 
ENDBRANCH   5   7
ENDBRANCH   4   5
ENDBRANCH   1   3
BRANCH   1  10
ATOM     10  C   UNL     1      12.101 -11.229  25.976  1.00  0.00     0.002 C 
ATOM     11  C   UNL     1      13.411 -10.580  26.517  1.00  0.00     0.005 C 
ATOM     12  C   UNL     1      12.570 -12.580  25.345  1.00  0.00    -0.023 C 
ATOM     13  C   UNL     1      14.598 -11.379  25.949  1.00  0.00     0.009 C 
ATOM     14  C   UNL     1      13.975 -12.228  24.849  1.00  0.00     0.021 C 
ATOM     15  C   UNL     1      11.749 -13.165  24.156  1.00  0.00     0.008 C 
ATOM     16  C   UNL     1      12.600 -13.648  26.489  1.00  0.00     0.012 C 
ATOM     17  C   UNL     1      14.650 -13.455  24.287  1.00  0.00    -0.063 C 
ATOM     18  C   UNL     1      12.476 -14.358  23.466  1.00  0.00     0.009 C 
ATOM     19  C   UNL     1      13.950 -14.018  23.062  1.00  0.00     0.025 C 
ATOM     20  C   UNL     1      15.489 -14.209  25.004  1.00  0.00    -0.000 C 
ATOM     21  C   UNL     1      14.767 -15.176  22.351  1.00  0.00    -0.005 C 
ATOM     22  C   UNL     1      15.904 -15.537  24.548  1.00  0.00    -0.000 C 
ATOM     23  C   UNL     1      15.563 -16.022  23.343  1.00  0.00    -0.061 C 
ATOM     24  C   UNL     1      15.823 -14.545  21.391  1.00  0.00     0.014 C 
ATOM     25  C   UNL     1      13.805 -16.072  21.521  1.00  0.00     0.017 C 
ATOM     26  C   UNL     1      16.418 -17.125  22.766  1.00  0.00     0.063 C 
ATOM     27  C   UNL     1      16.799 -15.577  20.771  1.00  0.00     0.033 C 
ATOM     28  C   UNL     1      17.463 -16.494  21.823  1.00  0.00     0.118 C 
BRANCH  28  29
ATOM     29  O   UNL     1      18.396 -15.749  22.561  1.00  0.00    -0.393 OA
ATOM     30  H   UNL     1      18.254 -15.976  23.517  1.00  0.00     0.210 HD
ENDBRANCH  28  29
ENDBRANCH   1  10
TORSDOF 5
ENDMDL
MODEL 5
REMARK VINA RESULT:    -6.040     11.454     15.765
REMARK INTER + INTRA:          -8.477
REMARK INTER:                  -7.748
REMARK INTRA:                  -0.730
REMARK UNBOUND:                -0.849
REMARK SMILES CC(C)[C@@H](C)C=C[C@@H](C)[C@@H]1CC[C@H]2C3=CC=C4C[C@H](O)CC[C@]4(C)[C@H]3CC[C@@]21C
REMARK SMILES IDX 8 1 9 2 7 3 6 4 4 5 5 6 2 7 1 8 3 9 10 10 11 11 28 12 12 13
REMARK SMILES IDX 13 14 27 15 29 16 14 17 26 18 25 19 15 20 23 21 16 22 17 23
REMARK SMILES IDX 22 24 24 25 18 26 21 27 19 28 20 29
REMARK H PARENT 20 30
REMARK Flexibility Score: inf
ROOT
ATOM      1  C   UNL     1      14.258  -1.753  26.749  1.00  0.00     0.012 C 
ATOM      2  C   UNL     1      13.818  -2.952  25.884  1.00  0.00     0.012 C 
ENDROOT
BRANCH   1   3
ATOM      3  C   UNL     1      13.231  -0.649  26.601  1.00  0.00    -0.028 C 
ATOM      4  C   UNL     1      12.970  -0.090  25.407  1.00  0.00    -0.028 C 
BRANCH   4   5
ATOM      5  C   UNL     1      11.991   1.054  25.269  1.00  0.00     0.011 C 
ATOM      6  C   UNL     1      10.714   0.565  24.562  1.00  0.00     0.012 C 
BRANCH   5   7
ATOM      7  C   UNL     1      12.662   2.276  24.573  1.00  0.00    -0.011 C 
ATOM      8  C   UNL     1      13.526   3.120  25.526  1.00  0.00     0.008 C 
ATOM      9  C   UNL     1      13.479   1.862  23.341  1.00  0.00     0.008 C 
ENDBRANCH   5   7
ENDBRANCH   4   5
ENDBRANCH   1   3
BRANCH   1  10
ATOM     10  C   UNL     1      15.693  -1.184  26.472  1.00  0.00     0.002 C 
ATOM     11  C   UNL     1      16.826  -2.255  26.507  1.00  0.00     0.005 C 
ATOM     12  C   UNL     1      16.214  -0.038  27.398  1.00  0.00    -0.023 C 
ATOM     13  C   UNL     1      17.800  -1.869  27.636  1.00  0.00     0.009 C 
ATOM     14  C   UNL     1      17.040  -0.813  28.429  1.00  0.00     0.021 C 
ATOM     15  C   UNL     1      15.168   0.838  28.151  1.00  0.00     0.008 C 
ATOM     16  C   UNL     1      17.103   0.906  26.522  1.00  0.00     0.012 C 
ATOM     17  C   UNL     1      17.726   0.144  29.372  1.00  0.00    -0.063 C 
ATOM     18  C   UNL     1      15.827   1.753  29.226  1.00  0.00     0.009 C 
ATOM     19  C   UNL     1      16.756   0.962  30.207  1.00  0.00     0.025 C 
ATOM     20  C   UNL     1      18.990   0.545  29.201  1.00  0.00    -0.000 C 
ATOM     21  C   UNL     1      17.469   1.815  31.338  1.00  0.00    -0.005 C 
ATOM     22  C   UNL     1      19.540   1.680  29.945  1.00  0.00    -0.000 C 
ATOM     23  C   UNL     1      18.853   2.303  30.915  1.00  0.00    -0.061 C 
ATOM     24  C   UNL     1      17.703   0.914  32.591  1.00  0.00     0.014 C 
ATOM     25  C   UNL     1      16.569   3.015  31.744  1.00  0.00     0.017 C 
ATOM     26  C   UNL     1      19.642   3.086  31.938  1.00  0.00     0.063 C 
ATOM     27  C   UNL     1      18.551   1.591  33.697  1.00  0.00     0.033 C 
ATOM     28  C   UNL     1      19.875   2.188  33.170  1.00  0.00     0.118 C 
BRANCH  28  29
ATOM     29  O   UNL     1      20.757   1.143  32.850  1.00  0.00    -0.393 OA
ATOM     30  H   UNL     1      21.526   1.214  33.472  1.00  0.00     0.210 HD
ENDBRANCH  28  29
ENDBRANCH   1  10
TORSDOF 5
ENDMDL
MODEL 6
REMARK VINA RESULT:    -6.035      3.324      7.470
REMARK INTER + INTRA:          -8.471
REMARK INTER:                  -7.435
REMARK INTRA:                  -1.036
REMARK UNBOUND:                -0.849
REMARK SMILES CC(C)[C@@H](C)C=C[C@@H](C)[C@@H]1CC[C@H]2C3=CC=C4C[C@H](O)CC[C@]4(C)[C@H]3CC[C@@]21C
REMARK SMILES IDX 8 1 9 2 7 3 6 4 4 5 5 6 2 7 1 8 3 9 10 10 11 11 28 12 12 13
REMARK SMILES IDX 13 14 27 15 29 16 14 17 26 18 25 19 15 20 23 21 16 22 17 23
REMARK SMILES IDX 22 24 24 25 18 26 21 27 19 28 20 29
REMARK H PARENT 20 30
REMARK Flexibility Score: inf
ROOT
ATOM      1  C   UNL     1      18.220 -11.884  18.549  1.00  0.00     0.012 C 
ATOM      2  C   UNL     1      19.723 -11.734  18.864  1.00  0.00     0.012 C 
ENDROOT
BRANCH   1   3
ATOM      3  C   UNL     1      17.470 -10.762  19.237  1.00  0.00    -0.028 C 
ATOM      4  C   UNL     1      18.060  -9.584  19.503  1.00  0.00    -0.028 C 
BRANCH   4   5
ATOM      5  C   UNL     1      17.331  -8.487  20.246  1.00  0.00     0.011 C 
ATOM      6  C   UNL     1      17.375  -7.185  19.428  1.00  0.00     0.012 C 
BRANCH   5   7
ATOM      7  C   UNL     1      17.889  -8.335  21.694  1.00  0.00    -0.011 C 
ATOM      8  C   UNL     1      17.037  -9.057  22.753  1.00  0.00     0.008 C 
ATOM      9  C   UNL     1      19.355  -8.779  21.797  1.00  0.00     0.008 C 
ENDBRANCH   5   7
ENDBRANCH   4   5
ENDBRANCH   1   3
BRANCH   1  10
ATOM     10  C   UNL     1      17.567 -13.263  18.912  1.00  0.00     0.002 C 
ATOM     11  C   UNL     1      16.289 -13.605  18.088  1.00  0.00     0.005 C 
ATOM     12  C   UNL     1      17.145 -13.499  20.398  1.00  0.00    -0.023 C 
ATOM     13  C   UNL     1      15.115 -13.734  19.077  1.00  0.00     0.009 C 
ATOM     14  C   UNL     1      15.658 -13.136  20.368  1.00  0.00     0.021 C 
ATOM     15  C   UNL     1      17.844 -12.658  21.509  1.00  0.00     0.008 C 
ATOM     16  C   UNL     1      17.374 -15.014  20.717  1.00  0.00     0.012 C 
ATOM     17  C   UNL     1      15.030 -13.402  21.714  1.00  0.00    -0.063 C 
ATOM     18  C   UNL     1      17.145 -12.808  22.893  1.00  0.00     0.009 C 
ATOM     19  C   UNL     1      15.604 -12.540  22.826  1.00  0.00     0.025 C 
ATOM     20  C   UNL     1      14.373 -14.533  21.993  1.00  0.00    -0.000 C 
ATOM     21  C   UNL     1      14.810 -12.669  24.192  1.00  0.00    -0.005 C 
ATOM     22  C   UNL     1      14.027 -14.896  23.369  1.00  0.00    -0.000 C 
ATOM     23  C   UNL     1      14.241 -14.071  24.406  1.00  0.00    -0.061 C 
ATOM     24  C   UNL     1      13.575 -11.714  24.161  1.00  0.00     0.014 C 
ATOM     25  C   UNL     1      15.727 -12.266  25.380  1.00  0.00     0.017 C 
ATOM     26  C   UNL     1      13.424 -14.292  25.656  1.00  0.00     0.063 C 
ATOM     27  C   UNL     1      12.625 -11.882  25.373  1.00  0.00     0.033 C 
ATOM     28  C   UNL     1      12.203 -13.349  25.617  1.00  0.00     0.118 C 
BRANCH  28  29
ATOM     29  O   UNL     1      11.315 -13.747  24.604  1.00  0.00    -0.393 OA
ATOM     30  H   UNL     1      10.555 -14.205  25.051  1.00  0.00     0.210 HD
ENDBRANCH  28  29
ENDBRANCH   1  10
TORSDOF 5
ENDMDL
MODEL 7
REMARK VINA RESULT:    -6.019      8.442     12.591
REMARK INTER + INTRA:          -8.452
REMARK INTER:                  -8.059
REMARK INTRA:                  -0.393
REMARK UNBOUND:                -0.849
REMARK SMILES CC(C)[C@@H](C)C=C[C@@H](C)[C@@H]1CC[C@H]2C3=CC=C4C[C@H](O)CC[C@]4(C)[C@H]3CC[C@@]21C
REMARK SMILES IDX 8 1 9 2 7 3 6 4 4 5 5 6 2 7 1 8 3 9 10 10 11 11 28 12 12 13
REMARK SMILES IDX 13 14 27 15 29 16 14 17 26 18 25 19 15 20 23 21 16 22 17 23
REMARK SMILES IDX 22 24 24 25 18 26 21 27 19 28 20 29
REMARK H PARENT 20 30
REMARK Flexibility Score: inf
ROOT
ATOM      1  C   UNL     1      11.351  -3.285  25.243  1.00  0.00     0.012 C 
ATOM      2  C   UNL     1       9.903  -3.454  24.736  1.00  0.00     0.012 C 
ENDROOT
BRANCH   1   3
ATOM      3  C   UNL     1      11.767  -4.561  25.945  1.00  0.00    -0.028 C 
ATOM      4  C   UNL     1      11.017  -5.674  25.878  1.00  0.00    -0.028 C 
BRANCH   4   5
ATOM      5  C   UNL     1      11.400  -6.929  26.631  1.00  0.00     0.011 C 
ATOM      6  C   UNL     1      11.886  -8.003  25.641  1.00  0.00     0.012 C 
BRANCH   5   7
ATOM      7  C   UNL     1      10.230  -7.405  27.544  1.00  0.00    -0.011 C 
ATOM      8  C   UNL     1       8.841  -7.027  27.001  1.00  0.00     0.008 C 
ATOM      9  C   UNL     1      10.297  -8.912  27.830  1.00  0.00     0.008 C 
ENDBRANCH   5   7
ENDBRANCH   4   5
ENDBRANCH   1   3
BRANCH   1  10
ATOM     10  C   UNL     1      11.623  -2.052  26.173  1.00  0.00     0.002 C 
ATOM     11  C   UNL     1      11.015  -0.712  25.658  1.00  0.00     0.005 C 
ATOM     12  C   UNL     1      13.110  -1.702  26.502  1.00  0.00    -0.023 C 
ATOM     13  C   UNL     1      12.179   0.268  25.420  1.00  0.00     0.009 C 
ATOM     14  C   UNL     1      13.418  -0.616  25.467  1.00  0.00     0.021 C 
ATOM     15  C   UNL     1      14.181  -2.829  26.380  1.00  0.00     0.008 C 
ATOM     16  C   UNL     1      13.150  -1.148  27.965  1.00  0.00     0.012 C 
ATOM     17  C   UNL     1      14.804  -0.063  25.690  1.00  0.00    -0.063 C 
ATOM     18  C   UNL     1      15.634  -2.277  26.478  1.00  0.00     0.009 C 
ATOM     19  C   UNL     1      15.901  -1.094  25.489  1.00  0.00     0.025 C 
ATOM     20  C   UNL     1      15.031   1.053  26.389  1.00  0.00    -0.000 C 
ATOM     21  C   UNL     1      17.359  -0.470  25.520  1.00  0.00    -0.005 C 
ATOM     22  C   UNL     1      16.378   1.414  26.838  1.00  0.00    -0.000 C 
ATOM     23  C   UNL     1      17.466   0.715  26.477  1.00  0.00    -0.061 C 
ATOM     24  C   UNL     1      17.706   0.096  24.107  1.00  0.00     0.014 C 
ATOM     25  C   UNL     1      18.397  -1.565  25.891  1.00  0.00     0.017 C 
ATOM     26  C   UNL     1      18.802   1.417  26.548  1.00  0.00     0.063 C 
ATOM     27  C   UNL     1      19.038   0.886  24.060  1.00  0.00     0.033 C 
ATOM     28  C   UNL     1      19.136   1.977  25.150  1.00  0.00     0.118 C 
BRANCH  28  29
ATOM     29  O   UNL     1      18.263   3.030  24.828  1.00  0.00    -0.393 OA
ATOM     30  H   UNL     1      18.772   3.661  24.256  1.00  0.00     0.210 HD
ENDBRANCH  28  29
ENDBRANCH   1  10
TORSDOF 5
ENDMDL
MODEL 8
REMARK VINA RESULT:    -5.928      2.408      4.069
REMARK INTER + INTRA:          -8.336
REMARK INTER:                  -7.862
REMARK INTRA:                  -0.474
REMARK UNBOUND:                -0.849
REMARK SMILES CC(C)[C@@H](C)C=C[C@@H](C)[C@@H]1CC[C@H]2C3=CC=C4C[C@H](O)CC[C@]4(C)[C@H]3CC[C@@]21C
REMARK SMILES IDX 8 1 9 2 7 3 6 4 4 5 5 6 2 7 1 8 3 9 10 10 11 11 28 12 12 13
REMARK SMILES IDX 13 14 27 15 29 16 14 17 26 18 25 19 15 20 23 21 16 22 17 23
REMARK SMILES IDX 22 24 24 25 18 26 21 27 19 28 20 29
REMARK H PARENT 20 30
REMARK Flexibility Score: inf
ROOT
ATOM      1  C   UNL     1      15.253 -14.985  25.964  1.00  0.00     0.012 C 
ATOM      2  C   UNL     1      14.230 -16.136  26.068  1.00  0.00     0.012 C 
ENDROOT
BRANCH   1   3
ATOM      3  C   UNL     1      14.578 -13.800  25.305  1.00  0.00    -0.028 C 
ATOM      4  C   UNL     1      13.282 -13.519  25.526  1.00  0.00    -0.028 C 
BRANCH   4   5
ATOM      5  C   UNL     1      12.593 -12.374  24.820  1.00  0.00     0.011 C 
ATOM      6  C   UNL     1      12.116 -11.336  25.852  1.00  0.00     0.012 C 
BRANCH   5   7
ATOM      7  C   UNL     1      11.456 -12.899  23.892  1.00  0.00    -0.011 C 
ATOM      8  C   UNL     1      11.058 -11.900  22.792  1.00  0.00     0.008 C 
ATOM      9  C   UNL     1      11.800 -14.262  23.274  1.00  0.00     0.008 C 
ENDBRANCH   5   7
ENDBRANCH   4   5
ENDBRANCH   1   3
BRANCH   1  10
ATOM     10  C   UNL     1      16.596 -15.313  25.223  1.00  0.00     0.002 C 
ATOM     11  C   UNL     1      17.577 -14.108  25.109  1.00  0.00     0.005 C 
ATOM     12  C   UNL     1      16.505 -15.878  23.769  1.00  0.00    -0.023 C 
ATOM     13  C   UNL     1      17.792 -13.819  23.611  1.00  0.00     0.009 C 
ATOM     14  C   UNL     1      16.690 -14.614  22.924  1.00  0.00     0.021 C 
ATOM     15  C   UNL     1      15.187 -16.587  23.331  1.00  0.00     0.008 C 
ATOM     16  C   UNL     1      17.686 -16.888  23.583  1.00  0.00     0.012 C 
ATOM     17  C   UNL     1      16.737 -14.971  21.459  1.00  0.00    -0.063 C 
ATOM     18  C   UNL     1      15.144 -16.858  21.797  1.00  0.00     0.009 C 
ATOM     19  C   UNL     1      15.442 -15.579  20.947  1.00  0.00     0.025 C 
ATOM     20  C   UNL     1      17.884 -15.141  20.794  1.00  0.00    -0.000 C 
ATOM     21  C   UNL     1      15.417 -15.762  19.371  1.00  0.00    -0.005 C 
ATOM     22  C   UNL     1      17.915 -15.762  19.468  1.00  0.00    -0.000 C 
ATOM     23  C   UNL     1      16.796 -16.085  18.800  1.00  0.00    -0.061 C 
ATOM     24  C   UNL     1      14.987 -14.418  18.704  1.00  0.00     0.014 C 
ATOM     25  C   UNL     1      14.394 -16.865  18.982  1.00  0.00     0.017 C 
ATOM     26  C   UNL     1      16.895 -16.232  17.300  1.00  0.00     0.063 C 
ATOM     27  C   UNL     1      15.095 -14.425  17.159  1.00  0.00     0.033 C 
ATOM     28  C   UNL     1      16.475 -14.899  16.648  1.00  0.00     0.118 C 
BRANCH  28  29
ATOM     29  O   UNL     1      17.431 -13.905  16.913  1.00  0.00    -0.393 OA
ATOM     30  H   UNL     1      17.519 -13.362  16.087  1.00  0.00     0.210 HD
ENDBRANCH  28  29
ENDBRANCH   1  10
TORSDOF 5
ENDMDL
MODEL 9
REMARK VINA RESULT:    -5.913      3.092      5.737
REMARK INTER + INTRA:          -8.317
REMARK INTER:                  -7.133
REMARK INTRA:                  -1.184
REMARK UNBOUND:                -0.849
REMARK SMILES CC(C)[C@@H](C)C=C[C@@H](C)[C@@H]1CC[C@H]2C3=CC=C4C[C@H](O)CC[C@]4(C)[C@H]3CC[C@@]21C
REMARK SMILES IDX 8 1 9 2 7 3 6 4 4 5 5 6 2 7 1 8 3 9 10 10 11 11 28 12 12 13
REMARK SMILES IDX 13 14 27 15 29 16 14 17 26 18 25 19 15 20 23 21 16 22 17 23
REMARK SMILES IDX 22 24 24 25 18 26 21 27 19 28 20 29
REMARK H PARENT 20 30
REMARK Flexibility Score: inf
ROOT
ATOM      1  C   UNL     1      14.717 -15.706  24.435  1.00  0.00     0.012 C 
ATOM      2  C   UNL     1      14.410 -15.874  22.932  1.00  0.00     0.012 C 
ENDROOT
BRANCH   1   3
ATOM      3  C   UNL     1      13.796 -14.643  24.998  1.00  0.00    -0.028 C 
ATOM      4  C   UNL     1      12.943 -13.967  24.211  1.00  0.00    -0.028 C 
BRANCH   4   5
ATOM      5  C   UNL     1      12.068 -12.863  24.761  1.00  0.00     0.011 C 
ATOM      6  C   UNL     1      11.386 -12.112  23.604  1.00  0.00     0.012 C 
BRANCH   5   7
ATOM      7  C   UNL     1      12.881 -11.936  25.715  1.00  0.00    -0.011 C 
ATOM      8  C   UNL     1      13.734 -10.894  24.969  1.00  0.00     0.008 C 
ATOM      9  C   UNL     1      11.984 -11.244  26.751  1.00  0.00     0.008 C 
ENDBRANCH   5   7
ENDBRANCH   4   5
ENDBRANCH   1   3
BRANCH   1  10
ATOM     10  C   UNL     1      16.204 -15.374  24.809  1.00  0.00     0.002 C 
ATOM     11  C   UNL     1      16.423 -15.011  26.309  1.00  0.00     0.005 C 
ATOM     12  C   UNL     1      16.913 -14.224  24.024  1.00  0.00    -0.023 C 
ATOM     13  C   UNL     1      16.964 -13.570  26.367  1.00  0.00     0.009 C 
ATOM     14  C   UNL     1      16.719 -13.030  24.964  1.00  0.00     0.021 C 
ATOM     15  C   UNL     1      16.367 -13.845  22.614  1.00  0.00     0.008 C 
ATOM     16  C   UNL     1      18.420 -14.616  23.874  1.00  0.00     0.012 C 
ATOM     17  C   UNL     1      17.437 -11.819  24.422  1.00  0.00    -0.063 C 
ATOM     18  C   UNL     1      16.993 -12.525  22.073  1.00  0.00     0.009 C 
ATOM     19  C   UNL     1      16.885 -11.341  23.090  1.00  0.00     0.025 C 
ATOM     20  C   UNL     1      18.663 -11.468  24.822  1.00  0.00    -0.000 C 
ATOM     21  C   UNL     1      17.497  -9.955  22.620  1.00  0.00    -0.005 C 
ATOM     22  C   UNL     1      19.452 -10.476  24.089  1.00  0.00    -0.000 C 
ATOM     23  C   UNL     1      18.952  -9.783  23.053  1.00  0.00    -0.061 C 
ATOM     24  C   UNL     1      16.713  -8.790  23.303  1.00  0.00     0.014 C 
ATOM     25  C   UNL     1      17.366  -9.812  21.078  1.00  0.00     0.017 C 
ATOM     26  C   UNL     1      19.618  -8.475  22.699  1.00  0.00     0.063 C 
ATOM     27  C   UNL     1      17.333  -7.392  23.056  1.00  0.00     0.033 C 
ATOM     28  C   UNL     1      18.843  -7.329  23.381  1.00  0.00     0.118 C 
BRANCH  28  29
ATOM     29  O   UNL     1      19.017  -7.386  24.773  1.00  0.00    -0.393 OA
ATOM     30  H   UNL     1      18.665  -6.534  25.142  1.00  0.00     0.210 HD
ENDBRANCH  28  29
ENDBRANCH   1  10
TORSDOF 5
ENDMDL
