MODEL 1
REMARK VINA RESULT:     6.360      0.000      0.000
REMARK INTER + INTRA:          13.110
REMARK INTER:                  10.079
REMARK INTRA:                   3.032
REMARK UNBOUND:                 3.032
REMARK SMILES C[C@@H]1O[C@H](O[C@@H]2CC[C@@]3(C)[C@H](CC[C@]4(C)[C@@H]3C=C[C@]35OC[C@@]6(CCC(C)(C)C[C@@H]63)[C@@H](O)C[C@]54C)[C@]2(C)CO)[C@@H](O)[C@@H](O[C@H]2O[C@H](CO)[C@H](O)[C@@H](O)[C@H]2O)[C@@H]1O
REMARK SMILES IDX 1 1 2 2 54 3 41 4 39 5 4 6 3 7 55 8 42 10 43 11 52 12 44 13
REMARK SMILES IDX 50 14 45 15 48 16 53 17 51 19 46 21 47 22 49 24 5 26 6 27
REMARK SMILES IDX 7 28 35 29 8 30 11 31 36 32 9 33 12 34 10 35 16 36 13 37
REMARK SMILES IDX 14 38 17 39 15 40 33 41 18 42 19 43 32 44 34 45 29 46 20 47
REMARK SMILES IDX 30 48 22 49 28 50 21 51 23 52 25 53 24 54 26 55 27 56 37 57
REMARK SMILES IDX 38 58 31 60 40 62
REMARK H PARENT 55 9 53 18 51 20 47 23 49 25 38 59 31 61 40 63
REMARK Flexibility Score: inf
ROOT
ATOM      1  C   UNL     1       5.701   3.549   4.351  1.00  0.00     0.041 C 
ATOM      2  C   UNL     1       5.338   5.029   4.523  1.00  0.00     0.150 C 
ATOM      3  C   UNL     1       6.440   5.856   5.245  1.00  0.00     0.175 C 
ATOM      4  C   UNL     1       7.538   6.284   4.261  1.00  0.00     0.186 C 
ATOM      5  C   UNL     1       6.863   6.999   3.091  1.00  0.00     0.202 C 
ATOM      6  C   UNL     1       5.870   6.029   2.402  1.00  0.00     0.282 C 
ATOM      7  O   UNL     1       4.856   5.609   3.306  1.00  0.00    -0.344 OA
ENDROOT
BRANCH   3   8
ATOM      8  O   UNL     1       6.994   5.112   6.303  1.00  0.00    -0.388 OA
ATOM      9  H   UNL     1       7.980   5.217   6.246  1.00  0.00     0.211 HD
ENDBRANCH   3   8
BRANCH   4  10
ATOM     10  O   UNL     1       8.463   7.132   4.922  1.00  0.00    -0.341 OA
BRANCH  10  11
ATOM     11  C   UNL     1       7.924   8.436   5.144  1.00  0.00     0.282 C 
ATOM     12  C   UNL     1       8.986   9.391   5.723  1.00  0.00     0.202 C 
ATOM     13  O   UNL     1       6.788   8.363   5.996  1.00  0.00    -0.341 OA
ATOM     14  C   UNL     1       9.361   9.014   7.168  1.00  0.00     0.179 C 
ATOM     15  C   UNL     1       7.137   7.851   7.274  1.00  0.00     0.178 C 
ATOM     16  C   UNL     1       8.087   8.825   8.010  1.00  0.00     0.177 C 
BRANCH  12  17
ATOM     17  O   UNL     1      10.116   9.467   4.884  1.00  0.00    -0.385 OA
ATOM     18  H   UNL     1      10.904   9.689   5.452  1.00  0.00     0.211 HD
ENDBRANCH  12  17
BRANCH  14  19
ATOM     19  O   UNL     1      10.124   7.832   7.179  1.00  0.00    -0.387 OA
ATOM     20  H   UNL     1       9.866   7.311   6.370  1.00  0.00     0.211 HD
ENDBRANCH  14  19
BRANCH  15  21
ATOM     21  C   UNL     1       5.855   7.604   8.082  1.00  0.00     0.191 C 
BRANCH  21  22
ATOM     22  O   UNL     1       6.037   6.529   8.964  1.00  0.00    -0.394 OA
ATOM     23  H   UNL     1       5.325   5.866   8.763  1.00  0.00     0.210 HD
ENDBRANCH  21  22
ENDBRANCH  15  21
BRANCH  16  24
ATOM     24  O   UNL     1       7.468  10.075   8.195  1.00  0.00    -0.387 OA
ATOM     25  H   UNL     1       6.966  10.027   9.048  1.00  0.00     0.211 HD
ENDBRANCH  16  24
ENDBRANCH  10  11
ENDBRANCH   4  10
BRANCH   6  26
ATOM     26  O   UNL     1       6.485   4.895   1.759  1.00  0.00    -0.346 OA
BRANCH  26  27
ATOM     27  C   UNL     1       7.842   5.134   1.354  1.00  0.00     0.130 C 
ATOM     28  C   UNL     1       7.924   6.046   0.127  1.00  0.00     0.033 C 
ATOM     29  C   UNL     1       8.685   3.788   1.185  1.00  0.00     0.020 C 
ATOM     30  C   UNL     1       7.599   5.297  -1.144  1.00  0.00     0.010 C 
ATOM     31  C   UNL     1       8.820   3.188  -0.323  1.00  0.00     0.006 C 
ATOM     32  C   UNL     1      10.123   4.099   1.687  1.00  0.00     0.017 C 
ATOM     33  C   UNL     1       8.638   4.211  -1.523  1.00  0.00    -0.022 C 
ATOM     34  C   UNL     1       8.048   1.861  -0.597  1.00  0.00     0.005 C 
ATOM     35  C   UNL     1      10.003   4.904  -1.845  1.00  0.00     0.012 C 
ATOM     36  C   UNL     1       8.072   3.487  -2.816  1.00  0.00     0.024 C 
ATOM     37  C   UNL     1       8.556   1.147  -1.865  1.00  0.00     0.008 C 
ATOM     38  C   UNL     1       8.621   2.047  -3.148  1.00  0.00    -0.017 C 
ATOM     39  C   UNL     1       7.989   4.359  -4.056  1.00  0.00    -0.024 C 
ATOM     40  C   UNL     1      10.125   2.158  -3.583  1.00  0.00     0.013 C 
ATOM     41  C   UNL     1       7.695   1.457  -4.332  1.00  0.00     0.009 C 
ATOM     42  C   UNL     1       7.724   3.862  -5.273  1.00  0.00     0.005 C 
ATOM     43  C   UNL     1       7.828   2.382  -5.621  1.00  0.00     0.096 C 
ATOM     44  C   UNL     1       8.072  -0.014  -4.753  1.00  0.00     0.043 C 
ATOM     45  C   UNL     1       6.198   1.413  -3.849  1.00  0.00     0.015 C 
ATOM     46  C   UNL     1       6.809   1.920  -6.699  1.00  0.00     0.037 C 
ATOM     47  O   UNL     1       9.112   2.192  -6.201  1.00  0.00    -0.369 OA
ATOM     48  C   UNL     1       7.476  -0.431  -6.135  1.00  0.00     0.124 C 
ATOM     49  C   UNL     1       7.566   0.705  -7.219  1.00  0.00     0.026 C 
ATOM     50  C   UNL     1       6.511   2.976  -7.786  1.00  0.00     0.014 C 
ATOM     51  C   UNL     1       8.984   1.278  -7.268  1.00  0.00     0.171 C 
ATOM     52  C   UNL     1       7.053   0.178  -8.590  1.00  0.00     0.013 C 
ATOM     53  C   UNL     1       5.791   2.373  -9.009  1.00  0.00    -0.035 C 
ATOM     54  C   UNL     1       6.691   1.272  -9.606  1.00  0.00     0.007 C 
ATOM     55  C   UNL     1       5.585   3.489 -10.047  1.00  0.00     0.011 C 
ATOM     56  C   UNL     1       4.393   1.818  -8.634  1.00  0.00     0.011 C 
BRANCH  29  57
ATOM     57  C   UNL     1       8.161   2.722   2.201  1.00  0.00     0.165 C 
BRANCH  57  58
ATOM     58  O   UNL     1       6.853   2.326   1.901  1.00  0.00    -0.396 OA
ATOM     59  H   UNL     1       6.932   1.558   1.275  1.00  0.00     0.210 HD
ENDBRANCH  57  58
ENDBRANCH  29  57
BRANCH  48  60
ATOM     60  O   UNL     1       8.060  -1.629  -6.592  1.00  0.00    -0.392 OA
ATOM     61  H   UNL     1       8.783  -1.886  -5.964  1.00  0.00     0.210 HD
ENDBRANCH  48  60
ENDBRANCH  26  27
ENDBRANCH   6  26
BRANCH   5  62
ATOM     62  O   UNL     1       6.173   8.134   3.570  1.00  0.00    -0.385 OA
ATOM     63  H   UNL     1       5.625   8.482   2.820  1.00  0.00     0.211 HD
ENDBRANCH   5  62
TORSDOF 14
ENDMDL
MODEL 2
REMARK VINA RESULT:     9.016      1.712      3.338
REMARK INTER + INTRA:          17.319
REMARK INTER:                   4.379
REMARK INTRA:                  12.940
REMARK UNBOUND:                 3.032
REMARK SMILES C[C@@H]1O[C@H](O[C@@H]2CC[C@@]3(C)[C@H](CC[C@]4(C)[C@@H]3C=C[C@]35OC[C@@]6(CCC(C)(C)C[C@@H]63)[C@@H](O)C[C@]54C)[C@]2(C)CO)[C@@H](O)[C@@H](O[C@H]2O[C@H](CO)[C@H](O)[C@@H](O)[C@H]2O)[C@@H]1O
REMARK SMILES IDX 1 1 2 2 54 3 41 4 39 5 4 6 3 7 55 8 42 10 43 11 52 12 44 13
REMARK SMILES IDX 50 14 45 15 48 16 53 17 51 19 46 21 47 22 49 24 5 26 6 27
REMARK SMILES IDX 7 28 35 29 8 30 11 31 36 32 9 33 12 34 10 35 16 36 13 37
REMARK SMILES IDX 14 38 17 39 15 40 33 41 18 42 19 43 32 44 34 45 29 46 20 47
REMARK SMILES IDX 30 48 22 49 28 50 21 51 23 52 25 53 24 54 26 55 27 56 37 57
REMARK SMILES IDX 38 58 31 60 40 62
REMARK H PARENT 55 9 53 18 51 20 47 23 49 25 38 59 31 61 40 63
REMARK Flexibility Score: inf
ROOT
ATOM      1  C   UNL     1       8.610   6.823   0.749  1.00  0.00     0.041 C 
ATOM      2  C   UNL     1       8.964   5.786   1.822  1.00  0.00     0.150 C 
ATOM      3  C   UNL     1       8.175   5.975   3.150  1.00  0.00     0.175 C 
ATOM      4  C   UNL     1       6.781   5.338   3.054  1.00  0.00     0.186 C 
ATOM      5  C   UNL     1       6.961   3.885   2.617  1.00  0.00     0.202 C 
ATOM      6  C   UNL     1       7.666   3.848   1.237  1.00  0.00     0.282 C 
ATOM      7  O   UNL     1       8.953   4.451   1.304  1.00  0.00    -0.344 OA
ENDROOT
BRANCH   3   8
ATOM      8  O   UNL     1       8.067   7.343   3.462  1.00  0.00    -0.388 OA
ATOM      9  H   UNL     1       8.638   7.505   4.259  1.00  0.00     0.211 HD
ENDBRANCH   3   8
BRANCH   4  10
ATOM     10  O   UNL     1       6.134   5.424   4.313  1.00  0.00    -0.341 OA
BRANCH  10  11
ATOM     11  C   UNL     1       7.036   5.178   5.393  1.00  0.00     0.282 C 
ATOM     12  C   UNL     1       6.356   4.376   6.520  1.00  0.00     0.202 C 
ATOM     13  O   UNL     1       7.563   6.403   5.886  1.00  0.00    -0.341 OA
ATOM     14  C   UNL     1       5.295   5.216   7.253  1.00  0.00     0.179 C 
ATOM     15  C   UNL     1       6.533   7.231   6.406  1.00  0.00     0.178 C 
ATOM     16  C   UNL     1       5.886   6.580   7.651  1.00  0.00     0.177 C 
BRANCH  12  17
ATOM     17  O   UNL     1       5.830   3.161   6.038  1.00  0.00    -0.385 OA
ATOM     18  H   UNL     1       4.965   3.360   5.586  1.00  0.00     0.211 HD
ENDBRANCH  12  17
BRANCH  14  19
ATOM     19  O   UNL     1       4.169   5.403   6.430  1.00  0.00    -0.387 OA
ATOM     20  H   UNL     1       3.391   5.004   6.906  1.00  0.00     0.211 HD
ENDBRANCH  14  19
BRANCH  15  21
ATOM     21  C   UNL     1       7.120   8.611   6.738  1.00  0.00     0.191 C 
BRANCH  21  22
ATOM     22  O   UNL     1       8.098   8.961   5.797  1.00  0.00    -0.394 OA
ATOM     23  H   UNL     1       7.786   9.792   5.351  1.00  0.00     0.210 HD
ENDBRANCH  21  22
ENDBRANCH  15  21
BRANCH  16  24
ATOM     24  O   UNL     1       6.844   6.389   8.664  1.00  0.00    -0.387 OA
ATOM     25  H   UNL     1       6.351   6.148   9.489  1.00  0.00     0.211 HD
ENDBRANCH  16  24
ENDBRANCH  10  11
ENDBRANCH   4  10
BRANCH   6  26
ATOM     26  O   UNL     1       6.896   4.404   0.153  1.00  0.00    -0.346 OA
BRANCH  26  27
ATOM     27  C   UNL     1       7.684   5.161  -0.778  1.00  0.00     0.130 C 
ATOM     28  C   UNL     1       6.883   5.559  -2.020  1.00  0.00     0.033 C 
ATOM     29  C   UNL     1       9.072   4.453  -1.135  1.00  0.00     0.020 C 
ATOM     30  C   UNL     1       6.730   4.400  -2.978  1.00  0.00     0.010 C 
ATOM     31  C   UNL     1       9.119   3.575  -2.506  1.00  0.00     0.006 C 
ATOM     32  C   UNL     1      10.125   5.588  -1.279  1.00  0.00     0.017 C 
ATOM     33  C   UNL     1       8.057   3.937  -3.629  1.00  0.00    -0.022 C 
ATOM     34  C   UNL     1       9.231   2.031  -2.319  1.00  0.00     0.005 C 
ATOM     35  C   UNL     1       8.609   5.089  -4.533  1.00  0.00     0.012 C 
ATOM     36  C   UNL     1       7.699   2.669  -4.513  1.00  0.00     0.024 C 
ATOM     37  C   UNL     1       9.695   1.324  -3.607  1.00  0.00     0.008 C 
ATOM     38  C   UNL     1       8.872   1.687  -4.892  1.00  0.00    -0.017 C 
ATOM     39  C   UNL     1       6.791   2.948  -5.697  1.00  0.00    -0.024 C 
ATOM     40  C   UNL     1       9.839   2.406  -5.898  1.00  0.00     0.013 C 
ATOM     41  C   UNL     1       8.190   0.378  -5.548  1.00  0.00     0.009 C 
ATOM     42  C   UNL     1       6.551   2.040  -6.654  1.00  0.00     0.005 C 
ATOM     43  C   UNL     1       7.402   0.794  -6.867  1.00  0.00     0.096 C 
ATOM     44  C   UNL     1       9.225  -0.744  -5.936  1.00  0.00     0.043 C 
ATOM     45  C   UNL     1       7.200  -0.268  -4.508  1.00  0.00     0.015 C 
ATOM     46  C   UNL     1       6.603  -0.427  -7.401  1.00  0.00     0.037 C 
ATOM     47  O   UNL     1       8.338   1.114  -7.887  1.00  0.00    -0.369 OA
ATOM     48  C   UNL     1       8.640  -1.807  -6.920  1.00  0.00     0.124 C 
ATOM     49  C   UNL     1       7.752  -1.181  -8.056  1.00  0.00     0.026 C 
ATOM     50  C   UNL     1       5.463  -0.062  -8.378  1.00  0.00     0.014 C 
ATOM     51  C   UNL     1       8.488  -0.015  -8.721  1.00  0.00     0.171 C 
ATOM     52  C   UNL     1       7.298  -2.287  -9.052  1.00  0.00     0.013 C 
ATOM     53  C   UNL     1       4.935  -1.289  -9.149  1.00  0.00    -0.035 C 
ATOM     54  C   UNL     1       6.107  -1.902  -9.943  1.00  0.00     0.007 C 
ATOM     55  C   UNL     1       3.845  -0.814 -10.124  1.00  0.00     0.011 C 
ATOM     56  C   UNL     1       4.292  -2.330  -8.197  1.00  0.00     0.011 C 
BRANCH  29  57
ATOM     57  C   UNL     1       9.568   3.642   0.105  1.00  0.00     0.165 C 
BRANCH  57  58
ATOM     58  O   UNL     1       9.161   2.304   0.040  1.00  0.00    -0.396 OA
ATOM     59  H   UNL     1       9.978   1.775  -0.161  1.00  0.00     0.210 HD
ENDBRANCH  57  58
ENDBRANCH  29  57
BRANCH  48  60
ATOM     60  O   UNL     1       9.664  -2.617  -7.451  1.00  0.00    -0.392 OA
ATOM     61  H   UNL     1       9.261  -3.247  -8.102  1.00  0.00     0.210 HD
ENDBRANCH  48  60
ENDBRANCH  26  27
ENDBRANCH   6  26
BRANCH   5  62
ATOM     62  O   UNL     1       7.742   3.201   3.575  1.00  0.00    -0.385 OA
ATOM     63  H   UNL     1       8.145   3.886   4.168  1.00  0.00     0.211 HD
ENDBRANCH   5  62
TORSDOF 14
ENDMDL
