MODEL 1
REMARK VINA RESULT:    -2.725      0.000      0.000
REMARK INTER + INTRA:          -3.079
REMARK INTER:                  -3.043
REMARK INTRA:                  -0.036
REMARK UNBOUND:                -0.036
REMARK SMILES CCCC(=O)[O-]
REMARK SMILES IDX 3 1 4 2 5 3 6 4 2 5 1 6
REMARK H PARENT
REMARK Flexibility Score: inf
ROOT
ATOM      1  C   UNL     1      -4.844  -3.538  35.594  1.00  0.00     0.052 C 
ENDROOT
BRANCH   1   2
ATOM      2  C   UNL     1      -4.656  -2.887  34.259  1.00  0.00     0.041 C 
ATOM      3  O   UNL     1      -5.100  -1.727  34.050  1.00  0.00    -0.550 OA
ATOM      4  O   UNL     1      -3.961  -3.548  33.254  1.00  0.00    -0.550 OA
ENDBRANCH   1   2
BRANCH   1   5
ATOM      5  C   UNL     1      -5.694  -2.672  36.533  1.00  0.00     0.003 C 
ATOM      6  C   UNL     1      -4.911  -2.201  37.758  1.00  0.00     0.004 C 
ENDBRANCH   1   5
TORSDOF 2
ENDMDL
MODEL 2
REMARK VINA RESULT:    -2.723      1.180      1.588
REMARK INTER + INTRA:          -3.077
REMARK INTER:                  -3.064
REMARK INTRA:                  -0.013
REMARK UNBOUND:                -0.036
REMARK SMILES CCCC(=O)[O-]
REMARK SMILES IDX 3 1 4 2 5 3 6 4 2 5 1 6
REMARK H PARENT
REMARK Flexibility Score: inf
ROOT
ATOM      1  C   UNL     1      -3.852  -3.428  35.513  1.00  0.00     0.052 C 
ENDROOT
BRANCH   1   2
ATOM      2  C   UNL     1      -3.547  -3.000  34.111  1.00  0.00     0.041 C 
ATOM      3  O   UNL     1      -3.970  -3.674  33.135  1.00  0.00    -0.550 OA
ATOM      4  O   UNL     1      -2.823  -1.837  33.880  1.00  0.00    -0.550 OA
ENDBRANCH   1   2
BRANCH   1   5
ATOM      5  C   UNL     1      -5.354  -3.356  35.815  1.00  0.00     0.003 C 
ATOM      6  C   UNL     1      -5.670  -2.407  36.971  1.00  0.00     0.004 C 
ENDBRANCH   1   5
TORSDOF 2
ENDMDL
MODEL 3
REMARK VINA RESULT:    -2.555      1.781      2.568
REMARK INTER + INTRA:          -2.890
REMARK INTER:                  -2.821
REMARK INTRA:                  -0.069
REMARK UNBOUND:                -0.036
REMARK SMILES CCCC(=O)[O-]
REMARK SMILES IDX 3 1 4 2 5 3 6 4 2 5 1 6
REMARK H PARENT
REMARK Flexibility Score: inf
ROOT
ATOM      1  C   UNL     1      -3.634  -3.714  35.434  1.00  0.00     0.052 C 
ENDROOT
BRANCH   1   2
ATOM      2  C   UNL     1      -4.196  -3.253  34.125  1.00  0.00     0.041 C 
ATOM      3  O   UNL     1      -3.936  -3.881  33.066  1.00  0.00    -0.550 OA
ATOM      4  O   UNL     1      -5.035  -2.147  34.080  1.00  0.00    -0.550 OA
ENDBRANCH   1   2
BRANCH   1   5
ATOM      5  C   UNL     1      -2.745  -2.643  36.079  1.00  0.00     0.003 C 
ATOM      6  C   UNL     1      -1.479  -2.372  35.266  1.00  0.00     0.004 C 
ENDBRANCH   1   5
TORSDOF 2
ENDMDL
MODEL 4
REMARK VINA RESULT:    -2.519      2.355      2.632
REMARK INTER + INTRA:          -2.849
REMARK INTER:                  -2.842
REMARK INTRA:                  -0.007
REMARK UNBOUND:                -0.036
REMARK SMILES CCCC(=O)[O-]
REMARK SMILES IDX 3 1 4 2 5 3 6 4 2 5 1 6
REMARK H PARENT
REMARK Flexibility Score: inf
ROOT
ATOM      1  C   UNL     1      -3.128  -3.465  35.751  1.00  0.00     0.052 C 
ENDROOT
BRANCH   1   2
ATOM      2  C   UNL     1      -4.205  -3.335  34.719  1.00  0.00     0.041 C 
ATOM      3  O   UNL     1      -5.380  -3.038  35.062  1.00  0.00    -0.550 OA
ATOM      4  O   UNL     1      -3.906  -3.510  33.374  1.00  0.00    -0.550 OA
ENDBRANCH   1   2
BRANCH   1   5
ATOM      5  C   UNL     1      -1.958  -2.512  35.472  1.00  0.00     0.003 C 
ATOM      6  C   UNL     1      -0.726  -2.842  36.314  1.00  0.00     0.004 C 
ENDBRANCH   1   5
TORSDOF 2
ENDMDL
MODEL 5
REMARK VINA RESULT:    -2.408      2.379      3.234
REMARK INTER + INTRA:          -2.726
REMARK INTER:                  -2.693
REMARK INTRA:                  -0.032
REMARK UNBOUND:                -0.036
REMARK SMILES CCCC(=O)[O-]
REMARK SMILES IDX 3 1 4 2 5 3 6 4 2 5 1 6
REMARK H PARENT
REMARK Flexibility Score: inf
ROOT
ATOM      1  C   UNL     1      -5.327  -3.515  35.869  1.00  0.00     0.052 C 
ENDROOT
BRANCH   1   2
ATOM      2  C   UNL     1      -5.345  -2.368  36.831  1.00  0.00     0.041 C 
ATOM      3  O   UNL     1      -6.438  -1.851  37.183  1.00  0.00    -0.550 OA
ATOM      4  O   UNL     1      -4.156  -1.889  37.367  1.00  0.00    -0.550 OA
ENDBRANCH   1   2
BRANCH   1   5
ATOM      5  C   UNL     1      -3.940  -3.705  35.239  1.00  0.00     0.003 C 
ATOM      6  C   UNL     1      -3.897  -3.250  33.781  1.00  0.00     0.004 C 
ENDBRANCH   1   5
TORSDOF 2
ENDMDL
MODEL 6
REMARK VINA RESULT:    -2.336      2.740      3.014
REMARK INTER + INTRA:          -2.645
REMARK INTER:                  -2.607
REMARK INTRA:                  -0.038
REMARK UNBOUND:                -0.036
REMARK SMILES CCCC(=O)[O-]
REMARK SMILES IDX 3 1 4 2 5 3 6 4 2 5 1 6
REMARK H PARENT
REMARK Flexibility Score: inf
ROOT
ATOM      1  C   UNL     1      -2.877  -3.626  36.060  1.00  0.00     0.052 C 
ENDROOT
BRANCH   1   2
ATOM      2  C   UNL     1      -1.816  -2.668  35.615  1.00  0.00     0.041 C 
ATOM      3  O   UNL     1      -2.109  -1.697  34.870  1.00  0.00    -0.550 OA
ATOM      4  O   UNL     1      -0.506  -2.830  36.050  1.00  0.00    -0.550 OA
ENDBRANCH   1   2
BRANCH   1   5
ATOM      5  C   UNL     1      -4.078  -3.626  35.105  1.00  0.00     0.003 C 
ATOM      6  C   UNL     1      -5.365  -3.164  35.789  1.00  0.00     0.004 C 
ENDBRANCH   1   5
TORSDOF 2
ENDMDL
MODEL 7
REMARK VINA RESULT:    -2.316     11.995     12.513
REMARK INTER + INTRA:          -2.622
REMARK INTER:                  -2.569
REMARK INTRA:                  -0.054
REMARK UNBOUND:                -0.036
REMARK SMILES CCCC(=O)[O-]
REMARK SMILES IDX 3 1 4 2 5 3 6 4 2 5 1 6
REMARK H PARENT
REMARK Flexibility Score: inf
ROOT
ATOM      1  C   UNL     1      -9.733 -13.566  37.701  1.00  0.00     0.052 C 
ENDROOT
BRANCH   1   2
ATOM      2  C   UNL     1     -10.591 -12.392  37.346  1.00  0.00     0.041 C 
ATOM      3  O   UNL     1     -10.595 -11.941  36.170  1.00  0.00    -0.550 OA
ATOM      4  O   UNL     1     -11.413 -11.814  38.306  1.00  0.00    -0.550 OA
ENDBRANCH   1   2
BRANCH   1   5
ATOM      5  C   UNL     1     -10.574 -14.815  37.995  1.00  0.00     0.003 C 
ATOM      6  C   UNL     1     -11.374 -15.277  36.778  1.00  0.00     0.004 C 
ENDBRANCH   1   5
TORSDOF 2
ENDMDL
MODEL 8
REMARK VINA RESULT:    -2.276     14.293     15.275
REMARK INTER + INTRA:          -2.577
REMARK INTER:                  -2.559
REMARK INTRA:                  -0.018
REMARK UNBOUND:                -0.036
REMARK SMILES CCCC(=O)[O-]
REMARK SMILES IDX 3 1 4 2 5 3 6 4 2 5 1 6
REMARK H PARENT
REMARK Flexibility Score: inf
ROOT
ATOM      1  C   UNL     1      -1.766  -3.327  21.090  1.00  0.00     0.052 C 
ENDROOT
BRANCH   1   2
ATOM      2  C   UNL     1      -0.376  -3.699  21.504  1.00  0.00     0.041 C 
ATOM      3  O   UNL     1      -0.040  -3.648  22.717  1.00  0.00    -0.550 OA
ATOM      4  O   UNL     1       0.540  -4.135  20.555  1.00  0.00    -0.550 OA
ENDBRANCH   1   2
BRANCH   1   5
ATOM      5  C   UNL     1      -2.095  -3.841  19.683  1.00  0.00     0.003 C 
ATOM      6  C   UNL     1      -2.947  -2.853  18.886  1.00  0.00     0.004 C 
ENDBRANCH   1   5
TORSDOF 2
ENDMDL
MODEL 9
REMARK VINA RESULT:    -2.275     14.379     15.299
REMARK INTER + INTRA:          -2.577
REMARK INTER:                  -2.512
REMARK INTRA:                  -0.065
REMARK UNBOUND:                -0.036
REMARK SMILES CCCC(=O)[O-]
REMARK SMILES IDX 3 1 4 2 5 3 6 4 2 5 1 6
REMARK H PARENT
REMARK Flexibility Score: inf
ROOT
ATOM      1  C   UNL     1      -1.825  -3.560  21.049  1.00  0.00     0.052 C 
ENDROOT
BRANCH   1   2
ATOM      2  C   UNL     1      -1.042  -2.299  21.247  1.00  0.00     0.041 C 
ATOM      3  O   UNL     1      -1.453  -1.415  22.044  1.00  0.00    -0.550 OA
ATOM      4  O   UNL     1       0.160  -2.113  20.575  1.00  0.00    -0.550 OA
ENDBRANCH   1   2
BRANCH   1   5
ATOM      5  C   UNL     1      -2.015  -3.881  19.561  1.00  0.00     0.003 C 
ATOM      6  C   UNL     1      -3.004  -2.933  18.883  1.00  0.00     0.004 C 
ENDBRANCH   1   5
TORSDOF 2
ENDMDL
