MODEL 1
REMARK VINA RESULT:    -4.845      0.000      0.000
REMARK INTER + INTRA:         -11.278
REMARK INTER:                  -8.953
REMARK INTRA:                  -2.325
REMARK UNBOUND:                -2.325
REMARK SMILES CCCCCCCCCCCCCCCCO
REMARK SMILES IDX 9 1 8 2 7 3 6 4 5 5 4 6 3 7 2 8 1 9 10 10 11 11 12 12 13 13
REMARK SMILES IDX 14 14 15 15 16 16 17 17
REMARK H PARENT 17 18
REMARK Flexibility Score: inf
ROOT
ATOM      1  C   UNL     1     -17.126   4.476 -21.911  1.00  0.00     0.000 C 
ENDROOT
BRANCH   1   2
ATOM      2  C   UNL     1     -15.773   5.156 -22.190  1.00  0.00    -0.000 C 
BRANCH   2   3
ATOM      3  C   UNL     1     -15.079   4.720 -23.495  1.00  0.00    -0.000 C 
BRANCH   3   4
ATOM      4  C   UNL     1     -14.149   3.513 -23.305  1.00  0.00    -0.000 C 
BRANCH   4   5
ATOM      5  C   UNL     1     -14.690   2.282 -24.049  1.00  0.00    -0.000 C 
BRANCH   5   6
ATOM      6  C   UNL     1     -15.967   2.586 -24.848  1.00  0.00    -0.000 C 
BRANCH   6   7
ATOM      7  C   UNL     1     -17.047   1.510 -24.667  1.00  0.00    -0.000 C 
BRANCH   7   8
ATOM      8  C   UNL     1     -16.689   0.561 -23.517  1.00  0.00    -0.003 C 
ATOM      9  C   UNL     1     -17.919   0.220 -22.680  1.00  0.00     0.004 C 
ENDBRANCH   7   8
ENDBRANCH   6   7
ENDBRANCH   5   6
ENDBRANCH   4   5
ENDBRANCH   3   4
ENDBRANCH   2   3
ENDBRANCH   1   2
BRANCH   1  10
ATOM     10  C   UNL     1     -17.026   3.342 -20.877  1.00  0.00     0.000 C 
BRANCH  10  11
ATOM     11  C   UNL     1     -15.736   3.416 -20.045  1.00  0.00     0.000 C 
BRANCH  11  12
ATOM     12  C   UNL     1     -15.315   2.048 -19.479  1.00  0.00     0.000 C 
BRANCH  12  13
ATOM     13  C   UNL     1     -14.503   1.217 -20.486  1.00  0.00     0.000 C 
BRANCH  13  14
ATOM     14  C   UNL     1     -14.852  -0.279 -20.435  1.00  0.00     0.002 C 
BRANCH  14  15
ATOM     15  C   UNL     1     -14.484  -0.882 -19.073  1.00  0.00     0.028 C 
BRANCH  15  16
ATOM     16  C   UNL     1     -13.632  -2.143 -19.224  1.00  0.00     0.156 C 
BRANCH  16  17
ATOM     17  O   UNL     1     -14.043  -2.874 -20.346  1.00  0.00    -0.396 OA
ATOM     18  H   UNL     1     -14.976  -2.592 -20.531  1.00  0.00     0.210 HD
ENDBRANCH  16  17
ENDBRANCH  15  16
ENDBRANCH  14  15
ENDBRANCH  13  14
ENDBRANCH  12  13
ENDBRANCH  11  12
ENDBRANCH  10  11
ENDBRANCH   1  10
TORSDOF 15
ENDMDL
MODEL 2
REMARK VINA RESULT:    -4.830      2.731      5.306
REMARK INTER + INTRA:         -11.250
REMARK INTER:                  -8.846
REMARK INTRA:                  -2.404
REMARK UNBOUND:                -2.325
REMARK SMILES CCCCCCCCCCCCCCCCO
REMARK SMILES IDX 9 1 8 2 7 3 6 4 5 5 4 6 3 7 2 8 1 9 10 10 11 11 12 12 13 13
REMARK SMILES IDX 14 14 15 15 16 16 17 17
REMARK H PARENT 17 18
REMARK Flexibility Score: inf
ROOT
ATOM      1  C   UNL     1     -14.079   4.763 -22.756  1.00  0.00     0.000 C 
ENDROOT
BRANCH   1   2
ATOM      2  C   UNL     1     -13.665   5.768 -21.665  1.00  0.00    -0.000 C 
BRANCH   2   3
ATOM      3  C   UNL     1     -14.472   5.682 -20.356  1.00  0.00    -0.000 C 
BRANCH   3   4
ATOM      4  C   UNL     1     -15.298   6.947 -20.076  1.00  0.00    -0.000 C 
BRANCH   4   5
ATOM      5  C   UNL     1     -14.463   8.212 -20.325  1.00  0.00    -0.000 C 
BRANCH   5   6
ATOM      6  C   UNL     1     -15.131   9.178 -21.316  1.00  0.00    -0.000 C 
BRANCH   6   7
ATOM      7  C   UNL     1     -16.159   8.482 -22.219  1.00  0.00    -0.000 C 
BRANCH   7   8
ATOM      8  C   UNL     1     -16.032   8.967 -23.669  1.00  0.00    -0.003 C 
ATOM      9  C   UNL     1     -17.163   8.419 -24.535  1.00  0.00     0.004 C 
ENDBRANCH   7   8
ENDBRANCH   6   7
ENDBRANCH   5   6
ENDBRANCH   4   5
ENDBRANCH   3   4
ENDBRANCH   2   3
ENDBRANCH   1   2
BRANCH   1  10
ATOM     10  C   UNL     1     -15.232   5.276 -23.636  1.00  0.00     0.000 C 
BRANCH  10  11
ATOM     11  C   UNL     1     -16.480   4.383 -23.552  1.00  0.00     0.000 C 
BRANCH  11  12
ATOM     12  C   UNL     1     -17.397   4.753 -22.373  1.00  0.00     0.000 C 
BRANCH  12  13
ATOM     13  C   UNL     1     -17.451   3.655 -21.299  1.00  0.00     0.000 C 
BRANCH  13  14
ATOM     14  C   UNL     1     -16.668   2.396 -21.701  1.00  0.00     0.002 C 
BRANCH  14  15
ATOM     15  C   UNL     1     -15.542   2.107 -20.701  1.00  0.00     0.028 C 
BRANCH  15  16
ATOM     16  C   UNL     1     -14.570   1.051 -21.230  1.00  0.00     0.156 C 
BRANCH  16  17
ATOM     17  O   UNL     1     -13.301   1.613 -21.419  1.00  0.00    -0.396 OA
ATOM     18  H   UNL     1     -13.327   2.058 -22.305  1.00  0.00     0.210 HD
ENDBRANCH  16  17
ENDBRANCH  15  16
ENDBRANCH  14  15
ENDBRANCH  13  14
ENDBRANCH  12  13
ENDBRANCH  11  12
ENDBRANCH  10  11
ENDBRANCH   1  10
TORSDOF 15
ENDMDL
MODEL 3
REMARK VINA RESULT:    -4.783      2.634      5.532
REMARK INTER + INTRA:         -11.162
REMARK INTER:                  -8.732
REMARK INTRA:                  -2.430
REMARK UNBOUND:                -2.325
REMARK SMILES CCCCCCCCCCCCCCCCO
REMARK SMILES IDX 9 1 8 2 7 3 6 4 5 5 4 6 3 7 2 8 1 9 10 10 11 11 12 12 13 13
REMARK SMILES IDX 14 14 15 15 16 16 17 17
REMARK H PARENT 17 18
REMARK Flexibility Score: inf
ROOT
ATOM      1  C   UNL     1     -16.456   1.623 -23.284  1.00  0.00     0.000 C 
ENDROOT
BRANCH   1   2
ATOM      2  C   UNL     1     -17.546   2.127 -22.320  1.00  0.00    -0.000 C 
BRANCH   2   3
ATOM      3  C   UNL     1     -17.210   3.435 -21.579  1.00  0.00    -0.000 C 
BRANCH   3   4
ATOM      4  C   UNL     1     -16.754   3.203 -20.130  1.00  0.00    -0.000 C 
BRANCH   4   5
ATOM      5  C   UNL     1     -15.241   2.945 -20.066  1.00  0.00    -0.000 C 
BRANCH   5   6
ATOM      6  C   UNL     1     -14.901   1.465 -19.829  1.00  0.00    -0.000 C 
BRANCH   6   7
ATOM      7  C   UNL     1     -13.827   0.942 -20.794  1.00  0.00    -0.000 C 
BRANCH   7   8
ATOM      8  C   UNL     1     -13.996  -0.562 -21.040  1.00  0.00    -0.003 C 
ATOM      9  C   UNL     1     -15.461  -0.978 -20.932  1.00  0.00     0.004 C 
ENDBRANCH   7   8
ENDBRANCH   6   7
ENDBRANCH   5   6
ENDBRANCH   4   5
ENDBRANCH   3   4
ENDBRANCH   2   3
ENDBRANCH   1   2
BRANCH   1  10
ATOM     10  C   UNL     1     -15.764   2.761 -24.054  1.00  0.00     0.000 C 
BRANCH  10  11
ATOM     11  C   UNL     1     -14.346   3.046 -23.534  1.00  0.00     0.000 C 
BRANCH  11  12
ATOM     12  C   UNL     1     -14.027   4.551 -23.475  1.00  0.00     0.000 C 
BRANCH  12  13
ATOM     13  C   UNL     1     -15.213   5.424 -23.913  1.00  0.00     0.000 C 
BRANCH  13  14
ATOM     14  C   UNL     1     -15.462   6.603 -22.961  1.00  0.00     0.002 C 
BRANCH  14  15
ATOM     15  C   UNL     1     -14.838   6.338 -21.585  1.00  0.00     0.028 C 
BRANCH  15  16
ATOM     16  C   UNL     1     -15.483   7.195 -20.494  1.00  0.00     0.156 C 
BRANCH  16  17
ATOM     17  O   UNL     1     -15.628   6.449 -19.317  1.00  0.00    -0.396 OA
ATOM     18  H   UNL     1     -15.095   5.623 -19.447  1.00  0.00     0.210 HD
ENDBRANCH  16  17
ENDBRANCH  15  16
ENDBRANCH  14  15
ENDBRANCH  13  14
ENDBRANCH  12  13
ENDBRANCH  11  12
ENDBRANCH  10  11
ENDBRANCH   1  10
TORSDOF 15
ENDMDL
MODEL 4
REMARK VINA RESULT:    -4.770      1.537      3.597
REMARK INTER + INTRA:         -11.139
REMARK INTER:                  -9.210
REMARK INTRA:                  -1.930
REMARK UNBOUND:                -2.325
REMARK SMILES CCCCCCCCCCCCCCCCO
REMARK SMILES IDX 9 1 8 2 7 3 6 4 5 5 4 6 3 7 2 8 1 9 10 10 11 11 12 12 13 13
REMARK SMILES IDX 14 14 15 15 16 16 17 17
REMARK H PARENT 17 18
REMARK Flexibility Score: inf
ROOT
ATOM      1  C   UNL     1     -17.891   3.259 -21.737  1.00  0.00     0.000 C 
ENDROOT
BRANCH   1   2
ATOM      2  C   UNL     1     -17.032   3.816 -20.586  1.00  0.00    -0.000 C 
BRANCH   2   3
ATOM      3  C   UNL     1     -15.952   2.856 -20.052  1.00  0.00    -0.000 C 
BRANCH   3   4
ATOM      4  C   UNL     1     -14.526   3.297 -20.413  1.00  0.00    -0.000 C 
BRANCH   4   5
ATOM      5  C   UNL     1     -14.358   4.813 -20.231  1.00  0.00    -0.000 C 
BRANCH   5   6
ATOM      6  C   UNL     1     -14.045   5.538 -21.549  1.00  0.00    -0.000 C 
BRANCH   6   7
ATOM      7  C   UNL     1     -13.925   4.576 -22.740  1.00  0.00    -0.000 C 
BRANCH   7   8
ATOM      8  C   UNL     1     -14.907   4.958 -23.854  1.00  0.00    -0.003 C 
ATOM      9  C   UNL     1     -15.717   6.194 -23.475  1.00  0.00     0.004 C 
ENDBRANCH   7   8
ENDBRANCH   6   7
ENDBRANCH   5   6
ENDBRANCH   4   5
ENDBRANCH   3   4
ENDBRANCH   2   3
ENDBRANCH   1   2
BRANCH   1  10
ATOM     10  C   UNL     1     -17.097   2.352 -22.693  1.00  0.00     0.000 C 
BRANCH  10  11
ATOM     11  C   UNL     1     -17.707   0.947 -22.815  1.00  0.00     0.000 C 
BRANCH  11  12
ATOM     12  C   UNL     1     -16.640  -0.154 -22.952  1.00  0.00     0.000 C 
BRANCH  12  13
ATOM     13  C   UNL     1     -16.005  -0.533 -21.605  1.00  0.00     0.000 C 
BRANCH  13  14
ATOM     14  C   UNL     1     -14.503  -0.831 -21.723  1.00  0.00     0.002 C 
BRANCH  14  15
ATOM     15  C   UNL     1     -13.848  -0.905 -20.337  1.00  0.00     0.028 C 
BRANCH  15  16
ATOM     16  C   UNL     1     -13.481  -2.341 -19.958  1.00  0.00     0.156 C 
BRANCH  16  17
ATOM     17  O   UNL     1     -12.830  -2.362 -18.719  1.00  0.00    -0.396 OA
ATOM     18  H   UNL     1     -12.311  -3.207 -18.695  1.00  0.00     0.210 HD
ENDBRANCH  16  17
ENDBRANCH  15  16
ENDBRANCH  14  15
ENDBRANCH  13  14
ENDBRANCH  12  13
ENDBRANCH  11  12
ENDBRANCH  10  11
ENDBRANCH   1  10
TORSDOF 15
ENDMDL
MODEL 5
REMARK VINA RESULT:    -4.758      2.928      5.103
REMARK INTER + INTRA:         -11.117
REMARK INTER:                  -9.049
REMARK INTRA:                  -2.068
REMARK UNBOUND:                -2.325
REMARK SMILES CCCCCCCCCCCCCCCCO
REMARK SMILES IDX 9 1 8 2 7 3 6 4 5 5 4 6 3 7 2 8 1 9 10 10 11 11 12 12 13 13
REMARK SMILES IDX 14 14 15 15 16 16 17 17
REMARK H PARENT 17 18
REMARK Flexibility Score: inf
ROOT
ATOM      1  C   UNL     1     -14.003   5.416 -21.900  1.00  0.00     0.000 C 
ENDROOT
BRANCH   1   2
ATOM      2  C   UNL     1     -13.711   6.129 -20.567  1.00  0.00    -0.000 C 
BRANCH   2   3
ATOM      3  C   UNL     1     -12.890   7.427 -20.685  1.00  0.00    -0.000 C 
BRANCH   3   4
ATOM      4  C   UNL     1     -13.635   8.659 -20.149  1.00  0.00    -0.000 C 
BRANCH   4   5
ATOM      5  C   UNL     1     -15.099   8.318 -19.830  1.00  0.00    -0.000 C 
BRANCH   5   6
ATOM      6  C   UNL     1     -16.095   9.137 -20.666  1.00  0.00    -0.000 C 
BRANCH   6   7
ATOM      7  C   UNL     1     -16.611   8.369 -21.891  1.00  0.00    -0.000 C 
BRANCH   7   8
ATOM      8  C   UNL     1     -15.972   8.901 -23.180  1.00  0.00    -0.003 C 
ATOM      9  C   UNL     1     -16.097   7.889 -24.316  1.00  0.00     0.004 C 
ENDBRANCH   7   8
ENDBRANCH   6   7
ENDBRANCH   5   6
ENDBRANCH   4   5
ENDBRANCH   3   4
ENDBRANCH   2   3
ENDBRANCH   1   2
BRANCH   1  10
ATOM     10  C   UNL     1     -15.458   4.929 -22.013  1.00  0.00     0.000 C 
BRANCH  10  11
ATOM     11  C   UNL     1     -16.125   4.740 -20.642  1.00  0.00     0.000 C 
BRANCH  11  12
ATOM     12  C   UNL     1     -16.491   3.272 -20.357  1.00  0.00     0.000 C 
BRANCH  12  13
ATOM     13  C   UNL     1     -15.355   2.503 -19.664  1.00  0.00     0.000 C 
BRANCH  13  14
ATOM     14  C   UNL     1     -14.559   1.621 -20.638  1.00  0.00     0.002 C 
BRANCH  14  15
ATOM     15  C   UNL     1     -15.438   1.170 -21.812  1.00  0.00     0.028 C 
BRANCH  15  16
ATOM     16  C   UNL     1     -15.684  -0.340 -21.790  1.00  0.00     0.156 C 
BRANCH  16  17
ATOM     17  O   UNL     1     -16.495  -0.713 -22.870  1.00  0.00    -0.396 OA
ATOM     18  H   UNL     1     -15.924  -1.262 -23.467  1.00  0.00     0.210 HD
ENDBRANCH  16  17
ENDBRANCH  15  16
ENDBRANCH  14  15
ENDBRANCH  13  14
ENDBRANCH  12  13
ENDBRANCH  11  12
ENDBRANCH  10  11
ENDBRANCH   1  10
TORSDOF 15
ENDMDL
MODEL 6
REMARK VINA RESULT:    -4.720      2.183      4.517
REMARK INTER + INTRA:         -11.045
REMARK INTER:                  -9.840
REMARK INTRA:                  -1.206
REMARK UNBOUND:                -2.325
REMARK SMILES CCCCCCCCCCCCCCCCO
REMARK SMILES IDX 9 1 8 2 7 3 6 4 5 5 4 6 3 7 2 8 1 9 10 10 11 11 12 12 13 13
REMARK SMILES IDX 14 14 15 15 16 16 17 17
REMARK H PARENT 17 18
REMARK Flexibility Score: inf
ROOT
ATOM      1  C   UNL     1     -16.670   3.427 -20.237  1.00  0.00     0.000 C 
ENDROOT
BRANCH   1   2
ATOM      2  C   UNL     1     -16.636   3.686 -21.755  1.00  0.00    -0.000 C 
BRANCH   2   3
ATOM      3  C   UNL     1     -16.868   5.150 -22.174  1.00  0.00    -0.000 C 
BRANCH   3   4
ATOM      4  C   UNL     1     -15.673   5.756 -22.925  1.00  0.00    -0.000 C 
BRANCH   4   5
ATOM      5  C   UNL     1     -14.379   5.603 -22.110  1.00  0.00    -0.000 C 
BRANCH   5   6
ATOM      6  C   UNL     1     -14.402   6.412 -20.804  1.00  0.00    -0.000 C 
BRANCH   6   7
ATOM      7  C   UNL     1     -13.127   7.242 -20.599  1.00  0.00    -0.000 C 
BRANCH   7   8
ATOM      8  C   UNL     1     -13.469   8.681 -20.194  1.00  0.00    -0.003 C 
ATOM      9  C   UNL     1     -14.619   9.232 -21.033  1.00  0.00     0.004 C 
ENDBRANCH   7   8
ENDBRANCH   6   7
ENDBRANCH   5   6
ENDBRANCH   4   5
ENDBRANCH   3   4
ENDBRANCH   2   3
ENDBRANCH   1   2
BRANCH   1  10
ATOM     10  C   UNL     1     -15.536   2.503 -19.761  1.00  0.00     0.000 C 
BRANCH  10  11
ATOM     11  C   UNL     1     -14.549   2.153 -20.886  1.00  0.00     0.000 C 
BRANCH  11  12
ATOM     12  C   UNL     1     -14.110   0.678 -20.854  1.00  0.00     0.000 C 
BRANCH  12  13
ATOM     13  C   UNL     1     -14.895  -0.150 -19.825  1.00  0.00     0.000 C 
BRANCH  13  14
ATOM     14  C   UNL     1     -14.094  -1.349 -19.296  1.00  0.00     0.002 C 
BRANCH  14  15
ATOM     15  C   UNL     1     -13.735  -2.313 -20.434  1.00  0.00     0.028 C 
BRANCH  15  16
ATOM     16  C   UNL     1     -12.748  -3.389 -19.976  1.00  0.00     0.156 C 
BRANCH  16  17
ATOM     17  O   UNL     1     -12.310  -3.120 -18.673  1.00  0.00    -0.396 OA
ATOM     18  H   UNL     1     -11.498  -2.558 -18.766  1.00  0.00     0.210 HD
ENDBRANCH  16  17
ENDBRANCH  15  16
ENDBRANCH  14  15
ENDBRANCH  13  14
ENDBRANCH  12  13
ENDBRANCH  11  12
ENDBRANCH  10  11
ENDBRANCH   1  10
TORSDOF 15
ENDMDL
MODEL 7
REMARK VINA RESULT:    -4.706      3.878      6.453
REMARK INTER + INTRA:         -11.020
REMARK INTER:                  -8.780
REMARK INTRA:                  -2.240
REMARK UNBOUND:                -2.325
REMARK SMILES CCCCCCCCCCCCCCCCO
REMARK SMILES IDX 9 1 8 2 7 3 6 4 5 5 4 6 3 7 2 8 1 9 10 10 11 11 12 12 13 13
REMARK SMILES IDX 14 14 15 15 16 16 17 17
REMARK H PARENT 17 18
REMARK Flexibility Score: inf
ROOT
ATOM      1  C   UNL     1     -14.006   5.280 -22.429  1.00  0.00     0.000 C 
ENDROOT
BRANCH   1   2
ATOM      2  C   UNL     1     -15.344   5.611 -23.115  1.00  0.00    -0.000 C 
BRANCH   2   3
ATOM      3  C   UNL     1     -16.209   4.390 -23.484  1.00  0.00    -0.000 C 
BRANCH   3   4
ATOM      4  C   UNL     1     -17.604   4.427 -22.841  1.00  0.00    -0.000 C 
BRANCH   4   5
ATOM      5  C   UNL     1     -17.714   3.393 -21.711  1.00  0.00    -0.000 C 
BRANCH   5   6
ATOM      6  C   UNL     1     -17.029   3.855 -20.415  1.00  0.00    -0.000 C 
BRANCH   6   7
ATOM      7  C   UNL     1     -16.024   2.827 -19.878  1.00  0.00    -0.000 C 
BRANCH   7   8
ATOM      8  C   UNL     1     -15.687   1.780 -20.946  1.00  0.00    -0.003 C 
ATOM      9  C   UNL     1     -14.186   1.731 -21.218  1.00  0.00     0.004 C 
ENDBRANCH   7   8
ENDBRANCH   6   7
ENDBRANCH   5   6
ENDBRANCH   4   5
ENDBRANCH   3   4
ENDBRANCH   2   3
ENDBRANCH   1   2
BRANCH   1  10
ATOM     10  C   UNL     1     -13.959   5.726 -20.958  1.00  0.00     0.000 C 
BRANCH  10  11
ATOM     11  C   UNL     1     -13.266   7.086 -20.776  1.00  0.00     0.000 C 
BRANCH  11  12
ATOM     12  C   UNL     1     -14.205   8.158 -20.194  1.00  0.00     0.000 C 
BRANCH  12  13
ATOM     13  C   UNL     1     -14.955   8.940 -21.284  1.00  0.00     0.000 C 
BRANCH  13  14
ATOM     14  C   UNL     1     -16.453   9.091 -20.978  1.00  0.00     0.002 C 
BRANCH  14  15
ATOM     15  C   UNL     1     -17.116   7.720 -20.793  1.00  0.00     0.028 C 
BRANCH  15  16
ATOM     16  C   UNL     1     -18.506   7.670 -21.429  1.00  0.00     0.156 C 
BRANCH  16  17
ATOM     17  O   UNL     1     -19.417   8.401 -20.656  1.00  0.00    -0.396 OA
ATOM     18  H   UNL     1     -19.829   7.751 -20.029  1.00  0.00     0.210 HD
ENDBRANCH  16  17
ENDBRANCH  15  16
ENDBRANCH  14  15
ENDBRANCH  13  14
ENDBRANCH  12  13
ENDBRANCH  11  12
ENDBRANCH  10  11
ENDBRANCH   1  10
TORSDOF 15
ENDMDL
MODEL 8
REMARK VINA RESULT:    -4.693      2.660      5.154
REMARK INTER + INTRA:         -10.997
REMARK INTER:                  -8.967
REMARK INTRA:                  -2.030
REMARK UNBOUND:                -2.325
REMARK SMILES CCCCCCCCCCCCCCCCO
REMARK SMILES IDX 9 1 8 2 7 3 6 4 5 5 4 6 3 7 2 8 1 9 10 10 11 11 12 12 13 13
REMARK SMILES IDX 14 14 15 15 16 16 17 17
REMARK H PARENT 17 18
REMARK Flexibility Score: inf
ROOT
ATOM      1  C   UNL     1     -17.457   5.192 -20.388  1.00  0.00     0.000 C 
ENDROOT
BRANCH   1   2
ATOM      2  C   UNL     1     -17.457   5.995 -21.702  1.00  0.00    -0.000 C 
BRANCH   2   3
ATOM      3  C   UNL     1     -16.551   5.431 -22.813  1.00  0.00    -0.000 C 
BRANCH   3   4
ATOM      4  C   UNL     1     -15.187   6.133 -22.889  1.00  0.00    -0.000 C 
BRANCH   4   5
ATOM      5  C   UNL     1     -14.115   5.333 -22.132  1.00  0.00    -0.000 C 
BRANCH   5   6
ATOM      6  C   UNL     1     -13.392   6.170 -21.066  1.00  0.00    -0.000 C 
BRANCH   6   7
ATOM      7  C   UNL     1     -14.240   7.348 -20.563  1.00  0.00    -0.000 C 
BRANCH   7   8
ATOM      8  C   UNL     1     -13.355   8.550 -20.214  1.00  0.00    -0.003 C 
ATOM      9  C   UNL     1     -14.190   9.718 -19.696  1.00  0.00     0.004 C 
ENDBRANCH   7   8
ENDBRANCH   6   7
ENDBRANCH   5   6
ENDBRANCH   4   5
ENDBRANCH   3   4
ENDBRANCH   2   3
ENDBRANCH   1   2
BRANCH   1  10
ATOM     10  C   UNL     1     -17.123   3.705 -20.593  1.00  0.00     0.000 C 
BRANCH  10  11
ATOM     11  C   UNL     1     -15.847   3.279 -19.850  1.00  0.00     0.000 C 
BRANCH  11  12
ATOM     12  C   UNL     1     -15.309   1.918 -20.325  1.00  0.00     0.000 C 
BRANCH  12  13
ATOM     13  C   UNL     1     -15.743   1.579 -21.760  1.00  0.00     0.000 C 
BRANCH  13  14
ATOM     14  C   UNL     1     -14.613   1.778 -22.781  1.00  0.00     0.002 C 
BRANCH  14  15
ATOM     15  C   UNL     1     -15.174   2.218 -24.140  1.00  0.00     0.028 C 
BRANCH  15  16
ATOM     16  C   UNL     1     -15.219   1.059 -25.137  1.00  0.00     0.156 C 
BRANCH  16  17
ATOM     17  O   UNL     1     -14.086   0.249 -24.988  1.00  0.00    -0.396 OA
ATOM     18  H   UNL     1     -14.275  -0.349 -24.219  1.00  0.00     0.210 HD
ENDBRANCH  16  17
ENDBRANCH  15  16
ENDBRANCH  14  15
ENDBRANCH  13  14
ENDBRANCH  12  13
ENDBRANCH  11  12
ENDBRANCH  10  11
ENDBRANCH   1  10
TORSDOF 15
ENDMDL
MODEL 9
REMARK VINA RESULT:    -4.623      2.500      4.901
REMARK INTER + INTRA:         -10.866
REMARK INTER:                  -8.738
REMARK INTRA:                  -2.128
REMARK UNBOUND:                -2.325
REMARK SMILES CCCCCCCCCCCCCCCCO
REMARK SMILES IDX 9 1 8 2 7 3 6 4 5 5 4 6 3 7 2 8 1 9 10 10 11 11 12 12 13 13
REMARK SMILES IDX 14 14 15 15 16 16 17 17
REMARK H PARENT 17 18
REMARK Flexibility Score: inf
ROOT
ATOM      1  C   UNL     1     -15.317   5.538 -23.971  1.00  0.00     0.000 C 
ENDROOT
BRANCH   1   2
ATOM      2  C   UNL     1     -15.915   6.364 -25.125  1.00  0.00    -0.000 C 
BRANCH   2   3
ATOM      3  C   UNL     1     -16.508   7.725 -24.716  1.00  0.00    -0.000 C 
BRANCH   3   4
ATOM      4  C   UNL     1     -15.998   8.217 -23.353  1.00  0.00    -0.000 C 
BRANCH   4   5
ATOM      5  C   UNL     1     -17.153   8.337 -22.346  1.00  0.00    -0.000 C 
BRANCH   5   6
ATOM      6  C   UNL     1     -16.835   7.672 -20.997  1.00  0.00    -0.000 C 
BRANCH   6   7
ATOM      7  C   UNL     1     -15.365   7.840 -20.587  1.00  0.00    -0.000 C 
BRANCH   7   8
ATOM      8  C   UNL     1     -14.729   6.482 -20.264  1.00  0.00    -0.003 C 
ATOM      9  C   UNL     1     -13.344   6.358 -20.893  1.00  0.00     0.004 C 
ENDBRANCH   7   8
ENDBRANCH   6   7
ENDBRANCH   5   6
ENDBRANCH   4   5
ENDBRANCH   3   4
ENDBRANCH   2   3
ENDBRANCH   1   2
BRANCH   1  10
ATOM     10  C   UNL     1     -16.047   4.202 -23.748  1.00  0.00     0.000 C 
BRANCH  10  11
ATOM     11  C   UNL     1     -17.372   4.375 -22.989  1.00  0.00     0.000 C 
BRANCH  11  12
ATOM     12  C   UNL     1     -17.232   4.103 -21.480  1.00  0.00     0.000 C 
BRANCH  12  13
ATOM     13  C   UNL     1     -16.628   2.722 -21.182  1.00  0.00     0.000 C 
BRANCH  13  14
ATOM     14  C   UNL     1     -15.406   2.800 -20.253  1.00  0.00     0.002 C 
BRANCH  14  15
ATOM     15  C   UNL     1     -14.895   1.397 -19.901  1.00  0.00     0.028 C 
BRANCH  15  16
ATOM     16  C   UNL     1     -14.052   0.801 -21.030  1.00  0.00     0.156 C 
BRANCH  16  17
ATOM     17  O   UNL     1     -13.356   1.814 -21.700  1.00  0.00    -0.396 OA
ATOM     18  H   UNL     1     -13.984   2.578 -21.774  1.00  0.00     0.210 HD
ENDBRANCH  16  17
ENDBRANCH  15  16
ENDBRANCH  14  15
ENDBRANCH  13  14
ENDBRANCH  12  13
ENDBRANCH  11  12
ENDBRANCH  10  11
ENDBRANCH   1  10
TORSDOF 15
ENDMDL
