MODEL 1
REMARK VINA RESULT:    -5.397      0.000      0.000
REMARK INTER + INTRA:          -9.705
REMARK INTER:                  -8.236
REMARK INTRA:                  -1.469
REMARK UNBOUND:                -1.469
REMARK SMILES CCCCCCCCCC=CC(=O)[O-]
REMARK SMILES IDX 7 1 8 2 9 3 10 4 11 5 12 6 13 7 14 8 6 9 5 10 4 11 3 12 2 13
REMARK SMILES IDX 1 14
REMARK H PARENT
REMARK Flexibility Score: inf
ROOT
ATOM      1  C   UNL     1     -44.325 -40.918 106.446  1.00  0.00     0.000 C 
ENDROOT
BRANCH   1   2
ATOM      2  C   UNL     1     -44.973 -39.562 106.773  1.00  0.00     0.004 C 
BRANCH   2   3
ATOM      3  C   UNL     1     -44.743 -39.136 108.230  1.00  0.00     0.027 C 
BRANCH   3   4
ATOM      4  C   UNL     1     -43.841 -37.938 108.309  1.00  0.00    -0.025 C 
ATOM      5  C   UNL     1     -43.628 -37.154 107.247  1.00  0.00     0.020 C 
BRANCH   5   6
ATOM      6  C   UNL     1     -42.736 -35.987 107.306  1.00  0.00     0.064 C 
ATOM      7  O   UNL     1     -41.602 -36.042 106.762  1.00  0.00    -0.545 OA
ATOM      8  O   UNL     1     -43.127 -34.818 107.951  1.00  0.00    -0.545 OA
ENDBRANCH   5   6
ENDBRANCH   3   4
ENDBRANCH   2   3
ENDBRANCH   1   2
BRANCH   1   9
ATOM      9  C   UNL     1     -43.102 -40.779 105.522  1.00  0.00     0.000 C 
BRANCH   9  10
ATOM     10  C   UNL     1     -41.773 -41.023 106.256  1.00  0.00     0.000 C 
BRANCH  10  11
ATOM     11  C   UNL     1     -41.000 -39.721 106.526  1.00  0.00    -0.000 C 
BRANCH  11  12
ATOM     12  C   UNL     1     -40.441 -39.653 107.955  1.00  0.00    -0.000 C 
BRANCH  12  13
ATOM     13  C   UNL     1     -41.339 -40.364 108.979  1.00  0.00    -0.003 C 
ATOM     14  C   UNL     1     -40.522 -41.287 109.879  1.00  0.00     0.004 C 
ENDBRANCH  12  13
ENDBRANCH  11  12
ENDBRANCH  10  11
ENDBRANCH   9  10
ENDBRANCH   1   9
TORSDOF 9
ENDMDL
MODEL 2
REMARK VINA RESULT:    -5.366      2.662      4.163
REMARK INTER + INTRA:          -9.658
REMARK INTER:                  -8.029
REMARK INTRA:                  -1.628
REMARK UNBOUND:                -1.469
REMARK SMILES CCCCCCCCCC=CC(=O)[O-]
REMARK SMILES IDX 7 1 8 2 9 3 10 4 11 5 12 6 13 7 14 8 6 9 5 10 4 11 3 12 2 13
REMARK SMILES IDX 1 14
REMARK H PARENT
REMARK Flexibility Score: inf
ROOT
ATOM      1  C   UNL     1     -44.749 -39.029 106.218  1.00  0.00     0.000 C 
ENDROOT
BRANCH   1   2
ATOM      2  C   UNL     1     -44.687 -39.710 107.595  1.00  0.00     0.004 C 
BRANCH   2   3
ATOM      3  C   UNL     1     -44.248 -38.748 108.709  1.00  0.00     0.027 C 
BRANCH   3   4
ATOM      4  C   UNL     1     -42.853 -39.055 109.171  1.00  0.00    -0.025 C 
ATOM      5  C   UNL     1     -42.210 -40.155 108.766  1.00  0.00     0.020 C 
BRANCH   5   6
ATOM      6  C   UNL     1     -40.849 -40.476 109.221  1.00  0.00     0.064 C 
ATOM      7  O   UNL     1     -40.037 -41.013 108.424  1.00  0.00    -0.545 OA
ATOM      8  O   UNL     1     -40.443 -40.192 110.521  1.00  0.00    -0.545 OA
ENDBRANCH   5   6
ENDBRANCH   3   4
ENDBRANCH   2   3
ENDBRANCH   1   2
BRANCH   1   9
ATOM      9  C   UNL     1     -43.620 -39.491 105.281  1.00  0.00     0.000 C 
BRANCH   9  10
ATOM     10  C   UNL     1     -42.419 -38.531 105.280  1.00  0.00     0.000 C 
BRANCH  10  11
ATOM     11  C   UNL     1     -42.830 -37.071 105.536  1.00  0.00    -0.000 C 
BRANCH  11  12
ATOM     12  C   UNL     1     -42.024 -36.421 106.672  1.00  0.00    -0.000 C 
BRANCH  12  13
ATOM     13  C   UNL     1     -42.846 -35.402 107.476  1.00  0.00    -0.003 C 
ATOM     14  C   UNL     1     -44.316 -35.438 107.069  1.00  0.00     0.004 C 
ENDBRANCH  12  13
ENDBRANCH  11  12
ENDBRANCH  10  11
ENDBRANCH   9  10
ENDBRANCH   1   9
TORSDOF 9
ENDMDL
MODEL 3
REMARK VINA RESULT:    -5.237      2.807      4.857
REMARK INTER + INTRA:          -9.462
REMARK INTER:                  -7.790
REMARK INTRA:                  -1.672
REMARK UNBOUND:                -1.469
REMARK SMILES CCCCCCCCCC=CC(=O)[O-]
REMARK SMILES IDX 7 1 8 2 9 3 10 4 11 5 12 6 13 7 14 8 6 9 5 10 4 11 3 12 2 13
REMARK SMILES IDX 1 14
REMARK H PARENT
REMARK Flexibility Score: inf
ROOT
ATOM      1  C   UNL     1     -42.883 -39.331 109.016  1.00  0.00     0.000 C 
ENDROOT
BRANCH   1   2
ATOM      2  C   UNL     1     -42.130 -40.098 107.917  1.00  0.00     0.004 C 
BRANCH   2   3
ATOM      3  C   UNL     1     -40.907 -39.330 107.394  1.00  0.00     0.027 C 
BRANCH   3   4
ATOM      4  C   UNL     1     -40.866 -39.335 105.893  1.00  0.00    -0.025 C 
ATOM      5  C   UNL     1     -41.560 -40.228 105.178  1.00  0.00     0.020 C 
BRANCH   5   6
ATOM      6  C   UNL     1     -41.518 -40.254 103.709  1.00  0.00     0.064 C 
ATOM      7  O   UNL     1     -40.432 -40.027 103.114  1.00  0.00    -0.545 OA
ATOM      8  O   UNL     1     -42.660 -40.528 102.964  1.00  0.00    -0.545 OA
ENDBRANCH   5   6
ENDBRANCH   3   4
ENDBRANCH   2   3
ENDBRANCH   1   2
BRANCH   1   9
ATOM      9  C   UNL     1     -44.200 -38.717 108.511  1.00  0.00     0.000 C 
BRANCH   9  10
ATOM     10  C   UNL     1     -44.684 -39.350 107.195  1.00  0.00     0.000 C 
BRANCH  10  11
ATOM     11  C   UNL     1     -44.697 -38.348 106.028  1.00  0.00    -0.000 C 
BRANCH  11  12
ATOM     12  C   UNL     1     -44.376 -36.915 106.478  1.00  0.00    -0.000 C 
BRANCH  12  13
ATOM     13  C   UNL     1     -43.097 -36.361 105.830  1.00  0.00    -0.003 C 
ATOM     14  C   UNL     1     -42.149 -35.794 106.882  1.00  0.00     0.004 C 
ENDBRANCH  12  13
ENDBRANCH  11  12
ENDBRANCH  10  11
ENDBRANCH   9  10
ENDBRANCH   1   9
TORSDOF 9
ENDMDL
MODEL 4
REMARK VINA RESULT:    -5.193      1.461      2.103
REMARK INTER + INTRA:          -9.394
REMARK INTER:                  -8.085
REMARK INTRA:                  -1.310
REMARK UNBOUND:                -1.469
REMARK SMILES CCCCCCCCCC=CC(=O)[O-]
REMARK SMILES IDX 7 1 8 2 9 3 10 4 11 5 12 6 13 7 14 8 6 9 5 10 4 11 3 12 2 13
REMARK SMILES IDX 1 14
REMARK H PARENT
REMARK Flexibility Score: inf
ROOT
ATOM      1  C   UNL     1     -44.136 -40.632 106.598  1.00  0.00     0.000 C 
ENDROOT
BRANCH   1   2
ATOM      2  C   UNL     1     -44.986 -39.540 107.268  1.00  0.00     0.004 C 
BRANCH   2   3
ATOM      3  C   UNL     1     -44.443 -39.133 108.645  1.00  0.00     0.027 C 
BRANCH   3   4
ATOM      4  C   UNL     1     -43.564 -37.920 108.544  1.00  0.00    -0.025 C 
ATOM      5  C   UNL     1     -43.788 -36.969 107.631  1.00  0.00     0.020 C 
BRANCH   5   6
ATOM      6  C   UNL     1     -42.928 -35.784 107.511  1.00  0.00     0.064 C 
ATOM      7  O   UNL     1     -41.853 -35.859 106.859  1.00  0.00    -0.545 OA
ATOM      8  O   UNL     1     -43.283 -34.577 108.104  1.00  0.00    -0.545 OA
ENDBRANCH   5   6
ENDBRANCH   3   4
ENDBRANCH   2   3
ENDBRANCH   1   2
BRANCH   1   9
ATOM      9  C   UNL     1     -44.079 -40.478 105.067  1.00  0.00     0.000 C 
BRANCH   9  10
ATOM     10  C   UNL     1     -43.707 -39.052 104.628  1.00  0.00     0.000 C 
BRANCH  10  11
ATOM     11  C   UNL     1     -42.227 -38.722 104.885  1.00  0.00    -0.000 C 
BRANCH  11  12
ATOM     12  C   UNL     1     -41.275 -39.758 104.267  1.00  0.00    -0.000 C 
BRANCH  12  13
ATOM     13  C   UNL     1     -40.098 -40.109 105.190  1.00  0.00    -0.003 C 
ATOM     14  C   UNL     1     -40.338 -39.596 106.607  1.00  0.00     0.004 C 
ENDBRANCH  12  13
ENDBRANCH  11  12
ENDBRANCH  10  11
ENDBRANCH   9  10
ENDBRANCH   1   9
TORSDOF 9
ENDMDL
MODEL 5
REMARK VINA RESULT:    -5.166      2.461      4.418
REMARK INTER + INTRA:          -9.354
REMARK INTER:                  -7.910
REMARK INTRA:                  -1.444
REMARK UNBOUND:                -1.469
REMARK SMILES CCCCCCCCCC=CC(=O)[O-]
REMARK SMILES IDX 7 1 8 2 9 3 10 4 11 5 12 6 13 7 14 8 6 9 5 10 4 11 3 12 2 13
REMARK SMILES IDX 1 14
REMARK H PARENT
REMARK Flexibility Score: inf
ROOT
ATOM      1  C   UNL     1     -44.423 -39.898 108.101  1.00  0.00     0.000 C 
ENDROOT
BRANCH   1   2
ATOM      2  C   UNL     1     -43.288 -39.174 108.842  1.00  0.00     0.004 C 
BRANCH   2   3
ATOM      3  C   UNL     1     -42.011 -40.021 108.938  1.00  0.00     0.027 C 
BRANCH   3   4
ATOM      4  C   UNL     1     -41.482 -40.361 107.575  1.00  0.00    -0.025 C 
ATOM      5  C   UNL     1     -40.671 -39.528 106.914  1.00  0.00     0.020 C 
BRANCH   5   6
ATOM      6  C   UNL     1     -40.156 -39.840 105.573  1.00  0.00     0.064 C 
ATOM      7  O   UNL     1     -38.944 -40.150 105.429  1.00  0.00    -0.545 OA
ATOM      8  O   UNL     1     -40.987 -39.803 104.459  1.00  0.00    -0.545 OA
ENDBRANCH   5   6
ENDBRANCH   3   4
ENDBRANCH   2   3
ENDBRANCH   1   2
BRANCH   1   9
ATOM      9  C   UNL     1     -45.035 -39.043 106.977  1.00  0.00     0.000 C 
BRANCH   9  10
ATOM     10  C   UNL     1     -44.331 -39.246 105.626  1.00  0.00     0.000 C 
BRANCH  10  11
ATOM     11  C   UNL     1     -43.997 -37.916 104.928  1.00  0.00    -0.000 C 
BRANCH  11  12
ATOM     12  C   UNL     1     -42.999 -37.064 105.729  1.00  0.00    -0.000 C 
BRANCH  12  13
ATOM     13  C   UNL     1     -43.565 -35.687 106.110  1.00  0.00    -0.003 C 
ATOM     14  C   UNL     1     -43.679 -35.540 107.624  1.00  0.00     0.004 C 
ENDBRANCH  12  13
ENDBRANCH  11  12
ENDBRANCH  10  11
ENDBRANCH   9  10
ENDBRANCH   1   9
TORSDOF 9
ENDMDL
MODEL 6
REMARK VINA RESULT:    -5.136      1.205      2.493
REMARK INTER + INTRA:          -9.307
REMARK INTER:                  -7.842
REMARK INTRA:                  -1.465
REMARK UNBOUND:                -1.469
REMARK SMILES CCCCCCCCCC=CC(=O)[O-]
REMARK SMILES IDX 7 1 8 2 9 3 10 4 11 5 12 6 13 7 14 8 6 9 5 10 4 11 3 12 2 13
REMARK SMILES IDX 1 14
REMARK H PARENT
REMARK Flexibility Score: inf
ROOT
ATOM      1  C   UNL     1     -44.381 -40.274 106.943  1.00  0.00     0.000 C 
ENDROOT
BRANCH   1   2
ATOM      2  C   UNL     1     -44.980 -39.369 105.853  1.00  0.00     0.004 C 
BRANCH   2   3
ATOM      3  C   UNL     1     -43.942 -38.943 104.804  1.00  0.00     0.027 C 
BRANCH   3   4
ATOM      4  C   UNL     1     -43.049 -37.859 105.335  1.00  0.00    -0.025 C 
ATOM      5  C   UNL     1     -43.548 -36.778 105.944  1.00  0.00     0.020 C 
BRANCH   5   6
ATOM      6  C   UNL     1     -42.687 -35.703 106.455  1.00  0.00     0.064 C 
ATOM      7  O   UNL     1     -43.198 -34.600 106.783  1.00  0.00    -0.545 OA
ATOM      8  O   UNL     1     -41.315 -35.885 106.587  1.00  0.00    -0.545 OA
ENDBRANCH   5   6
ENDBRANCH   3   4
ENDBRANCH   2   3
ENDBRANCH   1   2
BRANCH   1   9
ATOM      9  C   UNL     1     -44.490 -39.655 108.348  1.00  0.00     0.000 C 
BRANCH   9  10
ATOM     10  C   UNL     1     -43.139 -39.146 108.879  1.00  0.00     0.000 C 
BRANCH  10  11
ATOM     11  C   UNL     1     -41.977 -40.095 108.540  1.00  0.00    -0.000 C 
BRANCH  11  12
ATOM     12  C   UNL     1     -40.887 -39.414 107.698  1.00  0.00    -0.000 C 
BRANCH  12  13
ATOM     13  C   UNL     1     -40.163 -40.393 106.760  1.00  0.00    -0.003 C 
ATOM     14  C   UNL     1     -41.151 -41.339 106.084  1.00  0.00     0.004 C 
ENDBRANCH  12  13
ENDBRANCH  11  12
ENDBRANCH  10  11
ENDBRANCH   9  10
ENDBRANCH   1   9
TORSDOF 9
ENDMDL
MODEL 7
REMARK VINA RESULT:    -5.101      2.338      4.471
REMARK INTER + INTRA:          -9.254
REMARK INTER:                  -7.675
REMARK INTRA:                  -1.579
REMARK UNBOUND:                -1.469
REMARK SMILES CCCCCCCCCC=CC(=O)[O-]
REMARK SMILES IDX 7 1 8 2 9 3 10 4 11 5 12 6 13 7 14 8 6 9 5 10 4 11 3 12 2 13
REMARK SMILES IDX 1 14
REMARK H PARENT
REMARK Flexibility Score: inf
ROOT
ATOM      1  C   UNL     1     -44.051 -40.199 106.261  1.00  0.00     0.000 C 
ENDROOT
BRANCH   1   2
ATOM      2  C   UNL     1     -43.716 -39.515 104.925  1.00  0.00     0.004 C 
BRANCH   2   3
ATOM      3  C   UNL     1     -42.226 -39.167 104.799  1.00  0.00     0.027 C 
BRANCH   3   4
ATOM      4  C   UNL     1     -41.434 -39.753 105.932  1.00  0.00    -0.025 C 
ATOM      5  C   UNL     1     -40.562 -39.016 106.629  1.00  0.00     0.020 C 
BRANCH   5   6
ATOM      6  C   UNL     1     -39.771 -39.580 107.732  1.00  0.00     0.064 C 
ATOM      7  O   UNL     1     -38.704 -39.012 108.086  1.00  0.00    -0.545 OA
ATOM      8  O   UNL     1     -40.182 -40.732 108.394  1.00  0.00    -0.545 OA
ENDBRANCH   5   6
ENDBRANCH   3   4
ENDBRANCH   2   3
ENDBRANCH   1   2
BRANCH   1   9
ATOM      9  C   UNL     1     -45.038 -39.380 107.111  1.00  0.00     0.000 C 
BRANCH   9  10
ATOM     10  C   UNL     1     -44.380 -38.765 108.357  1.00  0.00     0.000 C 
BRANCH  10  11
ATOM     11  C   UNL     1     -43.677 -37.430 108.057  1.00  0.00    -0.000 C 
BRANCH  11  12
ATOM     12  C   UNL     1     -44.447 -36.576 107.038  1.00  0.00    -0.000 C 
BRANCH  12  13
ATOM     13  C   UNL     1     -43.520 -35.726 106.154  1.00  0.00    -0.003 C 
ATOM     14  C   UNL     1     -42.092 -35.730 106.693  1.00  0.00     0.004 C 
ENDBRANCH  12  13
ENDBRANCH  11  12
ENDBRANCH  10  11
ENDBRANCH   9  10
ENDBRANCH   1   9
TORSDOF 9
ENDMDL
MODEL 8
REMARK VINA RESULT:    -5.095      3.515      5.119
REMARK INTER + INTRA:          -9.246
REMARK INTER:                  -7.908
REMARK INTRA:                  -1.338
REMARK UNBOUND:                -1.469
REMARK SMILES CCCCCCCCCC=CC(=O)[O-]
REMARK SMILES IDX 7 1 8 2 9 3 10 4 11 5 12 6 13 7 14 8 6 9 5 10 4 11 3 12 2 13
REMARK SMILES IDX 1 14
REMARK H PARENT
REMARK Flexibility Score: inf
ROOT
ATOM      1  C   UNL     1     -43.326 -38.373 104.802  1.00  0.00     0.000 C 
ENDROOT
BRANCH   1   2
ATOM      2  C   UNL     1     -42.081 -38.089 105.658  1.00  0.00     0.004 C 
BRANCH   2   3
ATOM      3  C   UNL     1     -41.119 -39.285 105.715  1.00  0.00     0.027 C 
BRANCH   3   4
ATOM      4  C   UNL     1     -41.356 -40.225 104.568  1.00  0.00    -0.025 C 
ATOM      5  C   UNL     1     -41.411 -41.549 104.750  1.00  0.00     0.020 C 
BRANCH   5   6
ATOM      6  C   UNL     1     -41.628 -42.482 103.635  1.00  0.00     0.064 C 
ATOM      7  O   UNL     1     -41.011 -43.579 103.614  1.00  0.00    -0.545 OA
ATOM      8  O   UNL     1     -42.507 -42.173 102.603  1.00  0.00    -0.545 OA
ENDBRANCH   5   6
ENDBRANCH   3   4
ENDBRANCH   2   3
ENDBRANCH   1   2
BRANCH   1   9
ATOM      9  C   UNL     1     -44.618 -38.418 105.638  1.00  0.00     0.000 C 
BRANCH   9  10
ATOM     10  C   UNL     1     -44.954 -39.833 106.136  1.00  0.00     0.000 C 
BRANCH  10  11
ATOM     11  C   UNL     1     -44.610 -40.032 107.622  1.00  0.00    -0.000 C 
BRANCH  11  12
ATOM     12  C   UNL     1     -44.398 -38.702 108.362  1.00  0.00    -0.000 C 
BRANCH  12  13
ATOM     13  C   UNL     1     -43.243 -38.763 109.373  1.00  0.00    -0.003 C 
ATOM     14  C   UNL     1     -42.278 -39.897 109.039  1.00  0.00     0.004 C 
ENDBRANCH  12  13
ENDBRANCH  11  12
ENDBRANCH  10  11
ENDBRANCH   9  10
ENDBRANCH   1   9
TORSDOF 9
ENDMDL
MODEL 9
REMARK VINA RESULT:    -5.090      4.247      6.205
REMARK INTER + INTRA:          -9.237
REMARK INTER:                  -8.519
REMARK INTRA:                  -0.718
REMARK UNBOUND:                -1.469
REMARK SMILES CCCCCCCCCC=CC(=O)[O-]
REMARK SMILES IDX 7 1 8 2 9 3 10 4 11 5 12 6 13 7 14 8 6 9 5 10 4 11 3 12 2 13
REMARK SMILES IDX 1 14
REMARK H PARENT
REMARK Flexibility Score: inf
ROOT
ATOM      1  C   UNL     1     -44.473 -41.043 106.101  1.00  0.00     0.000 C 
ENDROOT
BRANCH   1   2
ATOM      2  C   UNL     1     -42.961 -40.879 105.879  1.00  0.00     0.004 C 
BRANCH   2   3
ATOM      3  C   UNL     1     -42.620 -40.426 104.452  1.00  0.00     0.027 C 
BRANCH   3   4
ATOM      4  C   UNL     1     -42.245 -41.596 103.588  1.00  0.00    -0.025 C 
ATOM      5  C   UNL     1     -41.277 -42.447 103.946  1.00  0.00     0.020 C 
BRANCH   5   6
ATOM      6  C   UNL     1     -40.891 -43.588 103.103  1.00  0.00     0.064 C 
ATOM      7  O   UNL     1     -40.668 -43.408 101.877  1.00  0.00    -0.545 OA
ATOM      8  O   UNL     1     -40.763 -44.864 103.640  1.00  0.00    -0.545 OA
ENDBRANCH   5   6
ENDBRANCH   3   4
ENDBRANCH   2   3
ENDBRANCH   1   2
BRANCH   1   9
ATOM      9  C   UNL     1     -45.125 -39.777 106.684  1.00  0.00     0.000 C 
BRANCH   9  10
ATOM     10  C   UNL     1     -44.432 -39.290 107.967  1.00  0.00     0.000 C 
BRANCH  10  11
ATOM     11  C   UNL     1     -43.956 -37.831 107.863  1.00  0.00    -0.000 C 
BRANCH  11  12
ATOM     12  C   UNL     1     -44.411 -37.153 106.561  1.00  0.00    -0.000 C 
BRANCH  12  13
ATOM     13  C   UNL     1     -43.340 -36.224 105.970  1.00  0.00    -0.003 C 
ATOM     14  C   UNL     1     -43.293 -34.894 106.716  1.00  0.00     0.004 C 
ENDBRANCH  12  13
ENDBRANCH  11  12
ENDBRANCH  10  11
ENDBRANCH   9  10
ENDBRANCH   1   9
TORSDOF 9
ENDMDL
