MODEL 1
REMARK VINA RESULT:    -2.369      0.000      0.000
REMARK INTER + INTRA:          -2.369
REMARK INTER:                  -2.369
REMARK INTRA:                   0.000
REMARK UNBOUND:                 0.000
REMARK SMILES CC(=O)[O-]
REMARK SMILES IDX 1 1 2 2 3 3 4 4
REMARK H PARENT
REMARK Flexibility Score: inf
ROOT
ATOM      1  C   UNL     1      45.237  12.635  11.378  1.00  0.00     0.063 C 
ATOM      2  C   UNL     1      45.994  13.919  11.317  1.00  0.00     0.038 C 
ATOM      3  O   UNL     1      47.030  14.008  10.606  1.00  0.00    -0.550 OA
ATOM      4  O   UNL     1      45.528  15.035  11.998  1.00  0.00    -0.550 OA
ENDROOT
TORSDOF 0
ENDMDL
MODEL 2
REMARK VINA RESULT:    -2.267      1.587      1.881
REMARK INTER + INTRA:          -2.267
REMARK INTER:                  -2.267
REMARK INTRA:                   0.000
REMARK UNBOUND:                 0.000
REMARK SMILES CC(=O)[O-]
REMARK SMILES IDX 1 1 2 2 3 3 4 4
REMARK H PARENT
REMARK Flexibility Score: inf
ROOT
ATOM      1  C   UNL     1      45.889  14.789  11.570  1.00  0.00     0.063 C 
ATOM      2  C   UNL     1      45.950  13.339  11.228  1.00  0.00     0.038 C 
ATOM      3  O   UNL     1      47.052  12.806  10.929  1.00  0.00    -0.550 OA
ATOM      4  O   UNL     1      44.803  12.559  11.291  1.00  0.00    -0.550 OA
ENDROOT
TORSDOF 0
ENDMDL
MODEL 3
REMARK VINA RESULT:    -2.189     17.357     17.632
REMARK INTER + INTRA:          -2.189
REMARK INTER:                  -2.189
REMARK INTRA:                   0.000
REMARK UNBOUND:                 0.000
REMARK SMILES CC(=O)[O-]
REMARK SMILES IDX 1 1 2 2 3 3 4 4
REMARK H PARENT
REMARK Flexibility Score: inf
ROOT
ATOM      1  C   UNL     1      42.693  27.507   0.115  1.00  0.00     0.063 C 
ATOM      2  C   UNL     1      43.946  26.835  -0.334  1.00  0.00     0.038 C 
ATOM      3  O   UNL     1      44.980  26.880   0.384  1.00  0.00    -0.550 OA
ATOM      4  O   UNL     1      43.962  26.111  -1.520  1.00  0.00    -0.550 OA
ENDROOT
TORSDOF 0
ENDMDL
MODEL 4
REMARK VINA RESULT:    -2.161     17.604     17.857
REMARK INTER + INTRA:          -2.161
REMARK INTER:                  -2.161
REMARK INTRA:                   0.000
REMARK UNBOUND:                 0.000
REMARK SMILES CC(=O)[O-]
REMARK SMILES IDX 1 1 2 2 3 3 4 4
REMARK H PARENT
REMARK Flexibility Score: inf
ROOT
ATOM      1  C   UNL     1      42.987  28.187  -0.896  1.00  0.00     0.063 C 
ATOM      2  C   UNL     1      43.595  26.863  -0.580  1.00  0.00     0.038 C 
ATOM      3  O   UNL     1      44.054  26.141  -1.505  1.00  0.00    -0.550 OA
ATOM      4  O   UNL     1      43.706  26.444   0.739  1.00  0.00    -0.550 OA
ENDROOT
TORSDOF 0
ENDMDL
MODEL 5
REMARK VINA RESULT:    -2.081     16.739     16.991
REMARK INTER + INTRA:          -2.081
REMARK INTER:                  -2.081
REMARK INTRA:                   0.000
REMARK UNBOUND:                 0.000
REMARK SMILES CC(=O)[O-]
REMARK SMILES IDX 1 1 2 2 3 3 4 4
REMARK H PARENT
REMARK Flexibility Score: inf
ROOT
ATOM      1  C   UNL     1      42.335  27.844   1.125  1.00  0.00     0.063 C 
ATOM      2  C   UNL     1      43.351  26.820   0.748  1.00  0.00     0.038 C 
ATOM      3  O   UNL     1      43.416  26.400  -0.438  1.00  0.00    -0.550 OA
ATOM      4  O   UNL     1      44.264  26.365   1.690  1.00  0.00    -0.550 OA
ENDROOT
TORSDOF 0
ENDMDL
MODEL 6
REMARK VINA RESULT:    -2.005      2.510      2.694
REMARK INTER + INTRA:          -2.005
REMARK INTER:                  -2.005
REMARK INTRA:                   0.000
REMARK UNBOUND:                 0.000
REMARK SMILES CC(=O)[O-]
REMARK SMILES IDX 1 1 2 2 3 3 4 4
REMARK H PARENT
REMARK Flexibility Score: inf
ROOT
ATOM      1  C   UNL     1      47.082  12.720  11.149  1.00  0.00     0.063 C 
ATOM      2  C   UNL     1      45.851  11.969  11.529  1.00  0.00     0.038 C 
ATOM      3  O   UNL     1      45.935  10.942  12.253  1.00  0.00    -0.550 OA
ATOM      4  O   UNL     1      44.603  12.430  11.131  1.00  0.00    -0.550 OA
ENDROOT
TORSDOF 0
ENDMDL
MODEL 7
REMARK VINA RESULT:    -1.981     18.463     18.775
REMARK INTER + INTRA:          -1.981
REMARK INTER:                  -1.981
REMARK INTRA:                   0.000
REMARK UNBOUND:                 0.000
REMARK SMILES CC(=O)[O-]
REMARK SMILES IDX 1 1 2 2 3 3 4 4
REMARK H PARENT
REMARK Flexibility Score: inf
ROOT
ATOM      1  C   UNL     1      43.418  28.225  -1.754  1.00  0.00     0.063 C 
ATOM      2  C   UNL     1      44.281  27.010  -1.787  1.00  0.00     0.038 C 
ATOM      3  O   UNL     1      43.804  25.887  -1.476  1.00  0.00    -0.550 OA
ATOM      4  O   UNL     1      45.599  27.103  -2.216  1.00  0.00    -0.550 OA
ENDROOT
TORSDOF 0
ENDMDL
MODEL 8
REMARK VINA RESULT:    -1.963     13.913     14.115
REMARK INTER + INTRA:          -1.963
REMARK INTER:                  -1.963
REMARK INTRA:                   0.000
REMARK UNBOUND:                 0.000
REMARK SMILES CC(=O)[O-]
REMARK SMILES IDX 1 1 2 2 3 3 4 4
REMARK H PARENT
REMARK Flexibility Score: inf
ROOT
ATOM      1  C   UNL     1      45.917  26.075   4.802  1.00  0.00     0.063 C 
ATOM      2  C   UNL     1      45.976  25.504   3.426  1.00  0.00     0.038 C 
ATOM      3  O   UNL     1      47.036  24.969   3.008  1.00  0.00    -0.550 OA
ATOM      4  O   UNL     1      44.844  25.511   2.620  1.00  0.00    -0.550 OA
ENDROOT
TORSDOF 0
ENDMDL
MODEL 9
REMARK VINA RESULT:    -1.937     12.687     13.239
REMARK INTER + INTRA:          -1.937
REMARK INTER:                  -1.937
REMARK INTRA:                   0.000
REMARK UNBOUND:                 0.000
REMARK SMILES CC(=O)[O-]
REMARK SMILES IDX 1 1 2 2 3 3 4 4
REMARK H PARENT
REMARK Flexibility Score: inf
ROOT
ATOM      1  C   UNL     1      45.209  27.995   8.604  1.00  0.00     0.063 C 
ATOM      2  C   UNL     1      45.496  26.555   8.342  1.00  0.00     0.038 C 
ATOM      3  O   UNL     1      45.501  25.729   9.292  1.00  0.00    -0.550 OA
ATOM      4  O   UNL     1      45.704  26.112   7.043  1.00  0.00    -0.550 OA
ENDROOT
TORSDOF 0
ENDMDL
