MODEL 1
REMARK VINA RESULT:    -6.119      0.000      0.000
REMARK INTER + INTRA:          -7.506
REMARK INTER:                  -7.192
REMARK INTRA:                  -0.315
REMARK UNBOUND:                -0.315
REMARK SMILES O=c1c(O)c(-c2ccc(O)c(O)c2)oc2cc(O)ccc12
REMARK SMILES IDX 5 1 3 2 2 3 1 4 21 5 15 6 14 7 16 8 17 9 19 10 20 11 6 12
REMARK SMILES IDX 7 13 8 14 9 15 13 16 11 17 10 18 12 20 4 22 18 24
REMARK H PARENT 10 19 12 21 4 23 18 25
REMARK Flexibility Score: inf
ROOT
ATOM      1  C   UNL     1      51.308  61.042  21.137  1.00  0.00     0.180 A 
ATOM      2  C   UNL     1      51.048  61.240  22.509  1.00  0.00     0.208 A 
ATOM      3  C   UNL     1      51.930  62.036  23.256  1.00  0.00     0.235 A 
ATOM      4  O   UNL     1      51.713  62.238  24.483  1.00  0.00    -0.285 OA
ATOM      5  C   UNL     1      53.054  62.598  22.629  1.00  0.00     0.069 A 
ATOM      6  C   UNL     1      53.256  62.333  21.258  1.00  0.00     0.142 A 
ATOM      7  O   UNL     1      52.393  61.581  20.584  1.00  0.00    -0.452 OA
ATOM      8  C   UNL     1      54.370  62.865  20.600  1.00  0.00     0.094 A 
ATOM      9  C   UNL     1      55.286  63.663  21.294  1.00  0.00     0.119 A 
ATOM     10  C   UNL     1      55.087  63.929  22.655  1.00  0.00     0.047 A 
ATOM     11  C   UNL     1      53.978  63.401  23.322  1.00  0.00     0.020 A 
ENDROOT
BRANCH   1  12
ATOM     12  C   UNL     1      50.416  60.232  20.277  1.00  0.00     0.025 A 
ATOM     13  C   UNL     1      50.632  58.856  20.089  1.00  0.00     0.016 A 
ATOM     14  C   UNL     1      49.762  58.107  19.292  1.00  0.00     0.051 A 
ATOM     15  C   UNL     1      48.658  58.718  18.682  1.00  0.00     0.157 A 
ATOM     16  C   UNL     1      49.296  60.835  19.682  1.00  0.00     0.062 A 
ATOM     17  C   UNL     1      48.423  60.088  18.882  1.00  0.00     0.158 A 
BRANCH  15  18
ATOM     18  O   UNL     1      47.793  57.968  17.886  1.00  0.00    -0.504 OA
ATOM     19  H   UNL     1      46.825  58.236  17.756  1.00  0.00     0.293 HD
ENDBRANCH  15  18
BRANCH  17  20
ATOM     20  O   UNL     1      47.330  60.725  18.296  1.00  0.00    -0.504 OA
ATOM     21  H   UNL     1      46.772  61.407  18.796  1.00  0.00     0.293 HD
ENDBRANCH  17  20
ENDBRANCH   1  12
BRANCH   2  22
ATOM     22  O   UNL     1      49.948  60.629  23.117  1.00  0.00    -0.502 OA
ATOM     23  H   UNL     1      50.021  59.743  23.600  1.00  0.00     0.293 HD
ENDBRANCH   2  22
BRANCH   9  24
ATOM     24  O   UNL     1      56.389  64.185  20.622  1.00  0.00    -0.508 OA
ATOM     25  H   UNL     1      57.333  64.032  20.956  1.00  0.00     0.293 HD
ENDBRANCH   9  24
TORSDOF 5
ENDMDL
MODEL 2
REMARK VINA RESULT:    -5.639     14.280     17.297
REMARK INTER + INTRA:          -6.943
REMARK INTER:                  -6.624
REMARK INTRA:                  -0.319
REMARK UNBOUND:                -0.315
REMARK SMILES O=c1c(O)c(-c2ccc(O)c(O)c2)oc2cc(O)ccc12
REMARK SMILES IDX 5 1 3 2 2 3 1 4 21 5 15 6 14 7 16 8 17 9 19 10 20 11 6 12
REMARK SMILES IDX 7 13 8 14 9 15 13 16 11 17 10 18 12 20 4 22 18 24
REMARK H PARENT 10 19 12 21 4 23 18 25
REMARK Flexibility Score: inf
ROOT
ATOM      1  C   UNL     1      41.977  68.817   9.599  1.00  0.00     0.180 A 
ATOM      2  C   UNL     1      40.726  68.604   8.981  1.00  0.00     0.208 A 
ATOM      3  C   UNL     1      39.642  69.412   9.356  1.00  0.00     0.235 A 
ATOM      4  O   UNL     1      38.515  69.249   8.811  1.00  0.00    -0.285 OA
ATOM      5  C   UNL     1      39.820  70.393  10.345  1.00  0.00     0.069 A 
ATOM      6  C   UNL     1      41.097  70.527  10.931  1.00  0.00     0.142 A 
ATOM      7  O   UNL     1      42.100  69.749  10.542  1.00  0.00    -0.452 OA
ATOM      8  C   UNL     1      41.311  71.486  11.927  1.00  0.00     0.094 A 
ATOM      9  C   UNL     1      40.267  72.317  12.345  1.00  0.00     0.119 A 
ATOM     10  C   UNL     1      38.998  72.188  11.763  1.00  0.00     0.047 A 
ATOM     11  C   UNL     1      38.773  71.232  10.769  1.00  0.00     0.020 A 
ENDROOT
BRANCH   1  12
ATOM     12  C   UNL     1      43.174  68.019   9.245  1.00  0.00     0.025 A 
ATOM     13  C   UNL     1      43.978  68.356   8.143  1.00  0.00     0.016 A 
ATOM     14  C   UNL     1      45.116  67.602   7.843  1.00  0.00     0.051 A 
ATOM     15  C   UNL     1      45.473  66.511   8.646  1.00  0.00     0.157 A 
ATOM     16  C   UNL     1      43.548  66.938  10.059  1.00  0.00     0.062 A 
ATOM     17  C   UNL     1      44.686  66.181   9.762  1.00  0.00     0.158 A 
BRANCH  15  18
ATOM     18  O   UNL     1      46.609  65.760   8.343  1.00  0.00    -0.504 OA
ATOM     19  H   UNL     1      47.528  66.033   8.669  1.00  0.00     0.293 HD
ENDBRANCH  15  18
BRANCH  17  20
ATOM     20  O   UNL     1      45.019  65.105  10.585  1.00  0.00    -0.504 OA
ATOM     21  H   UNL     1      44.690  65.037  11.541  1.00  0.00     0.293 HD
ENDBRANCH  17  20
ENDBRANCH   1  12
BRANCH   2  22
ATOM     22  O   UNL     1      40.567  67.588   8.036  1.00  0.00    -0.502 OA
ATOM     23  H   UNL     1      40.961  67.647   7.105  1.00  0.00     0.293 HD
ENDBRANCH   2  22
BRANCH   9  24
ATOM     24  O   UNL     1      40.500  73.266  13.337  1.00  0.00    -0.508 OA
ATOM     25  H   UNL     1      41.208  73.983  13.228  1.00  0.00     0.293 HD
ENDBRANCH   9  24
TORSDOF 5
ENDMDL
MODEL 3
REMARK VINA RESULT:    -5.621     13.389     15.885
REMARK INTER + INTRA:          -6.922
REMARK INTER:                  -6.617
REMARK INTRA:                  -0.305
REMARK UNBOUND:                -0.315
REMARK SMILES O=c1c(O)c(-c2ccc(O)c(O)c2)oc2cc(O)ccc12
REMARK SMILES IDX 5 1 3 2 2 3 1 4 21 5 15 6 14 7 16 8 17 9 19 10 20 11 6 12
REMARK SMILES IDX 7 13 8 14 9 15 13 16 11 17 10 18 12 20 4 22 18 24
REMARK H PARENT 10 19 12 21 4 23 18 25
REMARK Flexibility Score: inf
ROOT
ATOM      1  C   UNL     1      42.876  69.281  11.461  1.00  0.00     0.180 A 
ATOM      2  C   UNL     1      41.546  69.209  11.926  1.00  0.00     0.208 A 
ATOM      3  C   UNL     1      40.779  70.383  11.965  1.00  0.00     0.235 A 
ATOM      4  O   UNL     1      39.583  70.343  12.366  1.00  0.00    -0.285 OA
ATOM      5  C   UNL     1      41.355  71.599  11.563  1.00  0.00     0.069 A 
ATOM      6  C   UNL     1      42.700  71.591  11.133  1.00  0.00     0.142 A 
ATOM      7  O   UNL     1      43.389  70.456  11.102  1.00  0.00    -0.452 OA
ATOM      8  C   UNL     1      43.313  72.784  10.734  1.00  0.00     0.094 A 
ATOM      9  C   UNL     1      42.600  73.986  10.756  1.00  0.00     0.119 A 
ATOM     10  C   UNL     1      41.264  73.997  11.181  1.00  0.00     0.047 A 
ATOM     11  C   UNL     1      40.643  72.812  11.583  1.00  0.00     0.020 A 
ENDROOT
BRANCH   1  12
ATOM     12  C   UNL     1      43.743  68.084  11.372  1.00  0.00     0.025 A 
ATOM     13  C   UNL     1      43.915  67.394  10.160  1.00  0.00     0.016 A 
ATOM     14  C   UNL     1      44.758  66.280  10.096  1.00  0.00     0.051 A 
ATOM     15  C   UNL     1      45.450  65.850  11.235  1.00  0.00     0.157 A 
ATOM     16  C   UNL     1      44.456  67.662  12.506  1.00  0.00     0.062 A 
ATOM     17  C   UNL     1      45.300  66.547  12.445  1.00  0.00     0.158 A 
BRANCH  15  18
ATOM     18  O   UNL     1      46.289  64.738  11.167  1.00  0.00    -0.504 OA
ATOM     19  H   UNL     1      47.186  64.778  10.697  1.00  0.00     0.293 HD
ENDBRANCH  15  18
BRANCH  17  20
ATOM     20  O   UNL     1      45.980  66.149  13.596  1.00  0.00    -0.504 OA
ATOM     21  H   UNL     1      46.957  65.879  13.578  1.00  0.00     0.293 HD
ENDBRANCH  17  20
ENDBRANCH   1  12
BRANCH   2  22
ATOM     22  O   UNL     1      41.014  67.994  12.366  1.00  0.00    -0.502 OA
ATOM     23  H   UNL     1      41.481  67.416  13.054  1.00  0.00     0.293 HD
ENDBRANCH   2  22
BRANCH   9  24
ATOM     24  O   UNL     1      43.227  75.164  10.355  1.00  0.00    -0.508 OA
ATOM     25  H   UNL     1      42.729  75.878   9.836  1.00  0.00     0.293 HD
ENDBRANCH   9  24
TORSDOF 5
ENDMDL
MODEL 4
REMARK VINA RESULT:    -5.476     17.462     20.347
REMARK INTER + INTRA:          -6.751
REMARK INTER:                  -6.436
REMARK INTRA:                  -0.315
REMARK UNBOUND:                -0.315
REMARK SMILES O=c1c(O)c(-c2ccc(O)c(O)c2)oc2cc(O)ccc12
REMARK SMILES IDX 5 1 3 2 2 3 1 4 21 5 15 6 14 7 16 8 17 9 19 10 20 11 6 12
REMARK SMILES IDX 7 13 8 14 9 15 13 16 11 17 10 18 12 20 4 22 18 24
REMARK H PARENT 10 19 12 21 4 23 18 25
REMARK Flexibility Score: inf
ROOT
ATOM      1  C   UNL     1      39.242  69.778   8.658  1.00  0.00     0.180 A 
ATOM      2  C   UNL     1      39.409  70.253   7.340  1.00  0.00     0.208 A 
ATOM      3  C   UNL     1      39.108  69.396   6.270  1.00  0.00     0.235 A 
ATOM      4  O   UNL     1      39.239  69.800   5.082  1.00  0.00    -0.285 OA
ATOM      5  C   UNL     1      38.669  68.088   6.534  1.00  0.00     0.069 A 
ATOM      6  C   UNL     1      38.549  67.682   7.881  1.00  0.00     0.142 A 
ATOM      7  O   UNL     1      38.836  68.526   8.865  1.00  0.00    -0.452 OA
ATOM      8  C   UNL     1      38.125  66.384   8.184  1.00  0.00     0.094 A 
ATOM      9  C   UNL     1      37.815  65.485   7.159  1.00  0.00     0.119 A 
ATOM     10  C   UNL     1      37.930  65.885   5.821  1.00  0.00     0.047 A 
ATOM     11  C   UNL     1      38.355  67.179   5.507  1.00  0.00     0.020 A 
ENDROOT
BRANCH   1  12
ATOM     12  C   UNL     1      39.520  70.626   9.840  1.00  0.00     0.025 A 
ATOM     13  C   UNL     1      38.499  71.350  10.478  1.00  0.00     0.016 A 
ATOM     14  C   UNL     1      38.782  72.125  11.606  1.00  0.00     0.051 A 
ATOM     15  C   UNL     1      40.084  72.177  12.119  1.00  0.00     0.157 A 
ATOM     16  C   UNL     1      40.819  70.664  10.371  1.00  0.00     0.062 A 
ATOM     17  C   UNL     1      41.107  71.439  11.500  1.00  0.00     0.158 A 
BRANCH  15  18
ATOM     18  O   UNL     1      40.363  72.953  13.245  1.00  0.00    -0.504 OA
ATOM     19  H   UNL     1      40.581  72.530  14.140  1.00  0.00     0.293 HD
ENDBRANCH  15  18
BRANCH  17  20
ATOM     20  O   UNL     1      42.411  71.464  11.991  1.00  0.00    -0.504 OA
ATOM     21  H   UNL     1      43.052  70.690  11.857  1.00  0.00     0.293 HD
ENDBRANCH  17  20
ENDBRANCH   1  12
BRANCH   2  22
ATOM     22  O   UNL     1      39.894  71.542   7.108  1.00  0.00    -0.502 OA
ATOM     23  H   UNL     1      40.529  71.752   6.348  1.00  0.00     0.293 HD
ENDBRANCH   2  22
BRANCH   9  24
ATOM     24  O   UNL     1      37.393  64.196   7.481  1.00  0.00    -0.508 OA
ATOM     25  H   UNL     1      37.369  63.872   8.441  1.00  0.00     0.293 HD
ENDBRANCH   9  24
TORSDOF 5
ENDMDL
MODEL 5
REMARK VINA RESULT:    -5.420     14.015     16.698
REMARK INTER + INTRA:          -6.685
REMARK INTER:                  -6.597
REMARK INTRA:                  -0.088
REMARK UNBOUND:                -0.315
REMARK SMILES O=c1c(O)c(-c2ccc(O)c(O)c2)oc2cc(O)ccc12
REMARK SMILES IDX 5 1 3 2 2 3 1 4 21 5 15 6 14 7 16 8 17 9 19 10 20 11 6 12
REMARK SMILES IDX 7 13 8 14 9 15 13 16 11 17 10 18 12 20 4 22 18 24
REMARK H PARENT 10 19 12 21 4 23 18 25
REMARK Flexibility Score: inf
ROOT
ATOM      1  C   UNL     1      41.972  69.173  10.736  1.00  0.00     0.180 A 
ATOM      2  C   UNL     1      42.442  68.578  11.926  1.00  0.00     0.208 A 
ATOM      3  C   UNL     1      43.601  67.789  11.875  1.00  0.00     0.235 A 
ATOM      4  O   UNL     1      44.048  67.255  12.927  1.00  0.00    -0.285 OA
ATOM      5  C   UNL     1      44.251  67.595  10.646  1.00  0.00     0.069 A 
ATOM      6  C   UNL     1      43.704  68.206   9.496  1.00  0.00     0.142 A 
ATOM      7  O   UNL     1      42.610  68.952   9.589  1.00  0.00    -0.452 OA
ATOM      8  C   UNL     1      44.317  68.027   8.251  1.00  0.00     0.094 A 
ATOM      9  C   UNL     1      45.473  67.248   8.138  1.00  0.00     0.119 A 
ATOM     10  C   UNL     1      46.019  66.641   9.278  1.00  0.00     0.047 A 
ATOM     11  C   UNL     1      45.414  66.812  10.525  1.00  0.00     0.020 A 
ENDROOT
BRANCH   1  12
ATOM     12  C   UNL     1      40.767  70.034  10.711  1.00  0.00     0.025 A 
ATOM     13  C   UNL     1      40.660  71.167  11.536  1.00  0.00     0.016 A 
ATOM     14  C   UNL     1      39.523  71.978  11.477  1.00  0.00     0.051 A 
ATOM     15  C   UNL     1      38.485  71.677  10.585  1.00  0.00     0.157 A 
ATOM     16  C   UNL     1      39.734  69.749   9.803  1.00  0.00     0.062 A 
ATOM     17  C   UNL     1      38.594  70.559   9.741  1.00  0.00     0.158 A 
BRANCH  15  18
ATOM     18  O   UNL     1      37.351  72.488  10.530  1.00  0.00    -0.504 OA
ATOM     19  H   UNL     1      37.006  72.857   9.652  1.00  0.00     0.293 HD
ENDBRANCH  15  18
BRANCH  17  20
ATOM     20  O   UNL     1      37.583  70.236   8.838  1.00  0.00    -0.504 OA
ATOM     21  H   UNL     1      37.688  70.374   7.839  1.00  0.00     0.293 HD
ENDBRANCH  17  20
ENDBRANCH   1  12
BRANCH   2  22
ATOM     22  O   UNL     1      41.747  68.749  13.126  1.00  0.00    -0.502 OA
ATOM     23  H   UNL     1      41.000  68.128  13.412  1.00  0.00     0.293 HD
ENDBRANCH   2  22
BRANCH   9  24
ATOM     24  O   UNL     1      46.069  67.082   6.890  1.00  0.00    -0.508 OA
ATOM     25  H   UNL     1      46.564  66.231   6.649  1.00  0.00     0.293 HD
ENDBRANCH   9  24
TORSDOF 5
ENDMDL
MODEL 6
REMARK VINA RESULT:    -5.365      9.864     12.488
REMARK INTER + INTRA:          -6.620
REMARK INTER:                  -6.386
REMARK INTRA:                  -0.234
REMARK UNBOUND:                -0.315
REMARK SMILES O=c1c(O)c(-c2ccc(O)c(O)c2)oc2cc(O)ccc12
REMARK SMILES IDX 5 1 3 2 2 3 1 4 21 5 15 6 14 7 16 8 17 9 19 10 20 11 6 12
REMARK SMILES IDX 7 13 8 14 9 15 13 16 11 17 10 18 12 20 4 22 18 24
REMARK H PARENT 10 19 12 21 4 23 18 25
REMARK Flexibility Score: inf
ROOT
ATOM      1  C   UNL     1      47.521  66.572  12.542  1.00  0.00     0.180 A 
ATOM      2  C   UNL     1      46.574  66.405  13.575  1.00  0.00     0.208 A 
ATOM      3  C   UNL     1      45.284  66.929  13.399  1.00  0.00     0.235 A 
ATOM      4  O   UNL     1      44.415  66.784  14.303  1.00  0.00    -0.285 OA
ATOM      5  C   UNL     1      44.973  67.618  12.215  1.00  0.00     0.069 A 
ATOM      6  C   UNL     1      45.984  67.761  11.240  1.00  0.00     0.142 A 
ATOM      7  O   UNL     1      47.190  67.244  11.442  1.00  0.00    -0.452 OA
ATOM      8  C   UNL     1      45.716  68.451  10.052  1.00  0.00     0.094 A 
ATOM      9  C   UNL     1      44.449  68.997   9.823  1.00  0.00     0.119 A 
ATOM     10  C   UNL     1      43.443  68.855  10.788  1.00  0.00     0.047 A 
ATOM     11  C   UNL     1      43.701  68.170  11.979  1.00  0.00     0.020 A 
ENDROOT
BRANCH   1  12
ATOM     12  C   UNL     1      48.897  66.033  12.644  1.00  0.00     0.025 A 
ATOM     13  C   UNL     1      49.847  66.610  13.503  1.00  0.00     0.016 A 
ATOM     14  C   UNL     1      51.133  66.069  13.599  1.00  0.00     0.051 A 
ATOM     15  C   UNL     1      51.482  64.938  12.850  1.00  0.00     0.157 A 
ATOM     16  C   UNL     1      49.245  64.886  11.911  1.00  0.00     0.062 A 
ATOM     17  C   UNL     1      50.531  64.342  12.005  1.00  0.00     0.158 A 
BRANCH  15  18
ATOM     18  O   UNL     1      52.766  64.402  12.948  1.00  0.00    -0.504 OA
ATOM     19  H   UNL     1      53.109  63.722  12.279  1.00  0.00     0.293 HD
ENDBRANCH  15  18
BRANCH  17  20
ATOM     20  O   UNL     1      50.845  63.212  11.251  1.00  0.00    -0.504 OA
ATOM     21  H   UNL     1      51.285  63.277  10.340  1.00  0.00     0.293 HD
ENDBRANCH  17  20
ENDBRANCH   1  12
BRANCH   2  22
ATOM     22  O   UNL     1      46.926  65.758  14.762  1.00  0.00    -0.502 OA
ATOM     23  H   UNL     1      46.509  64.880  15.044  1.00  0.00     0.293 HD
ENDBRANCH   2  22
BRANCH   9  24
ATOM     24  O   UNL     1      44.201  69.679   8.634  1.00  0.00    -0.508 OA
ATOM     25  H   UNL     1      44.785  70.451   8.335  1.00  0.00     0.293 HD
ENDBRANCH   9  24
TORSDOF 5
ENDMDL
MODEL 7
REMARK VINA RESULT:    -5.338     13.867     16.845
REMARK INTER + INTRA:          -6.589
REMARK INTER:                  -6.265
REMARK INTRA:                  -0.324
REMARK UNBOUND:                -0.315
REMARK SMILES O=c1c(O)c(-c2ccc(O)c(O)c2)oc2cc(O)ccc12
REMARK SMILES IDX 5 1 3 2 2 3 1 4 21 5 15 6 14 7 16 8 17 9 19 10 20 11 6 12
REMARK SMILES IDX 7 13 8 14 9 15 13 16 11 17 10 18 12 20 4 22 18 24
REMARK H PARENT 10 19 12 21 4 23 18 25
REMARK Flexibility Score: inf
ROOT
ATOM      1  C   UNL     1      43.170  69.565  10.574  1.00  0.00     0.180 A 
ATOM      2  C   UNL     1      43.533  70.594   9.679  1.00  0.00     0.208 A 
ATOM      3  C   UNL     1      42.615  71.626   9.428  1.00  0.00     0.235 A 
ATOM      4  O   UNL     1      42.920  72.563   8.640  1.00  0.00    -0.285 OA
ATOM      5  C   UNL     1      41.358  71.600  10.054  1.00  0.00     0.069 A 
ATOM      6  C   UNL     1      41.063  70.523  10.917  1.00  0.00     0.142 A 
ATOM      7  O   UNL     1      41.962  69.571  11.135  1.00  0.00    -0.452 OA
ATOM      8  C   UNL     1      39.817  70.457  11.551  1.00  0.00     0.094 A 
ATOM      9  C   UNL     1      38.861  71.455  11.336  1.00  0.00     0.119 A 
ATOM     10  C   UNL     1      39.152  72.526  10.480  1.00  0.00     0.047 A 
ATOM     11  C   UNL     1      40.392  72.601   9.841  1.00  0.00     0.020 A 
ENDROOT
BRANCH   1  12
ATOM     12  C   UNL     1      44.089  68.452  10.905  1.00  0.00     0.025 A 
ATOM     13  C   UNL     1      45.011  68.554  11.960  1.00  0.00     0.016 A 
ATOM     14  C   UNL     1      45.851  67.480  12.269  1.00  0.00     0.051 A 
ATOM     15  C   UNL     1      45.773  66.288  11.538  1.00  0.00     0.157 A 
ATOM     16  C   UNL     1      43.999  67.247  10.190  1.00  0.00     0.062 A 
ATOM     17  C   UNL     1      44.839  66.170  10.496  1.00  0.00     0.158 A 
BRANCH  15  18
ATOM     18  O   UNL     1      46.615  65.220  11.848  1.00  0.00    -0.504 OA
ATOM     19  H   UNL     1      47.495  65.360  12.331  1.00  0.00     0.293 HD
ENDBRANCH  15  18
BRANCH  17  20
ATOM     20  O   UNL     1      44.732  64.995   9.754  1.00  0.00    -0.504 OA
ATOM     21  H   UNL     1      43.997  64.855   9.069  1.00  0.00     0.293 HD
ENDBRANCH  17  20
ENDBRANCH   1  12
BRANCH   2  22
ATOM     22  O   UNL     1      44.772  70.567   9.034  1.00  0.00    -0.502 OA
ATOM     23  H   UNL     1      45.612  70.934   9.461  1.00  0.00     0.293 HD
ENDBRANCH   2  22
BRANCH   9  24
ATOM     24  O   UNL     1      37.627  71.372  11.976  1.00  0.00    -0.508 OA
ATOM     25  H   UNL     1      37.216  72.174  12.440  1.00  0.00     0.293 HD
ENDBRANCH   9  24
TORSDOF 5
ENDMDL
MODEL 8
REMARK VINA RESULT:    -5.324     16.219     19.324
REMARK INTER + INTRA:          -6.572
REMARK INTER:                  -6.260
REMARK INTRA:                  -0.312
REMARK UNBOUND:                -0.315
REMARK SMILES O=c1c(O)c(-c2ccc(O)c(O)c2)oc2cc(O)ccc12
REMARK SMILES IDX 5 1 3 2 2 3 1 4 21 5 15 6 14 7 16 8 17 9 19 10 20 11 6 12
REMARK SMILES IDX 7 13 8 14 9 15 13 16 11 17 10 18 12 20 4 22 18 24
REMARK H PARENT 10 19 12 21 4 23 18 25
REMARK Flexibility Score: inf
ROOT
ATOM      1  C   UNL     1      41.139  71.998  10.586  1.00  0.00     0.180 A 
ATOM      2  C   UNL     1      40.220  72.391  11.580  1.00  0.00     0.208 A 
ATOM      3  C   UNL     1      38.897  71.930  11.498  1.00  0.00     0.235 A 
ATOM      4  O   UNL     1      38.058  72.259  12.381  1.00  0.00    -0.285 OA
ATOM      5  C   UNL     1      38.517  71.108  10.425  1.00  0.00     0.069 A 
ATOM      6  C   UNL     1      39.492  70.778   9.458  1.00  0.00     0.142 A 
ATOM      7  O   UNL     1      40.735  71.229   9.577  1.00  0.00    -0.452 OA
ATOM      8  C   UNL     1      39.150  69.970   8.368  1.00  0.00     0.094 A 
ATOM      9  C   UNL     1      37.846  69.483   8.232  1.00  0.00     0.119 A 
ATOM     10  C   UNL     1      36.876  69.808   9.190  1.00  0.00     0.047 A 
ATOM     11  C   UNL     1      37.207  70.615  10.282  1.00  0.00     0.020 A 
ENDROOT
BRANCH   1  12
ATOM     12  C   UNL     1      42.557  72.427  10.612  1.00  0.00     0.025 A 
ATOM     13  C   UNL     1      42.959  73.658  10.067  1.00  0.00     0.016 A 
ATOM     14  C   UNL     1      44.299  74.052  10.125  1.00  0.00     0.051 A 
ATOM     15  C   UNL     1      45.252  73.229  10.739  1.00  0.00     0.157 A 
ATOM     16  C   UNL     1      43.512  71.616  11.246  1.00  0.00     0.062 A 
ATOM     17  C   UNL     1      44.854  72.007  11.306  1.00  0.00     0.158 A 
BRANCH  15  18
ATOM     18  O   UNL     1      46.588  73.625  10.794  1.00  0.00    -0.504 OA
ATOM     19  H   UNL     1      47.324  73.070  10.372  1.00  0.00     0.293 HD
ENDBRANCH  15  18
BRANCH  17  20
ATOM     20  O   UNL     1      45.777  71.168  11.930  1.00  0.00    -0.504 OA
ATOM     21  H   UNL     1      46.770  71.217  11.732  1.00  0.00     0.293 HD
ENDBRANCH  17  20
ENDBRANCH   1  12
BRANCH   2  22
ATOM     22  O   UNL     1      40.614  73.250  12.610  1.00  0.00    -0.502 OA
ATOM     23  H   UNL     1      41.074  74.133  12.431  1.00  0.00     0.293 HD
ENDBRANCH   2  22
BRANCH   9  24
ATOM     24  O   UNL     1      37.524  68.680   7.140  1.00  0.00    -0.508 OA
ATOM     25  H   UNL     1      38.145  68.596   6.343  1.00  0.00     0.293 HD
ENDBRANCH   9  24
TORSDOF 5
ENDMDL
MODEL 9
REMARK VINA RESULT:    -5.313     14.138     16.506
REMARK INTER + INTRA:          -6.559
REMARK INTER:                  -6.412
REMARK INTRA:                  -0.147
REMARK UNBOUND:                -0.315
REMARK SMILES O=c1c(O)c(-c2ccc(O)c(O)c2)oc2cc(O)ccc12
REMARK SMILES IDX 5 1 3 2 2 3 1 4 21 5 15 6 14 7 16 8 17 9 19 10 20 11 6 12
REMARK SMILES IDX 7 13 8 14 9 15 13 16 11 17 10 18 12 20 4 22 18 24
REMARK H PARENT 10 19 12 21 4 23 18 25
REMARK Flexibility Score: inf
ROOT
ATOM      1  C   UNL     1      42.568  70.633  11.197  1.00  0.00     0.180 A 
ATOM      2  C   UNL     1      43.587  71.605  11.288  1.00  0.00     0.208 A 
ATOM      3  C   UNL     1      44.917  71.179  11.420  1.00  0.00     0.235 A 
ATOM      4  O   UNL     1      45.848  72.027  11.492  1.00  0.00    -0.285 OA
ATOM      5  C   UNL     1      45.200  69.804  11.479  1.00  0.00     0.069 A 
ATOM      6  C   UNL     1      44.121  68.896  11.405  1.00  0.00     0.142 A 
ATOM      7  O   UNL     1      42.877  69.340  11.271  1.00  0.00    -0.452 OA
ATOM      8  C   UNL     1      44.361  67.519  11.470  1.00  0.00     0.094 A 
ATOM      9  C   UNL     1      45.666  67.035  11.605  1.00  0.00     0.119 A 
ATOM     10  C   UNL     1      46.739  67.934  11.678  1.00  0.00     0.047 A 
ATOM     11  C   UNL     1      46.510  69.311  11.615  1.00  0.00     0.020 A 
ENDROOT
BRANCH   1  12
ATOM     12  C   UNL     1      41.142  71.002  11.038  1.00  0.00     0.025 A 
ATOM     13  C   UNL     1      40.459  71.729  12.028  1.00  0.00     0.016 A 
ATOM     14  C   UNL     1      39.120  72.086  11.843  1.00  0.00     0.051 A 
ATOM     15  C   UNL     1      38.450  71.734  10.664  1.00  0.00     0.157 A 
ATOM     16  C   UNL     1      40.473  70.671   9.848  1.00  0.00     0.062 A 
ATOM     17  C   UNL     1      39.132  71.026   9.661  1.00  0.00     0.158 A 
BRANCH  15  18
ATOM     18  O   UNL     1      37.114  72.091  10.485  1.00  0.00    -0.504 OA
ATOM     19  H   UNL     1      36.372  71.401  10.512  1.00  0.00     0.293 HD
ENDBRANCH  15  18
BRANCH  17  20
ATOM     20  O   UNL     1      38.496  70.668   8.473  1.00  0.00    -0.504 OA
ATOM     21  H   UNL     1      38.293  71.344   7.745  1.00  0.00     0.293 HD
ENDBRANCH  17  20
ENDBRANCH   1  12
BRANCH   2  22
ATOM     22  O   UNL     1      43.271  72.966  11.276  1.00  0.00    -0.502 OA
ATOM     23  H   UNL     1      42.356  73.311  11.538  1.00  0.00     0.293 HD
ENDBRANCH   2  22
BRANCH   9  24
ATOM     24  O   UNL     1      45.886  65.661  11.668  1.00  0.00    -0.508 OA
ATOM     25  H   UNL     1      45.274  65.005  11.195  1.00  0.00     0.293 HD
ENDBRANCH   9  24
TORSDOF 5
ENDMDL
