MODEL 1
REMARK VINA RESULT:    -4.007      0.000      0.000
REMARK INTER + INTRA:          -5.677
REMARK INTER:                  -5.413
REMARK INTRA:                  -0.264
REMARK UNBOUND:                -0.264
REMARK SMILES CCCCCCC=CC(=O)[O-]
REMARK SMILES IDX 5 1 6 2 7 3 8 4 9 5 10 6 11 7 4 8 3 9 2 10 1 11
REMARK H PARENT
REMARK Flexibility Score: inf
ROOT
ATOM      1  C   UNL     1      37.009  72.257  75.167  1.00  0.00     0.004 C 
ENDROOT
BRANCH   1   2
ATOM      2  C   UNL     1      36.712  72.734  73.737  1.00  0.00     0.027 C 
BRANCH   2   3
ATOM      3  C   UNL     1      37.657  73.812  73.285  1.00  0.00    -0.025 C 
ATOM      4  C   UNL     1      38.882  73.932  73.804  1.00  0.00     0.020 C 
BRANCH   4   5
ATOM      5  C   UNL     1      39.812  74.988  73.376  1.00  0.00     0.064 C 
ATOM      6  O   UNL     1      40.651  75.446  74.194  1.00  0.00    -0.545 OA
ATOM      7  O   UNL     1      39.781  75.486  72.079  1.00  0.00    -0.545 OA
ENDBRANCH   4   5
ENDBRANCH   2   3
ENDBRANCH   1   2
BRANCH   1   8
ATOM      8  C   UNL     1      36.413  70.866  75.447  1.00  0.00     0.000 C 
BRANCH   8   9
ATOM      9  C   UNL     1      37.298  70.020  76.377  1.00  0.00    -0.000 C 
BRANCH   9  10
ATOM     10  C   UNL     1      37.106  68.511  76.167  1.00  0.00    -0.003 C 
ATOM     11  C   UNL     1      36.140  68.236  75.019  1.00  0.00     0.004 C 
ENDBRANCH   9  10
ENDBRANCH   8   9
ENDBRANCH   1   8
TORSDOF 6
ENDMDL
MODEL 2
REMARK VINA RESULT:    -3.946      3.304      6.007
REMARK INTER + INTRA:          -5.594
REMARK INTER:                  -5.307
REMARK INTRA:                  -0.287
REMARK UNBOUND:                -0.264
REMARK SMILES CCCCCCC=CC(=O)[O-]
REMARK SMILES IDX 5 1 6 2 7 3 8 4 9 5 10 6 11 7 4 8 3 9 2 10 1 11
REMARK H PARENT
REMARK Flexibility Score: inf
ROOT
ATOM      1  C   UNL     1      37.023  73.341  73.041  1.00  0.00     0.004 C 
ENDROOT
BRANCH   1   2
ATOM      2  C   UNL     1      36.343  73.054  74.388  1.00  0.00     0.027 C 
BRANCH   2   3
ATOM      3  C   UNL     1      37.021  71.951  75.150  1.00  0.00    -0.025 C 
ATOM      4  C   UNL     1      36.367  70.839  75.502  1.00  0.00     0.020 C 
BRANCH   4   5
ATOM      5  C   UNL     1      37.018  69.756  76.255  1.00  0.00     0.064 C 
ATOM      6  O   UNL     1      37.791  70.039  77.207  1.00  0.00    -0.545 OA
ATOM      7  O   UNL     1      36.790  68.423  75.934  1.00  0.00    -0.545 OA
ENDBRANCH   4   5
ENDBRANCH   2   3
ENDBRANCH   1   2
BRANCH   1   8
ATOM      8  C   UNL     1      38.506  73.712  73.210  1.00  0.00     0.000 C 
BRANCH   8   9
ATOM      9  C   UNL     1      38.948  74.831  72.253  1.00  0.00    -0.000 C 
BRANCH   9  10
ATOM     10  C   UNL     1      40.181  75.593  72.761  1.00  0.00    -0.003 C 
ATOM     11  C   UNL     1      40.417  75.327  74.245  1.00  0.00     0.004 C 
ENDBRANCH   9  10
ENDBRANCH   8   9
ENDBRANCH   1   8
TORSDOF 6
ENDMDL
MODEL 3
REMARK VINA RESULT:    -3.875      1.287      2.059
REMARK INTER + INTRA:          -5.497
REMARK INTER:                  -5.223
REMARK INTRA:                  -0.275
REMARK UNBOUND:                -0.264
REMARK SMILES CCCCCCC=CC(=O)[O-]
REMARK SMILES IDX 5 1 6 2 7 3 8 4 9 5 10 6 11 7 4 8 3 9 2 10 1 11
REMARK H PARENT
REMARK Flexibility Score: inf
ROOT
ATOM      1  C   UNL     1      36.315  70.650  75.540  1.00  0.00     0.004 C 
ENDROOT
BRANCH   1   2
ATOM      2  C   UNL     1      36.641  72.138  75.341  1.00  0.00     0.027 C 
BRANCH   2   3
ATOM      3  C   UNL     1      36.991  72.464  73.917  1.00  0.00    -0.025 C 
ATOM      4  C   UNL     1      37.670  73.570  73.599  1.00  0.00     0.020 C 
BRANCH   4   5
ATOM      5  C   UNL     1      38.011  73.904  72.208  1.00  0.00     0.064 C 
ATOM      6  O   UNL     1      38.905  74.759  71.976  1.00  0.00    -0.545 OA
ATOM      7  O   UNL     1      37.363  73.288  71.144  1.00  0.00    -0.545 OA
ENDBRANCH   4   5
ENDBRANCH   2   3
ENDBRANCH   1   2
BRANCH   1   8
ATOM      8  C   UNL     1      37.366  69.939  76.411  1.00  0.00     0.000 C 
BRANCH   8   9
ATOM      9  C   UNL     1      37.310  68.409  76.275  1.00  0.00    -0.000 C 
BRANCH   9  10
ATOM     10  C   UNL     1      36.350  67.948  75.169  1.00  0.00    -0.003 C 
ATOM     11  C   UNL     1      36.816  66.632  74.552  1.00  0.00     0.004 C 
ENDBRANCH   9  10
ENDBRANCH   8   9
ENDBRANCH   1   8
TORSDOF 6
ENDMDL
MODEL 4
REMARK VINA RESULT:    -3.674      3.849      5.881
REMARK INTER + INTRA:          -5.226
REMARK INTER:                  -4.865
REMARK INTRA:                  -0.361
REMARK UNBOUND:                -0.264
REMARK SMILES CCCCCCC=CC(=O)[O-]
REMARK SMILES IDX 5 1 6 2 7 3 8 4 9 5 10 6 11 7 4 8 3 9 2 10 1 11
REMARK H PARENT
REMARK Flexibility Score: inf
ROOT
ATOM      1  C   UNL     1      36.686  73.499  73.788  1.00  0.00     0.004 C 
ENDROOT
BRANCH   1   2
ATOM      2  C   UNL     1      36.743  72.736  75.120  1.00  0.00     0.027 C 
BRANCH   2   3
ATOM      3  C   UNL     1      36.643  71.248  74.934  1.00  0.00    -0.025 C 
ATOM      4  C   UNL     1      36.890  70.399  75.936  1.00  0.00     0.020 C 
BRANCH   4   5
ATOM      5  C   UNL     1      36.804  68.942  75.764  1.00  0.00     0.064 C 
ATOM      6  O   UNL     1      35.895  68.455  75.042  1.00  0.00    -0.545 OA
ATOM      7  O   UNL     1      37.713  68.092  76.383  1.00  0.00    -0.545 OA
ENDBRANCH   4   5
ENDBRANCH   2   3
ENDBRANCH   1   2
BRANCH   1   8
ATOM      8  C   UNL     1      38.085  73.917  73.301  1.00  0.00     0.000 C 
BRANCH   8   9
ATOM      9  C   UNL     1      38.199  73.922  71.768  1.00  0.00    -0.000 C 
BRANCH   9  10
ATOM     10  C   UNL     1      36.985  73.280  71.081  1.00  0.00    -0.003 C 
ATOM     11  C   UNL     1      37.411  72.119  70.187  1.00  0.00     0.004 C 
ENDBRANCH   9  10
ENDBRANCH   8   9
ENDBRANCH   1   8
TORSDOF 6
ENDMDL
MODEL 5
REMARK VINA RESULT:    -3.440     14.030     15.628
REMARK INTER + INTRA:          -4.910
REMARK INTER:                  -4.657
REMARK INTRA:                  -0.253
REMARK UNBOUND:                -0.264
REMARK SMILES CCCCCCC=CC(=O)[O-]
REMARK SMILES IDX 5 1 6 2 7 3 8 4 9 5 10 6 11 7 4 8 3 9 2 10 1 11
REMARK H PARENT
REMARK Flexibility Score: inf
ROOT
ATOM      1  C   UNL     1      26.046  63.941  75.235  1.00  0.00     0.004 C 
ENDROOT
BRANCH   1   2
ATOM      2  C   UNL     1      25.448  62.713  75.936  1.00  0.00     0.027 C 
BRANCH   2   3
ATOM      3  C   UNL     1      26.100  62.434  77.261  1.00  0.00    -0.025 C 
ATOM      4  C   UNL     1      27.150  61.613  77.365  1.00  0.00     0.020 C 
BRANCH   4   5
ATOM      5  C   UNL     1      27.791  61.326  78.657  1.00  0.00     0.064 C 
ATOM      6  O   UNL     1      28.822  60.604  78.692  1.00  0.00    -0.545 OA
ATOM      7  O   UNL     1      27.279  61.842  79.842  1.00  0.00    -0.545 OA
ENDBRANCH   4   5
ENDBRANCH   2   3
ENDBRANCH   1   2
BRANCH   1   8
ATOM      8  C   UNL     1      25.602  65.258  75.896  1.00  0.00     0.000 C 
BRANCH   8   9
ATOM      9  C   UNL     1      26.458  66.457  75.458  1.00  0.00    -0.000 C 
BRANCH   9  10
ATOM     10  C   UNL     1      25.898  67.798  75.956  1.00  0.00    -0.003 C 
ATOM     11  C   UNL     1      24.627  67.591  76.775  1.00  0.00     0.004 C 
ENDBRANCH   9  10
ENDBRANCH   8   9
ENDBRANCH   1   8
TORSDOF 6
ENDMDL
MODEL 6
REMARK VINA RESULT:    -3.427     14.317     16.242
REMARK INTER + INTRA:          -4.892
REMARK INTER:                  -4.360
REMARK INTRA:                  -0.532
REMARK UNBOUND:                -0.264
REMARK SMILES CCCCCCC=CC(=O)[O-]
REMARK SMILES IDX 5 1 6 2 7 3 8 4 9 5 10 6 11 7 4 8 3 9 2 10 1 11
REMARK H PARENT
REMARK Flexibility Score: inf
ROOT
ATOM      1  C   UNL     1      26.275  64.749  75.352  1.00  0.00     0.004 C 
ENDROOT
BRANCH   1   2
ATOM      2  C   UNL     1      25.067  63.856  75.675  1.00  0.00     0.027 C 
BRANCH   2   3
ATOM      3  C   UNL     1      25.132  63.282  77.062  1.00  0.00    -0.025 C 
ATOM      4  C   UNL     1      24.279  63.664  78.018  1.00  0.00     0.020 C 
BRANCH   4   5
ATOM      5  C   UNL     1      24.338  63.115  79.381  1.00  0.00     0.064 C 
ATOM      6  O   UNL     1      24.393  63.899  80.364  1.00  0.00    -0.545 OA
ATOM      7  O   UNL     1      24.331  61.743  79.602  1.00  0.00    -0.545 OA
ENDBRANCH   4   5
ENDBRANCH   2   3
ENDBRANCH   1   2
BRANCH   1   8
ATOM      8  C   UNL     1      25.849  66.146  74.870  1.00  0.00     0.000 C 
BRANCH   8   9
ATOM      9  C   UNL     1      26.291  67.263  75.830  1.00  0.00    -0.000 C 
BRANCH   9  10
ATOM     10  C   UNL     1      25.112  68.099  76.349  1.00  0.00    -0.003 C 
ATOM     11  C   UNL     1      24.128  67.233  77.130  1.00  0.00     0.004 C 
ENDBRANCH   9  10
ENDBRANCH   8   9
ENDBRANCH   1   8
TORSDOF 6
ENDMDL
MODEL 7
REMARK VINA RESULT:    -3.377     19.368     20.866
REMARK INTER + INTRA:          -4.825
REMARK INTER:                  -4.351
REMARK INTRA:                  -0.474
REMARK UNBOUND:                -0.264
REMARK SMILES CCCCCCC=CC(=O)[O-]
REMARK SMILES IDX 5 1 6 2 7 3 8 4 9 5 10 6 11 7 4 8 3 9 2 10 1 11
REMARK H PARENT
REMARK Flexibility Score: inf
ROOT
ATOM      1  C   UNL     1      27.623  57.355  87.737  1.00  0.00     0.004 C 
ENDROOT
BRANCH   1   2
ATOM      2  C   UNL     1      29.118  57.099  87.978  1.00  0.00     0.027 C 
BRANCH   2   3
ATOM      3  C   UNL     1      29.877  56.879  86.700  1.00  0.00    -0.025 C 
ATOM      4  C   UNL     1      30.557  57.867  86.111  1.00  0.00     0.020 C 
BRANCH   4   5
ATOM      5  C   UNL     1      31.297  57.666  84.856  1.00  0.00     0.064 C 
ATOM      6  O   UNL     1      30.779  58.025  83.766  1.00  0.00    -0.545 OA
ATOM      7  O   UNL     1      32.561  57.088  84.853  1.00  0.00    -0.545 OA
ENDBRANCH   4   5
ENDBRANCH   2   3
ENDBRANCH   1   2
BRANCH   1   8
ATOM      8  C   UNL     1      27.154  58.679  88.365  1.00  0.00     0.000 C 
BRANCH   8   9
ATOM      9  C   UNL     1      27.056  59.819  87.339  1.00  0.00    -0.000 C 
BRANCH   9  10
ATOM     10  C   UNL     1      28.336  60.664  87.267  1.00  0.00    -0.003 C 
ATOM     11  C   UNL     1      28.110  62.054  87.853  1.00  0.00     0.004 C 
ENDBRANCH   9  10
ENDBRANCH   8   9
ENDBRANCH   1   8
TORSDOF 6
ENDMDL
MODEL 8
REMARK VINA RESULT:    -3.287     17.854     19.537
REMARK INTER + INTRA:          -4.703
REMARK INTER:                  -4.412
REMARK INTRA:                  -0.291
REMARK UNBOUND:                -0.264
REMARK SMILES CCCCCCC=CC(=O)[O-]
REMARK SMILES IDX 5 1 6 2 7 3 8 4 9 5 10 6 11 7 4 8 3 9 2 10 1 11
REMARK H PARENT
REMARK Flexibility Score: inf
ROOT
ATOM      1  C   UNL     1      29.197  58.654  85.976  1.00  0.00     0.004 C 
ENDROOT
BRANCH   1   2
ATOM      2  C   UNL     1      30.586  57.998  85.966  1.00  0.00     0.027 C 
BRANCH   2   3
ATOM      3  C   UNL     1      31.056  57.672  84.576  1.00  0.00    -0.025 C 
ATOM      4  C   UNL     1      30.568  58.307  83.505  1.00  0.00     0.020 C 
BRANCH   4   5
ATOM      5  C   UNL     1      31.014  57.991  82.140  1.00  0.00     0.064 C 
ATOM      6  O   UNL     1      32.197  58.251  81.798  1.00  0.00    -0.545 OA
ATOM      7  O   UNL     1      30.150  57.407  81.221  1.00  0.00    -0.545 OA
ENDBRANCH   4   5
ENDBRANCH   2   3
ENDBRANCH   1   2
BRANCH   1   8
ATOM      8  C   UNL     1      28.453  58.410  87.301  1.00  0.00     0.000 C 
BRANCH   8   9
ATOM      9  C   UNL     1      27.560  59.595  87.704  1.00  0.00    -0.000 C 
BRANCH   9  10
ATOM     10  C   UNL     1      27.943  60.897  86.985  1.00  0.00    -0.003 C 
ATOM     11  C   UNL     1      28.034  62.060  87.969  1.00  0.00     0.004 C 
ENDBRANCH   9  10
ENDBRANCH   8   9
ENDBRANCH   1   8
TORSDOF 6
ENDMDL
MODEL 9
REMARK VINA RESULT:    -3.269     18.678     20.211
REMARK INTER + INTRA:          -4.680
REMARK INTER:                  -4.024
REMARK INTRA:                  -0.656
REMARK UNBOUND:                -0.264
REMARK SMILES CCCCCCC=CC(=O)[O-]
REMARK SMILES IDX 5 1 6 2 7 3 8 4 9 5 10 6 11 7 4 8 3 9 2 10 1 11
REMARK H PARENT
REMARK Flexibility Score: inf
ROOT
ATOM      1  C   UNL     1      27.141  59.240  87.915  1.00  0.00     0.004 C 
ENDROOT
BRANCH   1   2
ATOM      2  C   UNL     1      27.963  60.521  87.702  1.00  0.00     0.027 C 
BRANCH   2   3
ATOM      3  C   UNL     1      27.543  61.274  86.471  1.00  0.00    -0.025 C 
ATOM      4  C   UNL     1      26.938  60.662  85.449  1.00  0.00     0.020 C 
BRANCH   4   5
ATOM      5  C   UNL     1      26.530  61.386  84.236  1.00  0.00     0.064 C 
ATOM      6  O   UNL     1      27.399  61.713  83.386  1.00  0.00    -0.545 OA
ATOM      7  O   UNL     1      25.198  61.714  84.011  1.00  0.00    -0.545 OA
ENDBRANCH   4   5
ENDBRANCH   2   3
ENDBRANCH   1   2
BRANCH   1   8
ATOM      8  C   UNL     1      28.034  58.026  88.224  1.00  0.00     0.000 C 
BRANCH   8   9
ATOM      9  C   UNL     1      28.416  57.236  86.962  1.00  0.00    -0.000 C 
BRANCH   9  10
ATOM     10  C   UNL     1      29.913  57.333  86.633  1.00  0.00    -0.003 C 
ATOM     11  C   UNL     1      30.180  58.440  85.616  1.00  0.00     0.004 C 
ENDBRANCH   9  10
ENDBRANCH   8   9
ENDBRANCH   1   8
TORSDOF 6
ENDMDL
