MODEL 1
REMARK VINA RESULT:    -3.374      0.000      0.000
REMARK INTER + INTRA:          -3.374
REMARK INTER:                  -3.374
REMARK INTRA:                   0.000
REMARK UNBOUND:                 0.000
REMARK SMILES C=C1CCC[C@@]2(C)CC(=O)C(=C(C)C)C[C@@H]12
REMARK SMILES IDX 13 1 12 2 11 3 15 4 16 5 2 6 1 7 3 8 4 9 5 10 6 11 8 12 9 13
REMARK SMILES IDX 10 14 7 15 14 16
REMARK H PARENT
REMARK Flexibility Score: inf
ROOT
ATOM      1  C   UNL     1      -5.197 -11.755  -8.807  1.00  0.00     0.039 C 
ATOM      2  C   UNL     1      -3.963 -12.237  -8.078  1.00  0.00    -0.070 C 
ATOM      3  C   UNL     1      -3.761 -13.556  -7.766  1.00  0.00    -0.006 C 
ATOM      4  C   UNL     1      -2.544 -13.944  -6.935  1.00  0.00     0.047 C 
ATOM      5  C   UNL     1      -2.451 -15.428  -6.494  1.00  0.00     0.025 C 
ATOM      6  C   UNL     1      -1.644 -15.521  -5.211  1.00  0.00    -0.073 C 
ATOM      7  C   UNL     1      -0.314 -15.680  -5.255  1.00  0.00     0.008 C 
ATOM      8  C   UNL     1      -2.345 -15.428  -3.872  1.00  0.00     0.031 C 
ATOM      9  C   UNL     1      -3.773 -14.870  -3.990  1.00  0.00     0.005 C 
ATOM     10  C   UNL     1      -4.631 -15.495  -5.116  1.00  0.00     0.008 C 
ATOM     11  C   UNL     1      -3.828 -16.122  -6.303  1.00  0.00    -0.018 C 
ATOM     12  C   UNL     1      -4.626 -16.022  -7.624  1.00  0.00     0.088 C 
ATOM     13  C   UNL     1      -4.699 -14.639  -8.196  1.00  0.00     0.159 C 
ATOM     14  O   UNL     1      -5.529 -14.450  -9.125  1.00  0.00    -0.295 OA
ATOM     15  C   UNL     1      -3.621 -17.638  -6.028  1.00  0.00     0.012 C 
ATOM     16  C   UNL     1      -2.960 -11.177  -7.670  1.00  0.00     0.039 C 
ENDROOT
TORSDOF 0
ENDMDL
MODEL 2
REMARK VINA RESULT:    -2.442      1.775      4.609
REMARK INTER + INTRA:          -2.442
REMARK INTER:                  -2.442
REMARK INTRA:                   0.000
REMARK UNBOUND:                 0.000
REMARK SMILES C=C1CCC[C@@]2(C)CC(=O)C(=C(C)C)C[C@@H]12
REMARK SMILES IDX 13 1 12 2 11 3 15 4 16 5 2 6 1 7 3 8 4 9 5 10 6 11 8 12 9 13
REMARK SMILES IDX 10 14 7 15 14 16
REMARK H PARENT
REMARK Flexibility Score: inf
ROOT
ATOM      1  C   UNL     1      -1.893 -17.845  -4.998  1.00  0.00     0.039 C 
ATOM      2  C   UNL     1      -1.677 -16.368  -5.243  1.00  0.00    -0.070 C 
ATOM      3  C   UNL     1      -2.706 -15.513  -5.541  1.00  0.00    -0.006 C 
ATOM      4  C   UNL     1      -2.390 -14.062  -5.881  1.00  0.00     0.047 C 
ATOM      5  C   UNL     1      -3.581 -13.186  -6.349  1.00  0.00     0.025 C 
ATOM      6  C   UNL     1      -3.065 -12.072  -7.242  1.00  0.00    -0.073 C 
ATOM      7  C   UNL     1      -2.693 -10.896  -6.716  1.00  0.00     0.008 C 
ATOM      8  C   UNL     1      -2.963 -12.290  -8.737  1.00  0.00     0.031 C 
ATOM      9  C   UNL     1      -3.054 -13.775  -9.125  1.00  0.00     0.005 C 
ATOM     10  C   UNL     1      -4.197 -14.564  -8.442  1.00  0.00     0.008 C 
ATOM     11  C   UNL     1      -4.701 -13.974  -7.084  1.00  0.00    -0.018 C 
ATOM     12  C   UNL     1      -5.216 -15.096  -6.152  1.00  0.00     0.088 C 
ATOM     13  C   UNL     1      -4.137 -15.951  -5.561  1.00  0.00     0.159 C 
ATOM     14  O   UNL     1      -4.498 -17.018  -4.999  1.00  0.00    -0.295 OA
ATOM     15  C   UNL     1      -5.912 -13.039  -7.357  1.00  0.00     0.012 C 
ATOM     16  C   UNL     1      -0.246 -15.874  -5.180  1.00  0.00     0.039 C 
ENDROOT
TORSDOF 0
ENDMDL
MODEL 3
REMARK VINA RESULT:    -1.566      1.521      2.719
REMARK INTER + INTRA:          -1.566
REMARK INTER:                  -1.566
REMARK INTRA:                   0.000
REMARK UNBOUND:                 0.000
REMARK SMILES C=C1CCC[C@@]2(C)CC(=O)C(=C(C)C)C[C@@H]12
REMARK SMILES IDX 13 1 12 2 11 3 15 4 16 5 2 6 1 7 3 8 4 9 5 10 6 11 8 12 9 13
REMARK SMILES IDX 10 14 7 15 14 16
REMARK H PARENT
REMARK Flexibility Score: inf
ROOT
ATOM      1  C   UNL     1      -4.859 -11.777  -9.125  1.00  0.00     0.039 C 
ATOM      2  C   UNL     1      -5.020 -12.315  -7.721  1.00  0.00    -0.070 C 
ATOM      3  C   UNL     1      -4.013 -12.973  -7.065  1.00  0.00    -0.006 C 
ATOM      4  C   UNL     1      -4.291 -13.580  -5.695  1.00  0.00     0.047 C 
ATOM      5  C   UNL     1      -3.155 -14.433  -5.073  1.00  0.00     0.025 C 
ATOM      6  C   UNL     1      -3.757 -15.458  -4.128  1.00  0.00    -0.073 C 
ATOM      7  C   UNL     1      -3.944 -15.161  -2.834  1.00  0.00     0.008 C 
ATOM      8  C   UNL     1      -4.155 -16.822  -4.650  1.00  0.00     0.031 C 
ATOM      9  C   UNL     1      -4.239 -16.867  -6.184  1.00  0.00     0.005 C 
ATOM     10  C   UNL     1      -3.041 -16.225  -6.926  1.00  0.00     0.008 C 
ATOM     11  C   UNL     1      -2.250 -15.146  -6.116  1.00  0.00    -0.018 C 
ATOM     12  C   UNL     1      -1.642 -14.083  -7.060  1.00  0.00     0.088 C 
ATOM     13  C   UNL     1      -2.643 -13.135  -7.647  1.00  0.00     0.159 C 
ATOM     14  O   UNL     1      -2.253 -12.412  -8.602  1.00  0.00    -0.295 OA
ATOM     15  C   UNL     1      -1.054 -15.830  -5.396  1.00  0.00     0.012 C 
ATOM     16  C   UNL     1      -6.376 -12.125  -7.074  1.00  0.00     0.039 C 
ENDROOT
TORSDOF 0
ENDMDL
MODEL 4
REMARK VINA RESULT:    -0.667      2.488      4.844
REMARK INTER + INTRA:          -0.667
REMARK INTER:                  -0.667
REMARK INTRA:                   0.000
REMARK UNBOUND:                 0.000
REMARK SMILES C=C1CCC[C@@]2(C)CC(=O)C(=C(C)C)C[C@@H]12
REMARK SMILES IDX 13 1 12 2 11 3 15 4 16 5 2 6 1 7 3 8 4 9 5 10 6 11 8 12 9 13
REMARK SMILES IDX 10 14 7 15 14 16
REMARK H PARENT
REMARK Flexibility Score: inf
ROOT
ATOM      1  C   UNL     1       1.836 -14.845  -4.052  1.00  0.00     0.039 C 
ATOM      2  C   UNL     1       0.748 -15.891  -4.144  1.00  0.00    -0.070 C 
ATOM      3  C   UNL     1      -0.252 -15.832  -5.080  1.00  0.00    -0.006 C 
ATOM      4  C   UNL     1      -1.371 -16.865  -5.037  1.00  0.00     0.047 C 
ATOM      5  C   UNL     1      -2.543 -16.657  -6.030  1.00  0.00     0.025 C 
ATOM      6  C   UNL     1      -3.802 -17.287  -5.460  1.00  0.00    -0.073 C 
ATOM      7  C   UNL     1      -4.099 -18.568  -5.721  1.00  0.00     0.008 C 
ATOM      8  C   UNL     1      -4.726 -16.465  -4.586  1.00  0.00     0.031 C 
ATOM      9  C   UNL     1      -4.065 -15.174  -4.078  1.00  0.00     0.005 C 
ATOM     10  C   UNL     1      -3.310 -14.355  -5.152  1.00  0.00     0.008 C 
ATOM     11  C   UNL     1      -2.815 -15.170  -6.392  1.00  0.00    -0.018 C 
ATOM     12  C   UNL     1      -1.523 -14.555  -6.978  1.00  0.00     0.088 C 
ATOM     13  C   UNL     1      -0.299 -14.780  -6.143  1.00  0.00     0.159 C 
ATOM     14  O   UNL     1       0.723 -14.104  -6.435  1.00  0.00    -0.295 OA
ATOM     15  C   UNL     1      -3.889 -15.088  -7.512  1.00  0.00     0.012 C 
ATOM     16  C   UNL     1       0.790 -17.005  -3.118  1.00  0.00     0.039 C 
ENDROOT
TORSDOF 0
ENDMDL
