MODEL 1
REMARK VINA RESULT:    -5.486      0.000      0.000
REMARK INTER + INTRA:          -6.875
REMARK INTER:                  -6.608
REMARK INTRA:                  -0.267
REMARK UNBOUND:                -0.267
REMARK SMILES [NH3+][C@H](Cc1c[nH]c2ccccc12)C(=O)[O-]
REMARK SMILES IDX 3 1 2 2 1 3 13 7 14 8 15 9 4 10 12 11 5 12 7 13 11 14 6 15
REMARK SMILES IDX 8 16 10 17 9 19
REMARK H PARENT 1 4 1 5 1 6 6 18
REMARK Flexibility Score: inf
ROOT
ATOM      1  C   UNL     1      -1.569  -2.477  -5.077  1.00  0.00     0.109 C 
ENDROOT
BRANCH   1   2
ATOM      2  C   UNL     1      -0.409  -2.268  -4.083  1.00  0.00     0.232 C 
BRANCH   2   3
ATOM      3  N   UNL     1       0.569  -1.317  -4.627  1.00  0.00    -0.350 N 
ATOM      4  H   UNL     1       1.000  -1.711  -5.495  1.00  0.00     0.345 HD
ATOM      5  H   UNL     1       0.111  -0.405  -4.859  1.00  0.00     0.345 HD
ATOM      6  H   UNL     1       1.332  -1.152  -3.930  1.00  0.00     0.345 HD
ENDBRANCH   2   3
BRANCH   2   7
ATOM      7  C   UNL     1      -0.920  -1.788  -2.749  1.00  0.00     0.099 C 
ATOM      8  O   UNL     1      -0.154  -1.191  -1.947  1.00  0.00    -0.544 OA
ATOM      9  O   UNL     1      -2.255  -1.972  -2.412  1.00  0.00    -0.544 OA
ENDBRANCH   2   7
ENDBRANCH   1   2
BRANCH   1  10
ATOM     10  C   UNL     1      -1.765  -3.931  -5.402  1.00  0.00    -0.016 A 
ATOM     11  C   UNL     1      -1.585  -4.560  -6.620  1.00  0.00     0.003 A 
ATOM     12  C   UNL     1      -2.266  -4.906  -4.545  1.00  0.00     0.087 A 
ATOM     13  C   UNL     1      -1.963  -5.867  -6.450  1.00  0.00     0.046 A 
ATOM     14  C   UNL     1      -1.133  -4.081  -7.850  1.00  0.00     0.010 A 
ATOM     15  N   UNL     1      -2.379  -6.089  -5.190  1.00  0.00    -0.361 N 
ATOM     16  C   UNL     1      -1.915  -6.786  -7.496  1.00  0.00     0.026 A 
ATOM     17  C   UNL     1      -1.072  -4.988  -8.924  1.00  0.00     0.001 A 
ATOM     18  H   UNL     1      -2.732  -6.988  -4.790  1.00  0.00     0.166 HD
ATOM     19  C   UNL     1      -1.460  -6.334  -8.748  1.00  0.00     0.002 A 
ENDBRANCH   1  10
TORSDOF 4
ENDMDL
MODEL 2
REMARK VINA RESULT:    -5.485      3.685      7.068
REMARK INTER + INTRA:          -6.875
REMARK INTER:                  -6.637
REMARK INTRA:                  -0.238
REMARK UNBOUND:                -0.267
REMARK SMILES [NH3+][C@H](Cc1c[nH]c2ccccc12)C(=O)[O-]
REMARK SMILES IDX 3 1 2 2 1 3 13 7 14 8 15 9 4 10 12 11 5 12 7 13 11 14 6 15
REMARK SMILES IDX 8 16 10 17 9 19
REMARK H PARENT 1 4 1 5 1 6 6 18
REMARK Flexibility Score: inf
ROOT
ATOM      1  C   UNL     1      -1.648  -2.343  -2.707  1.00  0.00     0.109 C 
ENDROOT
BRANCH   1   2
ATOM      2  C   UNL     1      -2.325  -2.830  -4.003  1.00  0.00     0.232 C 
BRANCH   2   3
ATOM      3  N   UNL     1      -2.040  -1.907  -5.109  1.00  0.00    -0.350 N 
ATOM      4  H   UNL     1      -1.523  -2.411  -5.866  1.00  0.00     0.345 HD
ATOM      5  H   UNL     1      -2.926  -1.516  -5.505  1.00  0.00     0.345 HD
ATOM      6  H   UNL     1      -1.437  -1.121  -4.771  1.00  0.00     0.345 HD
ENDBRANCH   2   3
BRANCH   2   7
ATOM      7  C   UNL     1      -1.878  -4.225  -4.355  1.00  0.00     0.099 C 
ATOM      8  O   UNL     1      -1.449  -5.004  -3.463  1.00  0.00    -0.544 OA
ATOM      9  O   UNL     1      -1.973  -4.672  -5.667  1.00  0.00    -0.544 OA
ENDBRANCH   2   7
ENDBRANCH   1   2
BRANCH   1  10
ATOM     10  C   UNL     1      -2.651  -1.807  -1.724  1.00  0.00    -0.016 A 
ATOM     11  C   UNL     1      -2.406  -1.175  -0.520  1.00  0.00     0.003 A 
ATOM     12  C   UNL     1      -4.034  -1.940  -1.804  1.00  0.00     0.087 A 
ATOM     13  C   UNL     1      -3.627  -0.943   0.061  1.00  0.00     0.046 A 
ATOM     14  C   UNL     1      -1.214  -0.803   0.103  1.00  0.00     0.010 A 
ATOM     15  N   UNL     1      -4.625  -1.404  -0.713  1.00  0.00    -0.361 N 
ATOM     16  C   UNL     1      -3.741  -0.322   1.304  1.00  0.00     0.026 A 
ATOM     17  C   UNL     1      -1.299  -0.173   1.358  1.00  0.00     0.001 A 
ATOM     18  H   UNL     1      -5.649  -1.369  -0.509  1.00  0.00     0.166 HD
ATOM     19  C   UNL     1      -2.556   0.068   1.955  1.00  0.00     0.002 A 
ENDBRANCH   1  10
TORSDOF 4
ENDMDL
MODEL 3
REMARK VINA RESULT:    -5.470      2.359      2.640
REMARK INTER + INTRA:          -6.857
REMARK INTER:                  -6.524
REMARK INTRA:                  -0.333
REMARK UNBOUND:                -0.267
REMARK SMILES [NH3+][C@H](Cc1c[nH]c2ccccc12)C(=O)[O-]
REMARK SMILES IDX 3 1 2 2 1 3 13 7 14 8 15 9 4 10 12 11 5 12 7 13 11 14 6 15
REMARK SMILES IDX 8 16 10 17 9 19
REMARK H PARENT 1 4 1 5 1 6 6 18
REMARK Flexibility Score: inf
ROOT
ATOM      1  C   UNL     1       0.475  -3.695  -4.756  1.00  0.00     0.109 C 
ENDROOT
BRANCH   1   2
ATOM      2  C   UNL     1       0.391  -2.256  -5.303  1.00  0.00     0.232 C 
BRANCH   2   3
ATOM      3  N   UNL     1       0.378  -1.287  -4.200  1.00  0.00    -0.350 N 
ATOM      4  H   UNL     1       1.116  -1.535  -3.502  1.00  0.00     0.345 HD
ATOM      5  H   UNL     1       0.557  -0.318  -4.554  1.00  0.00     0.345 HD
ATOM      6  H   UNL     1      -0.550  -1.311  -3.716  1.00  0.00     0.345 HD
ENDBRANCH   2   3
BRANCH   2   7
ATOM      7  C   UNL     1       1.534  -1.967  -6.241  1.00  0.00     0.099 C 
ATOM      8  O   UNL     1       2.091  -2.899  -6.880  1.00  0.00    -0.544 OA
ATOM      9  O   UNL     1       1.957  -0.657  -6.435  1.00  0.00    -0.544 OA
ENDBRANCH   2   7
ENDBRANCH   1   2
BRANCH   1  10
ATOM     10  C   UNL     1      -0.789  -4.463  -5.020  1.00  0.00    -0.016 A 
ATOM     11  C   UNL     1      -1.186  -5.065  -6.200  1.00  0.00     0.003 A 
ATOM     12  C   UNL     1      -1.853  -4.628  -4.138  1.00  0.00     0.087 A 
ATOM     13  C   UNL     1      -2.442  -5.571  -5.983  1.00  0.00     0.046 A 
ATOM     14  C   UNL     1      -0.547  -5.191  -7.434  1.00  0.00     0.010 A 
ATOM     15  N   UNL     1      -2.858  -5.312  -4.730  1.00  0.00    -0.361 N 
ATOM     16  C   UNL     1      -3.146  -6.240  -6.983  1.00  0.00     0.026 A 
ATOM     17  C   UNL     1      -1.233  -5.863  -8.462  1.00  0.00     0.001 A 
ATOM     18  H   UNL     1      -3.774  -5.571  -4.302  1.00  0.00     0.166 HD
ATOM     19  C   UNL     1      -2.525  -6.386  -8.237  1.00  0.00     0.002 A 
ENDBRANCH   1  10
TORSDOF 4
ENDMDL
MODEL 4
REMARK VINA RESULT:    -5.464      1.828      2.203
REMARK INTER + INTRA:          -6.849
REMARK INTER:                  -6.600
REMARK INTRA:                  -0.249
REMARK UNBOUND:                -0.267
REMARK SMILES [NH3+][C@H](Cc1c[nH]c2ccccc12)C(=O)[O-]
REMARK SMILES IDX 3 1 2 2 1 3 13 7 14 8 15 9 4 10 12 11 5 12 7 13 11 14 6 15
REMARK SMILES IDX 8 16 10 17 9 19
REMARK H PARENT 1 4 1 5 1 6 6 18
REMARK Flexibility Score: inf
ROOT
ATOM      1  C   UNL     1      -1.655  -4.026  -3.809  1.00  0.00     0.109 C 
ENDROOT
BRANCH   1   2
ATOM      2  C   UNL     1      -1.945  -2.515  -3.706  1.00  0.00     0.232 C 
BRANCH   2   3
ATOM      3  N   UNL     1      -3.229  -2.284  -3.032  1.00  0.00    -0.350 N 
ATOM      4  H   UNL     1      -3.180  -2.633  -2.047  1.00  0.00     0.345 HD
ATOM      5  H   UNL     1      -3.463  -1.264  -3.020  1.00  0.00     0.345 HD
ATOM      6  H   UNL     1      -3.990  -2.806  -3.525  1.00  0.00     0.345 HD
ENDBRANCH   2   3
BRANCH   2   7
ATOM      7  C   UNL     1      -0.835  -1.800  -2.981  1.00  0.00     0.099 C 
ATOM      8  O   UNL     1       0.216  -1.465  -3.589  1.00  0.00    -0.544 OA
ATOM      9  O   UNL     1      -0.983  -1.473  -1.638  1.00  0.00    -0.544 OA
ENDBRANCH   2   7
ENDBRANCH   1   2
BRANCH   1  10
ATOM     10  C   UNL     1      -1.113  -4.396  -5.160  1.00  0.00    -0.016 A 
ATOM     11  C   UNL     1      -1.782  -5.000  -6.207  1.00  0.00     0.003 A 
ATOM     12  C   UNL     1       0.211  -4.284  -5.576  1.00  0.00     0.087 A 
ATOM     13  C   UNL     1      -0.859  -5.212  -7.199  1.00  0.00     0.046 A 
ATOM     14  C   UNL     1      -3.116  -5.385  -6.353  1.00  0.00     0.010 A 
ATOM     15  N   UNL     1       0.358  -4.779  -6.825  1.00  0.00    -0.361 N 
ATOM     16  C   UNL     1      -1.204  -5.821  -8.404  1.00  0.00     0.026 A 
ATOM     17  C   UNL     1      -3.493  -6.001  -7.560  1.00  0.00     0.001 A 
ATOM     18  H   UNL     1       1.243  -4.826  -7.379  1.00  0.00     0.166 HD
ATOM     19  C   UNL     1      -2.542  -6.216  -8.581  1.00  0.00     0.002 A 
ENDBRANCH   1  10
TORSDOF 4
ENDMDL
MODEL 5
REMARK VINA RESULT:    -5.279      3.260      3.740
REMARK INTER + INTRA:          -6.626
REMARK INTER:                  -6.309
REMARK INTRA:                  -0.318
REMARK UNBOUND:                -0.267
REMARK SMILES [NH3+][C@H](Cc1c[nH]c2ccccc12)C(=O)[O-]
REMARK SMILES IDX 3 1 2 2 1 3 13 7 14 8 15 9 4 10 12 11 5 12 7 13 11 14 6 15
REMARK SMILES IDX 8 16 10 17 9 19
REMARK H PARENT 1 4 1 5 1 6 6 18
REMARK Flexibility Score: inf
ROOT
ATOM      1  C   UNL     1       0.866  -2.819  -6.062  1.00  0.00     0.109 C 
ENDROOT
BRANCH   1   2
ATOM      2  C   UNL     1       0.869  -1.671  -7.090  1.00  0.00     0.232 C 
BRANCH   2   3
ATOM      3  N   UNL     1       1.411  -0.446  -6.490  1.00  0.00    -0.350 N 
ATOM      4  H   UNL     1       1.042  -0.335  -5.518  1.00  0.00     0.345 HD
ATOM      5  H   UNL     1       2.456  -0.480  -6.456  1.00  0.00     0.345 HD
ATOM      6  H   UNL     1       1.112   0.387  -7.049  1.00  0.00     0.345 HD
ENDBRANCH   2   3
BRANCH   2   7
ATOM      7  C   UNL     1       1.656  -2.047  -8.318  1.00  0.00     0.099 C 
ATOM      8  O   UNL     1       2.411  -1.207  -8.878  1.00  0.00    -0.544 OA
ATOM      9  O   UNL     1       1.581  -3.340  -8.821  1.00  0.00    -0.544 OA
ENDBRANCH   2   7
ENDBRANCH   1   2
BRANCH   1  10
ATOM     10  C   UNL     1      -0.527  -3.306  -5.776  1.00  0.00    -0.016 A 
ATOM     11  C   UNL     1      -1.156  -4.426  -6.286  1.00  0.00     0.003 A 
ATOM     12  C   UNL     1      -1.486  -2.652  -5.009  1.00  0.00     0.087 A 
ATOM     13  C   UNL     1      -2.440  -4.412  -5.805  1.00  0.00     0.046 A 
ATOM     14  C   UNL     1      -0.701  -5.435  -7.136  1.00  0.00     0.010 A 
ATOM     15  N   UNL     1      -2.652  -3.337  -5.026  1.00  0.00    -0.361 N 
ATOM     16  C   UNL     1      -3.358  -5.406  -6.139  1.00  0.00     0.026 A 
ATOM     17  C   UNL     1      -1.606  -6.453  -7.488  1.00  0.00     0.001 A 
ATOM     18  H   UNL     1      -3.539  -3.073  -4.541  1.00  0.00     0.166 HD
ATOM     19  C   UNL     1      -2.928  -6.439  -6.991  1.00  0.00     0.002 A 
ENDBRANCH   1  10
TORSDOF 4
ENDMDL
MODEL 6
REMARK VINA RESULT:    -5.225      1.603      1.839
REMARK INTER + INTRA:          -6.561
REMARK INTER:                  -6.272
REMARK INTRA:                  -0.289
REMARK UNBOUND:                -0.267
REMARK SMILES [NH3+][C@H](Cc1c[nH]c2ccccc12)C(=O)[O-]
REMARK SMILES IDX 3 1 2 2 1 3 13 7 14 8 15 9 4 10 12 11 5 12 7 13 11 14 6 15
REMARK SMILES IDX 8 16 10 17 9 19
REMARK H PARENT 1 4 1 5 1 6 6 18
REMARK Flexibility Score: inf
ROOT
ATOM      1  C   UNL     1      -0.879  -2.609  -4.978  1.00  0.00     0.109 C 
ENDROOT
BRANCH   1   2
ATOM      2  C   UNL     1       0.656  -2.522  -5.090  1.00  0.00     0.232 C 
BRANCH   2   3
ATOM      3  N   UNL     1       1.109  -1.142  -4.877  1.00  0.00    -0.350 N 
ATOM      4  H   UNL     1       1.605  -1.070  -3.959  1.00  0.00     0.345 HD
ATOM      5  H   UNL     1       1.761  -0.843  -5.639  1.00  0.00     0.345 HD
ATOM      6  H   UNL     1       0.286  -0.496  -4.854  1.00  0.00     0.345 HD
ENDBRANCH   2   3
BRANCH   2   7
ATOM      7  C   UNL     1       1.323  -3.450  -4.108  1.00  0.00     0.099 C 
ATOM      8  O   UNL     1       1.179  -3.282  -2.868  1.00  0.00    -0.544 OA
ATOM      9  O   UNL     1       2.074  -4.524  -4.570  1.00  0.00    -0.544 OA
ENDBRANCH   2   7
ENDBRANCH   1   2
BRANCH   1  10
ATOM     10  C   UNL     1      -1.376  -4.002  -5.242  1.00  0.00    -0.016 A 
ATOM     11  C   UNL     1      -1.428  -4.671  -6.450  1.00  0.00     0.003 A 
ATOM     12  C   UNL     1      -1.976  -4.852  -4.316  1.00  0.00     0.087 A 
ATOM     13  C   UNL     1      -2.032  -5.879  -6.210  1.00  0.00     0.046 A 
ATOM     14  C   UNL     1      -1.005  -4.304  -7.729  1.00  0.00     0.010 A 
ATOM     15  N   UNL     1      -2.368  -6.000  -4.913  1.00  0.00    -0.361 N 
ATOM     16  C   UNL     1      -2.252  -6.804  -7.228  1.00  0.00     0.026 A 
ATOM     17  C   UNL     1      -1.214  -5.219  -8.777  1.00  0.00     0.001 A 
ATOM     18  H   UNL     1      -2.848  -6.809  -4.458  1.00  0.00     0.166 HD
ATOM     19  C   UNL     1      -1.833  -6.464  -8.527  1.00  0.00     0.002 A 
ENDBRANCH   1  10
TORSDOF 4
ENDMDL
MODEL 7
REMARK VINA RESULT:    -5.151     10.297     11.997
REMARK INTER + INTRA:          -6.472
REMARK INTER:                  -6.189
REMARK INTRA:                  -0.283
REMARK UNBOUND:                -0.267
REMARK SMILES [NH3+][C@H](Cc1c[nH]c2ccccc12)C(=O)[O-]
REMARK SMILES IDX 3 1 2 2 1 3 13 7 14 8 15 9 4 10 12 11 5 12 7 13 11 14 6 15
REMARK SMILES IDX 8 16 10 17 9 19
REMARK H PARENT 1 4 1 5 1 6 6 18
REMARK Flexibility Score: inf
ROOT
ATOM      1  C   UNL     1      -7.543   3.342  -5.158  1.00  0.00     0.109 C 
ENDROOT
BRANCH   1   2
ATOM      2  C   UNL     1      -7.104   4.515  -6.056  1.00  0.00     0.232 C 
BRANCH   2   3
ATOM      3  N   UNL     1      -6.016   4.098  -6.950  1.00  0.00    -0.350 N 
ATOM      4  H   UNL     1      -5.658   3.160  -6.658  1.00  0.00     0.345 HD
ATOM      5  H   UNL     1      -6.351   4.041  -7.940  1.00  0.00     0.345 HD
ATOM      6  H   UNL     1      -5.226   4.782  -6.893  1.00  0.00     0.345 HD
ENDBRANCH   2   3
BRANCH   2   7
ATOM      7  C   UNL     1      -8.265   5.048  -6.856  1.00  0.00     0.099 C 
ATOM      8  O   UNL     1      -8.476   6.288  -6.931  1.00  0.00    -0.544 OA
ATOM      9  O   UNL     1      -9.091   4.170  -7.547  1.00  0.00    -0.544 OA
ENDBRANCH   2   7
ENDBRANCH   1   2
BRANCH   1  10
ATOM     10  C   UNL     1      -8.311   3.820  -3.958  1.00  0.00    -0.016 A 
ATOM     11  C   UNL     1      -7.821   4.468  -2.840  1.00  0.00     0.003 A 
ATOM     12  C   UNL     1      -9.663   3.606  -3.706  1.00  0.00     0.087 A 
ATOM     13  C   UNL     1      -8.878   4.629  -1.980  1.00  0.00     0.046 A 
ATOM     14  C   UNL     1      -6.537   4.910  -2.515  1.00  0.00     0.010 A 
ATOM     15  N   UNL     1     -10.005   4.108  -2.498  1.00  0.00    -0.361 N 
ATOM     16  C   UNL     1      -8.726   5.244  -0.739  1.00  0.00     0.026 A 
ATOM     17  C   UNL     1      -6.355   5.536  -1.269  1.00  0.00     0.001 A 
ATOM     18  H   UNL     1     -10.950   4.083  -2.055  1.00  0.00     0.166 HD
ATOM     19  C   UNL     1      -7.444   5.704  -0.386  1.00  0.00     0.002 A 
ENDBRANCH   1  10
TORSDOF 4
ENDMDL
MODEL 8
REMARK VINA RESULT:    -5.127      2.682      4.264
REMARK INTER + INTRA:          -6.443
REMARK INTER:                  -6.130
REMARK INTRA:                  -0.314
REMARK UNBOUND:                -0.267
REMARK SMILES [NH3+][C@H](Cc1c[nH]c2ccccc12)C(=O)[O-]
REMARK SMILES IDX 3 1 2 2 1 3 13 7 14 8 15 9 4 10 12 11 5 12 7 13 11 14 6 15
REMARK SMILES IDX 8 16 10 17 9 19
REMARK H PARENT 1 4 1 5 1 6 6 18
REMARK Flexibility Score: inf
ROOT
ATOM      1  C   UNL     1      -1.333  -5.871  -6.331  1.00  0.00     0.109 C 
ENDROOT
BRANCH   1   2
ATOM      2  C   UNL     1      -2.404  -5.167  -5.474  1.00  0.00     0.232 C 
BRANCH   2   3
ATOM      3  N   UNL     1      -3.609  -6.000  -5.372  1.00  0.00    -0.350 N 
ATOM      4  H   UNL     1      -3.337  -7.007  -5.296  1.00  0.00     0.345 HD
ATOM      5  H   UNL     1      -4.173  -5.736  -4.530  1.00  0.00     0.345 HD
ATOM      6  H   UNL     1      -4.196  -5.885  -6.230  1.00  0.00     0.345 HD
ENDBRANCH   2   3
BRANCH   2   7
ATOM      7  C   UNL     1      -1.872  -4.842  -4.103  1.00  0.00     0.099 C 
ATOM      8  O   UNL     1      -1.101  -5.642  -3.509  1.00  0.00    -0.544 OA
ATOM      9  O   UNL     1      -2.204  -3.636  -3.499  1.00  0.00    -0.544 OA
ENDBRANCH   2   7
ENDBRANCH   1   2
BRANCH   1  10
ATOM     10  C   UNL     1      -0.697  -4.926  -7.311  1.00  0.00    -0.016 A 
ATOM     11  C   UNL     1       0.467  -4.198  -7.156  1.00  0.00     0.003 A 
ATOM     12  C   UNL     1      -1.227  -4.532  -8.537  1.00  0.00     0.087 A 
ATOM     13  C   UNL     1       0.599  -3.419  -8.277  1.00  0.00     0.046 A 
ATOM     14  C   UNL     1       1.399  -4.156  -6.118  1.00  0.00     0.010 A 
ATOM     15  N   UNL     1      -0.426  -3.615  -9.125  1.00  0.00    -0.361 N 
ATOM     16  C   UNL     1       1.674  -2.546  -8.440  1.00  0.00     0.026 A 
ATOM     17  C   UNL     1       2.495  -3.284  -6.256  1.00  0.00     0.001 A 
ATOM     18  H   UNL     1      -0.582  -3.146 -10.045  1.00  0.00     0.166 HD
ATOM     19  C   UNL     1       2.632  -2.484  -7.412  1.00  0.00     0.002 A 
ENDBRANCH   1  10
TORSDOF 4
ENDMDL
MODEL 9
REMARK VINA RESULT:    -5.043      3.109      4.794
REMARK INTER + INTRA:          -6.342
REMARK INTER:                  -6.068
REMARK INTRA:                  -0.274
REMARK UNBOUND:                -0.267
REMARK SMILES [NH3+][C@H](Cc1c[nH]c2ccccc12)C(=O)[O-]
REMARK SMILES IDX 3 1 2 2 1 3 13 7 14 8 15 9 4 10 12 11 5 12 7 13 11 14 6 15
REMARK SMILES IDX 8 16 10 17 9 19
REMARK H PARENT 1 4 1 5 1 6 6 18
REMARK Flexibility Score: inf
ROOT
ATOM      1  C   UNL     1      -2.189  -4.007  -5.741  1.00  0.00     0.109 C 
ENDROOT
BRANCH   1   2
ATOM      2  C   UNL     1      -1.684  -5.462  -5.665  1.00  0.00     0.232 C 
BRANCH   2   3
ATOM      3  N   UNL     1      -1.842  -5.990  -4.304  1.00  0.00    -0.350 N 
ATOM      4  H   UNL     1      -2.642  -5.512  -3.830  1.00  0.00     0.345 HD
ATOM      5  H   UNL     1      -2.025  -7.020  -4.324  1.00  0.00     0.345 HD
ATOM      6  H   UNL     1      -0.975  -5.805  -3.748  1.00  0.00     0.345 HD
ENDBRANCH   2   3
BRANCH   2   7
ATOM      7  C   UNL     1      -2.408  -6.338  -6.655  1.00  0.00     0.099 C 
ATOM      8  O   UNL     1      -1.834  -6.726  -7.707  1.00  0.00    -0.544 OA
ATOM      9  O   UNL     1      -3.707  -6.754  -6.391  1.00  0.00    -0.544 OA
ENDBRANCH   2   7
ENDBRANCH   1   2
BRANCH   1  10
ATOM     10  C   UNL     1      -1.051  -3.028  -5.794  1.00  0.00    -0.016 A 
ATOM     11  C   UNL     1      -0.283  -2.677  -6.889  1.00  0.00     0.003 A 
ATOM     12  C   UNL     1      -0.491  -2.356  -4.711  1.00  0.00     0.087 A 
ATOM     13  C   UNL     1       0.682  -1.814  -6.435  1.00  0.00     0.046 A 
ATOM     14  C   UNL     1      -0.355  -3.059  -8.229  1.00  0.00     0.010 A 
ATOM     15  N   UNL     1       0.564  -1.611  -5.111  1.00  0.00    -0.361 N 
ATOM     16  C   UNL     1       1.640  -1.272  -7.290  1.00  0.00     0.026 A 
ATOM     17  C   UNL     1       0.599  -2.525  -9.115  1.00  0.00     0.001 A 
ATOM     18  H   UNL     1       1.171  -1.012  -4.508  1.00  0.00     0.166 HD
ATOM     19  C   UNL     1       1.591  -1.635  -8.648  1.00  0.00     0.002 A 
ENDBRANCH   1  10
TORSDOF 4
ENDMDL
