MODEL 1
REMARK VINA RESULT:    -5.600      0.000      0.000
REMARK INTER + INTRA:          -7.810
REMARK INTER:                  -7.564
REMARK INTRA:                  -0.246
REMARK UNBOUND:                -0.246
REMARK SMILES CCCCCCC=CC(=O)[O-]
REMARK SMILES IDX 5 1 6 2 7 3 8 4 9 5 10 6 11 7 4 8 3 9 2 10 1 11
REMARK H PARENT
REMARK Flexibility Score: inf
ROOT
ATOM      1  C   UNL     1      51.469  50.260   5.004  1.00  0.00     0.004 C 
ENDROOT
BRANCH   1   2
ATOM      2  C   UNL     1      51.655  49.259   3.859  1.00  0.00     0.027 C 
BRANCH   2   3
ATOM      3  C   UNL     1      50.350  48.627   3.469  1.00  0.00    -0.025 C 
ATOM      4  C   UNL     1      49.557  49.174   2.541  1.00  0.00     0.020 C 
BRANCH   4   5
ATOM      5  C   UNL     1      48.268  48.580   2.155  1.00  0.00     0.064 C 
ATOM      6  O   UNL     1      47.314  49.298   1.753  1.00  0.00    -0.545 OA
ATOM      7  O   UNL     1      48.100  47.204   2.234  1.00  0.00    -0.545 OA
ENDBRANCH   4   5
ENDBRANCH   2   3
ENDBRANCH   1   2
BRANCH   1   8
ATOM      8  C   UNL     1      52.610  51.283   5.032  1.00  0.00     0.000 C 
BRANCH   8   9
ATOM      9  C   UNL     1      53.920  50.662   4.534  1.00  0.00    -0.000 C 
BRANCH   9  10
ATOM     10  C   UNL     1      55.058  51.690   4.553  1.00  0.00    -0.003 C 
ATOM     11  C   UNL     1      56.299  51.150   3.850  1.00  0.00     0.004 C 
ENDBRANCH   9  10
ENDBRANCH   8   9
ENDBRANCH   1   8
TORSDOF 6
ENDMDL
MODEL 2
REMARK VINA RESULT:    -5.595      0.598      1.246
REMARK INTER + INTRA:          -7.804
REMARK INTER:                  -7.502
REMARK INTRA:                  -0.302
REMARK UNBOUND:                -0.246
REMARK SMILES CCCCCCC=CC(=O)[O-]
REMARK SMILES IDX 5 1 6 2 7 3 8 4 9 5 10 6 11 7 4 8 3 9 2 10 1 11
REMARK H PARENT
REMARK Flexibility Score: inf
ROOT
ATOM      1  C   UNL     1      51.547  50.114   4.999  1.00  0.00     0.004 C 
ENDROOT
BRANCH   1   2
ATOM      2  C   UNL     1      51.563  49.127   3.826  1.00  0.00     0.027 C 
BRANCH   2   3
ATOM      3  C   UNL     1      50.171  48.732   3.428  1.00  0.00    -0.025 C 
ATOM      4  C   UNL     1      49.500  49.395   2.479  1.00  0.00     0.020 C 
BRANCH   4   5
ATOM      5  C   UNL     1      48.130  49.035   2.083  1.00  0.00     0.064 C 
ATOM      6  O   UNL     1      47.860  47.888   1.638  1.00  0.00    -0.545 OA
ATOM      7  O   UNL     1      47.116  49.976   2.201  1.00  0.00    -0.545 OA
ENDBRANCH   4   5
ENDBRANCH   2   3
ENDBRANCH   1   2
BRANCH   1   8
ATOM      8  C   UNL     1      52.777  51.029   4.965  1.00  0.00     0.000 C 
BRANCH   8   9
ATOM      9  C   UNL     1      53.986  50.306   4.358  1.00  0.00    -0.000 C 
BRANCH   9  10
ATOM     10  C   UNL     1      55.181  51.256   4.218  1.00  0.00    -0.003 C 
ATOM     11  C   UNL     1      54.855  52.637   4.780  1.00  0.00     0.004 C 
ENDBRANCH   9  10
ENDBRANCH   8   9
ENDBRANCH   1   8
TORSDOF 6
ENDMDL
MODEL 3
REMARK VINA RESULT:    -5.576      4.028      6.181
REMARK INTER + INTRA:          -7.778
REMARK INTER:                  -7.341
REMARK INTRA:                  -0.437
REMARK UNBOUND:                -0.246
REMARK SMILES CCCCCCC=CC(=O)[O-]
REMARK SMILES IDX 5 1 6 2 7 3 8 4 9 5 10 6 11 7 4 8 3 9 2 10 1 11
REMARK H PARENT
REMARK Flexibility Score: inf
ROOT
ATOM      1  C   UNL     1      51.622  49.195   3.798  1.00  0.00     0.004 C 
ENDROOT
BRANCH   1   2
ATOM      2  C   UNL     1      51.589  50.168   4.983  1.00  0.00     0.027 C 
BRANCH   2   3
ATOM      3  C   UNL     1      52.727  51.144   4.917  1.00  0.00    -0.025 C 
ATOM      4  C   UNL     1      53.950  50.769   4.527  1.00  0.00     0.020 C 
BRANCH   4   5
ATOM      5  C   UNL     1      55.083  51.705   4.469  1.00  0.00     0.064 C 
ATOM      6  O   UNL     1      55.006  52.854   4.980  1.00  0.00    -0.545 OA
ATOM      7  O   UNL     1      56.258  51.317   3.839  1.00  0.00    -0.545 OA
ENDBRANCH   4   5
ENDBRANCH   2   3
ENDBRANCH   1   2
BRANCH   1   8
ATOM      8  C   UNL     1      50.222  48.647   3.497  1.00  0.00     0.000 C 
BRANCH   8   9
ATOM      9  C   UNL     1      49.558  49.426   2.355  1.00  0.00    -0.000 C 
BRANCH   9  10
ATOM     10  C   UNL     1      48.397  50.281   2.875  1.00  0.00    -0.003 C 
ATOM     11  C   UNL     1      48.846  51.714   3.142  1.00  0.00     0.004 C 
ENDBRANCH   9  10
ENDBRANCH   8   9
ENDBRANCH   1   8
TORSDOF 6
ENDMDL
MODEL 4
REMARK VINA RESULT:    -5.566      3.159      4.045
REMARK INTER + INTRA:          -7.764
REMARK INTER:                  -7.131
REMARK INTRA:                  -0.633
REMARK UNBOUND:                -0.246
REMARK SMILES CCCCCCC=CC(=O)[O-]
REMARK SMILES IDX 5 1 6 2 7 3 8 4 9 5 10 6 11 7 4 8 3 9 2 10 1 11
REMARK H PARENT
REMARK Flexibility Score: inf
ROOT
ATOM      1  C   UNL     1      53.943  49.730   4.771  1.00  0.00     0.004 C 
ENDROOT
BRANCH   1   2
ATOM      2  C   UNL     1      52.592  49.525   4.075  1.00  0.00     0.027 C 
BRANCH   2   3
ATOM      3  C   UNL     1      51.487  50.221   4.816  1.00  0.00    -0.025 C 
ATOM      4  C   UNL     1      51.621  50.580   6.098  1.00  0.00     0.020 C 
BRANCH   4   5
ATOM      5  C   UNL     1      50.547  51.250   6.846  1.00  0.00     0.064 C 
ATOM      6  O   UNL     1      50.735  52.366   7.398  1.00  0.00    -0.545 OA
ATOM      7  O   UNL     1      49.303  50.641   6.947  1.00  0.00    -0.545 OA
ENDBRANCH   4   5
ENDBRANCH   2   3
ENDBRANCH   1   2
BRANCH   1   8
ATOM      8  C   UNL     1      54.961  50.368   3.818  1.00  0.00     0.000 C 
BRANCH   8   9
ATOM      9  C   UNL     1      55.568  51.637   4.429  1.00  0.00    -0.000 C 
BRANCH   9  10
ATOM     10  C   UNL     1      54.472  52.615   4.867  1.00  0.00    -0.003 C 
ATOM     11  C   UNL     1      54.622  52.989   6.338  1.00  0.00     0.004 C 
ENDBRANCH   9  10
ENDBRANCH   8   9
ENDBRANCH   1   8
TORSDOF 6
ENDMDL
MODEL 5
REMARK VINA RESULT:    -5.498      2.217      3.178
REMARK INTER + INTRA:          -7.672
REMARK INTER:                  -7.077
REMARK INTRA:                  -0.595
REMARK UNBOUND:                -0.246
REMARK SMILES CCCCCCC=CC(=O)[O-]
REMARK SMILES IDX 5 1 6 2 7 3 8 4 9 5 10 6 11 7 4 8 3 9 2 10 1 11
REMARK H PARENT
REMARK Flexibility Score: inf
ROOT
ATOM      1  C   UNL     1      54.890  51.005   4.266  1.00  0.00     0.004 C 
ENDROOT
BRANCH   1   2
ATOM      2  C   UNL     1      53.985  49.768   4.257  1.00  0.00     0.027 C 
BRANCH   2   3
ATOM      3  C   UNL     1      52.553  50.140   4.517  1.00  0.00    -0.025 C 
ATOM      4  C   UNL     1      51.543  49.384   4.074  1.00  0.00     0.020 C 
BRANCH   4   5
ATOM      5  C   UNL     1      50.133  49.736   4.305  1.00  0.00     0.064 C 
ATOM      6  O   UNL     1      49.658  50.827   3.894  1.00  0.00    -0.545 OA
ATOM      7  O   UNL     1      49.312  48.849   4.989  1.00  0.00    -0.545 OA
ENDBRANCH   4   5
ENDBRANCH   2   3
ENDBRANCH   1   2
BRANCH   1   8
ATOM      8  C   UNL     1      54.262  52.142   5.081  1.00  0.00     0.000 C 
BRANCH   8   9
ATOM      9  C   UNL     1      54.916  52.258   6.463  1.00  0.00    -0.000 C 
BRANCH   9  10
ATOM     10  C   UNL     1      53.908  51.951   7.576  1.00  0.00    -0.003 C 
ATOM     11  C   UNL     1      53.976  50.485   7.992  1.00  0.00     0.004 C 
ENDBRANCH   9  10
ENDBRANCH   8   9
ENDBRANCH   1   8
TORSDOF 6
ENDMDL
MODEL 6
REMARK VINA RESULT:    -5.358      1.687      2.507
REMARK INTER + INTRA:          -7.484
REMARK INTER:                  -6.938
REMARK INTRA:                  -0.546
REMARK UNBOUND:                -0.246
REMARK SMILES CCCCCCC=CC(=O)[O-]
REMARK SMILES IDX 5 1 6 2 7 3 8 4 9 5 10 6 11 7 4 8 3 9 2 10 1 11
REMARK H PARENT
REMARK Flexibility Score: inf
ROOT
ATOM      1  C   UNL     1      53.032  50.549   6.721  1.00  0.00     0.004 C 
ENDROOT
BRANCH   1   2
ATOM      2  C   UNL     1      51.656  51.130   6.375  1.00  0.00     0.027 C 
BRANCH   2   3
ATOM      3  C   UNL     1      50.858  50.176   5.535  1.00  0.00    -0.025 C 
ATOM      4  C   UNL     1      51.276  49.791   4.324  1.00  0.00     0.020 C 
BRANCH   4   5
ATOM      5  C   UNL     1      50.503  48.868   3.479  1.00  0.00     0.064 C 
ATOM      6  O   UNL     1      50.398  47.648   3.773  1.00  0.00    -0.545 OA
ATOM      7  O   UNL     1      49.878  49.350   2.336  1.00  0.00    -0.545 OA
ENDBRANCH   4   5
ENDBRANCH   2   3
ENDBRANCH   1   2
BRANCH   1   8
ATOM      8  C   UNL     1      54.136  51.595   6.524  1.00  0.00     0.000 C 
BRANCH   8   9
ATOM      9  C   UNL     1      54.117  52.155   5.096  1.00  0.00    -0.000 C 
BRANCH   9  10
ATOM     10  C   UNL     1      55.342  51.685   4.304  1.00  0.00    -0.003 C 
ATOM     11  C   UNL     1      55.177  50.240   3.841  1.00  0.00     0.004 C 
ENDBRANCH   9  10
ENDBRANCH   8   9
ENDBRANCH   1   8
TORSDOF 6
ENDMDL
MODEL 7
REMARK VINA RESULT:    -5.240      3.812      5.654
REMARK INTER + INTRA:          -7.325
REMARK INTER:                  -6.575
REMARK INTRA:                  -0.749
REMARK UNBOUND:                -0.246
REMARK SMILES CCCCCCC=CC(=O)[O-]
REMARK SMILES IDX 5 1 6 2 7 3 8 4 9 5 10 6 11 7 4 8 3 9 2 10 1 11
REMARK H PARENT
REMARK Flexibility Score: inf
ROOT
ATOM      1  C   UNL     1      50.491  48.965   4.090  1.00  0.00     0.004 C 
ENDROOT
BRANCH   1   2
ATOM      2  C   UNL     1      51.967  49.356   3.952  1.00  0.00     0.027 C 
BRANCH   2   3
ATOM      3  C   UNL     1      52.304  50.527   4.828  1.00  0.00    -0.025 C 
ATOM      4  C   UNL     1      51.797  50.649   6.060  1.00  0.00     0.020 C 
BRANCH   4   5
ATOM      5  C   UNL     1      52.103  51.795   6.930  1.00  0.00     0.064 C 
ATOM      6  O   UNL     1      51.213  52.625   7.251  1.00  0.00    -0.545 OA
ATOM      7  O   UNL     1      53.397  51.964   7.405  1.00  0.00    -0.545 OA
ENDBRANCH   4   5
ENDBRANCH   2   3
ENDBRANCH   1   2
BRANCH   1   8
ATOM      8  C   UNL     1      49.738  49.184   2.772  1.00  0.00     0.000 C 
BRANCH   8   9
ATOM      9  C   UNL     1      49.208  50.619   2.671  1.00  0.00    -0.000 C 
BRANCH   9  10
ATOM     10  C   UNL     1      48.742  51.131   4.039  1.00  0.00    -0.003 C 
ATOM     11  C   UNL     1      49.137  52.590   4.245  1.00  0.00     0.004 C 
ENDBRANCH   9  10
ENDBRANCH   8   9
ENDBRANCH   1   8
TORSDOF 6
ENDMDL
MODEL 8
REMARK VINA RESULT:    -5.224      2.497      3.143
REMARK INTER + INTRA:          -7.302
REMARK INTER:                  -6.803
REMARK INTRA:                  -0.500
REMARK UNBOUND:                -0.246
REMARK SMILES CCCCCCC=CC(=O)[O-]
REMARK SMILES IDX 5 1 6 2 7 3 8 4 9 5 10 6 11 7 4 8 3 9 2 10 1 11
REMARK H PARENT
REMARK Flexibility Score: inf
ROOT
ATOM      1  C   UNL     1      51.957  50.879   6.507  1.00  0.00     0.004 C 
ENDROOT
BRANCH   1   2
ATOM      2  C   UNL     1      51.834  52.356   6.115  1.00  0.00     0.027 C 
BRANCH   2   3
ATOM      3  C   UNL     1      50.789  52.553   5.056  1.00  0.00    -0.025 C 
ATOM      4  C   UNL     1      49.814  51.658   4.859  1.00  0.00     0.020 C 
BRANCH   4   5
ATOM      5  C   UNL     1      48.788  51.824   3.818  1.00  0.00     0.064 C 
ATOM      6  O   UNL     1      48.808  51.132   2.767  1.00  0.00    -0.545 OA
ATOM      7  O   UNL     1      47.780  52.763   3.998  1.00  0.00    -0.545 OA
ENDBRANCH   4   5
ENDBRANCH   2   3
ENDBRANCH   1   2
BRANCH   1   8
ATOM      8  C   UNL     1      53.311  50.305   6.075  1.00  0.00     0.000 C 
BRANCH   8   9
ATOM      9  C   UNL     1      53.359  50.091   4.557  1.00  0.00    -0.000 C 
BRANCH   9  10
ATOM     10  C   UNL     1      54.775  50.320   4.014  1.00  0.00    -0.003 C 
ATOM     11  C   UNL     1      55.274  51.721   4.355  1.00  0.00     0.004 C 
ENDBRANCH   9  10
ENDBRANCH   8   9
ENDBRANCH   1   8
TORSDOF 6
ENDMDL
MODEL 9
REMARK VINA RESULT:    -5.179      3.759      5.663
REMARK INTER + INTRA:          -7.242
REMARK INTER:                  -6.545
REMARK INTRA:                  -0.696
REMARK UNBOUND:                -0.246
REMARK SMILES CCCCCCC=CC(=O)[O-]
REMARK SMILES IDX 5 1 6 2 7 3 8 4 9 5 10 6 11 7 4 8 3 9 2 10 1 11
REMARK H PARENT
REMARK Flexibility Score: inf
ROOT
ATOM      1  C   UNL     1      50.615  50.715   6.663  1.00  0.00     0.004 C 
ENDROOT
BRANCH   1   2
ATOM      2  C   UNL     1      50.743  52.025   5.878  1.00  0.00     0.027 C 
BRANCH   2   3
ATOM      3  C   UNL     1      52.115  52.175   5.288  1.00  0.00    -0.025 C 
ATOM      4  C   UNL     1      52.891  51.113   5.041  1.00  0.00     0.020 C 
BRANCH   4   5
ATOM      5  C   UNL     1      54.243  51.237   4.477  1.00  0.00     0.064 C 
ATOM      6  O   UNL     1      54.861  52.334   4.500  1.00  0.00    -0.545 OA
ATOM      7  O   UNL     1      54.850  50.125   3.908  1.00  0.00    -0.545 OA
ENDBRANCH   4   5
ENDBRANCH   2   3
ENDBRANCH   1   2
BRANCH   1   8
ATOM      8  C   UNL     1      49.207  50.124   6.522  1.00  0.00     0.000 C 
BRANCH   8   9
ATOM      9  C   UNL     1      48.901  49.772   5.061  1.00  0.00    -0.000 C 
BRANCH   9  10
ATOM     10  C   UNL     1      49.877  48.713   4.535  1.00  0.00    -0.003 C 
ATOM     11  C   UNL     1      50.339  49.046   3.119  1.00  0.00     0.004 C 
ENDBRANCH   9  10
ENDBRANCH   8   9
ENDBRANCH   1   8
TORSDOF 6
ENDMDL
