MODEL 1
REMARK VINA RESULT:    -3.172      0.000      0.000
REMARK INTER + INTRA:         -13.933
REMARK INTER:                  -8.271
REMARK INTRA:                  -5.662
REMARK UNBOUND:                -5.662
REMARK SMILES CCCCCCCCCCCCCCCCCCCCCCCCCCCCCO
REMARK SMILES IDX 16 1 15 2 14 3 13 4 12 5 11 6 10 7 9 8 8 9 7 10 6 11 5 12
REMARK SMILES IDX 4 13 3 14 2 15 1 16 17 17 18 18 19 19 20 20 21 21 22 22
REMARK SMILES IDX 23 23 24 24 25 25 26 26 27 27 28 28 29 29 30 30
REMARK H PARENT 30 31
REMARK Flexibility Score: inf
ROOT
ATOM      1  C   UNL     1     168.865 172.537 160.634  1.00  0.00     0.000 C 
ENDROOT
BRANCH   1   2
ATOM      2  C   UNL     1     170.158 171.906 160.090  1.00  0.00     0.000 C 
BRANCH   2   3
ATOM      3  C   UNL     1     169.893 170.652 159.243  1.00  0.00     0.000 C 
BRANCH   3   4
ATOM      4  C   UNL     1     168.847 169.748 159.916  1.00  0.00     0.000 C 
BRANCH   4   5
ATOM      5  C   UNL     1     168.273 168.690 158.963  1.00  0.00     0.000 C 
BRANCH   5   6
ATOM      6  C   UNL     1     169.177 168.436 157.744  1.00  0.00     0.000 C 
BRANCH   6   7
ATOM      7  C   UNL     1     169.721 166.998 157.697  1.00  0.00     0.000 C 
BRANCH   7   8
ATOM      8  C   UNL     1     171.250 166.880 157.538  1.00  0.00    -0.000 C 
BRANCH   8   9
ATOM      9  C   UNL     1     172.052 167.624 158.627  1.00  0.00    -0.000 C 
BRANCH   9  10
ATOM     10  C   UNL     1     172.838 166.659 159.534  1.00  0.00    -0.000 C 
BRANCH  10  11
ATOM     11  C   UNL     1     172.538 166.867 161.028  1.00  0.00    -0.000 C 
BRANCH  11  12
ATOM     12  C   UNL     1     171.117 167.405 161.277  1.00  0.00    -0.000 C 
BRANCH  12  13
ATOM     13  C   UNL     1     170.194 166.349 161.905  1.00  0.00    -0.000 C 
BRANCH  13  14
ATOM     14  C   UNL     1     169.526 165.452 160.847  1.00  0.00    -0.000 C 
BRANCH  14  15
ATOM     15  C   UNL     1     170.130 164.041 160.804  1.00  0.00    -0.003 C 
ATOM     16  C   UNL     1     170.556 163.619 159.398  1.00  0.00     0.004 C 
ENDBRANCH  14  15
ENDBRANCH  13  14
ENDBRANCH  12  13
ENDBRANCH  11  12
ENDBRANCH  10  11
ENDBRANCH   9  10
ENDBRANCH   8   9
ENDBRANCH   7   8
ENDBRANCH   6   7
ENDBRANCH   5   6
ENDBRANCH   4   5
ENDBRANCH   3   4
ENDBRANCH   2   3
ENDBRANCH   1   2
BRANCH   1  17
ATOM     17  C   UNL     1     169.108 173.414 161.872  1.00  0.00     0.000 C 
BRANCH  17  18
ATOM     18  C   UNL     1     170.613 173.553 162.152  1.00  0.00     0.000 C 
BRANCH  18  19
ATOM     19  C   UNL     1     171.048 172.893 163.475  1.00  0.00     0.000 C 
BRANCH  19  20
ATOM     20  C   UNL     1     172.043 171.726 163.320  1.00  0.00     0.000 C 
BRANCH  20  21
ATOM     21  C   UNL     1     171.373 170.339 163.196  1.00  0.00     0.000 C 
BRANCH  21  22
ATOM     22  C   UNL     1     170.210 170.119 164.183  1.00  0.00     0.000 C 
BRANCH  22  23
ATOM     23  C   UNL     1     168.824 169.983 163.532  1.00  0.00     0.000 C 
BRANCH  23  24
ATOM     24  C   UNL     1     167.809 171.004 164.074  1.00  0.00     0.000 C 
BRANCH  24  25
ATOM     25  C   UNL     1     166.355 170.606 163.771  1.00  0.00     0.000 C 
BRANCH  25  26
ATOM     26  C   UNL     1     165.750 171.412 162.606  1.00  0.00     0.000 C 
BRANCH  26  27
ATOM     27  C   UNL     1     165.461 170.540 161.375  1.00  0.00     0.002 C 
BRANCH  27  28
ATOM     28  C   UNL     1     163.960 170.268 161.186  1.00  0.00     0.028 C 
BRANCH  28  29
ATOM     29  C   UNL     1     163.661 169.685 159.800  1.00  0.00     0.156 C 
BRANCH  29  30
ATOM     30  O   UNL     1     164.847 169.402 159.108  1.00  0.00    -0.396 OA
ATOM     31  H   UNL     1     164.608 168.769 158.381  1.00  0.00     0.210 HD
ENDBRANCH  29  30
ENDBRANCH  28  29
ENDBRANCH  27  28
ENDBRANCH  26  27
ENDBRANCH  25  26
ENDBRANCH  24  25
ENDBRANCH  23  24
ENDBRANCH  22  23
ENDBRANCH  21  22
ENDBRANCH  20  21
ENDBRANCH  19  20
ENDBRANCH  18  19
ENDBRANCH  17  18
ENDBRANCH   1  17
TORSDOF 28
ENDMDL
MODEL 2
REMARK VINA RESULT:    -3.163      2.723      7.329
REMARK INTER + INTRA:         -13.910
REMARK INTER:                  -8.258
REMARK INTRA:                  -5.651
REMARK UNBOUND:                -5.662
REMARK SMILES CCCCCCCCCCCCCCCCCCCCCCCCCCCCCO
REMARK SMILES IDX 16 1 15 2 14 3 13 4 12 5 11 6 10 7 9 8 8 9 7 10 6 11 5 12
REMARK SMILES IDX 4 13 3 14 2 15 1 16 17 17 18 18 19 19 20 20 21 21 22 22
REMARK SMILES IDX 23 23 24 24 25 25 26 26 27 27 28 28 29 29 30 30
REMARK H PARENT 30 31
REMARK Flexibility Score: inf
ROOT
ATOM      1  C   UNL     1     170.887 169.119 162.119  1.00  0.00     0.000 C 
ENDROOT
BRANCH   1   2
ATOM      2  C   UNL     1     170.514 169.242 163.605  1.00  0.00     0.000 C 
BRANCH   2   3
ATOM      3  C   UNL     1     169.002 169.397 163.825  1.00  0.00     0.000 C 
BRANCH   3   4
ATOM      4  C   UNL     1     168.680 170.758 164.466  1.00  0.00     0.000 C 
BRANCH   4   5
ATOM      5  C   UNL     1     167.594 171.533 163.703  1.00  0.00     0.000 C 
BRANCH   5   6
ATOM      6  C   UNL     1     167.035 170.746 162.505  1.00  0.00     0.000 C 
BRANCH   6   7
ATOM      7  C   UNL     1     167.375 171.399 161.155  1.00  0.00     0.000 C 
BRANCH   7   8
ATOM      8  C   UNL     1     168.327 172.610 161.233  1.00  0.00    -0.000 C 
BRANCH   8   9
ATOM      9  C   UNL     1     169.759 172.312 160.739  1.00  0.00    -0.000 C 
BRANCH   9  10
ATOM     10  C   UNL     1     170.784 173.326 161.278  1.00  0.00    -0.000 C 
BRANCH  10  11
ATOM     11  C   UNL     1     170.836 173.363 162.814  1.00  0.00    -0.000 C 
BRANCH  11  12
ATOM     12  C   UNL     1     171.952 172.473 163.391  1.00  0.00    -0.000 C 
BRANCH  12  13
ATOM     13  C   UNL     1     173.287 172.655 162.651  1.00  0.00    -0.000 C 
BRANCH  13  14
ATOM     14  C   UNL     1     173.857 171.321 162.134  1.00  0.00    -0.000 C 
BRANCH  14  15
ATOM     15  C   UNL     1     174.223 171.376 160.643  1.00  0.00    -0.003 C 
ATOM     16  C   UNL     1     173.128 170.807 159.741  1.00  0.00     0.004 C 
ENDBRANCH  14  15
ENDBRANCH  13  14
ENDBRANCH  12  13
ENDBRANCH  11  12
ENDBRANCH  10  11
ENDBRANCH   9  10
ENDBRANCH   8   9
ENDBRANCH   7   8
ENDBRANCH   6   7
ENDBRANCH   5   6
ENDBRANCH   4   5
ENDBRANCH   3   4
ENDBRANCH   2   3
ENDBRANCH   1   2
BRANCH   1  17
ATOM     17  C   UNL     1     169.754 168.523 161.269  1.00  0.00     0.000 C 
BRANCH  17  18
ATOM     18  C   UNL     1     170.019 168.754 159.773  1.00  0.00     0.000 C 
BRANCH  18  19
ATOM     19  C   UNL     1     168.770 168.545 158.895  1.00  0.00     0.000 C 
BRANCH  19  20
ATOM     20  C   UNL     1     168.901 167.433 157.835  1.00  0.00     0.000 C 
BRANCH  20  21
ATOM     21  C   UNL     1     169.714 166.206 158.305  1.00  0.00     0.000 C 
BRANCH  21  22
ATOM     22  C   UNL     1     168.892 165.190 159.122  1.00  0.00     0.000 C 
BRANCH  22  23
ATOM     23  C   UNL     1     169.348 165.010 160.579  1.00  0.00     0.000 C 
BRANCH  23  24
ATOM     24  C   UNL     1     170.076 163.675 160.815  1.00  0.00     0.000 C 
BRANCH  24  25
ATOM     25  C   UNL     1     171.541 163.870 161.237  1.00  0.00     0.000 C 
BRANCH  25  26
ATOM     26  C   UNL     1     171.882 165.343 161.532  1.00  0.00     0.000 C 
BRANCH  26  27
ATOM     27  C   UNL     1     173.390 165.571 161.723  1.00  0.00     0.002 C 
BRANCH  27  28
ATOM     28  C   UNL     1     173.759 167.062 161.770  1.00  0.00     0.028 C 
BRANCH  28  29
ATOM     29  C   UNL     1     174.934 167.383 160.840  1.00  0.00     0.156 C 
BRANCH  29  30
ATOM     30  O   UNL     1     176.141 166.910 161.374  1.00  0.00    -0.396 OA
ATOM     31  H   UNL     1     176.826 167.606 161.189  1.00  0.00     0.210 HD
ENDBRANCH  29  30
ENDBRANCH  28  29
ENDBRANCH  27  28
ENDBRANCH  26  27
ENDBRANCH  25  26
ENDBRANCH  24  25
ENDBRANCH  23  24
ENDBRANCH  22  23
ENDBRANCH  21  22
ENDBRANCH  20  21
ENDBRANCH  19  20
ENDBRANCH  18  19
ENDBRANCH  17  18
ENDBRANCH   1  17
TORSDOF 28
ENDMDL
MODEL 3
REMARK VINA RESULT:    -3.154      2.245      6.545
REMARK INTER + INTRA:         -13.886
REMARK INTER:                  -8.922
REMARK INTRA:                  -4.965
REMARK UNBOUND:                -5.662
REMARK SMILES CCCCCCCCCCCCCCCCCCCCCCCCCCCCCO
REMARK SMILES IDX 16 1 15 2 14 3 13 4 12 5 11 6 10 7 9 8 8 9 7 10 6 11 5 12
REMARK SMILES IDX 4 13 3 14 2 15 1 16 17 17 18 18 19 19 20 20 21 21 22 22
REMARK SMILES IDX 23 23 24 24 25 25 26 26 27 27 28 28 29 29 30 30
REMARK H PARENT 30 31
REMARK Flexibility Score: inf
ROOT
ATOM      1  C   UNL     1     170.568 173.215 163.063  1.00  0.00     0.000 C 
ENDROOT
BRANCH   1   2
ATOM      2  C   UNL     1     171.997 172.660 162.941  1.00  0.00     0.000 C 
BRANCH   2   3
ATOM      3  C   UNL     1     172.088 171.172 163.312  1.00  0.00     0.000 C 
BRANCH   3   4
ATOM      4  C   UNL     1     172.932 170.403 162.281  1.00  0.00     0.000 C 
BRANCH   4   5
ATOM      5  C   UNL     1     172.650 168.893 162.289  1.00  0.00     0.000 C 
BRANCH   5   6
ATOM      6  C   UNL     1     171.180 168.563 161.977  1.00  0.00     0.000 C 
BRANCH   6   7
ATOM      7  C   UNL     1     170.498 167.766 163.102  1.00  0.00     0.000 C 
BRANCH   7   8
ATOM      8  C   UNL     1     169.395 168.523 163.868  1.00  0.00    -0.000 C 
BRANCH   8   9
ATOM      9  C   UNL     1     168.811 169.725 163.096  1.00  0.00    -0.000 C 
BRANCH   9  10
ATOM     10  C   UNL     1     168.002 170.666 164.008  1.00  0.00    -0.000 C 
BRANCH  10  11
ATOM     11  C   UNL     1     166.490 170.606 163.735  1.00  0.00    -0.000 C 
BRANCH  11  12
ATOM     12  C   UNL     1     165.974 171.846 162.983  1.00  0.00    -0.000 C 
BRANCH  12  13
ATOM     13  C   UNL     1     165.108 171.476 161.768  1.00  0.00    -0.000 C 
BRANCH  13  14
ATOM     14  C   UNL     1     165.840 170.538 160.791  1.00  0.00    -0.000 C 
BRANCH  14  15
ATOM     15  C   UNL     1     164.921 170.011 159.679  1.00  0.00    -0.003 C 
ATOM     16  C   UNL     1     163.508 169.701 160.173  1.00  0.00     0.004 C 
ENDBRANCH  14  15
ENDBRANCH  13  14
ENDBRANCH  12  13
ENDBRANCH  11  12
ENDBRANCH  10  11
ENDBRANCH   9  10
ENDBRANCH   8   9
ENDBRANCH   7   8
ENDBRANCH   6   7
ENDBRANCH   5   6
ENDBRANCH   4   5
ENDBRANCH   3   4
ENDBRANCH   2   3
ENDBRANCH   1   2
BRANCH   1  17
ATOM     17  C   UNL     1     170.046 173.807 161.745  1.00  0.00     0.000 C 
BRANCH  17  18
ATOM     18  C   UNL     1     168.803 173.043 161.262  1.00  0.00     0.000 C 
BRANCH  18  19
ATOM     19  C   UNL     1     169.014 172.332 159.911  1.00  0.00     0.000 C 
BRANCH  19  20
ATOM     20  C   UNL     1     170.165 171.307 159.891  1.00  0.00     0.000 C 
BRANCH  20  21
ATOM     21  C   UNL     1     169.924 170.106 158.949  1.00  0.00     0.000 C 
BRANCH  21  22
ATOM     22  C   UNL     1     168.787 169.173 159.407  1.00  0.00     0.000 C 
BRANCH  22  23
ATOM     23  C   UNL     1     168.639 167.881 158.587  1.00  0.00     0.000 C 
BRANCH  23  24
ATOM     24  C   UNL     1     169.512 166.732 159.121  1.00  0.00     0.000 C 
BRANCH  24  25
ATOM     25  C   UNL     1     168.807 165.368 159.038  1.00  0.00     0.000 C 
BRANCH  25  26
ATOM     26  C   UNL     1     169.438 164.317 159.970  1.00  0.00     0.000 C 
BRANCH  26  27
ATOM     27  C   UNL     1     170.280 164.952 161.088  1.00  0.00     0.002 C 
BRANCH  27  28
ATOM     28  C   UNL     1     171.617 164.226 161.304  1.00  0.00     0.028 C 
BRANCH  28  29
ATOM     29  C   UNL     1     172.779 165.214 161.456  1.00  0.00     0.156 C 
BRANCH  29  30
ATOM     30  O   UNL     1     173.429 165.039 162.686  1.00  0.00    -0.396 OA
ATOM     31  H   UNL     1     174.386 164.873 162.481  1.00  0.00     0.210 HD
ENDBRANCH  29  30
ENDBRANCH  28  29
ENDBRANCH  27  28
ENDBRANCH  26  27
ENDBRANCH  25  26
ENDBRANCH  24  25
ENDBRANCH  23  24
ENDBRANCH  22  23
ENDBRANCH  21  22
ENDBRANCH  20  21
ENDBRANCH  19  20
ENDBRANCH  18  19
ENDBRANCH  17  18
ENDBRANCH   1  17
TORSDOF 28
ENDMDL
MODEL 4
REMARK VINA RESULT:    -3.148      1.848      6.848
REMARK INTER + INTRA:         -13.870
REMARK INTER:                  -8.893
REMARK INTRA:                  -4.977
REMARK UNBOUND:                -5.662
REMARK SMILES CCCCCCCCCCCCCCCCCCCCCCCCCCCCCO
REMARK SMILES IDX 16 1 15 2 14 3 13 4 12 5 11 6 10 7 9 8 8 9 7 10 6 11 5 12
REMARK SMILES IDX 4 13 3 14 2 15 1 16 17 17 18 18 19 19 20 20 21 21 22 22
REMARK SMILES IDX 23 23 24 24 25 25 26 26 27 27 28 28 29 29 30 30
REMARK H PARENT 30 31
REMARK Flexibility Score: inf
ROOT
ATOM      1  C   UNL     1     169.480 169.193 163.777  1.00  0.00     0.000 C 
ENDROOT
BRANCH   1   2
ATOM      2  C   UNL     1     170.849 169.885 163.878  1.00  0.00     0.000 C 
BRANCH   2   3
ATOM      3  C   UNL     1     170.779 171.386 163.557  1.00  0.00     0.000 C 
BRANCH   3   4
ATOM      4  C   UNL     1     169.338 171.906 163.688  1.00  0.00     0.000 C 
BRANCH   4   5
ATOM      5  C   UNL     1     168.848 172.625 162.422  1.00  0.00     0.000 C 
BRANCH   5   6
ATOM      6  C   UNL     1     167.316 172.597 162.279  1.00  0.00     0.000 C 
BRANCH   6   7
ATOM      7  C   UNL     1     166.646 171.619 163.259  1.00  0.00     0.000 C 
BRANCH   7   8
ATOM      8  C   UNL     1     165.667 170.615 162.617  1.00  0.00    -0.000 C 
BRANCH   8   9
ATOM      9  C   UNL     1     165.094 171.080 161.262  1.00  0.00    -0.000 C 
BRANCH   9  10
ATOM     10  C   UNL     1     165.438 170.107 160.119  1.00  0.00    -0.000 C 
BRANCH  10  11
ATOM     11  C   UNL     1     166.663 170.553 159.304  1.00  0.00    -0.000 C 
BRANCH  11  12
ATOM     12  C   UNL     1     167.682 169.418 159.097  1.00  0.00    -0.000 C 
BRANCH  12  13
ATOM     13  C   UNL     1     168.734 169.365 160.218  1.00  0.00    -0.000 C 
BRANCH  13  14
ATOM     14  C   UNL     1     169.934 170.289 159.938  1.00  0.00    -0.000 C 
BRANCH  14  15
ATOM     15  C   UNL     1     171.203 169.509 159.564  1.00  0.00    -0.003 C 
ATOM     16  C   UNL     1     172.382 169.814 160.488  1.00  0.00     0.004 C 
ENDBRANCH  14  15
ENDBRANCH  13  14
ENDBRANCH  12  13
ENDBRANCH  11  12
ENDBRANCH  10  11
ENDBRANCH   9  10
ENDBRANCH   8   9
ENDBRANCH   7   8
ENDBRANCH   6   7
ENDBRANCH   5   6
ENDBRANCH   4   5
ENDBRANCH   3   4
ENDBRANCH   2   3
ENDBRANCH   1   2
BRANCH   1  17
ATOM     17  C   UNL     1     169.595 167.691 163.474  1.00  0.00     0.000 C 
BRANCH  17  18
ATOM     18  C   UNL     1     170.863 167.399 162.657  1.00  0.00     0.000 C 
BRANCH  18  19
ATOM     19  C   UNL     1     170.695 166.224 161.673  1.00  0.00     0.000 C 
BRANCH  19  20
ATOM     20  C   UNL     1     171.970 165.843 160.895  1.00  0.00     0.000 C 
BRANCH  20  21
ATOM     21  C   UNL     1     172.783 164.697 161.538  1.00  0.00     0.000 C 
BRANCH  21  22
ATOM     22  C   UNL     1     172.528 163.318 160.899  1.00  0.00     0.000 C 
BRANCH  22  23
ATOM     23  C   UNL     1     171.535 162.424 161.659  1.00  0.00     0.000 C 
BRANCH  23  24
ATOM     24  C   UNL     1     170.350 161.974 160.787  1.00  0.00     0.000 C 
BRANCH  24  25
ATOM     25  C   UNL     1     169.684 163.146 160.047  1.00  0.00     0.000 C 
BRANCH  25  26
ATOM     26  C   UNL     1     169.617 162.925 158.525  1.00  0.00     0.000 C 
BRANCH  26  27
ATOM     27  C   UNL     1     169.771 164.233 157.733  1.00  0.00     0.002 C 
BRANCH  27  28
ATOM     28  C   UNL     1     168.907 165.370 158.301  1.00  0.00     0.028 C 
BRANCH  28  29
ATOM     29  C   UNL     1     168.282 166.217 157.186  1.00  0.00     0.156 C 
BRANCH  29  30
ATOM     30  O   UNL     1     167.101 165.629 156.713  1.00  0.00    -0.396 OA
ATOM     31  H   UNL     1     167.371 164.838 156.177  1.00  0.00     0.210 HD
ENDBRANCH  29  30
ENDBRANCH  28  29
ENDBRANCH  27  28
ENDBRANCH  26  27
ENDBRANCH  25  26
ENDBRANCH  24  25
ENDBRANCH  23  24
ENDBRANCH  22  23
ENDBRANCH  21  22
ENDBRANCH  20  21
ENDBRANCH  19  20
ENDBRANCH  18  19
ENDBRANCH  17  18
ENDBRANCH   1  17
TORSDOF 28
ENDMDL
MODEL 5
REMARK VINA RESULT:    -3.137      2.363      6.893
REMARK INTER + INTRA:         -13.841
REMARK INTER:                  -8.139
REMARK INTRA:                  -5.703
REMARK UNBOUND:                -5.662
REMARK SMILES CCCCCCCCCCCCCCCCCCCCCCCCCCCCCO
REMARK SMILES IDX 16 1 15 2 14 3 13 4 12 5 11 6 10 7 9 8 8 9 7 10 6 11 5 12
REMARK SMILES IDX 4 13 3 14 2 15 1 16 17 17 18 18 19 19 20 20 21 21 22 22
REMARK SMILES IDX 23 23 24 24 25 25 26 26 27 27 28 28 29 29 30 30
REMARK H PARENT 30 31
REMARK Flexibility Score: inf
ROOT
ATOM      1  C   UNL     1     171.970 171.554 163.119  1.00  0.00     0.000 C 
ENDROOT
BRANCH   1   2
ATOM      2  C   UNL     1     171.241 170.634 164.111  1.00  0.00     0.000 C 
BRANCH   2   3
ATOM      3  C   UNL     1     170.789 169.313 163.471  1.00  0.00     0.000 C 
BRANCH   3   4
ATOM      4  C   UNL     1     169.342 168.979 163.871  1.00  0.00     0.000 C 
BRANCH   4   5
ATOM      5  C   UNL     1     168.480 170.232 164.090  1.00  0.00     0.000 C 
BRANCH   5   6
ATOM      6  C   UNL     1     167.642 170.598 162.853  1.00  0.00     0.000 C 
BRANCH   6   7
ATOM      7  C   UNL     1     167.444 172.115 162.697  1.00  0.00     0.000 C 
BRANCH   7   8
ATOM      8  C   UNL     1     168.671 172.886 162.170  1.00  0.00    -0.000 C 
BRANCH   8   9
ATOM      9  C   UNL     1     168.388 173.720 160.903  1.00  0.00    -0.000 C 
BRANCH   9  10
ATOM     10  C   UNL     1     166.902 173.687 160.502  1.00  0.00    -0.000 C 
BRANCH  10  11
ATOM     11  C   UNL     1     166.691 173.335 159.020  1.00  0.00    -0.000 C 
BRANCH  11  12
ATOM     12  C   UNL     1     167.375 172.014 158.623  1.00  0.00    -0.000 C 
BRANCH  12  13
ATOM     13  C   UNL     1     166.362 170.894 158.336  1.00  0.00    -0.000 C 
BRANCH  13  14
ATOM     14  C   UNL     1     165.961 170.127 159.609  1.00  0.00    -0.000 C 
BRANCH  14  15
ATOM     15  C   UNL     1     164.469 170.274 159.941  1.00  0.00    -0.003 C 
ATOM     16  C   UNL     1     164.217 170.611 161.411  1.00  0.00     0.004 C 
ENDBRANCH  14  15
ENDBRANCH  13  14
ENDBRANCH  12  13
ENDBRANCH  11  12
ENDBRANCH  10  11
ENDBRANCH   9  10
ENDBRANCH   8   9
ENDBRANCH   7   8
ENDBRANCH   6   7
ENDBRANCH   5   6
ENDBRANCH   4   5
ENDBRANCH   3   4
ENDBRANCH   2   3
ENDBRANCH   1   2
BRANCH   1  17
ATOM     17  C   UNL     1     172.289 170.857 161.787  1.00  0.00     0.000 C 
BRANCH  17  18
ATOM     18  C   UNL     1     171.834 171.721 160.600  1.00  0.00     0.000 C 
BRANCH  18  19
ATOM     19  C   UNL     1     170.754 171.044 159.735  1.00  0.00     0.000 C 
BRANCH  19  20
ATOM     20  C   UNL     1     170.747 169.504 159.794  1.00  0.00     0.000 C 
BRANCH  20  21
ATOM     21  C   UNL     1     169.357 168.889 160.073  1.00  0.00     0.000 C 
BRANCH  21  22
ATOM     22  C   UNL     1     168.797 168.058 158.902  1.00  0.00     0.000 C 
BRANCH  22  23
ATOM     23  C   UNL     1     169.767 167.013 158.327  1.00  0.00     0.000 C 
BRANCH  23  24
ATOM     24  C   UNL     1     169.284 165.568 158.546  1.00  0.00     0.000 C 
BRANCH  24  25
ATOM     25  C   UNL     1     168.944 165.277 160.017  1.00  0.00     0.000 C 
BRANCH  25  26
ATOM     26  C   UNL     1     170.185 164.901 160.849  1.00  0.00     0.000 C 
BRANCH  26  27
ATOM     27  C   UNL     1     170.673 166.058 161.734  1.00  0.00     0.002 C 
BRANCH  27  28
ATOM     28  C   UNL     1     172.151 165.916 162.128  1.00  0.00     0.028 C 
BRANCH  28  29
ATOM     29  C   UNL     1     172.964 167.153 161.730  1.00  0.00     0.156 C 
BRANCH  29  30
ATOM     30  O   UNL     1     174.169 167.213 162.444  1.00  0.00    -0.396 OA
ATOM     31  H   UNL     1     174.893 167.004 161.798  1.00  0.00     0.210 HD
ENDBRANCH  29  30
ENDBRANCH  28  29
ENDBRANCH  27  28
ENDBRANCH  26  27
ENDBRANCH  25  26
ENDBRANCH  24  25
ENDBRANCH  23  24
ENDBRANCH  22  23
ENDBRANCH  21  22
ENDBRANCH  20  21
ENDBRANCH  19  20
ENDBRANCH  18  19
ENDBRANCH  17  18
ENDBRANCH   1  17
TORSDOF 28
ENDMDL
MODEL 6
REMARK VINA RESULT:    -3.115      1.429      5.076
REMARK INTER + INTRA:         -13.785
REMARK INTER:                  -8.126
REMARK INTRA:                  -5.660
REMARK UNBOUND:                -5.662
REMARK SMILES CCCCCCCCCCCCCCCCCCCCCCCCCCCCCO
REMARK SMILES IDX 16 1 15 2 14 3 13 4 12 5 11 6 10 7 9 8 8 9 7 10 6 11 5 12
REMARK SMILES IDX 4 13 3 14 2 15 1 16 17 17 18 18 19 19 20 20 21 21 22 22
REMARK SMILES IDX 23 23 24 24 25 25 26 26 27 27 28 28 29 29 30 30
REMARK H PARENT 30 31
REMARK Flexibility Score: inf
ROOT
ATOM      1  C   UNL     1     168.919 167.304 158.390  1.00  0.00     0.000 C 
ENDROOT
BRANCH   1   2
ATOM      2  C   UNL     1     169.175 165.857 157.936  1.00  0.00     0.000 C 
BRANCH   2   3
ATOM      3  C   UNL     1     169.952 165.039 158.979  1.00  0.00     0.000 C 
BRANCH   3   4
ATOM      4  C   UNL     1     169.334 165.207 160.377  1.00  0.00     0.000 C 
BRANCH   4   5
ATOM      5  C   UNL     1     170.389 165.442 161.469  1.00  0.00     0.000 C 
BRANCH   5   6
ATOM      6  C   UNL     1     171.624 166.198 160.949  1.00  0.00     0.000 C 
BRANCH   6   7
ATOM      7  C   UNL     1     172.286 167.069 162.030  1.00  0.00     0.000 C 
BRANCH   7   8
ATOM      8  C   UNL     1     173.322 168.085 161.511  1.00  0.00    -0.000 C 
BRANCH   8   9
ATOM      9  C   UNL     1     172.975 169.553 161.835  1.00  0.00    -0.000 C 
BRANCH   9  10
ATOM     10  C   UNL     1     174.162 170.502 161.585  1.00  0.00    -0.000 C 
BRANCH  10  11
ATOM     11  C   UNL     1     173.971 171.881 162.237  1.00  0.00    -0.000 C 
BRANCH  11  12
ATOM     12  C   UNL     1     172.578 172.050 162.869  1.00  0.00    -0.000 C 
BRANCH  12  13
ATOM     13  C   UNL     1     171.613 172.829 161.959  1.00  0.00    -0.000 C 
BRANCH  13  14
ATOM     14  C   UNL     1     170.430 173.431 162.739  1.00  0.00    -0.000 C 
BRANCH  14  15
ATOM     15  C   UNL     1     169.302 173.916 161.817  1.00  0.00    -0.003 C 
ATOM     16  C   UNL     1     169.758 174.108 160.371  1.00  0.00     0.004 C 
ENDBRANCH  14  15
ENDBRANCH  13  14
ENDBRANCH  12  13
ENDBRANCH  11  12
ENDBRANCH  10  11
ENDBRANCH   9  10
ENDBRANCH   8   9
ENDBRANCH   7   8
ENDBRANCH   6   7
ENDBRANCH   5   6
ENDBRANCH   4   5
ENDBRANCH   3   4
ENDBRANCH   2   3
ENDBRANCH   1   2
BRANCH   1  17
ATOM     17  C   UNL     1     170.148 168.210 158.206  1.00  0.00     0.000 C 
BRANCH  17  18
ATOM     18  C   UNL     1     170.182 169.302 159.287  1.00  0.00     0.000 C 
BRANCH  18  19
ATOM     19  C   UNL     1     169.342 168.953 160.531  1.00  0.00     0.000 C 
BRANCH  19  20
ATOM     20  C   UNL     1     169.454 169.960 161.692  1.00  0.00     0.000 C 
BRANCH  20  21
ATOM     21  C   UNL     1     169.345 169.320 163.095  1.00  0.00     0.000 C 
BRANCH  21  22
ATOM     22  C   UNL     1     168.939 170.313 164.202  1.00  0.00     0.000 C 
BRANCH  22  23
ATOM     23  C   UNL     1     167.748 171.220 163.854  1.00  0.00     0.000 C 
BRANCH  23  24
ATOM     24  C   UNL     1     166.413 170.457 163.801  1.00  0.00     0.000 C 
BRANCH  24  25
ATOM     25  C   UNL     1     165.613 170.757 162.523  1.00  0.00     0.000 C 
BRANCH  25  26
ATOM     26  C   UNL     1     166.172 171.961 161.743  1.00  0.00     0.000 C 
BRANCH  26  27
ATOM     27  C   UNL     1     166.471 171.623 160.274  1.00  0.00     0.002 C 
BRANCH  27  28
ATOM     28  C   UNL     1     165.954 170.232 159.873  1.00  0.00     0.028 C 
BRANCH  28  29
ATOM     29  C   UNL     1     166.305 169.895 158.419  1.00  0.00     0.156 C 
BRANCH  29  30
ATOM     30  O   UNL     1     165.307 169.105 157.832  1.00  0.00    -0.396 OA
ATOM     31  H   UNL     1     165.743 168.592 157.103  1.00  0.00     0.210 HD
ENDBRANCH  29  30
ENDBRANCH  28  29
ENDBRANCH  27  28
ENDBRANCH  26  27
ENDBRANCH  25  26
ENDBRANCH  24  25
ENDBRANCH  23  24
ENDBRANCH  22  23
ENDBRANCH  21  22
ENDBRANCH  20  21
ENDBRANCH  19  20
ENDBRANCH  18  19
ENDBRANCH  17  18
ENDBRANCH   1  17
TORSDOF 28
ENDMDL
MODEL 7
REMARK VINA RESULT:    -3.092      1.292      4.770
REMARK INTER + INTRA:         -13.726
REMARK INTER:                  -8.277
REMARK INTRA:                  -5.448
REMARK UNBOUND:                -5.662
REMARK SMILES CCCCCCCCCCCCCCCCCCCCCCCCCCCCCO
REMARK SMILES IDX 16 1 15 2 14 3 13 4 12 5 11 6 10 7 9 8 8 9 7 10 6 11 5 12
REMARK SMILES IDX 4 13 3 14 2 15 1 16 17 17 18 18 19 19 20 20 21 21 22 22
REMARK SMILES IDX 23 23 24 24 25 25 26 26 27 27 28 28 29 29 30 30
REMARK H PARENT 30 31
REMARK Flexibility Score: inf
ROOT
ATOM      1  C   UNL     1     170.122 166.754 162.228  1.00  0.00     0.000 C 
ENDROOT
BRANCH   1   2
ATOM      2  C   UNL     1     171.143 166.044 161.324  1.00  0.00     0.000 C 
BRANCH   2   3
ATOM      3  C   UNL     1     170.835 164.550 161.143  1.00  0.00     0.000 C 
BRANCH   3   4
ATOM      4  C   UNL     1     170.449 164.244 159.686  1.00  0.00     0.000 C 
BRANCH   4   5
ATOM      5  C   UNL     1     168.992 164.611 159.367  1.00  0.00     0.000 C 
BRANCH   5   6
ATOM      6  C   UNL     1     168.758 164.859 157.866  1.00  0.00     0.000 C 
BRANCH   6   7
ATOM      7  C   UNL     1     168.665 166.354 157.519  1.00  0.00     0.000 C 
BRANCH   7   8
ATOM      8  C   UNL     1     170.005 167.116 157.533  1.00  0.00    -0.000 C 
BRANCH   8   9
ATOM      9  C   UNL     1     170.089 168.213 158.615  1.00  0.00    -0.000 C 
BRANCH   9  10
ATOM     10  C   UNL     1     168.794 168.317 159.442  1.00  0.00    -0.000 C 
BRANCH  10  11
ATOM     11  C   UNL     1     168.239 169.750 159.504  1.00  0.00    -0.000 C 
BRANCH  11  12
ATOM     12  C   UNL     1     169.229 170.741 160.144  1.00  0.00    -0.000 C 
BRANCH  12  13
ATOM     13  C   UNL     1     168.664 172.169 160.213  1.00  0.00    -0.000 C 
BRANCH  13  14
ATOM     14  C   UNL     1     169.741 173.207 160.577  1.00  0.00    -0.000 C 
BRANCH  14  15
ATOM     15  C   UNL     1     169.140 174.516 161.112  1.00  0.00    -0.003 C 
ATOM     16  C   UNL     1     167.632 174.429 161.340  1.00  0.00     0.004 C 
ENDBRANCH  14  15
ENDBRANCH  13  14
ENDBRANCH  12  13
ENDBRANCH  11  12
ENDBRANCH  10  11
ENDBRANCH   9  10
ENDBRANCH   8   9
ENDBRANCH   7   8
ENDBRANCH   6   7
ENDBRANCH   5   6
ENDBRANCH   4   5
ENDBRANCH   3   4
ENDBRANCH   2   3
ENDBRANCH   1   2
BRANCH   1  17
ATOM     17  C   UNL     1     170.715 167.977 162.946  1.00  0.00     0.000 C 
BRANCH  17  18
ATOM     18  C   UNL     1     171.773 168.662 162.067  1.00  0.00     0.000 C 
BRANCH  18  19
ATOM     19  C   UNL     1     172.022 170.134 162.451  1.00  0.00     0.000 C 
BRANCH  19  20
ATOM     20  C   UNL     1     171.432 170.558 163.810  1.00  0.00     0.000 C 
BRANCH  20  21
ATOM     21  C   UNL     1     170.723 171.931 163.789  1.00  0.00     0.000 C 
BRANCH  21  22
ATOM     22  C   UNL     1     169.197 171.847 163.992  1.00  0.00     0.000 C 
BRANCH  22  23
ATOM     23  C   UNL     1     168.638 170.420 164.120  1.00  0.00     0.000 C 
BRANCH  23  24
ATOM     24  C   UNL     1     167.336 170.217 163.326  1.00  0.00     0.000 C 
BRANCH  24  25
ATOM     25  C   UNL     1     166.377 171.412 163.451  1.00  0.00     0.000 C 
BRANCH  25  26
ATOM     26  C   UNL     1     165.555 171.649 162.171  1.00  0.00     0.000 C 
BRANCH  26  27
ATOM     27  C   UNL     1     164.726 170.420 161.768  1.00  0.00     0.002 C 
BRANCH  27  28
ATOM     28  C   UNL     1     164.767 170.151 160.256  1.00  0.00     0.028 C 
BRANCH  28  29
ATOM     29  C   UNL     1     164.500 171.425 159.447  1.00  0.00     0.156 C 
BRANCH  29  30
ATOM     30  O   UNL     1     165.490 171.618 158.473  1.00  0.00    -0.396 OA
ATOM     31  H   UNL     1     165.994 172.431 158.737  1.00  0.00     0.210 HD
ENDBRANCH  29  30
ENDBRANCH  28  29
ENDBRANCH  27  28
ENDBRANCH  26  27
ENDBRANCH  25  26
ENDBRANCH  24  25
ENDBRANCH  23  24
ENDBRANCH  22  23
ENDBRANCH  21  22
ENDBRANCH  20  21
ENDBRANCH  19  20
ENDBRANCH  18  19
ENDBRANCH  17  18
ENDBRANCH   1  17
TORSDOF 28
ENDMDL
MODEL 8
REMARK VINA RESULT:    -3.085      1.501      3.422
REMARK INTER + INTRA:         -13.707
REMARK INTER:                  -8.054
REMARK INTRA:                  -5.653
REMARK UNBOUND:                -5.662
REMARK SMILES CCCCCCCCCCCCCCCCCCCCCCCCCCCCCO
REMARK SMILES IDX 16 1 15 2 14 3 13 4 12 5 11 6 10 7 9 8 8 9 7 10 6 11 5 12
REMARK SMILES IDX 4 13 3 14 2 15 1 16 17 17 18 18 19 19 20 20 21 21 22 22
REMARK SMILES IDX 23 23 24 24 25 25 26 26 27 27 28 28 29 29 30 30
REMARK H PARENT 30 31
REMARK Flexibility Score: inf
ROOT
ATOM      1  C   UNL     1     171.917 172.434 163.620  1.00  0.00     0.000 C 
ENDROOT
BRANCH   1   2
ATOM      2  C   UNL     1     172.798 172.218 162.379  1.00  0.00     0.000 C 
BRANCH   2   3
ATOM      3  C   UNL     1     173.200 170.747 162.187  1.00  0.00     0.000 C 
BRANCH   3   4
ATOM      4  C   UNL     1     174.424 170.632 161.264  1.00  0.00     0.000 C 
BRANCH   4   5
ATOM      5  C   UNL     1     174.319 169.456 160.280  1.00  0.00     0.000 C 
BRANCH   5   6
ATOM      6  C   UNL     1     172.937 169.366 159.609  1.00  0.00     0.000 C 
BRANCH   6   7
ATOM      7  C   UNL     1     172.387 167.931 159.572  1.00  0.00     0.000 C 
BRANCH   7   8
ATOM      8  C   UNL     1     173.332 166.851 160.137  1.00  0.00    -0.000 C 
BRANCH   8   9
ATOM      9  C   UNL     1     172.709 166.002 161.264  1.00  0.00    -0.000 C 
BRANCH   9  10
ATOM     10  C   UNL     1     171.655 166.785 162.069  1.00  0.00    -0.000 C 
BRANCH  10  11
ATOM     11  C   UNL     1     170.234 166.223 161.895  1.00  0.00    -0.000 C 
BRANCH  11  12
ATOM     12  C   UNL     1     170.191 164.999 160.963  1.00  0.00    -0.000 C 
BRANCH  12  13
ATOM     13  C   UNL     1     169.348 165.252 159.702  1.00  0.00    -0.000 C 
BRANCH  13  14
ATOM     14  C   UNL     1     168.954 166.733 159.549  1.00  0.00    -0.000 C 
BRANCH  14  15
ATOM     15  C   UNL     1     169.205 167.265 158.130  1.00  0.00    -0.003 C 
ATOM     16  C   UNL     1     168.292 168.435 157.764  1.00  0.00     0.004 C 
ENDBRANCH  14  15
ENDBRANCH  13  14
ENDBRANCH  12  13
ENDBRANCH  11  12
ENDBRANCH  10  11
ENDBRANCH   9  10
ENDBRANCH   8   9
ENDBRANCH   7   8
ENDBRANCH   6   7
ENDBRANCH   5   6
ENDBRANCH   4   5
ENDBRANCH   3   4
ENDBRANCH   2   3
ENDBRANCH   1   2
BRANCH   1  17
ATOM     17  C   UNL     1     170.603 173.161 163.296  1.00  0.00     0.000 C 
BRANCH  17  18
ATOM     18  C   UNL     1     170.486 173.423 161.786  1.00  0.00     0.000 C 
BRANCH  18  19
ATOM     19  C   UNL     1     169.034 173.380 161.272  1.00  0.00     0.000 C 
BRANCH  19  20
ATOM     20  C   UNL     1     168.735 172.250 160.266  1.00  0.00     0.000 C 
BRANCH  20  21
ATOM     21  C   UNL     1     169.659 171.019 160.408  1.00  0.00     0.000 C 
BRANCH  21  22
ATOM     22  C   UNL     1     169.067 169.895 161.280  1.00  0.00     0.000 C 
BRANCH  22  23
ATOM     23  C   UNL     1     169.761 169.695 162.638  1.00  0.00     0.000 C 
BRANCH  23  24
ATOM     24  C   UNL     1     168.778 169.727 163.820  1.00  0.00     0.000 C 
BRANCH  24  25
ATOM     25  C   UNL     1     167.821 170.929 163.758  1.00  0.00     0.000 C 
BRANCH  25  26
ATOM     26  C   UNL     1     166.340 170.512 163.821  1.00  0.00     0.000 C 
BRANCH  26  27
ATOM     27  C   UNL     1     165.586 170.822 162.519  1.00  0.00     0.002 C 
BRANCH  27  28
ATOM     28  C   UNL     1     165.567 172.324 162.192  1.00  0.00     0.028 C 
BRANCH  28  29
ATOM     29  C   UNL     1     164.550 172.651 161.093  1.00  0.00     0.156 C 
BRANCH  29  30
ATOM     30  O   UNL     1     163.458 171.773 161.142  1.00  0.00    -0.396 OA
ATOM     31  H   UNL     1     163.422 171.417 162.068  1.00  0.00     0.210 HD
ENDBRANCH  29  30
ENDBRANCH  28  29
ENDBRANCH  27  28
ENDBRANCH  26  27
ENDBRANCH  25  26
ENDBRANCH  24  25
ENDBRANCH  23  24
ENDBRANCH  22  23
ENDBRANCH  21  22
ENDBRANCH  20  21
ENDBRANCH  19  20
ENDBRANCH  18  19
ENDBRANCH  17  18
ENDBRANCH   1  17
TORSDOF 28
ENDMDL
MODEL 9
REMARK VINA RESULT:    -3.079      2.131      4.704
REMARK INTER + INTRA:         -13.692
REMARK INTER:                  -7.529
REMARK INTRA:                  -6.163
REMARK UNBOUND:                -5.662
REMARK SMILES CCCCCCCCCCCCCCCCCCCCCCCCCCCCCO
REMARK SMILES IDX 16 1 15 2 14 3 13 4 12 5 11 6 10 7 9 8 8 9 7 10 6 11 5 12
REMARK SMILES IDX 4 13 3 14 2 15 1 16 17 17 18 18 19 19 20 20 21 21 22 22
REMARK SMILES IDX 23 23 24 24 25 25 26 26 27 27 28 28 29 29 30 30
REMARK H PARENT 30 31
REMARK Flexibility Score: inf
ROOT
ATOM      1  C   UNL     1     170.793 170.709 164.311  1.00  0.00     0.000 C 
ENDROOT
BRANCH   1   2
ATOM      2  C   UNL     1     171.341 170.130 162.996  1.00  0.00     0.000 C 
BRANCH   2   3
ATOM      3  C   UNL     1     172.670 170.774 162.575  1.00  0.00     0.000 C 
BRANCH   3   4
ATOM      4  C   UNL     1     173.367 169.932 161.494  1.00  0.00     0.000 C 
BRANCH   4   5
ATOM      5  C   UNL     1     172.658 170.004 160.133  1.00  0.00     0.000 C 
BRANCH   5   6
ATOM      6  C   UNL     1     173.357 169.158 159.054  1.00  0.00     0.000 C 
BRANCH   6   7
ATOM      7  C   UNL     1     172.385 168.652 157.974  1.00  0.00     0.000 C 
BRANCH   7   8
ATOM      8  C   UNL     1     171.001 168.211 158.491  1.00  0.00    -0.000 C 
BRANCH   8   9
ATOM      9  C   UNL     1     170.800 166.681 158.511  1.00  0.00    -0.000 C 
BRANCH   9  10
ATOM     10  C   UNL     1     170.137 166.197 159.814  1.00  0.00    -0.000 C 
BRANCH  10  11
ATOM     11  C   UNL     1     170.210 167.238 160.943  1.00  0.00    -0.000 C 
BRANCH  11  12
ATOM     12  C   UNL     1     170.955 166.715 162.185  1.00  0.00    -0.000 C 
BRANCH  12  13
ATOM     13  C   UNL     1     172.141 165.809 161.817  1.00  0.00    -0.000 C 
BRANCH  13  14
ATOM     14  C   UNL     1     173.483 166.367 162.323  1.00  0.00    -0.000 C 
BRANCH  14  15
ATOM     15  C   UNL     1     174.570 166.362 161.238  1.00  0.00    -0.003 C 
ATOM     16  C   UNL     1     174.115 165.688 159.944  1.00  0.00     0.004 C 
ENDBRANCH  14  15
ENDBRANCH  13  14
ENDBRANCH  12  13
ENDBRANCH  11  12
ENDBRANCH  10  11
ENDBRANCH   9  10
ENDBRANCH   8   9
ENDBRANCH   7   8
ENDBRANCH   6   7
ENDBRANCH   5   6
ENDBRANCH   4   5
ENDBRANCH   3   4
ENDBRANCH   2   3
ENDBRANCH   1   2
BRANCH   1  17
ATOM     17  C   UNL     1     169.330 171.165 164.194  1.00  0.00     0.000 C 
BRANCH  17  18
ATOM     18  C   UNL     1     168.433 170.000 163.746  1.00  0.00     0.000 C 
BRANCH  18  19
ATOM     19  C   UNL     1     166.934 170.361 163.723  1.00  0.00     0.000 C 
BRANCH  19  20
ATOM     20  C   UNL     1     166.613 171.759 163.160  1.00  0.00     0.000 C 
BRANCH  20  21
ATOM     21  C   UNL     1     165.423 171.784 162.174  1.00  0.00     0.000 C 
BRANCH  21  22
ATOM     22  C   UNL     1     165.404 170.596 161.192  1.00  0.00     0.000 C 
BRANCH  22  23
ATOM     23  C   UNL     1     166.138 170.842 159.864  1.00  0.00     0.000 C 
BRANCH  23  24
ATOM     24  C   UNL     1     167.326 169.887 159.655  1.00  0.00     0.000 C 
BRANCH  24  25
ATOM     25  C   UNL     1     168.663 170.505 160.097  1.00  0.00     0.000 C 
BRANCH  25  26
ATOM     26  C   UNL     1     168.661 172.043 160.017  1.00  0.00     0.000 C 
BRANCH  26  27
ATOM     27  C   UNL     1     169.735 172.680 160.912  1.00  0.00     0.002 C 
BRANCH  27  28
ATOM     28  C   UNL     1     169.253 173.980 161.576  1.00  0.00     0.028 C 
BRANCH  28  29
ATOM     29  C   UNL     1     170.426 174.825 162.084  1.00  0.00     0.156 C 
BRANCH  29  30
ATOM     30  O   UNL     1     171.035 174.222 163.194  1.00  0.00    -0.396 OA
ATOM     31  H   UNL     1     171.768 174.829 163.480  1.00  0.00     0.210 HD
ENDBRANCH  29  30
ENDBRANCH  28  29
ENDBRANCH  27  28
ENDBRANCH  26  27
ENDBRANCH  25  26
ENDBRANCH  24  25
ENDBRANCH  23  24
ENDBRANCH  22  23
ENDBRANCH  21  22
ENDBRANCH  20  21
ENDBRANCH  19  20
ENDBRANCH  18  19
ENDBRANCH  17  18
ENDBRANCH   1  17
TORSDOF 28
ENDMDL
