MODEL 1
REMARK VINA RESULT:    -3.031      0.000      0.000
REMARK INTER + INTRA:          -3.662
REMARK INTER:                  -3.651
REMARK INTRA:                  -0.011
REMARK UNBOUND:                -0.011
REMARK SMILES CCCCCO
REMARK SMILES IDX 4 1 3 2 2 3 1 4 5 5 6 6
REMARK H PARENT 6 7
REMARK Flexibility Score: inf
ROOT
ATOM      1  C   UNL     1      -8.506  23.838 -33.267  1.00  0.00     0.028 C 
ENDROOT
BRANCH   1   2
ATOM      2  C   UNL     1      -8.765  22.535 -34.038  1.00  0.00     0.002 C 
BRANCH   2   3
ATOM      3  C   UNL     1      -9.203  21.383 -33.120  1.00  0.00    -0.003 C 
ATOM      4  C   UNL     1      -8.070  20.875 -32.228  1.00  0.00     0.004 C 
ENDBRANCH   2   3
ENDBRANCH   1   2
BRANCH   1   5
ATOM      5  C   UNL     1      -8.944  25.068 -34.070  1.00  0.00     0.156 C 
BRANCH   5   6
ATOM      6  O   UNL     1     -10.031  25.707 -33.457  1.00  0.00    -0.396 OA
ATOM      7  H   UNL     1     -10.583  24.993 -33.043  1.00  0.00     0.210 HD
ENDBRANCH   5   6
ENDBRANCH   1   5
TORSDOF 4
ENDMDL
MODEL 2
REMARK VINA RESULT:    -3.025     13.629     15.171
REMARK INTER + INTRA:          -3.655
REMARK INTER:                  -3.581
REMARK INTRA:                  -0.074
REMARK UNBOUND:                -0.011
REMARK SMILES CCCCCO
REMARK SMILES IDX 4 1 3 2 2 3 1 4 5 5 6 6
REMARK H PARENT 6 7
REMARK Flexibility Score: inf
ROOT
ATOM      1  C   UNL     1      -0.668  30.514 -43.103  1.00  0.00     0.028 C 
ENDROOT
BRANCH   1   2
ATOM      2  C   UNL     1      -1.125  31.840 -42.475  1.00  0.00     0.002 C 
BRANCH   2   3
ATOM      3  C   UNL     1      -1.020  33.022 -43.450  1.00  0.00    -0.003 C 
ATOM      4  C   UNL     1      -0.500  32.607 -44.827  1.00  0.00     0.004 C 
ENDBRANCH   2   3
ENDBRANCH   1   2
BRANCH   1   5
ATOM      5  C   UNL     1      -1.743  29.429 -42.979  1.00  0.00     0.156 C 
BRANCH   5   6
ATOM      6  O   UNL     1      -2.921  29.951 -42.426  1.00  0.00    -0.396 OA
ATOM      7  H   UNL     1      -3.648  29.759 -43.074  1.00  0.00     0.210 HD
ENDBRANCH   5   6
ENDBRANCH   1   5
TORSDOF 4
ENDMDL
MODEL 3
REMARK VINA RESULT:    -2.999     13.797     14.709
REMARK INTER + INTRA:          -3.624
REMARK INTER:                  -3.550
REMARK INTRA:                  -0.074
REMARK UNBOUND:                -0.011
REMARK SMILES CCCCCO
REMARK SMILES IDX 4 1 3 2 2 3 1 4 5 5 6 6
REMARK H PARENT 6 7
REMARK Flexibility Score: inf
ROOT
ATOM      1  C   UNL     1      -1.067  32.247 -42.672  1.00  0.00     0.028 C 
ENDROOT
BRANCH   1   2
ATOM      2  C   UNL     1      -1.555  30.876 -42.177  1.00  0.00     0.002 C 
BRANCH   2   3
ATOM      3  C   UNL     1      -0.527  29.761 -42.423  1.00  0.00    -0.003 C 
ATOM      4  C   UNL     1      -1.173  28.450 -42.871  1.00  0.00     0.004 C 
ENDBRANCH   2   3
ENDBRANCH   1   2
BRANCH   1   5
ATOM      5  C   UNL     1      -0.985  32.301 -44.201  1.00  0.00     0.156 C 
BRANCH   5   6
ATOM      6  O   UNL     1      -2.140  31.760 -44.784  1.00  0.00    -0.396 OA
ATOM      7  H   UNL     1      -2.864  32.424 -44.648  1.00  0.00     0.210 HD
ENDBRANCH   5   6
ENDBRANCH   1   5
TORSDOF 4
ENDMDL
MODEL 4
REMARK VINA RESULT:    -2.938     14.578     15.921
REMARK INTER + INTRA:          -3.550
REMARK INTER:                  -3.446
REMARK INTRA:                  -0.104
REMARK UNBOUND:                -0.011
REMARK SMILES CCCCCO
REMARK SMILES IDX 4 1 3 2 2 3 1 4 5 5 6 6
REMARK H PARENT 6 7
REMARK Flexibility Score: inf
ROOT
ATOM      1  C   UNL     1      -0.707  32.385 -45.198  1.00  0.00     0.028 C 
ENDROOT
BRANCH   1   2
ATOM      2  C   UNL     1      -0.090  32.091 -43.821  1.00  0.00     0.002 C 
BRANCH   2   3
ATOM      3  C   UNL     1      -1.107  32.227 -42.678  1.00  0.00    -0.003 C 
ATOM      4  C   UNL     1      -1.601  30.876 -42.163  1.00  0.00     0.004 C 
ENDBRANCH   2   3
ENDBRANCH   1   2
BRANCH   1   5
ATOM      5  C   UNL     1      -1.215  31.108 -45.875  1.00  0.00     0.156 C 
BRANCH   5   6
ATOM      6  O   UNL     1      -2.591  30.940 -45.660  1.00  0.00    -0.396 OA
ATOM      7  H   UNL     1      -2.776  31.266 -44.742  1.00  0.00     0.210 HD
ENDBRANCH   5   6
ENDBRANCH   1   5
TORSDOF 4
ENDMDL
MODEL 5
REMARK VINA RESULT:    -2.922      3.606      5.861
REMARK INTER + INTRA:          -3.531
REMARK INTER:                  -3.500
REMARK INTRA:                  -0.031
REMARK UNBOUND:                -0.011
REMARK SMILES CCCCCO
REMARK SMILES IDX 4 1 3 2 2 3 1 4 5 5 6 6
REMARK H PARENT 6 7
REMARK Flexibility Score: inf
ROOT
ATOM      1  C   UNL     1     -10.247  27.203 -34.793  1.00  0.00     0.028 C 
ENDROOT
BRANCH   1   2
ATOM      2  C   UNL     1     -11.072  27.182 -36.090  1.00  0.00     0.002 C 
BRANCH   2   3
ATOM      3  C   UNL     1     -10.314  27.788 -37.280  1.00  0.00    -0.003 C 
ATOM      4  C   UNL     1      -9.945  29.255 -37.061  1.00  0.00     0.004 C 
ENDBRANCH   2   3
ENDBRANCH   1   2
BRANCH   1   5
ATOM      5  C   UNL     1      -9.365  25.956 -34.663  1.00  0.00     0.156 C 
BRANCH   5   6
ATOM      6  O   UNL     1      -9.574  25.321 -33.430  1.00  0.00    -0.396 OA
ATOM      7  H   UNL     1      -9.666  26.040 -32.753  1.00  0.00     0.210 HD
ENDBRANCH   5   6
ENDBRANCH   1   5
TORSDOF 4
ENDMDL
MODEL 6
REMARK VINA RESULT:    -2.848     14.055     14.895
REMARK INTER + INTRA:          -3.441
REMARK INTER:                  -3.342
REMARK INTRA:                  -0.099
REMARK UNBOUND:                -0.011
REMARK SMILES CCCCCO
REMARK SMILES IDX 4 1 3 2 2 3 1 4 5 5 6 6
REMARK H PARENT 6 7
REMARK Flexibility Score: inf
ROOT
ATOM      1  C   UNL     1      -1.448  29.460 -44.216  1.00  0.00     0.028 C 
ENDROOT
BRANCH   1   2
ATOM      2  C   UNL     1      -2.216  30.048 -43.022  1.00  0.00     0.002 C 
BRANCH   2   3
ATOM      3  C   UNL     1      -1.361  31.019 -42.193  1.00  0.00    -0.003 C 
ATOM      4  C   UNL     1      -1.224  32.393 -42.848  1.00  0.00     0.004 C 
ENDBRANCH   2   3
ENDBRANCH   1   2
BRANCH   1   5
ATOM      5  C   UNL     1      -2.254  29.567 -45.515  1.00  0.00     0.156 C 
BRANCH   5   6
ATOM      6  O   UNL     1      -2.886  30.815 -45.612  1.00  0.00    -0.396 OA
ATOM      7  H   UNL     1      -3.394  30.811 -46.464  1.00  0.00     0.210 HD
ENDBRANCH   5   6
ENDBRANCH   1   5
TORSDOF 4
ENDMDL
MODEL 7
REMARK VINA RESULT:    -2.838      3.355      4.840
REMARK INTER + INTRA:          -3.430
REMARK INTER:                  -3.380
REMARK INTRA:                  -0.049
REMARK UNBOUND:                -0.011
REMARK SMILES CCCCCO
REMARK SMILES IDX 4 1 3 2 2 3 1 4 5 5 6 6
REMARK H PARENT 6 7
REMARK Flexibility Score: inf
ROOT
ATOM      1  C   UNL     1     -10.007  26.835 -35.113  1.00  0.00     0.028 C 
ENDROOT
BRANCH   1   2
ATOM      2  C   UNL     1     -10.192  26.696 -36.632  1.00  0.00     0.002 C 
BRANCH   2   3
ATOM      3  C   UNL     1      -9.462  25.472 -37.205  1.00  0.00    -0.003 C 
ATOM      4  C   UNL     1      -9.380  25.494 -38.731  1.00  0.00     0.004 C 
ENDBRANCH   2   3
ENDBRANCH   1   2
BRANCH   1   5
ATOM      5  C   UNL     1      -9.143  25.705 -34.542  1.00  0.00     0.156 C 
BRANCH   5   6
ATOM      6  O   UNL     1      -9.662  25.245 -33.324  1.00  0.00    -0.396 OA
ATOM      7  H   UNL     1      -9.557  25.986 -32.672  1.00  0.00     0.210 HD
ENDBRANCH   5   6
ENDBRANCH   1   5
TORSDOF 4
ENDMDL
MODEL 8
REMARK VINA RESULT:    -2.794      1.398      2.360
REMARK INTER + INTRA:          -3.377
REMARK INTER:                  -3.295
REMARK INTRA:                  -0.081
REMARK UNBOUND:                -0.011
REMARK SMILES CCCCCO
REMARK SMILES IDX 4 1 3 2 2 3 1 4 5 5 6 6
REMARK H PARENT 6 7
REMARK Flexibility Score: inf
ROOT
ATOM      1  C   UNL     1      -8.794  22.649 -33.018  1.00  0.00     0.028 C 
ENDROOT
BRANCH   1   2
ATOM      2  C   UNL     1      -8.423  21.807 -34.249  1.00  0.00     0.002 C 
BRANCH   2   3
ATOM      3  C   UNL     1      -9.535  21.790 -35.309  1.00  0.00    -0.003 C 
ATOM      4  C   UNL     1      -9.295  22.798 -36.433  1.00  0.00     0.004 C 
ENDBRANCH   2   3
ENDBRANCH   1   2
BRANCH   1   5
ATOM      5  C   UNL     1      -8.288  24.091 -33.145  1.00  0.00     0.156 C 
BRANCH   5   6
ATOM      6  O   UNL     1      -9.357  24.986 -33.290  1.00  0.00    -0.396 OA
ATOM      7  H   UNL     1      -8.969  25.842 -33.608  1.00  0.00     0.210 HD
ENDBRANCH   5   6
ENDBRANCH   1   5
TORSDOF 4
ENDMDL
MODEL 9
REMARK VINA RESULT:    -2.711      3.618      5.617
REMARK INTER + INTRA:          -3.277
REMARK INTER:                  -3.235
REMARK INTRA:                  -0.041
REMARK UNBOUND:                -0.011
REMARK SMILES CCCCCO
REMARK SMILES IDX 4 1 3 2 2 3 1 4 5 5 6 6
REMARK H PARENT 6 7
REMARK Flexibility Score: inf
ROOT
ATOM      1  C   UNL     1     -10.322  27.168 -34.714  1.00  0.00     0.028 C 
ENDROOT
BRANCH   1   2
ATOM      2  C   UNL     1     -11.434  26.946 -35.752  1.00  0.00     0.002 C 
BRANCH   2   3
ATOM      3  C   UNL     1     -11.284  27.856 -36.980  1.00  0.00    -0.003 C 
ATOM      4  C   UNL     1     -10.486  27.201 -38.107  1.00  0.00     0.004 C 
ENDBRANCH   2   3
ENDBRANCH   1   2
BRANCH   1   5
ATOM      5  C   UNL     1      -9.362  25.975 -34.650  1.00  0.00     0.156 C 
BRANCH   5   6
ATOM      6  O   UNL     1      -9.510  25.277 -33.443  1.00  0.00    -0.396 OA
ATOM      7  H   UNL     1      -8.865  24.523 -33.470  1.00  0.00     0.210 HD
ENDBRANCH   5   6
ENDBRANCH   1   5
TORSDOF 4
ENDMDL
