MODEL 1
REMARK VINA RESULT:    -4.270      0.000      0.000
REMARK INTER + INTRA:          -9.072
REMARK INTER:                  -8.015
REMARK INTRA:                  -1.057
REMARK UNBOUND:                -1.057
REMARK SMILES O=C([O-])CCCCCCCCCCCCCCC(=O)[O-]
REMARK SMILES IDX 10 1 9 2 8 3 7 4 6 5 5 6 4 7 2 8 1 9 3 10 11 11 12 12 13 13
REMARK SMILES IDX 14 14 15 15 16 16 17 17 18 18 19 19 20 20
REMARK H PARENT
REMARK Flexibility Score: inf
ROOT
ATOM      1  C   UNL     1     120.808 112.868 113.981  1.00  0.00     0.000 C 
ENDROOT
BRANCH   1   2
ATOM      2  C   UNL     1     119.635 113.837 113.768  1.00  0.00     0.000 C 
BRANCH   2   3
ATOM      3  C   UNL     1     119.175 114.446 115.100  1.00  0.00     0.000 C 
BRANCH   3   4
ATOM      4  C   UNL     1     119.772 113.728 116.324  1.00  0.00     0.000 C 
BRANCH   4   5
ATOM      5  C   UNL     1     118.741 113.222 117.353  1.00  0.00     0.000 C 
BRANCH   5   6
ATOM      6  C   UNL     1     119.111 111.902 118.051  1.00  0.00     0.006 C 
BRANCH   6   7
ATOM      7  C   UNL     1     120.268 111.168 117.364  1.00  0.00     0.053 C 
BRANCH   7   8
ATOM      8  C   UNL     1     121.443 111.068 118.285  1.00  0.00     0.041 C 
ATOM      9  O   UNL     1     122.160 112.079 118.508  1.00  0.00    -0.550 OA
ATOM     10  O   UNL     1     121.776 109.848 118.858  1.00  0.00    -0.550 OA
ENDBRANCH   7   8
ENDBRANCH   6   7
ENDBRANCH   5   6
ENDBRANCH   4   5
ENDBRANCH   3   4
ENDBRANCH   2   3
ENDBRANCH   1   2
BRANCH   1  11
ATOM     11  C   UNL     1     120.618 111.523 113.257  1.00  0.00     0.000 C 
BRANCH  11  12
ATOM     12  C   UNL     1     119.972 111.618 111.861  1.00  0.00     0.000 C 
BRANCH  12  13
ATOM     13  C   UNL     1     119.234 110.331 111.454  1.00  0.00     0.000 C 
BRANCH  13  14
ATOM     14  C   UNL     1     119.712 109.780 110.100  1.00  0.00     0.000 C 
BRANCH  14  15
ATOM     15  C   UNL     1     119.993 110.890 109.071  1.00  0.00     0.000 C 
BRANCH  15  16
ATOM     16  C   UNL     1     119.915 110.384 107.622  1.00  0.00     0.006 C 
BRANCH  16  17
ATOM     17  C   UNL     1     121.202 109.682 107.172  1.00  0.00     0.053 C 
BRANCH  17  18
ATOM     18  C   UNL     1     120.942 108.232 106.913  1.00  0.00     0.041 C 
ATOM     19  O   UNL     1     121.685 107.353 107.423  1.00  0.00    -0.550 OA
ATOM     20  O   UNL     1     119.847 107.848 106.148  1.00  0.00    -0.550 OA
ENDBRANCH  17  18
ENDBRANCH  16  17
ENDBRANCH  15  16
ENDBRANCH  14  15
ENDBRANCH  13  14
ENDBRANCH  12  13
ENDBRANCH  11  12
ENDBRANCH   1  11
TORSDOF 15
ENDMDL
MODEL 2
REMARK VINA RESULT:    -4.258      2.006      2.683
REMARK INTER + INTRA:          -9.049
REMARK INTER:                  -7.939
REMARK INTRA:                  -1.109
REMARK UNBOUND:                -1.057
REMARK SMILES O=C([O-])CCCCCCCCCCCCCCC(=O)[O-]
REMARK SMILES IDX 10 1 9 2 8 3 7 4 6 5 5 6 4 7 2 8 1 9 3 10 11 11 12 12 13 13
REMARK SMILES IDX 14 14 15 15 16 16 17 17 18 18 19 19 20 20
REMARK H PARENT
REMARK Flexibility Score: inf
ROOT
ATOM      1  C   UNL     1     121.421 111.677 113.363  1.00  0.00     0.000 C 
ENDROOT
BRANCH   1   2
ATOM      2  C   UNL     1     120.689 112.487 114.444  1.00  0.00     0.000 C 
BRANCH   2   3
ATOM      3  C   UNL     1     121.608 112.761 115.644  1.00  0.00     0.000 C 
BRANCH   3   4
ATOM      4  C   UNL     1     121.681 111.575 116.622  1.00  0.00     0.000 C 
BRANCH   4   5
ATOM      5  C   UNL     1     120.336 111.167 117.257  1.00  0.00     0.000 C 
BRANCH   5   6
ATOM      6  C   UNL     1     119.690 112.235 118.157  1.00  0.00     0.006 C 
BRANCH   6   7
ATOM      7  C   UNL     1     118.164 112.286 118.021  1.00  0.00     0.053 C 
BRANCH   7   8
ATOM      8  C   UNL     1     117.748 113.502 117.257  1.00  0.00     0.041 C 
ATOM      9  O   UNL     1     118.613 114.222 116.693  1.00  0.00    -0.550 OA
ATOM     10  O   UNL     1     116.410 113.870 117.210  1.00  0.00    -0.550 OA
ENDBRANCH   7   8
ENDBRANCH   6   7
ENDBRANCH   5   6
ENDBRANCH   4   5
ENDBRANCH   3   4
ENDBRANCH   2   3
ENDBRANCH   1   2
BRANCH   1  11
ATOM     11  C   UNL     1     120.916 110.227 113.252  1.00  0.00     0.000 C 
BRANCH  11  12
ATOM     12  C   UNL     1     120.405 109.818 111.858  1.00  0.00     0.000 C 
BRANCH  12  13
ATOM     13  C   UNL     1     119.184 110.635 111.404  1.00  0.00     0.000 C 
BRANCH  13  14
ATOM     14  C   UNL     1     119.227 110.977 109.905  1.00  0.00     0.000 C 
BRANCH  14  15
ATOM     15  C   UNL     1     120.352 110.240 109.157  1.00  0.00     0.000 C 
BRANCH  15  16
ATOM     16  C   UNL     1     120.286 110.451 107.636  1.00  0.00     0.006 C 
BRANCH  16  17
ATOM     17  C   UNL     1     121.136 109.436 106.862  1.00  0.00     0.053 C 
BRANCH  17  18
ATOM     18  C   UNL     1     120.378 108.162 106.666  1.00  0.00     0.041 C 
ATOM     19  O   UNL     1     119.132 108.186 106.487  1.00  0.00    -0.550 OA
ATOM     20  O   UNL     1     121.055 106.948 106.632  1.00  0.00    -0.550 OA
ENDBRANCH  17  18
ENDBRANCH  16  17
ENDBRANCH  15  16
ENDBRANCH  14  15
ENDBRANCH  13  14
ENDBRANCH  12  13
ENDBRANCH  11  12
ENDBRANCH   1  11
TORSDOF 15
ENDMDL
MODEL 3
REMARK VINA RESULT:    -4.255      2.008      3.219
REMARK INTER + INTRA:          -9.044
REMARK INTER:                  -7.509
REMARK INTRA:                  -1.534
REMARK UNBOUND:                -1.057
REMARK SMILES O=C([O-])CCCCCCCCCCCCCCC(=O)[O-]
REMARK SMILES IDX 10 1 9 2 8 3 7 4 6 5 5 6 4 7 2 8 1 9 3 10 11 11 12 12 13 13
REMARK SMILES IDX 14 14 15 15 16 16 17 17 18 18 19 19 20 20
REMARK H PARENT
REMARK Flexibility Score: inf
ROOT
ATOM      1  C   UNL     1     119.677 115.061 114.125  1.00  0.00     0.000 C 
ENDROOT
BRANCH   1   2
ATOM      2  C   UNL     1     118.586 115.802 114.913  1.00  0.00     0.000 C 
BRANCH   2   3
ATOM      3  C   UNL     1     118.085 114.953 116.091  1.00  0.00     0.000 C 
BRANCH   3   4
ATOM      4  C   UNL     1     118.993 113.745 116.385  1.00  0.00     0.000 C 
BRANCH   4   5
ATOM      5  C   UNL     1     118.700 113.015 117.712  1.00  0.00     0.000 C 
BRANCH   5   6
ATOM      6  C   UNL     1     119.444 111.682 117.900  1.00  0.00     0.006 C 
BRANCH   6   7
ATOM      7  C   UNL     1     120.444 111.394 116.775  1.00  0.00     0.053 C 
BRANCH   7   8
ATOM      8  C   UNL     1     121.847 111.547 117.272  1.00  0.00     0.041 C 
ATOM      9  O   UNL     1     122.818 111.362 116.492  1.00  0.00    -0.550 OA
ATOM     10  O   UNL     1     122.084 111.846 118.607  1.00  0.00    -0.550 OA
ENDBRANCH   7   8
ENDBRANCH   6   7
ENDBRANCH   5   6
ENDBRANCH   4   5
ENDBRANCH   3   4
ENDBRANCH   2   3
ENDBRANCH   1   2
BRANCH   1  11
ATOM     11  C   UNL     1     119.542 115.234 112.601  1.00  0.00     0.000 C 
BRANCH  11  12
ATOM     12  C   UNL     1     120.087 114.065 111.760  1.00  0.00     0.000 C 
BRANCH  12  13
ATOM     13  C   UNL     1     121.574 113.776 112.027  1.00  0.00     0.000 C 
BRANCH  13  14
ATOM     14  C   UNL     1     121.853 112.282 112.258  1.00  0.00     0.000 C 
BRANCH  14  15
ATOM     15  C   UNL     1     120.787 111.606 113.140  1.00  0.00     0.000 C 
BRANCH  15  16
ATOM     16  C   UNL     1     120.312 110.262 112.565  1.00  0.00     0.006 C 
BRANCH  16  17
ATOM     17  C   UNL     1     119.088 110.412 111.652  1.00  0.00     0.053 C 
BRANCH  17  18
ATOM     18  C   UNL     1     119.499 110.352 110.215  1.00  0.00     0.041 C 
ATOM     19  O   UNL     1     119.183 111.281 109.426  1.00  0.00    -0.550 OA
ATOM     20  O   UNL     1     120.274 109.293 109.757  1.00  0.00    -0.550 OA
ENDBRANCH  17  18
ENDBRANCH  16  17
ENDBRANCH  15  16
ENDBRANCH  14  15
ENDBRANCH  13  14
ENDBRANCH  12  13
ENDBRANCH  11  12
ENDBRANCH   1  11
TORSDOF 15
ENDMDL
MODEL 4
REMARK VINA RESULT:    -4.248      2.676      3.271
REMARK INTER + INTRA:          -9.031
REMARK INTER:                  -7.775
REMARK INTRA:                  -1.256
REMARK UNBOUND:                -1.057
REMARK SMILES O=C([O-])CCCCCCCCCCCCCCC(=O)[O-]
REMARK SMILES IDX 10 1 9 2 8 3 7 4 6 5 5 6 4 7 2 8 1 9 3 10 11 11 12 12 13 13
REMARK SMILES IDX 14 14 15 15 16 16 17 17 18 18 19 19 20 20
REMARK H PARENT
REMARK Flexibility Score: inf
ROOT
ATOM      1  C   UNL     1     121.105 112.263 113.658  1.00  0.00     0.000 C 
ENDROOT
BRANCH   1   2
ATOM      2  C   UNL     1     121.209 112.897 115.053  1.00  0.00     0.000 C 
BRANCH   2   3
ATOM      3  C   UNL     1     121.923 111.955 116.034  1.00  0.00     0.000 C 
BRANCH   3   4
ATOM      4  C   UNL     1     121.214 111.862 117.397  1.00  0.00     0.000 C 
BRANCH   4   5
ATOM      5  C   UNL     1     119.822 111.200 117.365  1.00  0.00     0.000 C 
BRANCH   5   6
ATOM      6  C   UNL     1     118.715 111.974 118.101  1.00  0.00     0.006 C 
BRANCH   6   7
ATOM      7  C   UNL     1     118.788 113.487 117.866  1.00  0.00     0.053 C 
BRANCH   7   8
ATOM      8  C   UNL     1     117.763 113.910 116.862  1.00  0.00     0.041 C 
ATOM      9  O   UNL     1     118.121 114.436 115.775  1.00  0.00    -0.550 OA
ATOM     10  O   UNL     1     116.411 113.771 117.147  1.00  0.00    -0.550 OA
ENDBRANCH   7   8
ENDBRANCH   6   7
ENDBRANCH   5   6
ENDBRANCH   4   5
ENDBRANCH   3   4
ENDBRANCH   2   3
ENDBRANCH   1   2
BRANCH   1  11
ATOM     11  C   UNL     1     121.256 110.731 113.680  1.00  0.00     0.000 C 
BRANCH  11  12
ATOM     12  C   UNL     1     120.602 109.993 112.497  1.00  0.00     0.000 C 
BRANCH  12  13
ATOM     13  C   UNL     1     119.417 110.764 111.891  1.00  0.00     0.000 C 
BRANCH  13  14
ATOM     14  C   UNL     1     119.544 110.939 110.368  1.00  0.00     0.000 C 
BRANCH  14  15
ATOM     15  C   UNL     1     119.849 109.617 109.640  1.00  0.00     0.000 C 
BRANCH  15  16
ATOM     16  C   UNL     1     120.381 109.839 108.215  1.00  0.00     0.006 C 
BRANCH  16  17
ATOM     17  C   UNL     1     120.022 111.223 107.660  1.00  0.00     0.053 C 
BRANCH  17  18
ATOM     18  C   UNL     1     121.255 111.944 107.219  1.00  0.00     0.041 C 
ATOM     19  O   UNL     1     122.377 111.639 107.703  1.00  0.00    -0.550 OA
ATOM     20  O   UNL     1     121.174 112.922 106.233  1.00  0.00    -0.550 OA
ENDBRANCH  17  18
ENDBRANCH  16  17
ENDBRANCH  15  16
ENDBRANCH  14  15
ENDBRANCH  13  14
ENDBRANCH  12  13
ENDBRANCH  11  12
ENDBRANCH   1  11
TORSDOF 15
ENDMDL
MODEL 5
REMARK VINA RESULT:    -4.243      0.963      8.962
REMARK INTER + INTRA:          -9.020
REMARK INTER:                  -7.811
REMARK INTRA:                  -1.208
REMARK UNBOUND:                -1.057
REMARK SMILES O=C([O-])CCCCCCCCCCCCCCC(=O)[O-]
REMARK SMILES IDX 10 1 9 2 8 3 7 4 6 5 5 6 4 7 2 8 1 9 3 10 11 11 12 12 13 13
REMARK SMILES IDX 14 14 15 15 16 16 17 17 18 18 19 19 20 20
REMARK H PARENT
REMARK Flexibility Score: inf
ROOT
ATOM      1  C   UNL     1     120.810 110.900 113.685  1.00  0.00     0.000 C 
ENDROOT
BRANCH   1   2
ATOM      2  C   UNL     1     120.766 110.406 112.231  1.00  0.00     0.000 C 
BRANCH   2   3
ATOM      3  C   UNL     1     119.319 110.172 111.774  1.00  0.00     0.000 C 
BRANCH   3   4
ATOM      4  C   UNL     1     119.164 110.203 110.242  1.00  0.00     0.000 C 
BRANCH   4   5
ATOM      5  C   UNL     1     119.694 111.479 109.557  1.00  0.00     0.000 C 
BRANCH   5   6
ATOM      6  C   UNL     1     119.967 111.343 108.049  1.00  0.00     0.006 C 
BRANCH   6   7
ATOM      7  C   UNL     1     119.964 109.886 107.571  1.00  0.00     0.053 C 
BRANCH   7   8
ATOM      8  C   UNL     1     121.335 109.477 107.134  1.00  0.00     0.041 C 
ATOM      9  O   UNL     1     122.108 110.318 106.604  1.00  0.00    -0.550 OA
ATOM     10  O   UNL     1     121.742 108.156 107.266  1.00  0.00    -0.550 OA
ENDBRANCH   7   8
ENDBRANCH   6   7
ENDBRANCH   5   6
ENDBRANCH   4   5
ENDBRANCH   3   4
ENDBRANCH   2   3
ENDBRANCH   1   2
BRANCH   1  11
ATOM     11  C   UNL     1     121.149 112.398 113.802  1.00  0.00     0.000 C 
BRANCH  11  12
ATOM     12  C   UNL     1     119.973 113.357 113.539  1.00  0.00     0.000 C 
BRANCH  12  13
ATOM     13  C   UNL     1     119.736 114.346 114.693  1.00  0.00     0.000 C 
BRANCH  13  14
ATOM     14  C   UNL     1     120.224 113.801 116.046  1.00  0.00     0.000 C 
BRANCH  14  15
ATOM     15  C   UNL     1     119.074 113.283 116.929  1.00  0.00     0.000 C 
BRANCH  15  16
ATOM     16  C   UNL     1     119.578 112.485 118.143  1.00  0.00     0.006 C 
BRANCH  16  17
ATOM     17  C   UNL     1     120.177 111.129 117.750  1.00  0.00     0.053 C 
BRANCH  17  18
ATOM     18  C   UNL     1     121.537 110.967 118.349  1.00  0.00     0.041 C 
ATOM     19  O   UNL     1     122.333 111.941 118.390  1.00  0.00    -0.550 OA
ATOM     20  O   UNL     1     121.909 109.750 118.909  1.00  0.00    -0.550 OA
ENDBRANCH  17  18
ENDBRANCH  16  17
ENDBRANCH  15  16
ENDBRANCH  14  15
ENDBRANCH  13  14
ENDBRANCH  12  13
ENDBRANCH  11  12
ENDBRANCH   1  11
TORSDOF 15
ENDMDL
MODEL 6
REMARK VINA RESULT:    -4.189      1.278     10.053
REMARK INTER + INTRA:          -8.919
REMARK INTER:                  -8.156
REMARK INTRA:                  -0.763
REMARK UNBOUND:                -1.057
REMARK SMILES O=C([O-])CCCCCCCCCCCCCCC(=O)[O-]
REMARK SMILES IDX 10 1 9 2 8 3 7 4 6 5 5 6 4 7 2 8 1 9 3 10 11 11 12 12 13 13
REMARK SMILES IDX 14 14 15 15 16 16 17 17 18 18 19 19 20 20
REMARK H PARENT
REMARK Flexibility Score: inf
ROOT
ATOM      1  C   UNL     1     120.355 109.997 112.045  1.00  0.00     0.000 C 
ENDROOT
BRANCH   1   2
ATOM      2  C   UNL     1     118.951 110.146 111.441  1.00  0.00     0.000 C 
BRANCH   2   3
ATOM      3  C   UNL     1     119.027 110.411 109.930  1.00  0.00     0.000 C 
BRANCH   3   4
ATOM      4  C   UNL     1     120.131 109.593 109.235  1.00  0.00     0.000 C 
BRANCH   4   5
ATOM      5  C   UNL     1     120.266 109.835 107.718  1.00  0.00     0.000 C 
BRANCH   5   6
ATOM      6  C   UNL     1     121.053 108.756 106.954  1.00  0.00     0.006 C 
BRANCH   6   7
ATOM      7  C   UNL     1     120.144 107.768 106.212  1.00  0.00     0.053 C 
BRANCH   7   8
ATOM      8  C   UNL     1     120.897 107.092 105.111  1.00  0.00     0.041 C 
ATOM      9  O   UNL     1     120.372 106.960 103.974  1.00  0.00    -0.550 OA
ATOM     10  O   UNL     1     122.158 106.563 105.352  1.00  0.00    -0.550 OA
ENDBRANCH   7   8
ENDBRANCH   6   7
ENDBRANCH   5   6
ENDBRANCH   4   5
ENDBRANCH   3   4
ENDBRANCH   2   3
ENDBRANCH   1   2
BRANCH   1  11
ATOM     11  C   UNL     1     120.638 111.011 113.169  1.00  0.00     0.000 C 
BRANCH  11  12
ATOM     12  C   UNL     1     120.223 112.462 112.860  1.00  0.00     0.000 C 
BRANCH  12  13
ATOM     13  C   UNL     1     120.417 113.408 114.057  1.00  0.00     0.000 C 
BRANCH  13  14
ATOM     14  C   UNL     1     120.841 112.664 115.334  1.00  0.00     0.000 C 
BRANCH  14  15
ATOM     15  C   UNL     1     120.141 113.200 116.597  1.00  0.00     0.000 C 
BRANCH  15  16
ATOM     16  C   UNL     1     119.687 112.076 117.541  1.00  0.00     0.006 C 
BRANCH  16  17
ATOM     17  C   UNL     1     120.159 112.291 118.984  1.00  0.00     0.053 C 
BRANCH  17  18
ATOM     18  C   UNL     1     121.513 111.689 119.185  1.00  0.00     0.041 C 
ATOM     19  O   UNL     1     122.286 112.145 120.068  1.00  0.00    -0.550 OA
ATOM     20  O   UNL     1     121.904 110.588 118.430  1.00  0.00    -0.550 OA
ENDBRANCH  17  18
ENDBRANCH  16  17
ENDBRANCH  15  16
ENDBRANCH  14  15
ENDBRANCH  13  14
ENDBRANCH  12  13
ENDBRANCH  11  12
ENDBRANCH   1  11
TORSDOF 15
ENDMDL
MODEL 7
REMARK VINA RESULT:    -4.175      1.438      1.919
REMARK INTER + INTRA:          -8.892
REMARK INTER:                  -7.452
REMARK INTRA:                  -1.440
REMARK UNBOUND:                -1.057
REMARK SMILES O=C([O-])CCCCCCCCCCCCCCC(=O)[O-]
REMARK SMILES IDX 10 1 9 2 8 3 7 4 6 5 5 6 4 7 2 8 1 9 3 10 11 11 12 12 13 13
REMARK SMILES IDX 14 14 15 15 16 16 17 17 18 18 19 19 20 20
REMARK H PARENT
REMARK Flexibility Score: inf
ROOT
ATOM      1  C   UNL     1     120.664 113.760 113.015  1.00  0.00     0.000 C 
ENDROOT
BRANCH   1   2
ATOM      2  C   UNL     1     119.749 113.586 114.236  1.00  0.00     0.000 C 
BRANCH   2   3
ATOM      3  C   UNL     1     120.248 114.423 115.422  1.00  0.00     0.000 C 
BRANCH   3   4
ATOM      4  C   UNL     1     120.652 113.562 116.633  1.00  0.00     0.000 C 
BRANCH   4   5
ATOM      5  C   UNL     1     119.559 112.600 117.144  1.00  0.00     0.000 C 
BRANCH   5   6
ATOM      6  C   UNL     1     120.033 111.161 117.413  1.00  0.00     0.006 C 
BRANCH   6   7
ATOM      7  C   UNL     1     121.543 111.066 117.658  1.00  0.00     0.053 C 
BRANCH   7   8
ATOM      8  C   UNL     1     121.820 110.719 119.086  1.00  0.00     0.041 C 
ATOM      9  O   UNL     1     122.374 109.626 119.376  1.00  0.00    -0.550 OA
ATOM     10  O   UNL     1     121.421 111.579 120.101  1.00  0.00    -0.550 OA
ENDBRANCH   7   8
ENDBRANCH   6   7
ENDBRANCH   5   6
ENDBRANCH   4   5
ENDBRANCH   3   4
ENDBRANCH   2   3
ENDBRANCH   1   2
BRANCH   1  11
ATOM     11  C   UNL     1     121.303 112.440 112.548  1.00  0.00     0.000 C 
BRANCH  11  12
ATOM     12  C   UNL     1     120.877 111.190 113.342  1.00  0.00     0.000 C 
BRANCH  12  13
ATOM     13  C   UNL     1     120.380 110.048 112.440  1.00  0.00     0.000 C 
BRANCH  13  14
ATOM     14  C   UNL     1     119.060 110.390 111.728  1.00  0.00     0.000 C 
BRANCH  14  15
ATOM     15  C   UNL     1     119.134 110.186 110.204  1.00  0.00     0.000 C 
BRANCH  15  16
ATOM     16  C   UNL     1     120.572 109.966 109.708  1.00  0.00     0.006 C 
BRANCH  16  17
ATOM     17  C   UNL     1     120.625 109.324 108.316  1.00  0.00     0.053 C 
BRANCH  17  18
ATOM     18  C   UNL     1     121.178 110.289 107.317  1.00  0.00     0.041 C 
ATOM     19  O   UNL     1     120.718 111.459 107.242  1.00  0.00    -0.550 OA
ATOM     20  O   UNL     1     122.237 109.913 106.499  1.00  0.00    -0.550 OA
ENDBRANCH  17  18
ENDBRANCH  16  17
ENDBRANCH  15  16
ENDBRANCH  14  15
ENDBRANCH  13  14
ENDBRANCH  12  13
ENDBRANCH  11  12
ENDBRANCH   1  11
TORSDOF 15
ENDMDL
MODEL 8
REMARK VINA RESULT:    -4.173      3.447      9.313
REMARK INTER + INTRA:          -8.890
REMARK INTER:                  -6.849
REMARK INTRA:                  -2.041
REMARK UNBOUND:                -1.057
REMARK SMILES O=C([O-])CCCCCCCCCCCCCCC(=O)[O-]
REMARK SMILES IDX 10 1 9 2 8 3 7 4 6 5 5 6 4 7 2 8 1 9 3 10 11 11 12 12 13 13
REMARK SMILES IDX 14 14 15 15 16 16 17 17 18 18 19 19 20 20
REMARK H PARENT
REMARK Flexibility Score: inf
ROOT
ATOM      1  C   UNL     1     123.347 112.568 106.930  1.00  0.00     0.000 C 
ENDROOT
BRANCH   1   2
ATOM      2  C   UNL     1     123.830 111.591 105.849  1.00  0.00     0.000 C 
BRANCH   2   3
ATOM      3  C   UNL     1     124.396 110.309 106.478  1.00  0.00     0.000 C 
BRANCH   3   4
ATOM      4  C   UNL     1     123.569 109.819 107.680  1.00  0.00     0.000 C 
BRANCH   4   5
ATOM      5  C   UNL     1     122.731 108.550 107.423  1.00  0.00     0.000 C 
BRANCH   5   6
ATOM      6  C   UNL     1     121.611 108.710 106.380  1.00  0.00     0.006 C 
BRANCH   6   7
ATOM      7  C   UNL     1     120.736 107.458 106.248  1.00  0.00     0.053 C 
BRANCH   7   8
ATOM      8  C   UNL     1     121.023 106.754 104.960  1.00  0.00     0.041 C 
ATOM      9  O   UNL     1     122.139 106.200 104.776  1.00  0.00    -0.550 OA
ATOM     10  O   UNL     1     120.078 106.752 103.943  1.00  0.00    -0.550 OA
ENDBRANCH   7   8
ENDBRANCH   6   7
ENDBRANCH   5   6
ENDBRANCH   4   5
ENDBRANCH   3   4
ENDBRANCH   2   3
ENDBRANCH   1   2
BRANCH   1  11
ATOM     11  C   UNL     1     121.974 113.187 106.613  1.00  0.00     0.000 C 
BRANCH  11  12
ATOM     12  C   UNL     1     120.760 112.326 107.011  1.00  0.00     0.000 C 
BRANCH  12  13
ATOM     13  C   UNL     1     120.756 111.951 108.503  1.00  0.00     0.000 C 
BRANCH  13  14
ATOM     14  C   UNL     1     119.512 111.141 108.904  1.00  0.00     0.000 C 
BRANCH  14  15
ATOM     15  C   UNL     1     119.860 109.739 109.438  1.00  0.00     0.000 C 
BRANCH  15  16
ATOM     16  C   UNL     1     120.391 109.773 110.880  1.00  0.00     0.006 C 
BRANCH  16  17
ATOM     17  C   UNL     1     119.428 110.473 111.847  1.00  0.00     0.053 C 
BRANCH  17  18
ATOM     18  C   UNL     1     120.144 111.535 112.618  1.00  0.00     0.041 C 
ATOM     19  O   UNL     1     120.767 111.244 113.672  1.00  0.00    -0.550 OA
ATOM     20  O   UNL     1     120.164 112.843 112.146  1.00  0.00    -0.550 OA
ENDBRANCH  17  18
ENDBRANCH  16  17
ENDBRANCH  15  16
ENDBRANCH  14  15
ENDBRANCH  13  14
ENDBRANCH  12  13
ENDBRANCH  11  12
ENDBRANCH   1  11
TORSDOF 15
ENDMDL
MODEL 9
REMARK VINA RESULT:    -4.140      4.871      6.919
REMARK INTER + INTRA:          -8.827
REMARK INTER:                  -6.535
REMARK INTRA:                  -2.292
REMARK UNBOUND:                -1.057
REMARK SMILES O=C([O-])CCCCCCCCCCCCCCC(=O)[O-]
REMARK SMILES IDX 10 1 9 2 8 3 7 4 6 5 5 6 4 7 2 8 1 9 3 10 11 11 12 12 13 13
REMARK SMILES IDX 14 14 15 15 16 16 17 17 18 18 19 19 20 20
REMARK H PARENT
REMARK Flexibility Score: inf
ROOT
ATOM      1  C   UNL     1     121.410 112.246 112.836  1.00  0.00     0.000 C 
ENDROOT
BRANCH   1   2
ATOM      2  C   UNL     1     122.448 111.822 111.786  1.00  0.00     0.000 C 
BRANCH   2   3
ATOM      3  C   UNL     1     123.044 113.046 111.076  1.00  0.00     0.000 C 
BRANCH   3   4
ATOM      4  C   UNL     1     121.993 113.852 110.291  1.00  0.00     0.000 C 
BRANCH   4   5
ATOM      5  C   UNL     1     121.209 113.049 109.233  1.00  0.00     0.000 C 
BRANCH   5   6
ATOM      6  C   UNL     1     121.963 112.799 107.915  1.00  0.00     0.006 C 
BRANCH   6   7
ATOM      7  C   UNL     1     121.043 112.813 106.690  1.00  0.00     0.053 C 
BRANCH   7   8
ATOM      8  C   UNL     1     121.172 114.109 105.954  1.00  0.00     0.041 C 
ATOM      9  O   UNL     1     120.332 115.029 106.139  1.00  0.00    -0.550 OA
ATOM     10  O   UNL     1     122.191 114.284 105.027  1.00  0.00    -0.550 OA
ENDBRANCH   7   8
ENDBRANCH   6   7
ENDBRANCH   5   6
ENDBRANCH   4   5
ENDBRANCH   3   4
ENDBRANCH   2   3
ENDBRANCH   1   2
BRANCH   1  11
ATOM     11  C   UNL     1     120.006 111.679 112.559  1.00  0.00     0.000 C 
BRANCH  11  12
ATOM     12  C   UNL     1     119.980 110.338 111.801  1.00  0.00     0.000 C 
BRANCH  12  13
ATOM     13  C   UNL     1     119.005 110.341 110.612  1.00  0.00     0.000 C 
BRANCH  13  14
ATOM     14  C   UNL     1     119.661 109.856 109.309  1.00  0.00     0.000 C 
BRANCH  14  15
ATOM     15  C   UNL     1     121.033 109.197 109.542  1.00  0.00     0.000 C 
BRANCH  15  16
ATOM     16  C   UNL     1     121.868 109.104 108.255  1.00  0.00     0.006 C 
BRANCH  16  17
ATOM     17  C   UNL     1     121.002 109.085 106.990  1.00  0.00     0.053 C 
BRANCH  17  18
ATOM     18  C   UNL     1     120.881 107.692 106.460  1.00  0.00     0.041 C 
ATOM     19  O   UNL     1     120.098 107.441 105.507  1.00  0.00    -0.550 OA
ATOM     20  O   UNL     1     121.671 106.677 106.988  1.00  0.00    -0.550 OA
ENDBRANCH  17  18
ENDBRANCH  16  17
ENDBRANCH  15  16
ENDBRANCH  14  15
ENDBRANCH  13  14
ENDBRANCH  12  13
ENDBRANCH  11  12
ENDBRANCH   1  11
TORSDOF 15
ENDMDL
