MODEL 1
REMARK VINA RESULT:    -6.428      0.000      0.000
REMARK INTER + INTRA:         -21.042
REMARK INTER:                 -15.258
REMARK INTRA:                  -5.784
REMARK UNBOUND:                -5.784
REMARK SMILES O=C(OC[C@H]1O[C@H](OC(=O)c2cc(O)c(O)c(O)c2)[C@H](OC(=O)c2cc(O)c(O)c(O)c2)[C@@H](OC(=O)c2cc(O)c(O)c(O)c2)[C@H]1OC(=O)c1cc(O)c(O)c(O)c1)c1cc(O)c(O)c(O)c1
REMARK SMILES IDX 5 1 46 2 33 3 20 4 7 5 6 6 4 7 3 8 2 9 1 10 59 11 60 12
REMARK SMILES IDX 61 13 67 14 63 15 65 16 62 17 64 19 66 21 47 23 48 24 49 25
REMARK SMILES IDX 50 26 58 27 51 28 56 29 52 30 54 31 57 32 53 34 55 36 34 38
REMARK SMILES IDX 35 39 36 40 37 41 45 42 38 43 43 44 39 45 41 46 44 47 40 49
REMARK SMILES IDX 42 51 8 53 9 54 10 55 11 56 19 57 12 58 17 59 13 60 15 61
REMARK SMILES IDX 18 62 14 64 16 66 21 68 22 69 23 70 24 71 32 72 25 73 30 74
REMARK SMILES IDX 26 75 28 76 31 77 27 79 29 81
REMARK H PARENT 62 18 64 20 66 22 57 33 53 35 55 37 44 48 40 50 42 52 18 63
REMARK H PARENT 14 65 16 67 31 78 27 80 29 82
REMARK Flexibility Score: inf
ROOT
ATOM      1  C   UNL     1      12.995  22.286  49.472  1.00  0.00     0.205 C 
ATOM      2  C   UNL     1      13.897  22.648  50.666  1.00  0.00     0.254 C 
ATOM      3  C   UNL     1      14.644  23.936  50.305  1.00  0.00     0.267 C 
ATOM      4  C   UNL     1      13.630  25.045  49.969  1.00  0.00     0.290 C 
ATOM      5  C   UNL     1      12.642  24.536  48.894  1.00  0.00     0.357 C 
ATOM      6  O   UNL     1      12.029  23.307  49.264  1.00  0.00    -0.329 OA
ENDROOT
BRANCH   1   7
ATOM      7  C   UNL     1      12.274  20.940  49.670  1.00  0.00     0.269 C 
BRANCH   7   8
ATOM      8  O   UNL     1      13.205  19.875  49.512  1.00  0.00    -0.459 OA
BRANCH   8   9
ATOM      9  C   UNL     1      13.199  19.032  48.392  1.00  0.00     0.338 C 
ATOM     10  O   UNL     1      12.246  18.219  48.220  1.00  0.00    -0.246 OA
BRANCH   9  11
ATOM     11  C   UNL     1      14.322  19.073  47.432  1.00  0.00     0.067 A 
ATOM     12  C   UNL     1      14.080  19.308  46.072  1.00  0.00     0.066 A 
ATOM     13  C   UNL     1      15.125  19.298  45.144  1.00  0.00     0.162 A 
ATOM     14  C   UNL     1      15.641  18.833  47.866  1.00  0.00     0.066 A 
ATOM     15  C   UNL     1      16.443  19.020  45.575  1.00  0.00     0.200 A 
ATOM     16  C   UNL     1      16.692  18.795  46.942  1.00  0.00     0.162 A 
BRANCH  13  17
ATOM     17  O   UNL     1      14.811  19.579  43.814  1.00  0.00    -0.504 OA
ATOM     18  H   UNL     1      14.126  20.260  43.535  1.00  0.00     0.293 HD
ENDBRANCH  13  17
BRANCH  15  19
ATOM     19  O   UNL     1      17.517  18.955  44.682  1.00  0.00    -0.502 OA
ATOM     20  H   UNL     1      17.993  19.759  44.301  1.00  0.00     0.293 HD
ENDBRANCH  15  19
BRANCH  16  21
ATOM     21  O   UNL     1      17.980  18.527  47.406  1.00  0.00    -0.504 OA
ATOM     22  H   UNL     1      18.521  19.215  47.915  1.00  0.00     0.293 HD
ENDBRANCH  16  21
ENDBRANCH   9  11
ENDBRANCH   8   9
ENDBRANCH   7   8
ENDBRANCH   1   7
BRANCH   2  23
ATOM     23  O   UNL     1      13.105  22.882  51.832  1.00  0.00    -0.452 OA
BRANCH  23  24
ATOM     24  C   UNL     1      13.282  22.215  53.052  1.00  0.00     0.338 C 
ATOM     25  O   UNL     1      12.444  22.369  53.977  1.00  0.00    -0.246 OA
BRANCH  24  26
ATOM     26  C   UNL     1      14.447  21.321  53.231  1.00  0.00     0.067 A 
ATOM     27  C   UNL     1      15.477  21.649  54.132  1.00  0.00     0.066 A 
ATOM     28  C   UNL     1      14.564  20.154  52.458  1.00  0.00     0.066 A 
ATOM     29  C   UNL     1      16.613  20.831  54.247  1.00  0.00     0.162 A 
ATOM     30  C   UNL     1      15.688  19.331  52.577  1.00  0.00     0.162 A 
ATOM     31  C   UNL     1      16.718  19.666  53.469  1.00  0.00     0.200 A 
BRANCH  29  32
ATOM     32  O   UNL     1      17.638  21.175  55.125  1.00  0.00    -0.504 OA
ATOM     33  H   UNL     1      17.862  22.143  55.324  1.00  0.00     0.293 HD
ENDBRANCH  29  32
BRANCH  30  34
ATOM     34  O   UNL     1      15.768  18.184  51.791  1.00  0.00    -0.504 OA
ATOM     35  H   UNL     1      16.410  17.427  52.004  1.00  0.00     0.293 HD
ENDBRANCH  30  34
BRANCH  31  36
ATOM     36  O   UNL     1      17.835  18.838  53.562  1.00  0.00    -0.502 OA
ATOM     37  H   UNL     1      18.286  18.444  52.747  1.00  0.00     0.293 HD
ENDBRANCH  31  36
ENDBRANCH  24  26
ENDBRANCH  23  24
ENDBRANCH   2  23
BRANCH   3  38
ATOM     38  O   UNL     1      15.505  24.328  51.373  1.00  0.00    -0.450 OA
BRANCH  38  39
ATOM     39  C   UNL     1      16.777  23.770  51.562  1.00  0.00     0.338 C 
ATOM     40  O   UNL     1      17.096  22.708  50.960  1.00  0.00    -0.246 OA
BRANCH  39  41
ATOM     41  C   UNL     1      17.756  24.434  52.451  1.00  0.00     0.067 A 
ATOM     42  C   UNL     1      17.846  25.836  52.487  1.00  0.00     0.066 A 
ATOM     43  C   UNL     1      18.604  23.671  53.270  1.00  0.00     0.066 A 
ATOM     44  C   UNL     1      18.769  26.468  53.324  1.00  0.00     0.162 A 
ATOM     45  C   UNL     1      19.535  24.291  54.109  1.00  0.00     0.162 A 
ATOM     46  C   UNL     1      19.629  25.707  54.131  1.00  0.00     0.200 A 
BRANCH  44  47
ATOM     47  O   UNL     1      18.834  27.862  53.356  1.00  0.00    -0.504 OA
ATOM     48  H   UNL     1      18.049  28.426  53.673  1.00  0.00     0.293 HD
ENDBRANCH  44  47
BRANCH  45  49
ATOM     49  O   UNL     1      20.344  23.468  54.894  1.00  0.00    -0.504 OA
ATOM     50  H   UNL     1      20.989  23.809  55.592  1.00  0.00     0.293 HD
ENDBRANCH  45  49
BRANCH  46  51
ATOM     51  O   UNL     1      20.552  26.391  54.927  1.00  0.00    -0.502 OA
ATOM     52  H   UNL     1      21.523  26.529  54.669  1.00  0.00     0.293 HD
ENDBRANCH  46  51
ENDBRANCH  39  41
ENDBRANCH  38  39
ENDBRANCH   3  38
BRANCH   5  53
ATOM     53  O   UNL     1      13.295  24.421  47.631  1.00  0.00    -0.428 OA
BRANCH  53  54
ATOM     54  C   UNL     1      12.779  24.957  46.447  1.00  0.00     0.340 C 
ATOM     55  O   UNL     1      12.135  26.037  46.459  1.00  0.00    -0.246 OA
BRANCH  54  56
ATOM     56  C   UNL     1      13.002  24.248  45.177  1.00  0.00     0.067 A 
ATOM     57  C   UNL     1      13.725  24.847  44.138  1.00  0.00     0.066 A 
ATOM     58  C   UNL     1      12.500  22.953  45.004  1.00  0.00     0.066 A 
ATOM     59  C   UNL     1      13.980  24.157  42.945  1.00  0.00     0.162 A 
ATOM     60  C   UNL     1      12.717  22.258  43.813  1.00  0.00     0.162 A 
ATOM     61  C   UNL     1      13.472  22.844  42.776  1.00  0.00     0.200 A 
BRANCH  59  62
ATOM     62  O   UNL     1      14.739  24.813  41.971  1.00  0.00    -0.504 OA
ATOM     63  H   UNL     1      15.656  25.211  42.140  1.00  0.00     0.293 HD
ENDBRANCH  59  62
BRANCH  60  64
ATOM     64  O   UNL     1      12.164  20.985  43.677  1.00  0.00    -0.504 OA
ATOM     65  H   UNL     1      12.329  20.413  42.854  1.00  0.00     0.293 HD
ENDBRANCH  60  64
BRANCH  61  66
ATOM     66  O   UNL     1      13.700  22.100  41.609  1.00  0.00    -0.502 OA
ATOM     67  H   UNL     1      13.493  21.115  41.514  1.00  0.00     0.293 HD
ENDBRANCH  61  66
ENDBRANCH  54  56
ENDBRANCH  53  54
ENDBRANCH   5  53
BRANCH   4  68
ATOM     68  O   UNL     1      14.306  26.187  49.447  1.00  0.00    -0.448 OA
BRANCH  68  69
ATOM     69  C   UNL     1      13.984  27.508  49.772  1.00  0.00     0.339 C 
ATOM     70  O   UNL     1      13.167  28.157  49.061  1.00  0.00    -0.246 OA
BRANCH  69  71
ATOM     71  C   UNL     1      14.619  28.145  50.945  1.00  0.00     0.067 A 
ATOM     72  C   UNL     1      14.120  27.936  52.236  1.00  0.00     0.066 A 
ATOM     73  C   UNL     1      15.745  28.967  50.778  1.00  0.00     0.066 A 
ATOM     74  C   UNL     1      14.739  28.524  53.349  1.00  0.00     0.162 A 
ATOM     75  C   UNL     1      16.372  29.555  51.880  1.00  0.00     0.162 A 
ATOM     76  C   UNL     1      15.872  29.335  53.172  1.00  0.00     0.200 A 
BRANCH  74  77
ATOM     77  O   UNL     1      14.239  28.297  54.632  1.00  0.00    -0.504 OA
ATOM     78  H   UNL     1      14.624  27.574  55.231  1.00  0.00     0.293 HD
ENDBRANCH  74  77
BRANCH  75  79
ATOM     79  O   UNL     1      17.496  30.356  51.673  1.00  0.00    -0.504 OA
ATOM     80  H   UNL     1      17.594  31.270  52.093  1.00  0.00     0.293 HD
ENDBRANCH  75  79
BRANCH  76  81
ATOM     81  O   UNL     1      16.503  29.926  54.268  1.00  0.00    -0.502 OA
ATOM     82  H   UNL     1      16.147  29.846  55.209  1.00  0.00     0.293 HD
ENDBRANCH  76  81
ENDBRANCH  69  71
ENDBRANCH  68  69
ENDBRANCH   4  68
TORSDOF 31
ENDMDL
MODEL 2
REMARK VINA RESULT:    -6.257      1.660      2.482
REMARK INTER + INTRA:         -20.636
REMARK INTER:                 -15.295
REMARK INTRA:                  -5.341
REMARK UNBOUND:                -5.784
REMARK SMILES O=C(OC[C@H]1O[C@H](OC(=O)c2cc(O)c(O)c(O)c2)[C@H](OC(=O)c2cc(O)c(O)c(O)c2)[C@@H](OC(=O)c2cc(O)c(O)c(O)c2)[C@H]1OC(=O)c1cc(O)c(O)c(O)c1)c1cc(O)c(O)c(O)c1
REMARK SMILES IDX 5 1 46 2 33 3 20 4 7 5 6 6 4 7 3 8 2 9 1 10 59 11 60 12
REMARK SMILES IDX 61 13 67 14 63 15 65 16 62 17 64 19 66 21 47 23 48 24 49 25
REMARK SMILES IDX 50 26 58 27 51 28 56 29 52 30 54 31 57 32 53 34 55 36 34 38
REMARK SMILES IDX 35 39 36 40 37 41 45 42 38 43 43 44 39 45 41 46 44 47 40 49
REMARK SMILES IDX 42 51 8 53 9 54 10 55 11 56 19 57 12 58 17 59 13 60 15 61
REMARK SMILES IDX 18 62 14 64 16 66 21 68 22 69 23 70 24 71 32 72 25 73 30 74
REMARK SMILES IDX 26 75 28 76 31 77 27 79 29 81
REMARK H PARENT 62 18 64 20 66 22 57 33 53 35 55 37 44 48 40 50 42 52 18 63
REMARK H PARENT 14 65 16 67 31 78 27 80 29 82
REMARK Flexibility Score: inf
ROOT
ATOM      1  C   UNL     1      12.983  21.026  47.855  1.00  0.00     0.205 C 
ATOM      2  C   UNL     1      13.723  21.263  49.184  1.00  0.00     0.254 C 
ATOM      3  C   UNL     1      14.363  22.653  49.111  1.00  0.00     0.267 C 
ATOM      4  C   UNL     1      13.276  23.710  48.840  1.00  0.00     0.290 C 
ATOM      5  C   UNL     1      12.455  23.301  47.596  1.00  0.00     0.357 C 
ATOM      6  O   UNL     1      11.940  21.979  47.700  1.00  0.00    -0.329 OA
ENDROOT
BRANCH   1   7
ATOM      7  C   UNL     1      12.389  19.608  47.761  1.00  0.00     0.269 C 
BRANCH   7   8
ATOM      8  O   UNL     1      13.037  18.890  46.715  1.00  0.00    -0.459 OA
BRANCH   8   9
ATOM      9  C   UNL     1      13.211  19.428  45.432  1.00  0.00     0.338 C 
ATOM     10  O   UNL     1      12.206  19.624  44.690  1.00  0.00    -0.246 OA
BRANCH   9  11
ATOM     11  C   UNL     1      14.569  19.733  44.937  1.00  0.00     0.067 A 
ATOM     12  C   UNL     1      14.819  20.930  44.252  1.00  0.00     0.066 A 
ATOM     13  C   UNL     1      16.086  21.209  43.733  1.00  0.00     0.162 A 
ATOM     14  C   UNL     1      15.617  18.806  45.109  1.00  0.00     0.066 A 
ATOM     15  C   UNL     1      17.127  20.261  43.874  1.00  0.00     0.200 A 
ATOM     16  C   UNL     1      16.883  19.064  44.571  1.00  0.00     0.162 A 
BRANCH  13  17
ATOM     17  O   UNL     1      16.267  22.438  43.098  1.00  0.00    -0.504 OA
ATOM     18  H   UNL     1      15.544  23.131  43.007  1.00  0.00     0.293 HD
ENDBRANCH  13  17
BRANCH  15  19
ATOM     19  O   UNL     1      18.400  20.473  43.336  1.00  0.00    -0.502 OA
ATOM     20  H   UNL     1      19.092  21.090  43.732  1.00  0.00     0.293 HD
ENDBRANCH  15  19
BRANCH  16  21
ATOM     21  O   UNL     1      17.887  18.110  44.739  1.00  0.00    -0.504 OA
ATOM     22  H   UNL     1      18.269  17.887  45.649  1.00  0.00     0.293 HD
ENDBRANCH  16  21
ENDBRANCH   9  11
ENDBRANCH   8   9
ENDBRANCH   7   8
ENDBRANCH   1   7
BRANCH   2  23
ATOM     23  O   UNL     1      12.802  21.233  50.276  1.00  0.00    -0.452 OA
BRANCH  23  24
ATOM     24  C   UNL     1      13.125  20.790  51.566  1.00  0.00     0.338 C 
ATOM     25  O   UNL     1      12.845  21.506  52.562  1.00  0.00    -0.246 OA
BRANCH  24  26
ATOM     26  C   UNL     1      13.776  19.473  51.743  1.00  0.00     0.067 A 
ATOM     27  C   UNL     1      14.980  19.355  52.462  1.00  0.00     0.066 A 
ATOM     28  C   UNL     1      13.224  18.329  51.144  1.00  0.00     0.066 A 
ATOM     29  C   UNL     1      15.630  18.114  52.568  1.00  0.00     0.162 A 
ATOM     30  C   UNL     1      13.862  17.090  51.256  1.00  0.00     0.162 A 
ATOM     31  C   UNL     1      15.067  16.977  51.966  1.00  0.00     0.200 A 
BRANCH  29  32
ATOM     32  O   UNL     1      16.832  18.009  53.263  1.00  0.00    -0.504 OA
ATOM     33  H   UNL     1      16.972  18.477  54.151  1.00  0.00     0.293 HD
ENDBRANCH  29  32
BRANCH  30  34
ATOM     34  O   UNL     1      13.284  15.979  50.646  1.00  0.00    -0.504 OA
ATOM     35  H   UNL     1      13.691  15.051  50.717  1.00  0.00     0.293 HD
ENDBRANCH  30  34
BRANCH  31  36
ATOM     36  O   UNL     1      15.691  15.734  52.054  1.00  0.00    -0.502 OA
ATOM     37  H   UNL     1      16.698  15.634  52.078  1.00  0.00     0.293 HD
ENDBRANCH  31  36
ENDBRANCH  24  26
ENDBRANCH  23  24
ENDBRANCH   2  23
BRANCH   3  38
ATOM     38  O   UNL     1      15.072  22.939  50.316  1.00  0.00    -0.450 OA
BRANCH  38  39
ATOM     39  C   UNL     1      16.275  22.303  50.653  1.00  0.00     0.338 C 
ATOM     40  O   UNL     1      16.646  21.277  50.020  1.00  0.00    -0.246 OA
BRANCH  39  41
ATOM     41  C   UNL     1      17.124  22.845  51.737  1.00  0.00     0.067 A 
ATOM     42  C   UNL     1      17.377  24.225  51.819  1.00  0.00     0.066 A 
ATOM     43  C   UNL     1      17.683  21.987  52.698  1.00  0.00     0.066 A 
ATOM     44  C   UNL     1      18.179  24.741  52.841  1.00  0.00     0.162 A 
ATOM     45  C   UNL     1      18.491  22.490  53.723  1.00  0.00     0.162 A 
ATOM     46  C   UNL     1      18.752  23.883  53.793  1.00  0.00     0.200 A 
BRANCH  44  47
ATOM     47  O   UNL     1      18.407  26.117  52.913  1.00  0.00    -0.504 OA
ATOM     48  H   UNL     1      17.644  26.780  53.026  1.00  0.00     0.293 HD
ENDBRANCH  44  47
BRANCH  45  49
ATOM     49  O   UNL     1      19.011  21.578  54.641  1.00  0.00    -0.504 OA
ATOM     50  H   UNL     1      19.630  20.819  54.396  1.00  0.00     0.293 HD
ENDBRANCH  45  49
BRANCH  46  51
ATOM     51  O   UNL     1      19.568  24.452  54.775  1.00  0.00    -0.502 OA
ATOM     52  H   UNL     1      20.415  24.017  55.123  1.00  0.00     0.293 HD
ENDBRANCH  46  51
ENDBRANCH  39  41
ENDBRANCH  38  39
ENDBRANCH   3  38
BRANCH   5  53
ATOM     53  O   UNL     1      13.235  23.452  46.411  1.00  0.00    -0.428 OA
BRANCH  53  54
ATOM     54  C   UNL     1      12.942  24.385  45.411  1.00  0.00     0.340 C 
ATOM     55  O   UNL     1      12.643  25.571  45.707  1.00  0.00    -0.246 OA
BRANCH  54  56
ATOM     56  C   UNL     1      12.992  23.971  44.000  1.00  0.00     0.067 A 
ATOM     57  C   UNL     1      12.457  22.742  43.594  1.00  0.00     0.066 A 
ATOM     58  C   UNL     1      13.567  24.816  43.044  1.00  0.00     0.066 A 
ATOM     59  C   UNL     1      12.460  22.364  42.245  1.00  0.00     0.162 A 
ATOM     60  C   UNL     1      13.608  24.447  41.699  1.00  0.00     0.162 A 
ATOM     61  C   UNL     1      13.041  23.226  41.280  1.00  0.00     0.200 A 
BRANCH  59  62
ATOM     62  O   UNL     1      11.875  21.137  41.917  1.00  0.00    -0.504 OA
ATOM     63  H   UNL     1      12.187  20.546  41.155  1.00  0.00     0.293 HD
ENDBRANCH  59  62
BRANCH  60  64
ATOM     64  O   UNL     1      14.225  25.309  40.792  1.00  0.00    -0.504 OA
ATOM     65  H   UNL     1      14.212  25.135  39.792  1.00  0.00     0.293 HD
ENDBRANCH  60  64
BRANCH  61  66
ATOM     66  O   UNL     1      13.068  22.907  39.914  1.00  0.00    -0.502 OA
ATOM     67  H   UNL     1      13.419  23.524  39.194  1.00  0.00     0.293 HD
ENDBRANCH  61  66
ENDBRANCH  54  56
ENDBRANCH  53  54
ENDBRANCH   5  53
BRANCH   4  68
ATOM     68  O   UNL     1      13.877  24.977  48.578  1.00  0.00    -0.448 OA
BRANCH  68  69
ATOM     69  C   UNL     1      13.449  26.182  49.144  1.00  0.00     0.339 C 
ATOM     70  O   UNL     1      12.295  26.629  48.891  1.00  0.00    -0.246 OA
BRANCH  69  71
ATOM     71  C   UNL     1      14.362  26.936  50.028  1.00  0.00     0.067 A 
ATOM     72  C   UNL     1      14.520  26.580  51.373  1.00  0.00     0.066 A 
ATOM     73  C   UNL     1      15.095  28.022  49.523  1.00  0.00     0.066 A 
ATOM     74  C   UNL     1      15.405  27.284  52.203  1.00  0.00     0.162 A 
ATOM     75  C   UNL     1      15.982  28.729  50.340  1.00  0.00     0.162 A 
ATOM     76  C   UNL     1      16.142  28.362  51.685  1.00  0.00     0.200 A 
BRANCH  74  77
ATOM     77  O   UNL     1      15.563  26.911  53.538  1.00  0.00    -0.504 OA
ATOM     78  H   UNL     1      15.657  25.938  53.809  1.00  0.00     0.293 HD
ENDBRANCH  74  77
BRANCH  75  79
ATOM     79  O   UNL     1      16.701  29.795  49.797  1.00  0.00    -0.504 OA
ATOM     80  H   UNL     1      16.937  30.618  50.335  1.00  0.00     0.293 HD
ENDBRANCH  75  79
BRANCH  76  81
ATOM     81  O   UNL     1      17.030  29.073  52.495  1.00  0.00    -0.502 OA
ATOM     82  H   UNL     1      17.062  28.959  53.496  1.00  0.00     0.293 HD
ENDBRANCH  76  81
ENDBRANCH  69  71
ENDBRANCH  68  69
ENDBRANCH   4  68
TORSDOF 31
ENDMDL
MODEL 3
REMARK VINA RESULT:    -6.122      1.668      6.376
REMARK INTER + INTRA:         -20.316
REMARK INTER:                 -15.431
REMARK INTRA:                  -4.885
REMARK UNBOUND:                -5.784
REMARK SMILES O=C(OC[C@H]1O[C@H](OC(=O)c2cc(O)c(O)c(O)c2)[C@H](OC(=O)c2cc(O)c(O)c(O)c2)[C@@H](OC(=O)c2cc(O)c(O)c(O)c2)[C@H]1OC(=O)c1cc(O)c(O)c(O)c1)c1cc(O)c(O)c(O)c1
REMARK SMILES IDX 5 1 46 2 33 3 20 4 7 5 6 6 4 7 3 8 2 9 1 10 59 11 60 12
REMARK SMILES IDX 61 13 67 14 63 15 65 16 62 17 64 19 66 21 47 23 48 24 49 25
REMARK SMILES IDX 50 26 58 27 51 28 56 29 52 30 54 31 57 32 53 34 55 36 34 38
REMARK SMILES IDX 35 39 36 40 37 41 45 42 38 43 43 44 39 45 41 46 44 47 40 49
REMARK SMILES IDX 42 51 8 53 9 54 10 55 11 56 19 57 12 58 17 59 13 60 15 61
REMARK SMILES IDX 18 62 14 64 16 66 21 68 22 69 23 70 24 71 32 72 25 73 30 74
REMARK SMILES IDX 26 75 28 76 31 77 27 79 29 81
REMARK H PARENT 62 18 64 20 66 22 57 33 53 35 55 37 44 48 40 50 42 52 18 63
REMARK H PARENT 14 65 16 67 31 78 27 80 29 82
REMARK Flexibility Score: inf
ROOT
ATOM      1  C   UNL     1      13.709  23.135  48.009  1.00  0.00     0.205 C 
ATOM      2  C   UNL     1      14.163  22.190  49.137  1.00  0.00     0.254 C 
ATOM      3  C   UNL     1      14.798  23.054  50.233  1.00  0.00     0.267 C 
ATOM      4  C   UNL     1      13.783  24.107  50.713  1.00  0.00     0.290 C 
ATOM      5  C   UNL     1      13.232  24.889  49.498  1.00  0.00     0.357 C 
ATOM      6  O   UNL     1      12.714  24.028  48.492  1.00  0.00    -0.329 OA
ENDROOT
BRANCH   1   7
ATOM      7  C   UNL     1      13.155  22.371  46.793  1.00  0.00     0.269 C 
BRANCH   7   8
ATOM      8  O   UNL     1      13.526  23.049  45.597  1.00  0.00    -0.459 OA
BRANCH   8   9
ATOM      9  C   UNL     1      13.683  22.381  44.374  1.00  0.00     0.338 C 
ATOM     10  O   UNL     1      12.665  22.071  43.691  1.00  0.00    -0.246 OA
BRANCH   9  11
ATOM     11  C   UNL     1      15.034  22.012  43.903  1.00  0.00     0.067 A 
ATOM     12  C   UNL     1      15.607  20.792  44.285  1.00  0.00     0.066 A 
ATOM     13  C   UNL     1      16.903  20.453  43.890  1.00  0.00     0.162 A 
ATOM     14  C   UNL     1      15.777  22.901  43.100  1.00  0.00     0.066 A 
ATOM     15  C   UNL     1      17.662  21.361  43.116  1.00  0.00     0.200 A 
ATOM     16  C   UNL     1      17.086  22.582  42.720  1.00  0.00     0.162 A 
BRANCH  13  17
ATOM     17  O   UNL     1      17.391  19.204  44.278  1.00  0.00    -0.504 OA
ATOM     18  H   UNL     1      17.218  18.355  43.767  1.00  0.00     0.293 HD
ENDBRANCH  13  17
BRANCH  15  19
ATOM     19  O   UNL     1      18.978  21.089  42.731  1.00  0.00    -0.502 OA
ATOM     20  H   UNL     1      19.744  21.739  42.814  1.00  0.00     0.293 HD
ENDBRANCH  15  19
BRANCH  16  21
ATOM     21  O   UNL     1      17.800  23.500  41.948  1.00  0.00    -0.504 OA
ATOM     22  H   UNL     1      17.434  24.419  41.732  1.00  0.00     0.293 HD
ENDBRANCH  16  21
ENDBRANCH   9  11
ENDBRANCH   8   9
ENDBRANCH   7   8
ENDBRANCH   1   7
BRANCH   2  23
ATOM     23  O   UNL     1      13.041  21.497  49.684  1.00  0.00    -0.452 OA
BRANCH  23  24
ATOM     24  C   UNL     1      12.871  20.106  49.631  1.00  0.00     0.338 C 
ATOM     25  O   UNL     1      12.140  19.532  50.478  1.00  0.00    -0.246 OA
BRANCH  24  26
ATOM     26  C   UNL     1      13.540  19.331  48.563  1.00  0.00     0.067 A 
ATOM     27  C   UNL     1      14.931  19.423  48.368  1.00  0.00     0.066 A 
ATOM     28  C   UNL     1      12.781  18.533  47.691  1.00  0.00     0.066 A 
ATOM     29  C   UNL     1      15.551  18.739  47.309  1.00  0.00     0.162 A 
ATOM     30  C   UNL     1      13.396  17.842  46.642  1.00  0.00     0.162 A 
ATOM     31  C   UNL     1      14.781  17.943  46.445  1.00  0.00     0.200 A 
BRANCH  29  32
ATOM     32  O   UNL     1      16.925  18.852  47.111  1.00  0.00    -0.504 OA
ATOM     33  H   UNL     1      17.544  18.059  47.234  1.00  0.00     0.293 HD
ENDBRANCH  29  32
BRANCH  30  34
ATOM     34  O   UNL     1      12.608  17.063  45.798  1.00  0.00    -0.504 OA
ATOM     35  H   UNL     1      11.666  17.337  45.533  1.00  0.00     0.293 HD
ENDBRANCH  30  34
BRANCH  31  36
ATOM     36  O   UNL     1      15.370  17.255  45.386  1.00  0.00    -0.502 OA
ATOM     37  H   UNL     1      15.207  17.506  44.420  1.00  0.00     0.293 HD
ENDBRANCH  31  36
ENDBRANCH  24  26
ENDBRANCH  23  24
ENDBRANCH   2  23
BRANCH   3  38
ATOM     38  O   UNL     1      15.246  22.237  51.313  1.00  0.00    -0.450 OA
BRANCH  38  39
ATOM     39  C   UNL     1      16.250  21.269  51.163  1.00  0.00     0.338 C 
ATOM     40  O   UNL     1      17.101  21.381  50.240  1.00  0.00    -0.246 OA
BRANCH  39  41
ATOM     41  C   UNL     1      16.326  20.126  52.099  1.00  0.00     0.067 A 
ATOM     42  C   UNL     1      17.264  20.127  53.147  1.00  0.00     0.066 A 
ATOM     43  C   UNL     1      15.461  19.030  51.953  1.00  0.00     0.066 A 
ATOM     44  C   UNL     1      17.340  19.049  54.032  1.00  0.00     0.162 A 
ATOM     45  C   UNL     1      15.530  17.943  52.830  1.00  0.00     0.162 A 
ATOM     46  C   UNL     1      16.487  17.944  53.878  1.00  0.00     0.200 A 
BRANCH  44  47
ATOM     47  O   UNL     1      18.269  19.074  55.075  1.00  0.00    -0.504 OA
ATOM     48  H   UNL     1      18.168  19.707  55.864  1.00  0.00     0.293 HD
ENDBRANCH  44  47
BRANCH  45  49
ATOM     49  O   UNL     1      14.640  16.889  52.624  1.00  0.00    -0.504 OA
ATOM     50  H   UNL     1      14.730  16.208  51.883  1.00  0.00     0.293 HD
ENDBRANCH  45  49
BRANCH  46  51
ATOM     51  O   UNL     1      16.628  16.882  54.776  1.00  0.00    -0.502 OA
ATOM     52  H   UNL     1      15.954  16.130  54.867  1.00  0.00     0.293 HD
ENDBRANCH  46  51
ENDBRANCH  39  41
ENDBRANCH  38  39
ENDBRANCH   3  38
BRANCH   5  53
ATOM     53  O   UNL     1      14.236  25.751  48.964  1.00  0.00    -0.428 OA
BRANCH  53  54
ATOM     54  C   UNL     1      14.120  27.146  48.944  1.00  0.00     0.340 C 
ATOM     55  O   UNL     1      13.717  27.741  47.912  1.00  0.00    -0.246 OA
BRANCH  54  56
ATOM     56  C   UNL     1      14.468  27.916  50.148  1.00  0.00     0.067 A 
ATOM     57  C   UNL     1      13.609  27.947  51.254  1.00  0.00     0.066 A 
ATOM     58  C   UNL     1      15.678  28.617  50.202  1.00  0.00     0.066 A 
ATOM     59  C   UNL     1      13.958  28.640  52.419  1.00  0.00     0.162 A 
ATOM     60  C   UNL     1      16.034  29.338  51.342  1.00  0.00     0.162 A 
ATOM     61  C   UNL     1      15.188  29.346  52.470  1.00  0.00     0.200 A 
BRANCH  59  62
ATOM     62  O   UNL     1      13.061  28.593  53.491  1.00  0.00    -0.504 OA
ATOM     63  H   UNL     1      12.850  29.384  54.089  1.00  0.00     0.293 HD
ENDBRANCH  59  62
BRANCH  60  64
ATOM     64  O   UNL     1      17.234  30.050  51.332  1.00  0.00    -0.504 OA
ATOM     65  H   UNL     1      17.307  30.985  51.719  1.00  0.00     0.293 HD
ENDBRANCH  60  64
BRANCH  61  66
ATOM     66  O   UNL     1      15.596  30.052  53.612  1.00  0.00    -0.502 OA
ATOM     67  H   UNL     1      15.845  31.032  53.614  1.00  0.00     0.293 HD
ENDBRANCH  61  66
ENDBRANCH  54  56
ENDBRANCH  53  54
ENDBRANCH   5  53
BRANCH   4  68
ATOM     68  O   UNL     1      14.417  25.037  51.590  1.00  0.00    -0.448 OA
BRANCH  68  69
ATOM     69  C   UNL     1      15.060  24.683  52.779  1.00  0.00     0.339 C 
ATOM     70  O   UNL     1      14.417  24.117  53.707  1.00  0.00    -0.246 OA
BRANCH  69  71
ATOM     71  C   UNL     1      16.496  24.989  52.949  1.00  0.00     0.067 A 
ATOM     72  C   UNL     1      17.446  23.963  53.038  1.00  0.00     0.066 A 
ATOM     73  C   UNL     1      16.931  26.323  53.015  1.00  0.00     0.066 A 
ATOM     74  C   UNL     1      18.811  24.258  53.177  1.00  0.00     0.162 A 
ATOM     75  C   UNL     1      18.288  26.628  53.150  1.00  0.00     0.162 A 
ATOM     76  C   UNL     1      19.235  25.596  53.230  1.00  0.00     0.200 A 
BRANCH  74  77
ATOM     77  O   UNL     1      19.748  23.227  53.251  1.00  0.00    -0.504 OA
ATOM     78  H   UNL     1      20.663  23.372  53.665  1.00  0.00     0.293 HD
ENDBRANCH  74  77
BRANCH  75  79
ATOM     79  O   UNL     1      18.679  27.967  53.199  1.00  0.00    -0.504 OA
ATOM     80  H   UNL     1      19.336  28.314  53.885  1.00  0.00     0.293 HD
ENDBRANCH  75  79
BRANCH  76  81
ATOM     81  O   UNL     1      20.589  25.910  53.364  1.00  0.00    -0.502 OA
ATOM     82  H   UNL     1      21.228  25.339  53.896  1.00  0.00     0.293 HD
ENDBRANCH  76  81
ENDBRANCH  69  71
ENDBRANCH  68  69
ENDBRANCH   4  68
TORSDOF 31
ENDMDL
MODEL 4
REMARK VINA RESULT:    -5.879      1.537      2.555
REMARK INTER + INTRA:         -19.738
REMARK INTER:                 -14.692
REMARK INTRA:                  -5.046
REMARK UNBOUND:                -5.784
REMARK SMILES O=C(OC[C@H]1O[C@H](OC(=O)c2cc(O)c(O)c(O)c2)[C@H](OC(=O)c2cc(O)c(O)c(O)c2)[C@@H](OC(=O)c2cc(O)c(O)c(O)c2)[C@H]1OC(=O)c1cc(O)c(O)c(O)c1)c1cc(O)c(O)c(O)c1
REMARK SMILES IDX 5 1 46 2 33 3 20 4 7 5 6 6 4 7 3 8 2 9 1 10 59 11 60 12
REMARK SMILES IDX 61 13 67 14 63 15 65 16 62 17 64 19 66 21 47 23 48 24 49 25
REMARK SMILES IDX 50 26 58 27 51 28 56 29 52 30 54 31 57 32 53 34 55 36 34 38
REMARK SMILES IDX 35 39 36 40 37 41 45 42 38 43 43 44 39 45 41 46 44 47 40 49
REMARK SMILES IDX 42 51 8 53 9 54 10 55 11 56 19 57 12 58 17 59 13 60 15 61
REMARK SMILES IDX 18 62 14 64 16 66 21 68 22 69 23 70 24 71 32 72 25 73 30 74
REMARK SMILES IDX 26 75 28 76 31 77 27 79 29 81
REMARK H PARENT 62 18 64 20 66 22 57 33 53 35 55 37 44 48 40 50 42 52 18 63
REMARK H PARENT 14 65 16 67 31 78 27 80 29 82
REMARK Flexibility Score: inf
ROOT
ATOM      1  C   UNL     1      13.240  21.231  47.966  1.00  0.00     0.205 C 
ATOM      2  C   UNL     1      13.956  21.492  49.303  1.00  0.00     0.254 C 
ATOM      3  C   UNL     1      14.552  22.902  49.239  1.00  0.00     0.267 C 
ATOM      4  C   UNL     1      13.435  23.923  48.954  1.00  0.00     0.290 C 
ATOM      5  C   UNL     1      12.642  23.488  47.701  1.00  0.00     0.357 C 
ATOM      6  O   UNL     1      12.169  22.150  47.799  1.00  0.00    -0.329 OA
ENDROOT
BRANCH   1   7
ATOM      7  C   UNL     1      12.694  19.795  47.864  1.00  0.00     0.269 C 
BRANCH   7   8
ATOM      8  O   UNL     1      13.458  19.064  46.909  1.00  0.00    -0.459 OA
BRANCH   8   9
ATOM      9  C   UNL     1      13.488  19.408  45.551  1.00  0.00     0.338 C 
ATOM     10  O   UNL     1      12.414  19.437  44.884  1.00  0.00    -0.246 OA
BRANCH   9  11
ATOM     11  C   UNL     1      14.778  19.703  44.893  1.00  0.00     0.067 A 
ATOM     12  C   UNL     1      15.853  18.811  45.013  1.00  0.00     0.066 A 
ATOM     13  C   UNL     1      17.093  19.101  44.441  1.00  0.00     0.162 A 
ATOM     14  C   UNL     1      14.956  20.903  44.176  1.00  0.00     0.066 A 
ATOM     15  C   UNL     1      17.281  20.322  43.753  1.00  0.00     0.200 A 
ATOM     16  C   UNL     1      16.202  21.215  43.621  1.00  0.00     0.162 A 
BRANCH  13  17
ATOM     17  O   UNL     1      18.103  18.146  44.569  1.00  0.00    -0.504 OA
ATOM     18  H   UNL     1      18.830  18.193  45.263  1.00  0.00     0.293 HD
ENDBRANCH  13  17
BRANCH  15  19
ATOM     19  O   UNL     1      18.515  20.680  43.199  1.00  0.00    -0.502 OA
ATOM     20  H   UNL     1      19.183  20.025  42.824  1.00  0.00     0.293 HD
ENDBRANCH  15  19
BRANCH  16  21
ATOM     21  O   UNL     1      16.346  22.425  42.942  1.00  0.00    -0.504 OA
ATOM     22  H   UNL     1      15.727  22.695  42.187  1.00  0.00     0.293 HD
ENDBRANCH  16  21
ENDBRANCH   9  11
ENDBRANCH   8   9
ENDBRANCH   7   8
ENDBRANCH   1   7
BRANCH   2  23
ATOM     23  O   UNL     1      13.024  21.431  50.384  1.00  0.00    -0.452 OA
BRANCH  23  24
ATOM     24  C   UNL     1      13.356  21.044  51.690  1.00  0.00     0.338 C 
ATOM     25  O   UNL     1      12.974  21.741  52.665  1.00  0.00    -0.246 OA
BRANCH  24  26
ATOM     26  C   UNL     1      14.138  19.807  51.907  1.00  0.00     0.067 A 
ATOM     27  C   UNL     1      13.680  18.569  51.421  1.00  0.00     0.066 A 
ATOM     28  C   UNL     1      15.327  19.848  52.654  1.00  0.00     0.066 A 
ATOM     29  C   UNL     1      14.392  17.388  51.689  1.00  0.00     0.162 A 
ATOM     30  C   UNL     1      16.045  18.677  52.915  1.00  0.00     0.162 A 
ATOM     31  C   UNL     1      15.580  17.443  52.436  1.00  0.00     0.200 A 
BRANCH  29  32
ATOM     32  O   UNL     1      13.920  16.164  51.223  1.00  0.00    -0.504 OA
ATOM     33  H   UNL     1      14.239  15.287  51.619  1.00  0.00     0.293 HD
ENDBRANCH  29  32
BRANCH  30  34
ATOM     34  O   UNL     1      17.218  18.759  53.661  1.00  0.00    -0.504 OA
ATOM     35  H   UNL     1      17.241  18.552  54.655  1.00  0.00     0.293 HD
ENDBRANCH  30  34
BRANCH  31  36
ATOM     36  O   UNL     1      16.304  16.286  52.719  1.00  0.00    -0.502 OA
ATOM     37  H   UNL     1      15.866  15.446  53.073  1.00  0.00     0.293 HD
ENDBRANCH  31  36
ENDBRANCH  24  26
ENDBRANCH  23  24
ENDBRANCH   2  23
BRANCH   3  38
ATOM     38  O   UNL     1      15.236  23.209  50.453  1.00  0.00    -0.450 OA
BRANCH  38  39
ATOM     39  C   UNL     1      16.466  22.628  50.795  1.00  0.00     0.338 C 
ATOM     40  O   UNL     1      16.897  21.636  50.147  1.00  0.00    -0.246 OA
BRANCH  39  41
ATOM     41  C   UNL     1      17.271  23.189  51.902  1.00  0.00     0.067 A 
ATOM     42  C   UNL     1      17.335  24.579  52.101  1.00  0.00     0.066 A 
ATOM     43  C   UNL     1      17.976  22.339  52.769  1.00  0.00     0.066 A 
ATOM     44  C   UNL     1      18.095  25.114  53.144  1.00  0.00     0.162 A 
ATOM     45  C   UNL     1      18.744  22.861  53.815  1.00  0.00     0.162 A 
ATOM     46  C   UNL     1      18.814  24.267  54.002  1.00  0.00     0.200 A 
BRANCH  44  47
ATOM     47  O   UNL     1      18.135  26.497  53.333  1.00  0.00    -0.504 OA
ATOM     48  H   UNL     1      17.795  27.142  52.625  1.00  0.00     0.293 HD
ENDBRANCH  44  47
BRANCH  45  49
ATOM     49  O   UNL     1      19.418  21.956  54.635  1.00  0.00    -0.504 OA
ATOM     50  H   UNL     1      20.402  21.746  54.556  1.00  0.00     0.293 HD
ENDBRANCH  45  49
BRANCH  46  51
ATOM     51  O   UNL     1      19.579  24.858  55.011  1.00  0.00    -0.502 OA
ATOM     52  H   UNL     1      20.471  24.493  55.326  1.00  0.00     0.293 HD
ENDBRANCH  46  51
ENDBRANCH  39  41
ENDBRANCH  38  39
ENDBRANCH   3  38
BRANCH   5  53
ATOM     53  O   UNL     1      13.431  23.665  46.525  1.00  0.00    -0.428 OA
BRANCH  53  54
ATOM     54  C   UNL     1      13.063  24.510  45.472  1.00  0.00     0.340 C 
ATOM     55  O   UNL     1      12.772  25.714  45.687  1.00  0.00    -0.246 OA
BRANCH  54  56
ATOM     56  C   UNL     1      13.025  23.978  44.100  1.00  0.00     0.067 A 
ATOM     57  C   UNL     1      13.537  24.720  43.029  1.00  0.00     0.066 A 
ATOM     58  C   UNL     1      12.485  22.709  43.859  1.00  0.00     0.066 A 
ATOM     59  C   UNL     1      13.546  24.198  41.729  1.00  0.00     0.162 A 
ATOM     60  C   UNL     1      12.457  22.181  42.568  1.00  0.00     0.162 A 
ATOM     61  C   UNL     1      13.001  22.910  41.490  1.00  0.00     0.200 A 
BRANCH  59  62
ATOM     62  O   UNL     1      14.107  24.988  40.720  1.00  0.00    -0.504 OA
ATOM     63  H   UNL     1      13.648  25.192  39.840  1.00  0.00     0.293 HD
ENDBRANCH  59  62
BRANCH  60  64
ATOM     64  O   UNL     1      11.875  20.928  42.374  1.00  0.00    -0.504 OA
ATOM     65  H   UNL     1      12.175  20.111  42.896  1.00  0.00     0.293 HD
ENDBRANCH  60  64
BRANCH  61  66
ATOM     66  O   UNL     1      12.989  22.331  40.213  1.00  0.00    -0.502 OA
ATOM     67  H   UNL     1      13.801  21.929  39.764  1.00  0.00     0.293 HD
ENDBRANCH  61  66
ENDBRANCH  54  56
ENDBRANCH  53  54
ENDBRANCH   5  53
BRANCH   4  68
ATOM     68  O   UNL     1      13.997  25.209  48.701  1.00  0.00    -0.448 OA
BRANCH  68  69
ATOM     69  C   UNL     1      13.382  26.417  49.042  1.00  0.00     0.339 C 
ATOM     70  O   UNL     1      12.418  26.857  48.355  1.00  0.00    -0.246 OA
BRANCH  69  71
ATOM     71  C   UNL     1      13.878  27.184  50.204  1.00  0.00     0.067 A 
ATOM     72  C   UNL     1      15.249  27.400  50.393  1.00  0.00     0.066 A 
ATOM     73  C   UNL     1      12.973  27.716  51.137  1.00  0.00     0.066 A 
ATOM     74  C   UNL     1      15.715  28.147  51.485  1.00  0.00     0.162 A 
ATOM     75  C   UNL     1      13.426  28.465  52.227  1.00  0.00     0.162 A 
ATOM     76  C   UNL     1      14.800  28.685  52.405  1.00  0.00     0.200 A 
BRANCH  74  77
ATOM     77  O   UNL     1      17.082  28.365  51.654  1.00  0.00    -0.504 OA
ATOM     78  H   UNL     1      17.539  29.187  51.271  1.00  0.00     0.293 HD
ENDBRANCH  74  77
BRANCH  75  79
ATOM     79  O   UNL     1      12.493  28.988  53.124  1.00  0.00    -0.504 OA
ATOM     80  H   UNL     1      12.045  29.882  52.978  1.00  0.00     0.293 HD
ENDBRANCH  75  79
BRANCH  76  81
ATOM     81  O   UNL     1      15.244  29.434  53.497  1.00  0.00    -0.502 OA
ATOM     82  H   UNL     1      16.209  29.704  53.613  1.00  0.00     0.293 HD
ENDBRANCH  76  81
ENDBRANCH  69  71
ENDBRANCH  68  69
ENDBRANCH   4  68
TORSDOF 31
ENDMDL
MODEL 5
REMARK VINA RESULT:    -5.673      1.732      6.625
REMARK INTER + INTRA:         -19.252
REMARK INTER:                 -13.971
REMARK INTRA:                  -5.280
REMARK UNBOUND:                -5.784
REMARK SMILES O=C(OC[C@H]1O[C@H](OC(=O)c2cc(O)c(O)c(O)c2)[C@H](OC(=O)c2cc(O)c(O)c(O)c2)[C@@H](OC(=O)c2cc(O)c(O)c(O)c2)[C@H]1OC(=O)c1cc(O)c(O)c(O)c1)c1cc(O)c(O)c(O)c1
REMARK SMILES IDX 5 1 46 2 33 3 20 4 7 5 6 6 4 7 3 8 2 9 1 10 59 11 60 12
REMARK SMILES IDX 61 13 67 14 63 15 65 16 62 17 64 19 66 21 47 23 48 24 49 25
REMARK SMILES IDX 50 26 58 27 51 28 56 29 52 30 54 31 57 32 53 34 55 36 34 38
REMARK SMILES IDX 35 39 36 40 37 41 45 42 38 43 43 44 39 45 41 46 44 47 40 49
REMARK SMILES IDX 42 51 8 53 9 54 10 55 11 56 19 57 12 58 17 59 13 60 15 61
REMARK SMILES IDX 18 62 14 64 16 66 21 68 22 69 23 70 24 71 32 72 25 73 30 74
REMARK SMILES IDX 26 75 28 76 31 77 27 79 29 81
REMARK H PARENT 62 18 64 20 66 22 57 33 53 35 55 37 44 48 40 50 42 52 18 63
REMARK H PARENT 14 65 16 67 31 78 27 80 29 82
REMARK Flexibility Score: inf
ROOT
ATOM      1  C   UNL     1      13.375  23.222  47.695  1.00  0.00     0.205 C 
ATOM      2  C   UNL     1      14.098  22.097  48.457  1.00  0.00     0.254 C 
ATOM      3  C   UNL     1      14.639  22.697  49.759  1.00  0.00     0.267 C 
ATOM      4  C   UNL     1      13.481  23.311  50.566  1.00  0.00     0.290 C 
ATOM      5  C   UNL     1      12.688  24.292  49.672  1.00  0.00     0.357 C 
ATOM      6  O   UNL     1      12.268  23.691  48.453  1.00  0.00    -0.329 OA
ENDROOT
BRANCH   1   7
ATOM      7  C   UNL     1      12.883  22.768  46.309  1.00  0.00     0.269 C 
BRANCH   7   8
ATOM      8  O   UNL     1      13.987  22.298  45.543  1.00  0.00    -0.459 OA
BRANCH   8   9
ATOM      9  C   UNL     1      13.931  22.164  44.149  1.00  0.00     0.338 C 
ATOM     10  O   UNL     1      12.906  21.662  43.605  1.00  0.00    -0.246 OA
BRANCH   9  11
ATOM     11  C   UNL     1      15.083  22.578  43.321  1.00  0.00     0.067 A 
ATOM     12  C   UNL     1      14.922  23.546  42.320  1.00  0.00     0.066 A 
ATOM     13  C   UNL     1      15.988  23.910  41.495  1.00  0.00     0.162 A 
ATOM     14  C   UNL     1      16.344  21.973  43.498  1.00  0.00     0.066 A 
ATOM     15  C   UNL     1      17.243  23.276  41.650  1.00  0.00     0.200 A 
ATOM     16  C   UNL     1      17.412  22.312  42.660  1.00  0.00     0.162 A 
BRANCH  13  17
ATOM     17  O   UNL     1      15.761  24.909  40.547  1.00  0.00    -0.504 OA
ATOM     18  H   UNL     1      14.999  24.891  39.891  1.00  0.00     0.293 HD
ENDBRANCH  13  17
BRANCH  15  19
ATOM     19  O   UNL     1      18.331  23.572  40.821  1.00  0.00    -0.502 OA
ATOM     20  H   UNL     1      18.289  24.185  40.022  1.00  0.00     0.293 HD
ENDBRANCH  15  19
BRANCH  16  21
ATOM     21  O   UNL     1      18.637  21.672  42.849  1.00  0.00    -0.504 OA
ATOM     22  H   UNL     1      19.038  21.060  42.148  1.00  0.00     0.293 HD
ENDBRANCH  16  21
ENDBRANCH   9  11
ENDBRANCH   8   9
ENDBRANCH   7   8
ENDBRANCH   1   7
BRANCH   2  23
ATOM     23  O   UNL     1      13.183  21.046  48.775  1.00  0.00    -0.452 OA
BRANCH  23  24
ATOM     24  C   UNL     1      13.449  19.684  48.581  1.00  0.00     0.338 C 
ATOM     25  O   UNL     1      12.734  18.819  49.149  1.00  0.00    -0.246 OA
BRANCH  24  26
ATOM     26  C   UNL     1      14.559  19.278  47.690  1.00  0.00     0.067 A 
ATOM     27  C   UNL     1      15.845  19.033  48.207  1.00  0.00     0.066 A 
ATOM     28  C   UNL     1      14.352  19.187  46.304  1.00  0.00     0.066 A 
ATOM     29  C   UNL     1      16.911  18.715  47.348  1.00  0.00     0.162 A 
ATOM     30  C   UNL     1      15.408  18.861  45.447  1.00  0.00     0.162 A 
ATOM     31  C   UNL     1      16.691  18.626  45.964  1.00  0.00     0.200 A 
BRANCH  29  32
ATOM     32  O   UNL     1      18.185  18.495  47.865  1.00  0.00    -0.504 OA
ATOM     33  H   UNL     1      18.380  17.710  48.475  1.00  0.00     0.293 HD
ENDBRANCH  29  32
BRANCH  30  34
ATOM     34  O   UNL     1      15.162  18.782  44.078  1.00  0.00    -0.504 OA
ATOM     35  H   UNL     1      14.669  19.514  43.575  1.00  0.00     0.293 HD
ENDBRANCH  30  34
BRANCH  31  36
ATOM     36  O   UNL     1      17.731  18.314  45.090  1.00  0.00    -0.502 OA
ATOM     37  H   UNL     1      17.729  18.604  44.121  1.00  0.00     0.293 HD
ENDBRANCH  31  36
ENDBRANCH  24  26
ENDBRANCH  23  24
ENDBRANCH   2  23
BRANCH   3  38
ATOM     38  O   UNL     1      15.328  21.703  50.517  1.00  0.00    -0.450 OA
BRANCH  38  39
ATOM     39  C   UNL     1      16.722  21.698  50.667  1.00  0.00     0.338 C 
ATOM     40  O   UNL     1      17.432  20.948  49.942  1.00  0.00    -0.246 OA
BRANCH  39  41
ATOM     41  C   UNL     1      17.366  22.586  51.659  1.00  0.00     0.067 A 
ATOM     42  C   UNL     1      18.251  22.058  52.616  1.00  0.00     0.066 A 
ATOM     43  C   UNL     1      17.105  23.965  51.654  1.00  0.00     0.066 A 
ATOM     44  C   UNL     1      18.861  22.893  53.556  1.00  0.00     0.162 A 
ATOM     45  C   UNL     1      17.706  24.811  52.592  1.00  0.00     0.162 A 
ATOM     46  C   UNL     1      18.588  24.270  53.563  1.00  0.00     0.200 A 
BRANCH  44  47
ATOM     47  O   UNL     1      19.747  22.352  54.490  1.00  0.00    -0.504 OA
ATOM     48  H   UNL     1      20.755  22.408  54.364  1.00  0.00     0.293 HD
ENDBRANCH  44  47
BRANCH  45  49
ATOM     49  O   UNL     1      17.398  26.170  52.526  1.00  0.00    -0.504 OA
ATOM     50  H   UNL     1      17.633  26.766  51.746  1.00  0.00     0.293 HD
ENDBRANCH  45  49
BRANCH  46  51
ATOM     51  O   UNL     1      19.205  25.051  54.544  1.00  0.00    -0.502 OA
ATOM     52  H   UNL     1      18.801  25.229  55.457  1.00  0.00     0.293 HD
ENDBRANCH  46  51
ENDBRANCH  39  41
ENDBRANCH  38  39
ENDBRANCH   3  38
BRANCH   5  53
ATOM     53  O   UNL     1      13.455  25.469  49.422  1.00  0.00    -0.428 OA
BRANCH  53  54
ATOM     54  C   UNL     1      13.022  26.755  49.764  1.00  0.00     0.340 C 
ATOM     55  O   UNL     1      11.902  27.179  49.379  1.00  0.00    -0.246 OA
BRANCH  54  56
ATOM     56  C   UNL     1      13.889  27.612  50.588  1.00  0.00     0.067 A 
ATOM     57  C   UNL     1      13.691  27.716  51.970  1.00  0.00     0.066 A 
ATOM     58  C   UNL     1      14.936  28.324  49.991  1.00  0.00     0.066 A 
ATOM     59  C   UNL     1      14.543  28.494  52.765  1.00  0.00     0.162 A 
ATOM     60  C   UNL     1      15.780  29.128  50.758  1.00  0.00     0.162 A 
ATOM     61  C   UNL     1      15.605  29.210  52.156  1.00  0.00     0.200 A 
BRANCH  59  62
ATOM     62  O   UNL     1      14.299  28.517  54.141  1.00  0.00    -0.504 OA
ATOM     63  H   UNL     1      13.389  28.352  54.558  1.00  0.00     0.293 HD
ENDBRANCH  59  62
BRANCH  60  64
ATOM     64  O   UNL     1      16.785  29.846  50.111  1.00  0.00    -0.504 OA
ATOM     65  H   UNL     1      16.706  30.121  49.137  1.00  0.00     0.293 HD
ENDBRANCH  60  64
BRANCH  61  66
ATOM     66  O   UNL     1      16.496  29.999  52.898  1.00  0.00    -0.502 OA
ATOM     67  H   UNL     1      17.500  29.986  52.780  1.00  0.00     0.293 HD
ENDBRANCH  61  66
ENDBRANCH  54  56
ENDBRANCH  53  54
ENDBRANCH   5  53
BRANCH   4  68
ATOM     68  O   UNL     1      13.990  24.039  51.682  1.00  0.00    -0.448 OA
BRANCH  68  69
ATOM     69  C   UNL     1      13.657  23.774  53.013  1.00  0.00     0.339 C 
ATOM     70  O   UNL     1      13.231  24.699  53.759  1.00  0.00    -0.246 OA
BRANCH  69  71
ATOM     71  C   UNL     1      13.820  22.405  53.546  1.00  0.00     0.067 A 
ATOM     72  C   UNL     1      12.768  21.482  53.497  1.00  0.00     0.066 A 
ATOM     73  C   UNL     1      15.046  22.006  54.104  1.00  0.00     0.066 A 
ATOM     74  C   UNL     1      12.934  20.177  53.983  1.00  0.00     0.162 A 
ATOM     75  C   UNL     1      15.223  20.707  54.588  1.00  0.00     0.162 A 
ATOM     76  C   UNL     1      14.168  19.785  54.529  1.00  0.00     0.200 A 
BRANCH  74  77
ATOM     77  O   UNL     1      11.881  19.264  53.917  1.00  0.00    -0.504 OA
ATOM     78  H   UNL     1      11.942  18.351  54.356  1.00  0.00     0.293 HD
ENDBRANCH  74  77
BRANCH  75  79
ATOM     79  O   UNL     1      16.461  20.347  55.124  1.00  0.00    -0.504 OA
ATOM     80  H   UNL     1      17.330  20.501  54.629  1.00  0.00     0.293 HD
ENDBRANCH  75  79
BRANCH  76  81
ATOM     81  O   UNL     1      14.353  18.490  55.015  1.00  0.00    -0.502 OA
ATOM     82  H   UNL     1      14.684  17.734  54.433  1.00  0.00     0.293 HD
ENDBRANCH  76  81
ENDBRANCH  69  71
ENDBRANCH  68  69
ENDBRANCH   4  68
TORSDOF 31
ENDMDL
MODEL 6
REMARK VINA RESULT:    -5.626      1.465      6.906
REMARK INTER + INTRA:         -19.140
REMARK INTER:                 -13.806
REMARK INTRA:                  -5.334
REMARK UNBOUND:                -5.784
REMARK SMILES O=C(OC[C@H]1O[C@H](OC(=O)c2cc(O)c(O)c(O)c2)[C@H](OC(=O)c2cc(O)c(O)c(O)c2)[C@@H](OC(=O)c2cc(O)c(O)c(O)c2)[C@H]1OC(=O)c1cc(O)c(O)c(O)c1)c1cc(O)c(O)c(O)c1
REMARK SMILES IDX 5 1 46 2 33 3 20 4 7 5 6 6 4 7 3 8 2 9 1 10 59 11 60 12
REMARK SMILES IDX 61 13 67 14 63 15 65 16 62 17 64 19 66 21 47 23 48 24 49 25
REMARK SMILES IDX 50 26 58 27 51 28 56 29 52 30 54 31 57 32 53 34 55 36 34 38
REMARK SMILES IDX 35 39 36 40 37 41 45 42 38 43 43 44 39 45 41 46 44 47 40 49
REMARK SMILES IDX 42 51 8 53 9 54 10 55 11 56 19 57 12 58 17 59 13 60 15 61
REMARK SMILES IDX 18 62 14 64 16 66 21 68 22 69 23 70 24 71 32 72 25 73 30 74
REMARK SMILES IDX 26 75 28 76 31 77 27 79 29 81
REMARK H PARENT 62 18 64 20 66 22 57 33 53 35 55 37 44 48 40 50 42 52 18 63
REMARK H PARENT 14 65 16 67 31 78 27 80 29 82
REMARK Flexibility Score: inf
ROOT
ATOM      1  C   UNL     1      13.228  23.556  48.886  1.00  0.00     0.205 C 
ATOM      2  C   UNL     1      14.131  22.398  49.348  1.00  0.00     0.254 C 
ATOM      3  C   UNL     1      14.862  22.861  50.613  1.00  0.00     0.267 C 
ATOM      4  C   UNL     1      13.834  23.275  51.682  1.00  0.00     0.290 C 
ATOM      5  C   UNL     1      12.847  24.303  51.082  1.00  0.00     0.357 C 
ATOM      6  O   UNL     1      12.249  23.837  49.878  1.00  0.00    -0.329 OA
ENDROOT
BRANCH   1   7
ATOM      7  C   UNL     1      12.522  23.252  47.552  1.00  0.00     0.269 C 
BRANCH   7   8
ATOM      8  O   UNL     1      12.533  24.416  46.733  1.00  0.00    -0.459 OA
BRANCH   8   9
ATOM      9  C   UNL     1      13.543  24.663  45.793  1.00  0.00     0.338 C 
ATOM     10  O   UNL     1      14.503  25.433  46.087  1.00  0.00    -0.246 OA
BRANCH   9  11
ATOM     11  C   UNL     1      13.468  24.051  44.450  1.00  0.00     0.067 A 
ATOM     12  C   UNL     1      13.584  24.847  43.303  1.00  0.00     0.066 A 
ATOM     13  C   UNL     1      13.463  24.291  42.028  1.00  0.00     0.162 A 
ATOM     14  C   UNL     1      13.236  22.668  44.308  1.00  0.00     0.066 A 
ATOM     15  C   UNL     1      13.193  22.910  41.887  1.00  0.00     0.200 A 
ATOM     16  C   UNL     1      13.088  22.105  43.036  1.00  0.00     0.162 A 
BRANCH  13  17
ATOM     17  O   UNL     1      13.629  25.141  40.933  1.00  0.00    -0.504 OA
ATOM     18  H   UNL     1      14.517  25.520  40.652  1.00  0.00     0.293 HD
ENDBRANCH  13  17
BRANCH  15  19
ATOM     19  O   UNL     1      13.020  22.312  40.635  1.00  0.00    -0.502 OA
ATOM     20  H   UNL     1      12.375  21.560  40.445  1.00  0.00     0.293 HD
ENDBRANCH  15  19
BRANCH  16  21
ATOM     21  O   UNL     1      12.832  20.737  42.937  1.00  0.00    -0.504 OA
ATOM     22  H   UNL     1      13.438  20.044  43.360  1.00  0.00     0.293 HD
ENDBRANCH  16  21
ENDBRANCH   9  11
ENDBRANCH   8   9
ENDBRANCH   7   8
ENDBRANCH   1   7
BRANCH   2  23
ATOM     23  O   UNL     1      13.342  21.249  49.663  1.00  0.00    -0.452 OA
BRANCH  23  24
ATOM     24  C   UNL     1      13.223  20.124  48.836  1.00  0.00     0.338 C 
ATOM     25  O   UNL     1      12.186  19.414  48.889  1.00  0.00    -0.246 OA
BRANCH  24  26
ATOM     26  C   UNL     1      14.315  19.794  47.893  1.00  0.00     0.067 A 
ATOM     27  C   UNL     1      14.073  19.712  46.509  1.00  0.00     0.066 A 
ATOM     28  C   UNL     1      15.600  19.503  48.379  1.00  0.00     0.066 A 
ATOM     29  C   UNL     1      15.098  19.331  45.627  1.00  0.00     0.162 A 
ATOM     30  C   UNL     1      16.626  19.133  47.503  1.00  0.00     0.162 A 
ATOM     31  C   UNL     1      16.379  19.044  46.125  1.00  0.00     0.200 A 
BRANCH  29  32
ATOM     32  O   UNL     1      14.845  19.232  44.261  1.00  0.00    -0.504 OA
ATOM     33  H   UNL     1      15.585  19.028  43.599  1.00  0.00     0.293 HD
ENDBRANCH  29  32
BRANCH  30  34
ATOM     34  O   UNL     1      17.886  18.850  48.025  1.00  0.00    -0.504 OA
ATOM     35  H   UNL     1      18.658  18.551  47.437  1.00  0.00     0.293 HD
ENDBRANCH  30  34
BRANCH  31  36
ATOM     36  O   UNL     1      17.412  18.662  45.272  1.00  0.00    -0.502 OA
ATOM     37  H   UNL     1      17.435  18.928  44.296  1.00  0.00     0.293 HD
ENDBRANCH  31  36
ENDBRANCH  24  26
ENDBRANCH  23  24
ENDBRANCH   2  23
BRANCH   3  38
ATOM     38  O   UNL     1      15.724  21.831  51.095  1.00  0.00    -0.450 OA
BRANCH  38  39
ATOM     39  C   UNL     1      17.121  21.940  51.067  1.00  0.00     0.338 C 
ATOM     40  O   UNL     1      17.789  21.277  50.227  1.00  0.00    -0.246 OA
BRANCH  39  41
ATOM     41  C   UNL     1      17.815  22.847  52.007  1.00  0.00     0.067 A 
ATOM     42  C   UNL     1      17.547  24.227  51.992  1.00  0.00     0.066 A 
ATOM     43  C   UNL     1      18.747  22.339  52.927  1.00  0.00     0.066 A 
ATOM     44  C   UNL     1      18.201  25.088  52.877  1.00  0.00     0.162 A 
ATOM     45  C   UNL     1      19.411  23.191  53.816  1.00  0.00     0.162 A 
ATOM     46  C   UNL     1      19.144  24.585  53.786  1.00  0.00     0.200 A 
BRANCH  44  47
ATOM     47  O   UNL     1      17.910  26.454  52.855  1.00  0.00    -0.504 OA
ATOM     48  H   UNL     1      18.630  27.154  53.013  1.00  0.00     0.293 HD
ENDBRANCH  44  47
BRANCH  45  49
ATOM     49  O   UNL     1      20.323  22.616  54.701  1.00  0.00    -0.504 OA
ATOM     50  H   UNL     1      20.104  21.848  55.319  1.00  0.00     0.293 HD
ENDBRANCH  45  49
BRANCH  46  51
ATOM     51  O   UNL     1      19.788  25.496  54.628  1.00  0.00    -0.502 OA
ATOM     52  H   UNL     1      20.610  26.026  54.360  1.00  0.00     0.293 HD
ENDBRANCH  46  51
ENDBRANCH  39  41
ENDBRANCH  38  39
ENDBRANCH   3  38
BRANCH   5  53
ATOM     53  O   UNL     1      13.496  25.557  50.876  1.00  0.00    -0.428 OA
BRANCH  53  54
ATOM     54  C   UNL     1      13.329  26.657  51.724  1.00  0.00     0.340 C 
ATOM     55  O   UNL     1      12.308  26.757  52.452  1.00  0.00    -0.246 OA
BRANCH  54  56
ATOM     56  C   UNL     1      14.365  27.700  51.765  1.00  0.00     0.067 A 
ATOM     57  C   UNL     1      14.702  28.331  52.969  1.00  0.00     0.066 A 
ATOM     58  C   UNL     1      15.037  28.062  50.591  1.00  0.00     0.066 A 
ATOM     59  C   UNL     1      15.721  29.291  53.020  1.00  0.00     0.162 A 
ATOM     60  C   UNL     1      16.035  29.036  50.613  1.00  0.00     0.162 A 
ATOM     61  C   UNL     1      16.401  29.651  51.828  1.00  0.00     0.200 A 
BRANCH  59  62
ATOM     62  O   UNL     1      16.020  29.849  54.267  1.00  0.00    -0.504 OA
ATOM     63  H   UNL     1      16.030  30.845  54.454  1.00  0.00     0.293 HD
ENDBRANCH  59  62
BRANCH  60  64
ATOM     64  O   UNL     1      16.649  29.387  49.410  1.00  0.00    -0.504 OA
ATOM     65  H   UNL     1      16.120  29.509  48.553  1.00  0.00     0.293 HD
ENDBRANCH  60  64
BRANCH  61  66
ATOM     66  O   UNL     1      17.435  30.600  51.817  1.00  0.00    -0.502 OA
ATOM     67  H   UNL     1      17.565  31.288  51.088  1.00  0.00     0.293 HD
ENDBRANCH  61  66
ENDBRANCH  54  56
ENDBRANCH  53  54
ENDBRANCH   5  53
BRANCH   4  68
ATOM     68  O   UNL     1      14.495  23.887  52.788  1.00  0.00    -0.448 OA
BRANCH  68  69
ATOM     69  C   UNL     1      14.407  23.432  54.106  1.00  0.00     0.339 C 
ATOM     70  O   UNL     1      14.303  24.255  55.058  1.00  0.00    -0.246 OA
BRANCH  69  71
ATOM     71  C   UNL     1      14.453  21.980  54.380  1.00  0.00     0.067 A 
ATOM     72  C   UNL     1      13.278  21.219  54.425  1.00  0.00     0.066 A 
ATOM     73  C   UNL     1      15.684  21.340  54.591  1.00  0.00     0.066 A 
ATOM     74  C   UNL     1      13.327  19.837  54.663  1.00  0.00     0.162 A 
ATOM     75  C   UNL     1      15.745  19.963  54.826  1.00  0.00     0.162 A 
ATOM     76  C   UNL     1      14.566  19.205  54.861  1.00  0.00     0.200 A 
BRANCH  74  77
ATOM     77  O   UNL     1      12.150  19.088  54.692  1.00  0.00    -0.504 OA
ATOM     78  H   UNL     1      12.078  18.196  54.213  1.00  0.00     0.293 HD
ENDBRANCH  74  77
BRANCH  75  79
ATOM     79  O   UNL     1      16.990  19.363  55.018  1.00  0.00    -0.504 OA
ATOM     80  H   UNL     1      17.110  18.359  55.037  1.00  0.00     0.293 HD
ENDBRANCH  75  79
BRANCH  76  81
ATOM     81  O   UNL     1      14.635  17.830  55.095  1.00  0.00    -0.502 OA
ATOM     82  H   UNL     1      15.143  17.201  54.492  1.00  0.00     0.293 HD
ENDBRANCH  76  81
ENDBRANCH  69  71
ENDBRANCH  68  69
ENDBRANCH   4  68
TORSDOF 31
ENDMDL
MODEL 7
REMARK VINA RESULT:    -5.615      1.553      6.915
REMARK INTER + INTRA:         -19.114
REMARK INTER:                 -15.008
REMARK INTRA:                  -4.106
REMARK UNBOUND:                -5.784
REMARK SMILES O=C(OC[C@H]1O[C@H](OC(=O)c2cc(O)c(O)c(O)c2)[C@H](OC(=O)c2cc(O)c(O)c(O)c2)[C@@H](OC(=O)c2cc(O)c(O)c(O)c2)[C@H]1OC(=O)c1cc(O)c(O)c(O)c1)c1cc(O)c(O)c(O)c1
REMARK SMILES IDX 5 1 46 2 33 3 20 4 7 5 6 6 4 7 3 8 2 9 1 10 59 11 60 12
REMARK SMILES IDX 61 13 67 14 63 15 65 16 62 17 64 19 66 21 47 23 48 24 49 25
REMARK SMILES IDX 50 26 58 27 51 28 56 29 52 30 54 31 57 32 53 34 55 36 34 38
REMARK SMILES IDX 35 39 36 40 37 41 45 42 38 43 43 44 39 45 41 46 44 47 40 49
REMARK SMILES IDX 42 51 8 53 9 54 10 55 11 56 19 57 12 58 17 59 13 60 15 61
REMARK SMILES IDX 18 62 14 64 16 66 21 68 22 69 23 70 24 71 32 72 25 73 30 74
REMARK SMILES IDX 26 75 28 76 31 77 27 79 29 81
REMARK H PARENT 62 18 64 20 66 22 57 33 53 35 55 37 44 48 40 50 42 52 18 63
REMARK H PARENT 14 65 16 67 31 78 27 80 29 82
REMARK Flexibility Score: inf
ROOT
ATOM      1  C   UNL     1      13.907  23.773  48.074  1.00  0.00     0.205 C 
ATOM      2  C   UNL     1      14.257  22.694  49.115  1.00  0.00     0.254 C 
ATOM      3  C   UNL     1      14.875  23.406  50.324  1.00  0.00     0.267 C 
ATOM      4  C   UNL     1      13.887  24.456  50.866  1.00  0.00     0.290 C 
ATOM      5  C   UNL     1      13.437  25.387  49.716  1.00  0.00     0.357 C 
ATOM      6  O   UNL     1      12.932  24.662  48.601  1.00  0.00    -0.329 OA
ENDROOT
BRANCH   1   7
ATOM      7  C   UNL     1      13.381  23.169  46.759  1.00  0.00     0.269 C 
BRANCH   7   8
ATOM      8  O   UNL     1      13.668  24.054  45.681  1.00  0.00    -0.459 OA
BRANCH   8   9
ATOM      9  C   UNL     1      13.112  23.888  44.405  1.00  0.00     0.338 C 
ATOM     10  O   UNL     1      11.875  23.653  44.283  1.00  0.00    -0.246 OA
BRANCH   9  11
ATOM     11  C   UNL     1      13.976  23.955  43.208  1.00  0.00     0.067 A 
ATOM     12  C   UNL     1      15.173  23.228  43.160  1.00  0.00     0.066 A 
ATOM     13  C   UNL     1      16.025  23.321  42.057  1.00  0.00     0.162 A 
ATOM     14  C   UNL     1      13.628  24.783  42.122  1.00  0.00     0.066 A 
ATOM     15  C   UNL     1      15.693  24.182  40.984  1.00  0.00     0.200 A 
ATOM     16  C   UNL     1      14.487  24.904  41.024  1.00  0.00     0.162 A 
BRANCH  13  17
ATOM     17  O   UNL     1      17.180  22.538  42.064  1.00  0.00    -0.504 OA
ATOM     18  H   UNL     1      18.041  22.809  41.621  1.00  0.00     0.293 HD
ENDBRANCH  13  17
BRANCH  15  19
ATOM     19  O   UNL     1      16.532  24.344  39.877  1.00  0.00    -0.502 OA
ATOM     20  H   UNL     1      16.390  25.027  39.148  1.00  0.00     0.293 HD
ENDBRANCH  15  19
BRANCH  16  21
ATOM     21  O   UNL     1      14.121  25.755  39.981  1.00  0.00    -0.504 OA
ATOM     22  H   UNL     1      13.840  26.714  40.143  1.00  0.00     0.293 HD
ENDBRANCH  16  21
ENDBRANCH   9  11
ENDBRANCH   8   9
ENDBRANCH   7   8
ENDBRANCH   1   7
BRANCH   2  23
ATOM     23  O   UNL     1      13.077  22.008  49.533  1.00  0.00    -0.452 OA
BRANCH  23  24
ATOM     24  C   UNL     1      12.931  20.614  49.522  1.00  0.00     0.338 C 
ATOM     25  O   UNL     1      12.277  20.046  50.435  1.00  0.00    -0.246 OA
BRANCH  24  26
ATOM     26  C   UNL     1      13.532  19.826  48.424  1.00  0.00     0.067 A 
ATOM     27  C   UNL     1      12.748  18.950  47.651  1.00  0.00     0.066 A 
ATOM     28  C   UNL     1      14.912  19.905  48.176  1.00  0.00     0.066 A 
ATOM     29  C   UNL     1      13.337  18.154  46.654  1.00  0.00     0.162 A 
ATOM     30  C   UNL     1      15.502  19.122  47.178  1.00  0.00     0.162 A 
ATOM     31  C   UNL     1      14.719  18.243  46.415  1.00  0.00     0.200 A 
BRANCH  29  32
ATOM     32  O   UNL     1      12.558  17.274  45.908  1.00  0.00    -0.504 OA
ATOM     33  H   UNL     1      12.562  16.277  46.092  1.00  0.00     0.293 HD
ENDBRANCH  29  32
BRANCH  30  34
ATOM     34  O   UNL     1      16.874  19.226  46.964  1.00  0.00    -0.504 OA
ATOM     35  H   UNL     1      17.411  18.482  46.530  1.00  0.00     0.293 HD
ENDBRANCH  30  34
BRANCH  31  36
ATOM     36  O   UNL     1      15.329  17.463  45.434  1.00  0.00    -0.502 OA
ATOM     37  H   UNL     1      16.328  17.475  45.277  1.00  0.00     0.293 HD
ENDBRANCH  31  36
ENDBRANCH  24  26
ENDBRANCH  23  24
ENDBRANCH   2  23
BRANCH   3  38
ATOM     38  O   UNL     1      15.228  22.459  51.332  1.00  0.00    -0.450 OA
BRANCH  38  39
ATOM     39  C   UNL     1      16.250  21.516  51.157  1.00  0.00     0.338 C 
ATOM     40  O   UNL     1      17.141  21.705  50.285  1.00  0.00    -0.246 OA
BRANCH  39  41
ATOM     41  C   UNL     1      16.298  20.306  52.007  1.00  0.00     0.067 A 
ATOM     42  C   UNL     1      15.426  19.230  51.763  1.00  0.00     0.066 A 
ATOM     43  C   UNL     1      17.218  20.217  53.065  1.00  0.00     0.066 A 
ATOM     44  C   UNL     1      15.468  18.086  52.564  1.00  0.00     0.162 A 
ATOM     45  C   UNL     1      17.266  19.079  53.876  1.00  0.00     0.162 A 
ATOM     46  C   UNL     1      16.375  18.002  53.632  1.00  0.00     0.200 A 
BRANCH  44  47
ATOM     47  O   UNL     1      14.603  17.023  52.298  1.00  0.00    -0.504 OA
ATOM     48  H   UNL     1      14.542  16.217  52.915  1.00  0.00     0.293 HD
ENDBRANCH  44  47
BRANCH  45  49
ATOM     49  O   UNL     1      18.205  19.062  54.908  1.00  0.00    -0.504 OA
ATOM     50  H   UNL     1      19.204  19.019  54.764  1.00  0.00     0.293 HD
ENDBRANCH  45  49
BRANCH  46  51
ATOM     51  O   UNL     1      16.352  16.846  54.417  1.00  0.00    -0.502 OA
ATOM     52  H   UNL     1      16.977  16.059  54.276  1.00  0.00     0.293 HD
ENDBRANCH  46  51
ENDBRANCH  39  41
ENDBRANCH  38  39
ENDBRANCH   3  38
BRANCH   5  53
ATOM     53  O   UNL     1      14.506  26.246  49.323  1.00  0.00    -0.428 OA
BRANCH  53  54
ATOM     54  C   UNL     1      14.429  27.642  49.374  1.00  0.00     0.340 C 
ATOM     55  O   UNL     1      14.001  28.297  48.390  1.00  0.00    -0.246 OA
BRANCH  54  56
ATOM     56  C   UNL     1      14.849  28.344  50.597  1.00  0.00     0.067 A 
ATOM     57  C   UNL     1      16.060  29.046  50.642  1.00  0.00     0.066 A 
ATOM     58  C   UNL     1      14.027  28.324  51.730  1.00  0.00     0.066 A 
ATOM     59  C   UNL     1      16.441  29.754  51.789  1.00  0.00     0.162 A 
ATOM     60  C   UNL     1      14.400  28.998  52.893  1.00  0.00     0.162 A 
ATOM     61  C   UNL     1      15.602  29.734  52.932  1.00  0.00     0.200 A 
BRANCH  59  62
ATOM     62  O   UNL     1      17.648  30.459  51.740  1.00  0.00    -0.504 OA
ATOM     63  H   UNL     1      17.717  31.451  51.540  1.00  0.00     0.293 HD
ENDBRANCH  59  62
BRANCH  60  64
ATOM     64  O   UNL     1      13.563  28.917  54.006  1.00  0.00    -0.504 OA
ATOM     65  H   UNL     1      12.707  28.373  53.996  1.00  0.00     0.293 HD
ENDBRANCH  60  64
BRANCH  61  66
ATOM     66  O   UNL     1      15.926  30.430  54.107  1.00  0.00    -0.502 OA
ATOM     67  H   UNL     1      16.088  31.427  54.150  1.00  0.00     0.293 HD
ENDBRANCH  61  66
ENDBRANCH  54  56
ENDBRANCH  53  54
ENDBRANCH   5  53
BRANCH   4  68
ATOM     68  O   UNL     1      14.518  25.255  51.864  1.00  0.00    -0.448 OA
BRANCH  68  69
ATOM     69  C   UNL     1      15.238  24.739  52.945  1.00  0.00     0.339 C 
ATOM     70  O   UNL     1      14.665  24.012  53.804  1.00  0.00    -0.246 OA
BRANCH  69  71
ATOM     71  C   UNL     1      16.674  25.063  53.084  1.00  0.00     0.067 A 
ATOM     72  C   UNL     1      17.118  26.391  53.065  1.00  0.00     0.066 A 
ATOM     73  C   UNL     1      17.617  24.035  53.248  1.00  0.00     0.066 A 
ATOM     74  C   UNL     1      18.479  26.696  53.219  1.00  0.00     0.162 A 
ATOM     75  C   UNL     1      18.974  24.327  53.407  1.00  0.00     0.162 A 
ATOM     76  C   UNL     1      19.412  25.660  53.394  1.00  0.00     0.200 A 
BRANCH  74  77
ATOM     77  O   UNL     1      18.906  28.024  53.211  1.00  0.00    -0.504 OA
ATOM     78  H   UNL     1      18.327  28.770  53.582  1.00  0.00     0.293 HD
ENDBRANCH  74  77
BRANCH  75  79
ATOM     79  O   UNL     1      19.878  23.277  53.579  1.00  0.00    -0.504 OA
ATOM     80  H   UNL     1      19.630  22.425  54.064  1.00  0.00     0.293 HD
ENDBRANCH  75  79
BRANCH  76  81
ATOM     81  O   UNL     1      20.770  25.944  53.554  1.00  0.00    -0.502 OA
ATOM     82  H   UNL     1      21.371  26.173  52.777  1.00  0.00     0.293 HD
ENDBRANCH  76  81
ENDBRANCH  69  71
ENDBRANCH  68  69
ENDBRANCH   4  68
TORSDOF 31
ENDMDL
MODEL 8
REMARK VINA RESULT:    -5.611      2.269      6.708
REMARK INTER + INTRA:         -19.103
REMARK INTER:                 -13.069
REMARK INTRA:                  -6.034
REMARK UNBOUND:                -5.784
REMARK SMILES O=C(OC[C@H]1O[C@H](OC(=O)c2cc(O)c(O)c(O)c2)[C@H](OC(=O)c2cc(O)c(O)c(O)c2)[C@@H](OC(=O)c2cc(O)c(O)c(O)c2)[C@H]1OC(=O)c1cc(O)c(O)c(O)c1)c1cc(O)c(O)c(O)c1
REMARK SMILES IDX 5 1 46 2 33 3 20 4 7 5 6 6 4 7 3 8 2 9 1 10 59 11 60 12
REMARK SMILES IDX 61 13 67 14 63 15 65 16 62 17 64 19 66 21 47 23 48 24 49 25
REMARK SMILES IDX 50 26 58 27 51 28 56 29 52 30 54 31 57 32 53 34 55 36 34 38
REMARK SMILES IDX 35 39 36 40 37 41 45 42 38 43 43 44 39 45 41 46 44 47 40 49
REMARK SMILES IDX 42 51 8 53 9 54 10 55 11 56 19 57 12 58 17 59 13 60 15 61
REMARK SMILES IDX 18 62 14 64 16 66 21 68 22 69 23 70 24 71 32 72 25 73 30 74
REMARK SMILES IDX 26 75 28 76 31 77 27 79 29 81
REMARK H PARENT 62 18 64 20 66 22 57 33 53 35 55 37 44 48 40 50 42 52 18 63
REMARK H PARENT 14 65 16 67 31 78 27 80 29 82
REMARK Flexibility Score: inf
ROOT
ATOM      1  C   UNL     1      15.259  19.828  48.145  1.00  0.00     0.205 C 
ATOM      2  C   UNL     1      15.747  20.689  49.323  1.00  0.00     0.254 C 
ATOM      3  C   UNL     1      14.601  20.772  50.338  1.00  0.00     0.267 C 
ATOM      4  C   UNL     1      14.191  19.352  50.770  1.00  0.00     0.290 C 
ATOM      5  C   UNL     1      13.898  18.493  49.519  1.00  0.00     0.357 C 
ATOM      6  O   UNL     1      14.975  18.508  48.590  1.00  0.00    -0.329 OA
ENDROOT
BRANCH   1   7
ATOM      7  C   UNL     1      16.288  19.764  47.001  1.00  0.00     0.269 C 
BRANCH   7   8
ATOM      8  O   UNL     1      15.757  18.993  45.927  1.00  0.00    -0.459 OA
BRANCH   8   9
ATOM      9  C   UNL     1      16.355  18.961  44.660  1.00  0.00     0.338 C 
ATOM     10  O   UNL     1      16.785  17.867  44.194  1.00  0.00    -0.246 OA
BRANCH   9  11
ATOM     11  C   UNL     1      16.511  20.210  43.885  1.00  0.00     0.067 A 
ATOM     12  C   UNL     1      17.788  20.678  43.550  1.00  0.00     0.066 A 
ATOM     13  C   UNL     1      17.954  21.883  42.864  1.00  0.00     0.162 A 
ATOM     14  C   UNL     1      15.380  20.965  43.513  1.00  0.00     0.066 A 
ATOM     15  C   UNL     1      16.821  22.659  42.524  1.00  0.00     0.200 A 
ATOM     16  C   UNL     1      15.536  22.186  42.848  1.00  0.00     0.162 A 
BRANCH  13  17
ATOM     17  O   UNL     1      19.254  22.265  42.531  1.00  0.00    -0.504 OA
ATOM     18  H   UNL     1      19.819  22.874  43.098  1.00  0.00     0.293 HD
ENDBRANCH  13  17
BRANCH  15  19
ATOM     19  O   UNL     1      16.934  23.893  41.875  1.00  0.00    -0.502 OA
ATOM     20  H   UNL     1      16.235  24.619  41.903  1.00  0.00     0.293 HD
ENDBRANCH  15  19
BRANCH  16  21
ATOM     21  O   UNL     1      14.394  22.919  42.521  1.00  0.00    -0.504 OA
ATOM     22  H   UNL     1      14.447  23.867  42.171  1.00  0.00     0.293 HD
ENDBRANCH  16  21
ENDBRANCH   9  11
ENDBRANCH   8   9
ENDBRANCH   7   8
ENDBRANCH   1   7
BRANCH   2  23
ATOM     23  O   UNL     1      16.877  20.079  49.949  1.00  0.00    -0.452 OA
BRANCH  23  24
ATOM     24  C   UNL     1      18.082  20.744  50.220  1.00  0.00     0.338 C 
ATOM     25  O   UNL     1      19.000  20.750  49.360  1.00  0.00    -0.246 OA
BRANCH  24  26
ATOM     26  C   UNL     1      18.251  21.447  51.510  1.00  0.00     0.067 A 
ATOM     27  C   UNL     1      17.688  20.932  52.692  1.00  0.00     0.066 A 
ATOM     28  C   UNL     1      18.934  22.674  51.558  1.00  0.00     0.066 A 
ATOM     29  C   UNL     1      17.793  21.640  53.901  1.00  0.00     0.162 A 
ATOM     30  C   UNL     1      19.051  23.376  52.762  1.00  0.00     0.162 A 
ATOM     31  C   UNL     1      18.480  22.865  53.937  1.00  0.00     0.200 A 
BRANCH  29  32
ATOM     32  O   UNL     1      17.214  21.134  55.062  1.00  0.00    -0.504 OA
ATOM     33  H   UNL     1      16.964  20.155  55.146  1.00  0.00     0.293 HD
ENDBRANCH  29  32
BRANCH  30  34
ATOM     34  O   UNL     1      19.734  24.590  52.768  1.00  0.00    -0.504 OA
ATOM     35  H   UNL     1      20.581  24.730  53.310  1.00  0.00     0.293 HD
ENDBRANCH  30  34
BRANCH  31  36
ATOM     36  O   UNL     1      18.598  23.587  55.122  1.00  0.00    -0.502 OA
ATOM     37  H   UNL     1      18.203  23.263  55.996  1.00  0.00     0.293 HD
ENDBRANCH  31  36
ENDBRANCH  24  26
ENDBRANCH  23  24
ENDBRANCH   2  23
BRANCH   3  38
ATOM     38  O   UNL     1      14.987  21.563  51.461  1.00  0.00    -0.450 OA
BRANCH  38  39
ATOM     39  C   UNL     1      14.313  22.738  51.824  1.00  0.00     0.338 C 
ATOM     40  O   UNL     1      13.260  22.673  52.516  1.00  0.00    -0.246 OA
BRANCH  39  41
ATOM     41  C   UNL     1      14.845  24.057  51.417  1.00  0.00     0.067 A 
ATOM     42  C   UNL     1      15.870  24.670  52.159  1.00  0.00     0.066 A 
ATOM     43  C   UNL     1      14.335  24.708  50.282  1.00  0.00     0.066 A 
ATOM     44  C   UNL     1      16.375  25.916  51.778  1.00  0.00     0.162 A 
ATOM     45  C   UNL     1      14.829  25.957  49.893  1.00  0.00     0.162 A 
ATOM     46  C   UNL     1      15.855  26.577  50.654  1.00  0.00     0.200 A 
BRANCH  44  47
ATOM     47  O   UNL     1      17.402  26.502  52.520  1.00  0.00    -0.504 OA
ATOM     48  H   UNL     1      17.480  27.512  52.617  1.00  0.00     0.293 HD
ENDBRANCH  44  47
BRANCH  45  49
ATOM     49  O   UNL     1      14.275  26.545  48.756  1.00  0.00    -0.504 OA
ATOM     50  H   UNL     1      14.816  26.910  47.986  1.00  0.00     0.293 HD
ENDBRANCH  45  49
BRANCH  46  51
ATOM     51  O   UNL     1      16.379  27.833  50.337  1.00  0.00    -0.502 OA
ATOM     52  H   UNL     1      16.782  28.463  51.022  1.00  0.00     0.293 HD
ENDBRANCH  46  51
ENDBRANCH  39  41
ENDBRANCH  38  39
ENDBRANCH   3  38
BRANCH   5  53
ATOM     53  O   UNL     1      12.684  18.914  48.898  1.00  0.00    -0.428 OA
BRANCH  53  54
ATOM     54  C   UNL     1      12.374  18.652  47.559  1.00  0.00     0.340 C 
ATOM     55  O   UNL     1      12.227  17.471  47.153  1.00  0.00    -0.246 OA
BRANCH  54  56
ATOM     56  C   UNL     1      12.214  19.776  46.622  1.00  0.00     0.067 A 
ATOM     57  C   UNL     1      12.148  21.095  47.089  1.00  0.00     0.066 A 
ATOM     58  C   UNL     1      12.141  19.532  45.246  1.00  0.00     0.066 A 
ATOM     59  C   UNL     1      12.043  22.171  46.199  1.00  0.00     0.162 A 
ATOM     60  C   UNL     1      12.007  20.587  44.342  1.00  0.00     0.162 A 
ATOM     61  C   UNL     1      11.973  21.919  44.805  1.00  0.00     0.200 A 
BRANCH  59  62
ATOM     62  O   UNL     1      12.018  23.459  46.743  1.00  0.00    -0.504 OA
ATOM     63  H   UNL     1      12.847  24.011  46.931  1.00  0.00     0.293 HD
ENDBRANCH  59  62
BRANCH  60  64
ATOM     64  O   UNL     1      11.902  20.289  42.984  1.00  0.00    -0.504 OA
ATOM     65  H   UNL     1      12.190  20.946  42.266  1.00  0.00     0.293 HD
ENDBRANCH  60  64
BRANCH  61  66
ATOM     66  O   UNL     1      11.876  22.954  43.863  1.00  0.00    -0.502 OA
ATOM     67  H   UNL     1      11.257  23.748  43.956  1.00  0.00     0.293 HD
ENDBRANCH  61  66
ENDBRANCH  54  56
ENDBRANCH  53  54
ENDBRANCH   5  53
BRANCH   4  68
ATOM     68  O   UNL     1      13.005  19.403  51.561  1.00  0.00    -0.448 OA
BRANCH  68  69
ATOM     69  C   UNL     1      12.882  18.830  52.831  1.00  0.00     0.339 C 
ATOM     70  O   UNL     1      11.875  19.086  53.549  1.00  0.00    -0.246 OA
BRANCH  69  71
ATOM     71  C   UNL     1      13.945  17.935  53.332  1.00  0.00     0.067 A 
ATOM     72  C   UNL     1      13.805  16.543  53.267  1.00  0.00     0.066 A 
ATOM     73  C   UNL     1      15.122  18.473  53.877  1.00  0.00     0.066 A 
ATOM     74  C   UNL     1      14.826  15.696  53.723  1.00  0.00     0.162 A 
ATOM     75  C   UNL     1      16.148  17.638  54.331  1.00  0.00     0.162 A 
ATOM     76  C   UNL     1      16.004  16.245  54.255  1.00  0.00     0.200 A 
BRANCH  74  77
ATOM     77  O   UNL     1      14.679  14.311  53.639  1.00  0.00    -0.504 OA
ATOM     78  H   UNL     1      14.037  13.884  52.979  1.00  0.00     0.293 HD
ENDBRANCH  74  77
BRANCH  75  79
ATOM     79  O   UNL     1      17.307  18.213  54.854  1.00  0.00    -0.504 OA
ATOM     80  H   UNL     1      17.675  19.092  54.516  1.00  0.00     0.293 HD
ENDBRANCH  75  79
BRANCH  76  81
ATOM     81  O   UNL     1      17.033  15.418  54.711  1.00  0.00    -0.502 OA
ATOM     82  H   UNL     1      16.870  14.641  55.333  1.00  0.00     0.293 HD
ENDBRANCH  76  81
ENDBRANCH  69  71
ENDBRANCH  68  69
ENDBRANCH   4  68
TORSDOF 31
ENDMDL
MODEL 9
REMARK VINA RESULT:    -5.272      1.888      8.120
REMARK INTER + INTRA:         -18.299
REMARK INTER:                 -13.640
REMARK INTRA:                  -4.659
REMARK UNBOUND:                -5.784
REMARK SMILES O=C(OC[C@H]1O[C@H](OC(=O)c2cc(O)c(O)c(O)c2)[C@H](OC(=O)c2cc(O)c(O)c(O)c2)[C@@H](OC(=O)c2cc(O)c(O)c(O)c2)[C@H]1OC(=O)c1cc(O)c(O)c(O)c1)c1cc(O)c(O)c(O)c1
REMARK SMILES IDX 5 1 46 2 33 3 20 4 7 5 6 6 4 7 3 8 2 9 1 10 59 11 60 12
REMARK SMILES IDX 61 13 67 14 63 15 65 16 62 17 64 19 66 21 47 23 48 24 49 25
REMARK SMILES IDX 50 26 58 27 51 28 56 29 52 30 54 31 57 32 53 34 55 36 34 38
REMARK SMILES IDX 35 39 36 40 37 41 45 42 38 43 43 44 39 45 41 46 44 47 40 49
REMARK SMILES IDX 42 51 8 53 9 54 10 55 11 56 19 57 12 58 17 59 13 60 15 61
REMARK SMILES IDX 18 62 14 64 16 66 21 68 22 69 23 70 24 71 32 72 25 73 30 74
REMARK SMILES IDX 26 75 28 76 31 77 27 79 29 81
REMARK H PARENT 62 18 64 20 66 22 57 33 53 35 55 37 44 48 40 50 42 52 18 63
REMARK H PARENT 14 65 16 67 31 78 27 80 29 82
REMARK Flexibility Score: inf
ROOT
ATOM      1  C   UNL     1      12.368  23.078  48.687  1.00  0.00     0.205 C 
ATOM      2  C   UNL     1      12.205  21.548  48.731  1.00  0.00     0.254 C 
ATOM      3  C   UNL     1      12.183  21.045  47.284  1.00  0.00     0.267 C 
ATOM      4  C   UNL     1      13.472  21.484  46.565  1.00  0.00     0.290 C 
ATOM      5  C   UNL     1      13.663  23.009  46.727  1.00  0.00     0.357 C 
ATOM      6  O   UNL     1      13.612  23.418  48.088  1.00  0.00    -0.329 OA
ENDROOT
BRANCH   1   7
ATOM      7  C   UNL     1      12.290  23.716  50.086  1.00  0.00     0.269 C 
BRANCH   7   8
ATOM      8  O   UNL     1      13.553  24.281  50.421  1.00  0.00    -0.459 OA
BRANCH   8   9
ATOM      9  C   UNL     1      13.961  24.471  51.749  1.00  0.00     0.338 C 
ATOM     10  O   UNL     1      13.239  24.047  52.697  1.00  0.00    -0.246 OA
BRANCH   9  11
ATOM     11  C   UNL     1      15.216  25.194  52.039  1.00  0.00     0.067 A 
ATOM     12  C   UNL     1      16.188  24.618  52.869  1.00  0.00     0.066 A 
ATOM     13  C   UNL     1      17.356  25.311  53.194  1.00  0.00     0.162 A 
ATOM     14  C   UNL     1      15.432  26.487  51.521  1.00  0.00     0.066 A 
ATOM     15  C   UNL     1      17.554  26.623  52.704  1.00  0.00     0.200 A 
ATOM     16  C   UNL     1      16.587  27.200  51.861  1.00  0.00     0.162 A 
BRANCH  13  17
ATOM     17  O   UNL     1      18.294  24.656  53.994  1.00  0.00    -0.504 OA
ATOM     18  H   UNL     1      19.141  25.086  54.325  1.00  0.00     0.293 HD
ENDBRANCH  13  17
BRANCH  15  19
ATOM     19  O   UNL     1      18.686  27.375  53.035  1.00  0.00    -0.502 OA
ATOM     20  H   UNL     1      19.485  27.015  53.532  1.00  0.00     0.293 HD
ENDBRANCH  15  19
BRANCH  16  21
ATOM     21  O   UNL     1      16.751  28.488  51.350  1.00  0.00    -0.504 OA
ATOM     22  H   UNL     1      17.658  28.937  51.308  1.00  0.00     0.293 HD
ENDBRANCH  16  21
ENDBRANCH   9  11
ENDBRANCH   8   9
ENDBRANCH   7   8
ENDBRANCH   1   7
BRANCH   2  23
ATOM     23  O   UNL     1      13.309  20.951  49.413  1.00  0.00    -0.452 OA
BRANCH  23  24
ATOM     24  C   UNL     1      13.393  20.810  50.805  1.00  0.00     0.338 C 
ATOM     25  O   UNL     1      12.368  20.498  51.466  1.00  0.00    -0.246 OA
BRANCH  24  26
ATOM     26  C   UNL     1      14.693  21.011  51.481  1.00  0.00     0.067 A 
ATOM     27  C   UNL     1      15.861  21.266  50.738  1.00  0.00     0.066 A 
ATOM     28  C   UNL     1      14.786  20.894  52.878  1.00  0.00     0.066 A 
ATOM     29  C   UNL     1      17.104  21.388  51.380  1.00  0.00     0.162 A 
ATOM     30  C   UNL     1      16.021  21.025  53.522  1.00  0.00     0.162 A 
ATOM     31  C   UNL     1      17.184  21.270  52.777  1.00  0.00     0.200 A 
BRANCH  29  32
ATOM     32  O   UNL     1      18.258  21.619  50.635  1.00  0.00    -0.504 OA
ATOM     33  H   UNL     1      18.315  21.367  49.655  1.00  0.00     0.293 HD
ENDBRANCH  29  32
BRANCH  30  34
ATOM     34  O   UNL     1      16.072  20.900  54.908  1.00  0.00    -0.504 OA
ATOM     35  H   UNL     1      16.933  21.026  55.430  1.00  0.00     0.293 HD
ENDBRANCH  30  34
BRANCH  31  36
ATOM     36  O   UNL     1      18.405  21.385  53.439  1.00  0.00    -0.502 OA
ATOM     37  H   UNL     1      18.890  22.268  53.531  1.00  0.00     0.293 HD
ENDBRANCH  31  36
ENDBRANCH  24  26
ENDBRANCH  23  24
ENDBRANCH   2  23
BRANCH   3  38
ATOM     38  O   UNL     1      12.030  19.627  47.251  1.00  0.00    -0.450 OA
BRANCH  38  39
ATOM     39  C   UNL     1      12.930  18.755  47.880  1.00  0.00     0.338 C 
ATOM     40  O   UNL     1      12.561  18.079  48.879  1.00  0.00    -0.246 OA
BRANCH  39  41
ATOM     41  C   UNL     1      14.308  18.609  47.362  1.00  0.00     0.067 A 
ATOM     42  C   UNL     1      14.543  17.948  46.144  1.00  0.00     0.066 A 
ATOM     43  C   UNL     1      15.396  19.132  48.080  1.00  0.00     0.066 A 
ATOM     44  C   UNL     1      15.843  17.806  45.652  1.00  0.00     0.162 A 
ATOM     45  C   UNL     1      16.702  18.994  47.600  1.00  0.00     0.162 A 
ATOM     46  C   UNL     1      16.934  18.314  46.376  1.00  0.00     0.200 A 
BRANCH  44  47
ATOM     47  O   UNL     1      16.055  17.158  44.433  1.00  0.00    -0.504 OA
ATOM     48  H   UNL     1      16.992  16.974  44.082  1.00  0.00     0.293 HD
ENDBRANCH  44  47
BRANCH  45  49
ATOM     49  O   UNL     1      17.732  19.538  48.367  1.00  0.00    -0.504 OA
ATOM     50  H   UNL     1      18.678  19.184  48.379  1.00  0.00     0.293 HD
ENDBRANCH  45  49
BRANCH  46  51
ATOM     51  O   UNL     1      18.213  18.119  45.849  1.00  0.00    -0.502 OA
ATOM     52  H   UNL     1      18.417  17.474  45.093  1.00  0.00     0.293 HD
ENDBRANCH  46  51
ENDBRANCH  39  41
ENDBRANCH  38  39
ENDBRANCH   3  38
BRANCH   5  53
ATOM     53  O   UNL     1      12.702  23.718  45.945  1.00  0.00    -0.428 OA
BRANCH  53  54
ATOM     54  C   UNL     1      12.906  25.017  45.468  1.00  0.00     0.340 C 
ATOM     55  O   UNL     1      12.712  25.293  44.256  1.00  0.00    -0.246 OA
BRANCH  54  56
ATOM     56  C   UNL     1      13.347  26.067  46.400  1.00  0.00     0.067 A 
ATOM     57  C   UNL     1      12.443  27.020  46.886  1.00  0.00     0.066 A 
ATOM     58  C   UNL     1      14.680  26.110  46.822  1.00  0.00     0.066 A 
ATOM     59  C   UNL     1      12.847  27.993  47.809  1.00  0.00     0.162 A 
ATOM     60  C   UNL     1      15.112  27.088  47.719  1.00  0.00     0.162 A 
ATOM     61  C   UNL     1      14.199  28.030  48.237  1.00  0.00     0.200 A 
BRANCH  59  62
ATOM     62  O   UNL     1      11.876  28.886  48.272  1.00  0.00    -0.504 OA
ATOM     63  H   UNL     1      11.644  29.759  47.812  1.00  0.00     0.293 HD
ENDBRANCH  59  62
BRANCH  60  64
ATOM     64  O   UNL     1      16.459  27.111  48.080  1.00  0.00    -0.504 OA
ATOM     65  H   UNL     1      17.188  26.777  47.457  1.00  0.00     0.293 HD
ENDBRANCH  60  64
BRANCH  61  66
ATOM     66  O   UNL     1      14.662  28.974  49.165  1.00  0.00    -0.502 OA
ATOM     67  H   UNL     1      15.604  28.993  49.533  1.00  0.00     0.293 HD
ENDBRANCH  61  66
ENDBRANCH  54  56
ENDBRANCH  53  54
ENDBRANCH   5  53
BRANCH   4  68
ATOM     68  O   UNL     1      13.382  21.193  45.172  1.00  0.00    -0.448 OA
BRANCH  68  69
ATOM     69  C   UNL     1      14.452  21.285  44.277  1.00  0.00     0.339 C 
ATOM     70  O   UNL     1      15.484  20.577  44.445  1.00  0.00    -0.246 OA
BRANCH  69  71
ATOM     71  C   UNL     1      14.374  22.229  43.143  1.00  0.00     0.067 A 
ATOM     72  C   UNL     1      13.165  22.448  42.470  1.00  0.00     0.066 A 
ATOM     73  C   UNL     1      15.517  22.931  42.728  1.00  0.00     0.066 A 
ATOM     74  C   UNL     1      13.089  23.362  41.408  1.00  0.00     0.162 A 
ATOM     75  C   UNL     1      15.452  23.846  41.673  1.00  0.00     0.162 A 
ATOM     76  C   UNL     1      14.237  24.066  41.009  1.00  0.00     0.200 A 
BRANCH  74  77
ATOM     77  O   UNL     1      11.876  23.580  40.755  1.00  0.00    -0.504 OA
ATOM     78  H   UNL     1      11.815  24.169  39.931  1.00  0.00     0.293 HD
ENDBRANCH  74  77
BRANCH  75  79
ATOM     79  O   UNL     1      16.609  24.532  41.300  1.00  0.00    -0.504 OA
ATOM     80  H   UNL     1      16.604  25.517  41.072  1.00  0.00     0.293 HD
ENDBRANCH  75  79
BRANCH  76  81
ATOM     81  O   UNL     1      14.180  24.983  39.957  1.00  0.00    -0.502 OA
ATOM     82  H   UNL     1      13.627  24.824  39.128  1.00  0.00     0.293 HD
ENDBRANCH  76  81
ENDBRANCH  69  71
ENDBRANCH  68  69
ENDBRANCH   4  68
TORSDOF 31
ENDMDL
