MODEL 1
REMARK VINA RESULT:    -7.696      0.000      0.000
REMARK INTER + INTRA:          -9.765
REMARK INTER:                  -9.496
REMARK INTRA:                  -0.269
REMARK UNBOUND:                -0.269
REMARK SMILES O=c1c(O)c(-c2cc(O)c(O)c(O)c2)oc2cc(O)cc(O)c12
REMARK SMILES IDX 5 1 3 2 2 3 1 4 23 5 21 6 20 7 18 8 17 9 16 10 15 11 6 12
REMARK SMILES IDX 7 13 8 14 14 15 10 16 12 17 9 18 11 20 13 22 4 24 22 26
REMARK SMILES IDX 19 28
REMARK H PARENT 9 19 11 21 13 23 4 25 22 27 19 29
REMARK Flexibility Score: inf
ROOT
ATOM      1  C   UNL     1      20.412  39.853  18.305  1.00  0.00     0.180 A 
ATOM      2  C   UNL     1      19.777  39.557  17.084  1.00  0.00     0.208 A 
ATOM      3  C   UNL     1      18.661  40.318  16.698  1.00  0.00     0.238 A 
ATOM      4  O   UNL     1      18.078  40.054  15.611  1.00  0.00    -0.285 OA
ATOM      5  C   UNL     1      18.214  41.368  17.525  1.00  0.00     0.111 A 
ATOM      6  C   UNL     1      17.101  42.183  17.208  1.00  0.00     0.134 A 
ATOM      7  C   UNL     1      16.724  43.216  18.079  1.00  0.00     0.093 A 
ATOM      8  C   UNL     1      17.438  43.449  19.260  1.00  0.00     0.123 A 
ATOM      9  C   UNL     1      18.535  42.646  19.577  1.00  0.00     0.094 A 
ATOM     10  C   UNL     1      18.927  41.611  18.723  1.00  0.00     0.146 A 
ATOM     11  O   UNL     1      19.972  40.861  19.052  1.00  0.00    -0.452 OA
ENDROOT
BRANCH   1  12
ATOM     12  C   UNL     1      21.583  39.085  18.789  1.00  0.00     0.029 A 
ATOM     13  C   UNL     1      22.876  39.628  18.755  1.00  0.00     0.062 A 
ATOM     14  C   UNL     1      23.973  38.882  19.194  1.00  0.00     0.162 A 
ATOM     15  C   UNL     1      21.407  37.769  19.237  1.00  0.00     0.062 A 
ATOM     16  C   UNL     1      23.794  37.568  19.668  1.00  0.00     0.200 A 
ATOM     17  C   UNL     1      22.494  37.008  19.682  1.00  0.00     0.162 A 
BRANCH  14  18
ATOM     18  O   UNL     1      25.240  39.463  19.150  1.00  0.00    -0.504 OA
ATOM     19  H   UNL     1      25.714  39.794  19.982  1.00  0.00     0.293 HD
ENDBRANCH  14  18
BRANCH  16  20
ATOM     20  O   UNL     1      24.916  36.860  20.106  1.00  0.00    -0.502 OA
ATOM     21  H   UNL     1      25.123  35.908  19.844  1.00  0.00     0.293 HD
ENDBRANCH  16  20
BRANCH  17  22
ATOM     22  O   UNL     1      22.237  35.709  20.125  1.00  0.00    -0.504 OA
ATOM     23  H   UNL     1      22.703  35.274  20.908  1.00  0.00     0.293 HD
ENDBRANCH  17  22
ENDBRANCH   1  12
BRANCH   2  24
ATOM     24  O   UNL     1      20.270  38.543  16.259  1.00  0.00    -0.502 OA
ATOM     25  H   UNL     1      19.665  37.964  15.689  1.00  0.00     0.293 HD
ENDBRANCH   2  24
BRANCH   6  26
ATOM     26  O   UNL     1      16.370  41.977  16.036  1.00  0.00    -0.507 OA
ATOM     27  H   UNL     1      15.605  41.314  15.995  1.00  0.00     0.293 HD
ENDBRANCH   6  26
BRANCH   8  28
ATOM     28  O   UNL     1      17.064  44.474  20.125  1.00  0.00    -0.508 OA
ATOM     29  H   UNL     1      16.838  45.400  19.782  1.00  0.00     0.293 HD
ENDBRANCH   8  28
TORSDOF 7
ENDMDL
MODEL 2
REMARK VINA RESULT:    -6.674      1.584      7.165
REMARK INTER + INTRA:          -8.503
REMARK INTER:                  -8.506
REMARK INTRA:                   0.002
REMARK UNBOUND:                -0.269
REMARK SMILES O=c1c(O)c(-c2cc(O)c(O)c(O)c2)oc2cc(O)cc(O)c12
REMARK SMILES IDX 5 1 3 2 2 3 1 4 23 5 21 6 20 7 18 8 17 9 16 10 15 11 6 12
REMARK SMILES IDX 7 13 8 14 14 15 10 16 12 17 9 18 11 20 13 22 4 24 22 26
REMARK SMILES IDX 19 28
REMARK H PARENT 9 19 11 21 13 23 4 25 22 27 19 29
REMARK Flexibility Score: inf
ROOT
ATOM      1  C   UNL     1      20.132  40.102  19.340  1.00  0.00     0.180 A 
ATOM      2  C   UNL     1      19.731  38.800  19.693  1.00  0.00     0.208 A 
ATOM      3  C   UNL     1      20.708  37.799  19.819  1.00  0.00     0.238 A 
ATOM      4  O   UNL     1      20.358  36.627  20.125  1.00  0.00    -0.285 OA
ATOM      5  C   UNL     1      22.065  38.120  19.610  1.00  0.00     0.111 A 
ATOM      6  C   UNL     1      23.110  37.172  19.720  1.00  0.00     0.134 A 
ATOM      7  C   UNL     1      24.438  37.572  19.506  1.00  0.00     0.093 A 
ATOM      8  C   UNL     1      24.739  38.901  19.183  1.00  0.00     0.123 A 
ATOM      9  C   UNL     1      23.711  39.838  19.073  1.00  0.00     0.094 A 
ATOM     10  C   UNL     1      22.381  39.459  19.281  1.00  0.00     0.146 A 
ATOM     11  O   UNL     1      21.423  40.371  19.165  1.00  0.00    -0.452 OA
ENDROOT
BRANCH   1  12
ATOM     12  C   UNL     1      19.160  41.207  19.170  1.00  0.00     0.029 A 
ATOM     13  C   UNL     1      17.977  41.031  18.437  1.00  0.00     0.062 A 
ATOM     14  C   UNL     1      17.081  42.090  18.266  1.00  0.00     0.162 A 
ATOM     15  C   UNL     1      19.452  42.470  19.702  1.00  0.00     0.062 A 
ATOM     16  C   UNL     1      17.362  43.353  18.822  1.00  0.00     0.200 A 
ATOM     17  C   UNL     1      18.566  43.542  19.542  1.00  0.00     0.162 A 
BRANCH  14  18
ATOM     18  O   UNL     1      15.913  41.869  17.536  1.00  0.00    -0.504 OA
ATOM     19  H   UNL     1      15.007  42.190  17.854  1.00  0.00     0.293 HD
ENDBRANCH  14  18
BRANCH  16  20
ATOM     20  O   UNL     1      16.435  44.382  18.634  1.00  0.00    -0.502 OA
ATOM     21  H   UNL     1      16.562  45.149  17.991  1.00  0.00     0.293 HD
ENDBRANCH  16  20
BRANCH  17  22
ATOM     22  O   UNL     1      18.921  44.766  20.111  1.00  0.00    -0.504 OA
ATOM     23  H   UNL     1      19.697  45.332  19.800  1.00  0.00     0.293 HD
ENDBRANCH  17  22
ENDBRANCH   1  12
BRANCH   2  24
ATOM     24  O   UNL     1      18.385  38.519  19.944  1.00  0.00    -0.502 OA
ATOM     25  H   UNL     1      17.802  39.121  20.514  1.00  0.00     0.293 HD
ENDBRANCH   2  24
BRANCH   6  26
ATOM     26  O   UNL     1      22.842  35.841  20.042  1.00  0.00    -0.507 OA
ATOM     27  H   UNL     1      23.091  35.081  19.419  1.00  0.00     0.293 HD
ENDBRANCH   6  26
BRANCH   8  28
ATOM     28  O   UNL     1      26.056  39.298  18.971  1.00  0.00    -0.508 OA
ATOM     29  H   UNL     1      26.756  39.223  19.700  1.00  0.00     0.293 HD
ENDBRANCH   8  28
TORSDOF 7
ENDMDL
MODEL 3
REMARK VINA RESULT:    -6.240      1.302      7.218
REMARK INTER + INTRA:          -7.969
REMARK INTER:                  -7.649
REMARK INTRA:                  -0.319
REMARK UNBOUND:                -0.269
REMARK SMILES O=c1c(O)c(-c2cc(O)c(O)c(O)c2)oc2cc(O)cc(O)c12
REMARK SMILES IDX 5 1 3 2 2 3 1 4 23 5 21 6 20 7 18 8 17 9 16 10 15 11 6 12
REMARK SMILES IDX 7 13 8 14 14 15 10 16 12 17 9 18 11 20 13 22 4 24 22 26
REMARK SMILES IDX 19 28
REMARK H PARENT 9 19 11 21 13 23 4 25 22 27 19 29
REMARK Flexibility Score: inf
ROOT
ATOM      1  C   UNL     1      20.068  40.174  18.530  1.00  0.00     0.180 A 
ATOM      2  C   UNL     1      21.326  40.783  18.701  1.00  0.00     0.208 A 
ATOM      3  C   UNL     1      22.399  40.005  19.163  1.00  0.00     0.238 A 
ATOM      4  O   UNL     1      23.528  40.543  19.329  1.00  0.00    -0.285 OA
ATOM      5  C   UNL     1      22.203  38.633  19.426  1.00  0.00     0.111 A 
ATOM      6  C   UNL     1      23.233  37.780  19.891  1.00  0.00     0.134 A 
ATOM      7  C   UNL     1      22.960  36.423  20.120  1.00  0.00     0.093 A 
ATOM      8  C   UNL     1      21.680  35.905  19.895  1.00  0.00     0.123 A 
ATOM      9  C   UNL     1      20.662  36.744  19.438  1.00  0.00     0.094 A 
ATOM     10  C   UNL     1      20.912  38.099  19.204  1.00  0.00     0.146 A 
ATOM     11  O   UNL     1      19.924  38.874  18.774  1.00  0.00    -0.452 OA
ENDROOT
BRANCH   1  12
ATOM     12  C   UNL     1      18.883  40.931  18.064  1.00  0.00     0.029 A 
ATOM     13  C   UNL     1      18.190  41.800  18.920  1.00  0.00     0.062 A 
ATOM     14  C   UNL     1      17.060  42.490  18.472  1.00  0.00     0.162 A 
ATOM     15  C   UNL     1      18.408  40.735  16.761  1.00  0.00     0.062 A 
ATOM     16  C   UNL     1      16.597  42.312  17.155  1.00  0.00     0.200 A 
ATOM     17  C   UNL     1      17.279  41.418  16.294  1.00  0.00     0.162 A 
BRANCH  14  18
ATOM     18  O   UNL     1      16.406  43.349  19.355  1.00  0.00    -0.504 OA
ATOM     19  H   UNL     1      16.851  43.709  20.190  1.00  0.00     0.293 HD
ENDBRANCH  14  18
BRANCH  16  20
ATOM     20  O   UNL     1      15.468  43.027  16.745  1.00  0.00    -0.502 OA
ATOM     21  H   UNL     1      15.138  43.068  15.791  1.00  0.00     0.293 HD
ENDBRANCH  16  20
BRANCH  17  22
ATOM     22  O   UNL     1      16.873  41.178  14.980  1.00  0.00    -0.504 OA
ATOM     23  H   UNL     1      17.402  40.633  14.314  1.00  0.00     0.293 HD
ENDBRANCH  17  22
ENDBRANCH   1  12
BRANCH   2  24
ATOM     24  O   UNL     1      21.505  42.132  18.385  1.00  0.00    -0.502 OA
ATOM     25  H   UNL     1      20.763  42.703  17.997  1.00  0.00     0.293 HD
ENDBRANCH   2  24
BRANCH   6  26
ATOM     26  O   UNL     1      24.520  38.267  20.123  1.00  0.00    -0.507 OA
ATOM     27  H   UNL     1      25.204  37.737  20.651  1.00  0.00     0.293 HD
ENDBRANCH   6  26
BRANCH   8  28
ATOM     28  O   UNL     1      21.409  34.558  20.123  1.00  0.00    -0.508 OA
ATOM     29  H   UNL     1      22.152  33.873  20.196  1.00  0.00     0.293 HD
ENDBRANCH   8  28
TORSDOF 7
ENDMDL
MODEL 4
REMARK VINA RESULT:    -6.140      1.276      7.250
REMARK INTER + INTRA:          -7.845
REMARK INTER:                  -7.588
REMARK INTRA:                  -0.257
REMARK UNBOUND:                -0.269
REMARK SMILES O=c1c(O)c(-c2cc(O)c(O)c(O)c2)oc2cc(O)cc(O)c12
REMARK SMILES IDX 5 1 3 2 2 3 1 4 23 5 21 6 20 7 18 8 17 9 16 10 15 11 6 12
REMARK SMILES IDX 7 13 8 14 14 15 10 16 12 17 9 18 11 20 13 22 4 24 22 26
REMARK SMILES IDX 19 28
REMARK H PARENT 9 19 11 21 13 23 4 25 22 27 19 29
REMARK Flexibility Score: inf
ROOT
ATOM      1  C   UNL     1      20.039  40.228  18.526  1.00  0.00     0.180 A 
ATOM      2  C   UNL     1      21.274  40.881  18.697  1.00  0.00     0.208 A 
ATOM      3  C   UNL     1      22.374  40.142  19.160  1.00  0.00     0.238 A 
ATOM      4  O   UNL     1      23.483  40.720  19.327  1.00  0.00    -0.285 OA
ATOM      5  C   UNL     1      22.227  38.765  19.425  1.00  0.00     0.111 A 
ATOM      6  C   UNL     1      23.286  37.949  19.891  1.00  0.00     0.134 A 
ATOM      7  C   UNL     1      23.062  36.584  20.121  1.00  0.00     0.093 A 
ATOM      8  C   UNL     1      21.800  36.020  19.896  1.00  0.00     0.123 A 
ATOM      9  C   UNL     1      20.754  36.822  19.438  1.00  0.00     0.094 A 
ATOM     10  C   UNL     1      20.956  38.185  19.203  1.00  0.00     0.146 A 
ATOM     11  O   UNL     1      19.942  38.924  18.771  1.00  0.00    -0.452 OA
ENDROOT
BRANCH   1  12
ATOM     12  C   UNL     1      18.828  40.942  18.058  1.00  0.00     0.029 A 
ATOM     13  C   UNL     1      18.324  40.752  16.763  1.00  0.00     0.062 A 
ATOM     14  C   UNL     1      17.194  41.451  16.329  1.00  0.00     0.162 A 
ATOM     15  C   UNL     1      18.206  41.871  18.903  1.00  0.00     0.062 A 
ATOM     16  C   UNL     1      16.554  42.366  17.187  1.00  0.00     0.200 A 
ATOM     17  C   UNL     1      17.073  42.579  18.486  1.00  0.00     0.162 A 
BRANCH  14  18
ATOM     18  O   UNL     1      16.722  41.226  15.036  1.00  0.00    -0.504 OA
ATOM     19  H   UNL     1      15.794  41.504  14.742  1.00  0.00     0.293 HD
ENDBRANCH  14  18
BRANCH  16  20
ATOM     20  O   UNL     1      15.422  43.037  16.716  1.00  0.00    -0.502 OA
ATOM     21  H   UNL     1      14.605  42.579  16.341  1.00  0.00     0.293 HD
ENDBRANCH  16  20
BRANCH  17  22
ATOM     22  O   UNL     1      16.502  43.478  19.389  1.00  0.00    -0.504 OA
ATOM     23  H   UNL     1      15.913  43.207  20.163  1.00  0.00     0.293 HD
ENDBRANCH  17  22
ENDBRANCH   1  12
BRANCH   2  24
ATOM     24  O   UNL     1      21.406  42.236  18.380  1.00  0.00    -0.502 OA
ATOM     25  H   UNL     1      20.908  42.664  17.608  1.00  0.00     0.293 HD
ENDBRANCH   2  24
BRANCH   6  26
ATOM     26  O   UNL     1      24.555  38.482  20.123  1.00  0.00    -0.507 OA
ATOM     27  H   UNL     1      24.887  38.679  21.061  1.00  0.00     0.293 HD
ENDBRANCH   6  26
BRANCH   8  28
ATOM     28  O   UNL     1      21.578  34.665  20.124  1.00  0.00    -0.508 OA
ATOM     29  H   UNL     1      21.193  34.063  19.406  1.00  0.00     0.293 HD
ENDBRANCH   8  28
TORSDOF 7
ENDMDL
MODEL 5
REMARK VINA RESULT:    -5.784      2.131      2.911
REMARK INTER + INTRA:          -7.405
REMARK INTER:                  -7.914
REMARK INTRA:                   0.509
REMARK UNBOUND:                -0.269
REMARK SMILES O=c1c(O)c(-c2cc(O)c(O)c(O)c2)oc2cc(O)cc(O)c12
REMARK SMILES IDX 5 1 3 2 2 3 1 4 23 5 21 6 20 7 18 8 17 9 16 10 15 11 6 12
REMARK SMILES IDX 7 13 8 14 14 15 10 16 12 17 9 18 11 20 13 22 4 24 22 26
REMARK SMILES IDX 19 28
REMARK H PARENT 9 19 11 21 13 23 4 25 22 27 19 29
REMARK Flexibility Score: inf
ROOT
ATOM      1  C   UNL     1      22.529  39.083  19.583  1.00  0.00     0.180 A 
ATOM      2  C   UNL     1      21.349  38.332  19.424  1.00  0.00     0.208 A 
ATOM      3  C   UNL     1      20.125  39.010  19.304  1.00  0.00     0.238 A 
ATOM      4  O   UNL     1      19.060  38.346  19.172  1.00  0.00    -0.285 OA
ATOM      5  C   UNL     1      20.103  40.419  19.325  1.00  0.00     0.111 A 
ATOM      6  C   UNL     1      18.914  41.177  19.208  1.00  0.00     0.134 A 
ATOM      7  C   UNL     1      18.977  42.578  19.228  1.00  0.00     0.093 A 
ATOM      8  C   UNL     1      20.205  43.235  19.365  1.00  0.00     0.123 A 
ATOM      9  C   UNL     1      21.380  42.491  19.483  1.00  0.00     0.094 A 
ATOM     10  C   UNL     1      21.339  41.093  19.466  1.00  0.00     0.146 A 
ATOM     11  O   UNL     1      22.472  40.412  19.583  1.00  0.00    -0.452 OA
ENDROOT
BRANCH   1  12
ATOM     12  C   UNL     1      23.856  38.442  19.734  1.00  0.00     0.029 A 
ATOM     13  C   UNL     1      25.031  39.205  19.806  1.00  0.00     0.062 A 
ATOM     14  C   UNL     1      26.277  38.584  19.925  1.00  0.00     0.162 A 
ATOM     15  C   UNL     1      23.949  37.044  19.746  1.00  0.00     0.062 A 
ATOM     16  C   UNL     1      26.369  37.179  19.963  1.00  0.00     0.200 A 
ATOM     17  C   UNL     1      25.188  36.404  19.866  1.00  0.00     0.162 A 
BRANCH  14  18
ATOM     18  O   UNL     1      27.419  39.381  20.002  1.00  0.00    -0.504 OA
ATOM     19  H   UNL     1      28.007  39.564  19.197  1.00  0.00     0.293 HD
ENDBRANCH  14  18
BRANCH  16  20
ATOM     20  O   UNL     1      27.634  36.599  20.091  1.00  0.00    -0.502 OA
ATOM     21  H   UNL     1      28.278  36.468  19.325  1.00  0.00     0.293 HD
ENDBRANCH  16  20
BRANCH  17  22
ATOM     22  O   UNL     1      25.198  35.008  19.883  1.00  0.00    -0.504 OA
ATOM     23  H   UNL     1      24.368  34.436  19.935  1.00  0.00     0.293 HD
ENDBRANCH  17  22
ENDBRANCH   1  12
BRANCH   2  24
ATOM     24  O   UNL     1      21.403  36.938  19.356  1.00  0.00    -0.502 OA
ATOM     25  H   UNL     1      21.828  36.374  20.083  1.00  0.00     0.293 HD
ENDBRANCH   2  24
BRANCH   6  26
ATOM     26  O   UNL     1      17.674  40.551  19.069  1.00  0.00    -0.507 OA
ATOM     27  H   UNL     1      16.908  40.738  19.705  1.00  0.00     0.293 HD
ENDBRANCH   6  26
BRANCH   8  28
ATOM     28  O   UNL     1      20.268  44.626  19.385  1.00  0.00    -0.508 OA
ATOM     29  H   UNL     1      21.079  45.114  19.748  1.00  0.00     0.293 HD
ENDBRANCH   8  28
TORSDOF 7
ENDMDL
MODEL 6
REMARK VINA RESULT:    -5.446      1.675      7.398
REMARK INTER + INTRA:          -6.989
REMARK INTER:                  -6.938
REMARK INTRA:                  -0.051
REMARK UNBOUND:                -0.269
REMARK SMILES O=c1c(O)c(-c2cc(O)c(O)c(O)c2)oc2cc(O)cc(O)c12
REMARK SMILES IDX 5 1 3 2 2 3 1 4 23 5 21 6 20 7 18 8 17 9 16 10 15 11 6 12
REMARK SMILES IDX 7 13 8 14 14 15 10 16 12 17 9 18 11 20 13 22 4 24 22 26
REMARK SMILES IDX 19 28
REMARK H PARENT 9 19 11 21 13 23 4 25 22 27 19 29
REMARK Flexibility Score: inf
ROOT
ATOM      1  C   UNL     1      21.757  39.200  19.230  1.00  0.00     0.180 A 
ATOM      2  C   UNL     1      21.453  37.851  19.493  1.00  0.00     0.208 A 
ATOM      3  C   UNL     1      22.506  36.947  19.706  1.00  0.00     0.238 A 
ATOM      4  O   UNL     1      22.246  35.734  19.932  1.00  0.00    -0.285 OA
ATOM      5  C   UNL     1      23.838  37.409  19.672  1.00  0.00     0.111 A 
ATOM      6  C   UNL     1      24.955  36.565  19.878  1.00  0.00     0.134 A 
ATOM      7  C   UNL     1      26.250  37.102  19.838  1.00  0.00     0.093 A 
ATOM      8  C   UNL     1      26.449  38.466  19.594  1.00  0.00     0.123 A 
ATOM      9  C   UNL     1      25.350  39.302  19.389  1.00  0.00     0.094 A 
ATOM     10  C   UNL     1      24.051  38.785  19.424  1.00  0.00     0.146 A 
ATOM     11  O   UNL     1      23.024  39.602  19.221  1.00  0.00    -0.452 OA
ENDROOT
BRANCH   1  12
ATOM     12  C   UNL     1      20.702  40.210  18.978  1.00  0.00     0.029 A 
ATOM     13  C   UNL     1      19.684  39.982  18.040  1.00  0.00     0.062 A 
ATOM     14  C   UNL     1      18.710  40.954  17.797  1.00  0.00     0.162 A 
ATOM     15  C   UNL     1      20.753  41.441  19.644  1.00  0.00     0.062 A 
ATOM     16  C   UNL     1      18.746  42.182  18.485  1.00  0.00     0.200 A 
ATOM     17  C   UNL     1      19.786  42.426  19.414  1.00  0.00     0.162 A 
BRANCH  14  18
ATOM     18  O   UNL     1      17.711  40.682  16.862  1.00  0.00    -0.504 OA
ATOM     19  H   UNL     1      17.347  39.749  16.714  1.00  0.00     0.293 HD
ENDBRANCH  14  18
BRANCH  16  20
ATOM     20  O   UNL     1      17.748  43.123  18.217  1.00  0.00    -0.502 OA
ATOM     21  H   UNL     1      16.860  42.903  17.791  1.00  0.00     0.293 HD
ENDBRANCH  16  20
BRANCH  17  22
ATOM     22  O   UNL     1      19.897  43.623  20.125  1.00  0.00    -0.504 OA
ATOM     23  H   UNL     1      19.344  43.853  20.938  1.00  0.00     0.293 HD
ENDBRANCH  17  22
ENDBRANCH   1  12
BRANCH   2  24
ATOM     24  O   UNL     1      20.123  37.429  19.571  1.00  0.00    -0.502 OA
ATOM     25  H   UNL     1      19.632  37.339  20.453  1.00  0.00     0.293 HD
ENDBRANCH   2  24
BRANCH   6  26
ATOM     26  O   UNL     1      24.790  35.201  20.125  1.00  0.00    -0.507 OA
ATOM     27  H   UNL     1      23.928  34.829  20.508  1.00  0.00     0.293 HD
ENDBRANCH   6  26
BRANCH   8  28
ATOM     28  O   UNL     1      27.734  39.001  19.555  1.00  0.00    -0.508 OA
ATOM     29  H   UNL     1      27.939  39.848  19.038  1.00  0.00     0.293 HD
ENDBRANCH   8  28
TORSDOF 7
ENDMDL
MODEL 7
REMARK VINA RESULT:    -5.327      1.543      2.832
REMARK INTER + INTRA:          -6.841
REMARK INTER:                  -6.878
REMARK INTRA:                   0.036
REMARK UNBOUND:                -0.269
REMARK SMILES O=c1c(O)c(-c2cc(O)c(O)c(O)c2)oc2cc(O)cc(O)c12
REMARK SMILES IDX 5 1 3 2 2 3 1 4 23 5 21 6 20 7 18 8 17 9 16 10 15 11 6 12
REMARK SMILES IDX 7 13 8 14 14 15 10 16 12 17 9 18 11 20 13 22 4 24 22 26
REMARK SMILES IDX 19 28
REMARK H PARENT 9 19 11 21 13 23 4 25 22 27 19 29
REMARK Flexibility Score: inf
ROOT
ATOM      1  C   UNL     1      20.251  41.038  19.092  1.00  0.00     0.180 A 
ATOM      2  C   UNL     1      20.558  42.343  19.524  1.00  0.00     0.208 A 
ATOM      3  C   UNL     1      19.595  43.353  19.367  1.00  0.00     0.238 A 
ATOM      4  O   UNL     1      19.863  44.527  19.740  1.00  0.00    -0.285 OA
ATOM      5  C   UNL     1      18.341  43.040  18.803  1.00  0.00     0.111 A 
ATOM      6  C   UNL     1      17.317  43.998  18.613  1.00  0.00     0.134 A 
ATOM      7  C   UNL     1      16.092  43.605  18.053  1.00  0.00     0.093 A 
ATOM      8  C   UNL     1      15.874  42.274  17.679  1.00  0.00     0.123 A 
ATOM      9  C   UNL     1      16.882  41.326  17.863  1.00  0.00     0.094 A 
ATOM     10  C   UNL     1      18.110  41.698  18.418  1.00  0.00     0.146 A 
ATOM     11  O   UNL     1      19.053  40.776  18.578  1.00  0.00    -0.452 OA
ENDROOT
BRANCH   1  12
ATOM     12  C   UNL     1      21.220  39.923  19.207  1.00  0.00     0.029 A 
ATOM     13  C   UNL     1      22.572  40.094  18.872  1.00  0.00     0.062 A 
ATOM     14  C   UNL     1      23.468  39.026  18.964  1.00  0.00     0.162 A 
ATOM     15  C   UNL     1      20.769  38.656  19.600  1.00  0.00     0.062 A 
ATOM     16  C   UNL     1      23.021  37.758  19.383  1.00  0.00     0.200 A 
ATOM     17  C   UNL     1      21.653  37.575  19.698  1.00  0.00     0.162 A 
BRANCH  14  18
ATOM     18  O   UNL     1      24.805  39.242  18.628  1.00  0.00    -0.504 OA
ATOM     19  H   UNL     1      25.568  38.904  19.202  1.00  0.00     0.293 HD
ENDBRANCH  14  18
BRANCH  16  20
ATOM     20  O   UNL     1      23.952  36.720  19.468  1.00  0.00    -0.502 OA
ATOM     21  H   UNL     1      23.982  35.932  18.838  1.00  0.00     0.293 HD
ENDBRANCH  16  20
BRANCH  17  22
ATOM     22  O   UNL     1      21.131  36.346  20.109  1.00  0.00    -0.504 OA
ATOM     23  H   UNL     1      21.374  35.459  19.692  1.00  0.00     0.293 HD
ENDBRANCH  17  22
ENDBRANCH   1  12
BRANCH   2  24
ATOM     24  O   UNL     1      21.789  42.616  20.125  1.00  0.00    -0.502 OA
ATOM     25  H   UNL     1      22.587  41.998  20.035  1.00  0.00     0.293 HD
ENDBRANCH   2  24
BRANCH   6  26
ATOM     26  O   UNL     1      17.505  45.332  18.978  1.00  0.00    -0.507 OA
ATOM     27  H   UNL     1      18.070  45.962  18.421  1.00  0.00     0.293 HD
ENDBRANCH   6  26
BRANCH   8  28
ATOM     28  O   UNL     1      14.658  41.883  17.123  1.00  0.00    -0.508 OA
ATOM     29  H   UNL     1      14.187  41.037  17.422  1.00  0.00     0.293 HD
ENDBRANCH   8  28
TORSDOF 7
ENDMDL
