MODEL 1
REMARK VINA RESULT:    -1.563      0.000      0.000
REMARK INTER + INTRA:          -5.181
REMARK INTER:                  -4.122
REMARK INTRA:                  -1.059
REMARK UNBOUND:                -1.059
REMARK SMILES CCCCCCCCCCCCCCCCCCCCCCCCCCCCCC(=O)[O-]
REMARK SMILES IDX 16 1 17 2 18 3 19 4 20 5 21 6 22 7 23 8 24 9 25 10 26 11
REMARK SMILES IDX 27 12 28 13 29 14 30 15 31 16 32 17 15 18 14 19 13 20 12 21
REMARK SMILES IDX 11 22 10 23 9 24 8 25 7 26 6 27 5 28 4 29 3 30 2 31 1 32
REMARK H PARENT
REMARK Flexibility Score: inf
ROOT
ATOM      1  C   UNL     1       7.186   9.010   1.499  1.00  0.00     0.000 C 
ENDROOT
BRANCH   1   2
ATOM      2  C   UNL     1       6.916   9.679   2.860  1.00  0.00     0.000 C 
BRANCH   2   3
ATOM      3  C   UNL     1       8.203   9.992   3.640  1.00  0.00     0.000 C 
BRANCH   3   4
ATOM      4  C   UNL     1       7.983  10.048   5.164  1.00  0.00     0.000 C 
BRANCH   4   5
ATOM      5  C   UNL     1       6.538   9.787   5.627  1.00  0.00     0.000 C 
BRANCH   5   6
ATOM      6  C   UNL     1       6.312  10.125   7.108  1.00  0.00     0.000 C 
BRANCH   6   7
ATOM      7  C   UNL     1       7.640  10.116   7.881  1.00  0.00     0.000 C 
BRANCH   7   8
ATOM      8  C   UNL     1       8.631   9.058   7.362  1.00  0.00     0.000 C 
BRANCH   8   9
ATOM      9  C   UNL     1       9.929   8.929   8.181  1.00  0.00     0.000 C 
BRANCH   9  10
ATOM     10  C   UNL     1       9.671   8.664   9.675  1.00  0.00     0.000 C 
BRANCH  10  11
ATOM     11  C   UNL     1      10.029   7.221  10.084  1.00  0.00     0.000 C 
BRANCH  11  12
ATOM     12  C   UNL     1       9.654   6.162   9.030  1.00  0.00     0.000 C 
BRANCH  12  13
ATOM     13  C   UNL     1       8.172   5.732   9.064  1.00  0.00     0.006 C 
BRANCH  13  14
ATOM     14  C   UNL     1       7.861   4.507   8.188  1.00  0.00     0.053 C 
BRANCH  14  15
ATOM     15  C   UNL     1       8.188   3.221   8.886  1.00  0.00     0.041 C 
ATOM     16  O   UNL     1       7.986   3.098  10.124  1.00  0.00    -0.550 OA
ATOM     17  O   UNL     1       8.730   2.159   8.170  1.00  0.00    -0.550 OA
ENDBRANCH  14  15
ENDBRANCH  13  14
ENDBRANCH  12  13
ENDBRANCH  11  12
ENDBRANCH  10  11
ENDBRANCH   9  10
ENDBRANCH   8   9
ENDBRANCH   7   8
ENDBRANCH   6   7
ENDBRANCH   5   6
ENDBRANCH   4   5
ENDBRANCH   3   4
ENDBRANCH   2   3
ENDBRANCH   1   2
BRANCH   1  18
ATOM     18  C   UNL     1       7.449   9.980   0.332  1.00  0.00     0.000 C 
BRANCH  18  19
ATOM     19  C   UNL     1       8.909   9.965  -0.146  1.00  0.00     0.000 C 
BRANCH  19  20
ATOM     20  C   UNL     1       9.103   8.948  -1.281  1.00  0.00     0.000 C 
BRANCH  20  21
ATOM     21  C   UNL     1      10.092   9.437  -2.353  1.00  0.00     0.000 C 
BRANCH  21  22
ATOM     22  C   UNL     1       9.421   9.657  -3.719  1.00  0.00     0.000 C 
BRANCH  22  23
ATOM     23  C   UNL     1       7.958  10.115  -3.588  1.00  0.00     0.000 C 
BRANCH  23  24
ATOM     24  C   UNL     1       6.967   9.099  -4.183  1.00  0.00    -0.000 C 
BRANCH  24  25
ATOM     25  C   UNL     1       5.721   9.769  -4.791  1.00  0.00    -0.000 C 
BRANCH  25  26
ATOM     26  C   UNL     1       4.805   8.832  -5.603  1.00  0.00    -0.000 C 
BRANCH  26  27
ATOM     27  C   UNL     1       4.602   9.234  -7.077  1.00  0.00    -0.000 C 
BRANCH  27  28
ATOM     28  C   UNL     1       5.820   9.908  -7.740  1.00  0.00    -0.000 C 
BRANCH  28  29
ATOM     29  C   UNL     1       6.560   9.039  -8.777  1.00  0.00    -0.000 C 
BRANCH  29  30
ATOM     30  C   UNL     1       8.088   9.242  -8.826  1.00  0.00    -0.000 C 
BRANCH  30  31
ATOM     31  C   UNL     1       8.773   9.340  -7.452  1.00  0.00    -0.003 C 
ATOM     32  C   UNL     1       9.862   8.288  -7.253  1.00  0.00     0.004 C 
ENDBRANCH  30  31
ENDBRANCH  29  30
ENDBRANCH  28  29
ENDBRANCH  27  28
ENDBRANCH  26  27
ENDBRANCH  25  26
ENDBRANCH  24  25
ENDBRANCH  23  24
ENDBRANCH  22  23
ENDBRANCH  21  22
ENDBRANCH  20  21
ENDBRANCH  19  20
ENDBRANCH  18  19
ENDBRANCH   1  18
TORSDOF 28
ENDMDL
MODEL 2
REMARK VINA RESULT:    -1.200     14.591     18.025
REMARK INTER + INTRA:          -4.223
REMARK INTER:                  -1.988
REMARK INTRA:                  -2.235
REMARK UNBOUND:                -1.059
REMARK SMILES CCCCCCCCCCCCCCCCCCCCCCCCCCCCCC(=O)[O-]
REMARK SMILES IDX 16 1 17 2 18 3 19 4 20 5 21 6 22 7 23 8 24 9 25 10 26 11
REMARK SMILES IDX 27 12 28 13 29 14 30 15 31 16 32 17 15 18 14 19 13 20 12 21
REMARK SMILES IDX 11 22 10 23 9 24 8 25 7 26 6 27 5 28 4 29 3 30 2 31 1 32
REMARK H PARENT
REMARK Flexibility Score: inf
ROOT
ATOM      1  C   UNL     1      -8.761   0.806  -7.249  1.00  0.00     0.000 C 
ENDROOT
BRANCH   1   2
ATOM      2  C   UNL     1     -10.125   1.335  -6.768  1.00  0.00     0.000 C 
BRANCH   2   3
ATOM      3  C   UNL     1     -10.078   2.812  -6.344  1.00  0.00     0.000 C 
BRANCH   3   4
ATOM      4  C   UNL     1      -9.022   3.092  -5.258  1.00  0.00     0.000 C 
BRANCH   4   5
ATOM      5  C   UNL     1      -9.026   2.109  -4.073  1.00  0.00     0.000 C 
BRANCH   5   6
ATOM      6  C   UNL     1      -7.632   1.902  -3.460  1.00  0.00     0.000 C 
BRANCH   6   7
ATOM      7  C   UNL     1      -7.211   3.125  -2.631  1.00  0.00     0.000 C 
BRANCH   7   8
ATOM      8  C   UNL     1      -6.617   2.751  -1.261  1.00  0.00     0.000 C 
BRANCH   8   9
ATOM      9  C   UNL     1      -5.525   3.705  -0.745  1.00  0.00     0.000 C 
BRANCH   9  10
ATOM     10  C   UNL     1      -4.876   3.221   0.564  1.00  0.00     0.000 C 
BRANCH  10  11
ATOM     11  C   UNL     1      -5.421   1.850   1.015  1.00  0.00     0.000 C 
BRANCH  11  12
ATOM     12  C   UNL     1      -4.585   0.654   0.524  1.00  0.00     0.000 C 
BRANCH  12  13
ATOM     13  C   UNL     1      -3.830   0.909  -0.798  1.00  0.00     0.006 C 
BRANCH  13  14
ATOM     14  C   UNL     1      -4.601   0.456  -2.050  1.00  0.00     0.053 C 
BRANCH  14  15
ATOM     15  C   UNL     1      -3.840   0.737  -3.310  1.00  0.00     0.041 C 
ATOM     16  O   UNL     1      -4.250   1.612  -4.120  1.00  0.00    -0.550 OA
ATOM     17  O   UNL     1      -2.682   0.023  -3.598  1.00  0.00    -0.550 OA
ENDBRANCH  14  15
ENDBRANCH  13  14
ENDBRANCH  12  13
ENDBRANCH  11  12
ENDBRANCH  10  11
ENDBRANCH   9  10
ENDBRANCH   8   9
ENDBRANCH   7   8
ENDBRANCH   6   7
ENDBRANCH   5   6
ENDBRANCH   4   5
ENDBRANCH   3   4
ENDBRANCH   2   3
ENDBRANCH   1   2
BRANCH   1  18
ATOM     18  C   UNL     1      -8.776   0.098  -8.617  1.00  0.00     0.000 C 
BRANCH  18  19
ATOM     19  C   UNL     1      -8.570   1.061  -9.795  1.00  0.00     0.000 C 
BRANCH  19  20
ATOM     20  C   UNL     1      -7.549   2.153  -9.438  1.00  0.00     0.000 C 
BRANCH  20  21
ATOM     21  C   UNL     1      -7.855   3.498 -10.117  1.00  0.00     0.000 C 
BRANCH  21  22
ATOM     22  C   UNL     1      -8.739   4.410  -9.250  1.00  0.00     0.000 C 
BRANCH  22  23
ATOM     23  C   UNL     1      -7.937   5.533  -8.571  1.00  0.00     0.000 C 
BRANCH  23  24
ATOM     24  C   UNL     1      -8.718   6.208  -7.429  1.00  0.00    -0.000 C 
BRANCH  24  25
ATOM     25  C   UNL     1      -7.865   7.219  -6.643  1.00  0.00    -0.000 C 
BRANCH  25  26
ATOM     26  C   UNL     1      -8.217   8.700  -6.885  1.00  0.00    -0.000 C 
BRANCH  26  27
ATOM     27  C   UNL     1      -9.518   8.941  -7.677  1.00  0.00    -0.000 C 
BRANCH  27  28
ATOM     28  C   UNL     1      -9.331   9.650  -9.033  1.00  0.00    -0.000 C 
BRANCH  28  29
ATOM     29  C   UNL     1      -8.078   9.224  -9.824  1.00  0.00    -0.000 C 
BRANCH  29  30
ATOM     30  C   UNL     1      -6.773   9.933  -9.409  1.00  0.00    -0.000 C 
BRANCH  30  31
ATOM     31  C   UNL     1      -5.510   9.055  -9.467  1.00  0.00    -0.003 C 
ATOM     32  C   UNL     1      -4.257   9.783  -8.987  1.00  0.00     0.004 C 
ENDBRANCH  30  31
ENDBRANCH  29  30
ENDBRANCH  28  29
ENDBRANCH  27  28
ENDBRANCH  26  27
ENDBRANCH  25  26
ENDBRANCH  24  25
ENDBRANCH  23  24
ENDBRANCH  22  23
ENDBRANCH  21  22
ENDBRANCH  20  21
ENDBRANCH  19  20
ENDBRANCH  18  19
ENDBRANCH   1  18
TORSDOF 28
ENDMDL
MODEL 3
REMARK VINA RESULT:    -0.331     15.152     18.248
REMARK INTER + INTRA:          -1.933
REMARK INTER:                   0.126
REMARK INTRA:                  -2.059
REMARK UNBOUND:                -1.059
REMARK SMILES CCCCCCCCCCCCCCCCCCCCCCCCCCCCCC(=O)[O-]
REMARK SMILES IDX 16 1 17 2 18 3 19 4 20 5 21 6 22 7 23 8 24 9 25 10 26 11
REMARK SMILES IDX 27 12 28 13 29 14 30 15 31 16 32 17 15 18 14 19 13 20 12 21
REMARK SMILES IDX 11 22 10 23 9 24 8 25 7 26 6 27 5 28 4 29 3 30 2 31 1 32
REMARK H PARENT
REMARK Flexibility Score: inf
ROOT
ATOM      1  C   UNL     1     -10.113   1.801  -6.913  1.00  0.00     0.000 C 
ENDROOT
BRANCH   1   2
ATOM      2  C   UNL     1      -9.987   3.282  -6.509  1.00  0.00     0.000 C 
BRANCH   2   3
ATOM      3  C   UNL     1      -8.978   3.509  -5.372  1.00  0.00     0.000 C 
BRANCH   3   4
ATOM      4  C   UNL     1      -8.949   2.352  -4.355  1.00  0.00     0.000 C 
BRANCH   4   5
ATOM      5  C   UNL     1      -8.441   2.728  -2.951  1.00  0.00     0.000 C 
BRANCH   5   6
ATOM      6  C   UNL     1      -7.008   2.244  -2.681  1.00  0.00     0.000 C 
BRANCH   6   7
ATOM      7  C   UNL     1      -6.324   3.123  -1.623  1.00  0.00     0.000 C 
BRANCH   7   8
ATOM      8  C   UNL     1      -6.898   2.920  -0.209  1.00  0.00     0.000 C 
BRANCH   8   9
ATOM      9  C   UNL     1      -5.961   3.342   0.938  1.00  0.00     0.000 C 
BRANCH   9  10
ATOM     10  C   UNL     1      -4.507   2.888   0.721  1.00  0.00     0.000 C 
BRANCH  10  11
ATOM     11  C   UNL     1      -4.303   1.396   1.057  1.00  0.00     0.000 C 
BRANCH  11  12
ATOM     12  C   UNL     1      -4.679   0.440  -0.091  1.00  0.00     0.000 C 
BRANCH  12  13
ATOM     13  C   UNL     1      -3.726   0.502  -1.303  1.00  0.00     0.006 C 
BRANCH  13  14
ATOM     14  C   UNL     1      -4.449   0.512  -2.661  1.00  0.00     0.053 C 
BRANCH  14  15
ATOM     15  C   UNL     1      -3.487   0.529  -3.809  1.00  0.00     0.041 C 
ATOM     16  O   UNL     1      -3.485   1.490  -4.625  1.00  0.00    -0.550 OA
ATOM     17  O   UNL     1      -2.597  -0.525  -3.988  1.00  0.00    -0.550 OA
ENDBRANCH  14  15
ENDBRANCH  13  14
ENDBRANCH  12  13
ENDBRANCH  11  12
ENDBRANCH  10  11
ENDBRANCH   9  10
ENDBRANCH   8   9
ENDBRANCH   7   8
ENDBRANCH   6   7
ENDBRANCH   5   6
ENDBRANCH   4   5
ENDBRANCH   3   4
ENDBRANCH   2   3
ENDBRANCH   1   2
BRANCH   1  18
ATOM     18  C   UNL     1      -8.795   1.115  -7.316  1.00  0.00     0.000 C 
BRANCH  18  19
ATOM     19  C   UNL     1      -8.860   0.453  -8.700  1.00  0.00     0.000 C 
BRANCH  19  20
ATOM     20  C   UNL     1      -8.191   1.339  -9.763  1.00  0.00     0.000 C 
BRANCH  20  21
ATOM     21  C   UNL     1      -7.576   2.617  -9.169  1.00  0.00     0.000 C 
BRANCH  21  22
ATOM     22  C   UNL     1      -7.682   3.821 -10.121  1.00  0.00     0.000 C 
BRANCH  22  23
ATOM     23  C   UNL     1      -9.088   4.447 -10.123  1.00  0.00     0.000 C 
BRANCH  23  24
ATOM     24  C   UNL     1      -9.332   5.351  -8.902  1.00  0.00    -0.000 C 
BRANCH  24  25
ATOM     25  C   UNL     1      -8.039   5.991  -8.367  1.00  0.00    -0.000 C 
BRANCH  25  26
ATOM     26  C   UNL     1      -7.403   7.050  -9.289  1.00  0.00    -0.000 C 
BRANCH  26  27
ATOM     27  C   UNL     1      -8.345   8.193  -9.717  1.00  0.00    -0.000 C 
BRANCH  27  28
ATOM     28  C   UNL     1      -8.443   9.363  -8.717  1.00  0.00    -0.000 C 
BRANCH  28  29
ATOM     29  C   UNL     1      -9.771   9.444  -7.937  1.00  0.00    -0.000 C 
BRANCH  29  30
ATOM     30  C   UNL     1     -10.017   8.288  -6.947  1.00  0.00    -0.000 C 
BRANCH  30  31
ATOM     31  C   UNL     1      -9.677   8.606  -5.481  1.00  0.00    -0.003 C 
ATOM     32  C   UNL     1      -8.921   7.476  -4.786  1.00  0.00     0.004 C 
ENDBRANCH  30  31
ENDBRANCH  29  30
ENDBRANCH  28  29
ENDBRANCH  27  28
ENDBRANCH  26  27
ENDBRANCH  25  26
ENDBRANCH  24  25
ENDBRANCH  23  24
ENDBRANCH  22  23
ENDBRANCH  21  22
ENDBRANCH  20  21
ENDBRANCH  19  20
ENDBRANCH  18  19
ENDBRANCH   1  18
TORSDOF 28
ENDMDL
MODEL 4
REMARK VINA RESULT:     0.076     14.561     18.028
REMARK INTER + INTRA:          -0.858
REMARK INTER:                  -0.680
REMARK INTRA:                  -0.179
REMARK UNBOUND:                -1.059
REMARK SMILES CCCCCCCCCCCCCCCCCCCCCCCCCCCCCC(=O)[O-]
REMARK SMILES IDX 16 1 17 2 18 3 19 4 20 5 21 6 22 7 23 8 24 9 25 10 26 11
REMARK SMILES IDX 27 12 28 13 29 14 30 15 31 16 32 17 15 18 14 19 13 20 12 21
REMARK SMILES IDX 11 22 10 23 9 24 8 25 7 26 6 27 5 28 4 29 3 30 2 31 1 32
REMARK H PARENT
REMARK Flexibility Score: inf
ROOT
ATOM      1  C   UNL     1      -9.744   0.880  -5.785  1.00  0.00     0.000 C 
ENDROOT
BRANCH   1   2
ATOM      2  C   UNL     1      -9.977   2.301  -6.331  1.00  0.00     0.000 C 
BRANCH   2   3
ATOM      3  C   UNL     1     -10.125   3.353  -5.219  1.00  0.00     0.000 C 
BRANCH   3   4
ATOM      4  C   UNL     1      -8.772   3.908  -4.734  1.00  0.00     0.000 C 
BRANCH   4   5
ATOM      5  C   UNL     1      -8.372   3.499  -3.304  1.00  0.00     0.000 C 
BRANCH   5   6
ATOM      6  C   UNL     1      -8.134   1.988  -3.156  1.00  0.00     0.000 C 
BRANCH   6   7
ATOM      7  C   UNL     1      -6.858   1.560  -3.898  1.00  0.00     0.000 C 
BRANCH   7   8
ATOM      8  C   UNL     1      -5.572   1.865  -3.109  1.00  0.00     0.000 C 
BRANCH   8   9
ATOM      9  C   UNL     1      -4.429   0.854  -3.315  1.00  0.00     0.000 C 
BRANCH   9  10
ATOM     10  C   UNL     1      -3.886   0.287  -1.992  1.00  0.00     0.000 C 
BRANCH  10  11
ATOM     11  C   UNL     1      -4.116   1.245  -0.806  1.00  0.00     0.000 C 
BRANCH  11  12
ATOM     12  C   UNL     1      -5.587   1.658  -0.613  1.00  0.00     0.000 C 
BRANCH  12  13
ATOM     13  C   UNL     1      -5.777   2.990   0.144  1.00  0.00     0.006 C 
BRANCH  13  14
ATOM     14  C   UNL     1      -4.784   3.192   1.301  1.00  0.00     0.053 C 
BRANCH  14  15
ATOM     15  C   UNL     1      -5.254   2.537   2.564  1.00  0.00     0.041 C 
ATOM     16  O   UNL     1      -6.224   1.733   2.542  1.00  0.00    -0.550 OA
ATOM     17  O   UNL     1      -4.626   2.822   3.772  1.00  0.00    -0.550 OA
ENDBRANCH  14  15
ENDBRANCH  13  14
ENDBRANCH  12  13
ENDBRANCH  11  12
ENDBRANCH  10  11
ENDBRANCH   9  10
ENDBRANCH   8   9
ENDBRANCH   7   8
ENDBRANCH   6   7
ENDBRANCH   5   6
ENDBRANCH   4   5
ENDBRANCH   3   4
ENDBRANCH   2   3
ENDBRANCH   1   2
BRANCH   1  18
ATOM     18  C   UNL     1      -9.850  -0.249  -6.826  1.00  0.00     0.000 C 
BRANCH  18  19
ATOM     19  C   UNL     1      -9.352   0.167  -8.218  1.00  0.00     0.000 C 
BRANCH  19  20
ATOM     20  C   UNL     1      -7.957   0.805  -8.133  1.00  0.00     0.000 C 
BRANCH  20  21
ATOM     21  C   UNL     1      -7.265   0.908  -9.502  1.00  0.00     0.000 C 
BRANCH  21  22
ATOM     22  C   UNL     1      -6.745   2.325  -9.796  1.00  0.00     0.000 C 
BRANCH  22  23
ATOM     23  C   UNL     1      -7.883   3.344  -9.977  1.00  0.00     0.000 C 
BRANCH  23  24
ATOM     24  C   UNL     1      -8.457   3.831  -8.634  1.00  0.00    -0.000 C 
BRANCH  24  25
ATOM     25  C   UNL     1      -9.474   4.974  -8.802  1.00  0.00    -0.000 C 
BRANCH  25  26
ATOM     26  C   UNL     1      -8.933   6.232  -9.509  1.00  0.00    -0.000 C 
BRANCH  26  27
ATOM     27  C   UNL     1      -8.139   7.197  -8.606  1.00  0.00    -0.000 C 
BRANCH  27  28
ATOM     28  C   UNL     1      -8.892   8.482  -8.207  1.00  0.00    -0.000 C 
BRANCH  28  29
ATOM     29  C   UNL     1      -8.083   9.785  -8.360  1.00  0.00    -0.000 C 
BRANCH  29  30
ATOM     30  C   UNL     1      -6.695   9.773  -7.688  1.00  0.00    -0.000 C 
BRANCH  30  31
ATOM     31  C   UNL     1      -5.503   9.780  -8.661  1.00  0.00    -0.003 C 
ATOM     32  C   UNL     1      -5.931   9.847 -10.125  1.00  0.00     0.004 C 
ENDBRANCH  30  31
ENDBRANCH  29  30
ENDBRANCH  28  29
ENDBRANCH  27  28
ENDBRANCH  26  27
ENDBRANCH  25  26
ENDBRANCH  24  25
ENDBRANCH  23  24
ENDBRANCH  22  23
ENDBRANCH  21  22
ENDBRANCH  20  21
ENDBRANCH  19  20
ENDBRANCH  18  19
ENDBRANCH   1  18
TORSDOF 28
ENDMDL
MODEL 5
REMARK VINA RESULT:     0.278     15.155     18.234
REMARK INTER + INTRA:          -0.325
REMARK INTER:                   2.276
REMARK INTRA:                  -2.601
REMARK UNBOUND:                -1.059
REMARK SMILES CCCCCCCCCCCCCCCCCCCCCCCCCCCCCC(=O)[O-]
REMARK SMILES IDX 16 1 17 2 18 3 19 4 20 5 21 6 22 7 23 8 24 9 25 10 26 11
REMARK SMILES IDX 27 12 28 13 29 14 30 15 31 16 32 17 15 18 14 19 13 20 12 21
REMARK SMILES IDX 11 22 10 23 9 24 8 25 7 26 6 27 5 28 4 29 3 30 2 31 1 32
REMARK H PARENT
REMARK Flexibility Score: inf
ROOT
ATOM      1  C   UNL     1      -9.197   0.431  -5.591  1.00  0.00     0.000 C 
ENDROOT
BRANCH   1   2
ATOM      2  C   UNL     1     -10.091   1.052  -4.502  1.00  0.00     0.000 C 
BRANCH   2   3
ATOM      3  C   UNL     1     -10.058   2.589  -4.503  1.00  0.00     0.000 C 
BRANCH   3   4
ATOM      4  C   UNL     1      -8.992   3.167  -3.553  1.00  0.00     0.000 C 
BRANCH   4   5
ATOM      5  C   UNL     1      -7.614   2.482  -3.621  1.00  0.00     0.000 C 
BRANCH   5   6
ATOM      6  C   UNL     1      -6.799   2.644  -2.329  1.00  0.00     0.000 C 
BRANCH   6   7
ATOM      7  C   UNL     1      -7.725   2.765  -1.109  1.00  0.00     0.000 C 
BRANCH   7   8
ATOM      8  C   UNL     1      -7.039   3.411   0.108  1.00  0.00     0.000 C 
BRANCH   8   9
ATOM      9  C   UNL     1      -5.509   3.546  -0.006  1.00  0.00     0.000 C 
BRANCH   9  10
ATOM     10  C   UNL     1      -4.761   2.877   1.160  1.00  0.00     0.000 C 
BRANCH  10  11
ATOM     11  C   UNL     1      -4.905   1.341   1.143  1.00  0.00     0.000 C 
BRANCH  11  12
ATOM     12  C   UNL     1      -3.884   0.627   0.237  1.00  0.00     0.000 C 
BRANCH  12  13
ATOM     13  C   UNL     1      -4.412   0.301  -1.176  1.00  0.00     0.006 C 
BRANCH  13  14
ATOM     14  C   UNL     1      -3.903   1.261  -2.265  1.00  0.00     0.053 C 
BRANCH  14  15
ATOM     15  C   UNL     1      -3.958   0.642  -3.629  1.00  0.00     0.041 C 
ATOM     16  O   UNL     1      -5.064   0.484  -4.212  1.00  0.00    -0.550 OA
ATOM     17  O   UNL     1      -2.787   0.227  -4.253  1.00  0.00    -0.550 OA
ENDBRANCH  14  15
ENDBRANCH  13  14
ENDBRANCH  12  13
ENDBRANCH  11  12
ENDBRANCH  10  11
ENDBRANCH   9  10
ENDBRANCH   8   9
ENDBRANCH   7   8
ENDBRANCH   6   7
ENDBRANCH   5   6
ENDBRANCH   4   5
ENDBRANCH   3   4
ENDBRANCH   2   3
ENDBRANCH   1   2
BRANCH   1  18
ATOM     18  C   UNL     1      -9.886  -0.609  -6.493  1.00  0.00     0.000 C 
BRANCH  18  19
ATOM     19  C   UNL     1     -10.032  -0.141  -7.949  1.00  0.00     0.000 C 
BRANCH  19  20
ATOM     20  C   UNL     1      -8.694   0.380  -8.494  1.00  0.00     0.000 C 
BRANCH  20  21
ATOM     21  C   UNL     1      -8.827   1.013  -9.889  1.00  0.00     0.000 C 
BRANCH  21  22
ATOM     22  C   UNL     1      -8.762   2.549  -9.850  1.00  0.00     0.000 C 
BRANCH  22  23
ATOM     23  C   UNL     1      -8.394   3.087  -8.456  1.00  0.00     0.000 C 
BRANCH  23  24
ATOM     24  C   UNL     1      -9.301   4.248  -8.013  1.00  0.00    -0.000 C 
BRANCH  24  25
ATOM     25  C   UNL     1      -8.801   4.938  -6.732  1.00  0.00    -0.000 C 
BRANCH  25  26
ATOM     26  C   UNL     1      -9.068   6.455  -6.659  1.00  0.00    -0.000 C 
BRANCH  26  27
ATOM     27  C   UNL     1      -9.302   7.142  -8.019  1.00  0.00    -0.000 C 
BRANCH  27  28
ATOM     28  C   UNL     1      -8.701   8.556  -8.145  1.00  0.00    -0.000 C 
BRANCH  28  29
ATOM     29  C   UNL     1      -7.885   8.805  -9.429  1.00  0.00    -0.000 C 
BRANCH  29  30
ATOM     30  C   UNL     1      -6.756   7.788  -9.692  1.00  0.00    -0.000 C 
BRANCH  30  31
ATOM     31  C   UNL     1      -7.229   6.353  -9.979  1.00  0.00    -0.003 C 
ATOM     32  C   UNL     1      -6.075   5.363 -10.122  1.00  0.00     0.004 C 
ENDBRANCH  30  31
ENDBRANCH  29  30
ENDBRANCH  28  29
ENDBRANCH  27  28
ENDBRANCH  26  27
ENDBRANCH  25  26
ENDBRANCH  24  25
ENDBRANCH  23  24
ENDBRANCH  22  23
ENDBRANCH  21  22
ENDBRANCH  20  21
ENDBRANCH  19  20
ENDBRANCH  18  19
ENDBRANCH   1  18
TORSDOF 28
ENDMDL
MODEL 6
REMARK VINA RESULT:     0.377     16.997     20.853
REMARK INTER + INTRA:          -0.065
REMARK INTER:                   1.090
REMARK INTRA:                  -1.155
REMARK UNBOUND:                -1.059
REMARK SMILES CCCCCCCCCCCCCCCCCCCCCCCCCCCCCC(=O)[O-]
REMARK SMILES IDX 16 1 17 2 18 3 19 4 20 5 21 6 22 7 23 8 24 9 25 10 26 11
REMARK SMILES IDX 27 12 28 13 29 14 30 15 31 16 32 17 15 18 14 19 13 20 12 21
REMARK SMILES IDX 11 22 10 23 9 24 8 25 7 26 6 27 5 28 4 29 3 30 2 31 1 32
REMARK H PARENT
REMARK Flexibility Score: inf
ROOT
ATOM      1  C   UNL     1      -9.703   3.831  -8.937  1.00  0.00     0.000 C 
ENDROOT
BRANCH   1   2
ATOM      2  C   UNL     1      -8.317   4.349  -8.511  1.00  0.00     0.000 C 
BRANCH   2   3
ATOM      3  C   UNL     1      -8.287   4.858  -7.060  1.00  0.00     0.000 C 
BRANCH   3   4
ATOM      4  C   UNL     1      -9.443   4.303  -6.206  1.00  0.00     0.000 C 
BRANCH   4   5
ATOM      5  C   UNL     1      -9.760   5.109  -4.932  1.00  0.00     0.000 C 
BRANCH   5   6
ATOM      6  C   UNL     1      -9.870   4.229  -3.677  1.00  0.00     0.000 C 
BRANCH   6   7
ATOM      7  C   UNL     1      -9.083   2.921  -3.856  1.00  0.00     0.000 C 
BRANCH   7   8
ATOM      8  C   UNL     1      -8.252   2.543  -2.616  1.00  0.00     0.000 C 
BRANCH   8   9
ATOM      9  C   UNL     1      -7.294   1.354  -2.815  1.00  0.00     0.000 C 
BRANCH   9  10
ATOM     10  C   UNL     1      -5.975   1.756  -3.498  1.00  0.00     0.000 C 
BRANCH  10  11
ATOM     11  C   UNL     1      -4.772   0.951  -2.966  1.00  0.00     0.000 C 
BRANCH  11  12
ATOM     12  C   UNL     1      -4.380   1.297  -1.518  1.00  0.00     0.000 C 
BRANCH  12  13
ATOM     13  C   UNL     1      -5.572   1.674  -0.612  1.00  0.00     0.006 C 
BRANCH  13  14
ATOM     14  C   UNL     1      -5.374   2.992   0.156  1.00  0.00     0.053 C 
BRANCH  14  15
ATOM     15  C   UNL     1      -4.869   2.759   1.548  1.00  0.00     0.041 C 
ATOM     16  O   UNL     1      -3.630   2.704   1.774  1.00  0.00    -0.550 OA
ATOM     17  O   UNL     1      -5.766   2.590   2.596  1.00  0.00    -0.550 OA
ENDBRANCH  14  15
ENDBRANCH  13  14
ENDBRANCH  12  13
ENDBRANCH  11  12
ENDBRANCH  10  11
ENDBRANCH   9  10
ENDBRANCH   8   9
ENDBRANCH   7   8
ENDBRANCH   6   7
ENDBRANCH   5   6
ENDBRANCH   4   5
ENDBRANCH   3   4
ENDBRANCH   2   3
ENDBRANCH   1   2
BRANCH   1  18
ATOM     18  C   UNL     1      -9.702   2.850 -10.124  1.00  0.00     0.000 C 
BRANCH  18  19
ATOM     19  C   UNL     1      -9.285   1.426  -9.726  1.00  0.00     0.000 C 
BRANCH  19  20
ATOM     20  C   UNL     1      -9.918   1.024  -8.385  1.00  0.00     0.000 C 
BRANCH  20  21
ATOM     21  C   UNL     1      -9.390  -0.321  -7.859  1.00  0.00     0.000 C 
BRANCH  21  22
ATOM     22  C   UNL     1      -9.756  -1.499  -8.778  1.00  0.00     0.000 C 
BRANCH  22  23
ATOM     23  C   UNL     1     -10.122  -2.769  -7.988  1.00  0.00     0.000 C 
BRANCH  23  24
ATOM     24  C   UNL     1      -9.408  -4.022  -8.523  1.00  0.00    -0.000 C 
BRANCH  24  25
ATOM     25  C   UNL     1     -10.054  -4.572  -9.807  1.00  0.00    -0.000 C 
BRANCH  25  26
ATOM     26  C   UNL     1     -10.004  -6.106  -9.960  1.00  0.00    -0.000 C 
BRANCH  26  27
ATOM     27  C   UNL     1      -8.820  -6.793  -9.251  1.00  0.00    -0.000 C 
BRANCH  27  28
ATOM     28  C   UNL     1      -8.126  -7.899 -10.070  1.00  0.00    -0.000 C 
BRANCH  28  29
ATOM     29  C   UNL     1      -7.871  -9.214  -9.306  1.00  0.00    -0.000 C 
BRANCH  29  30
ATOM     30  C   UNL     1      -6.451  -9.365  -8.725  1.00  0.00    -0.000 C 
BRANCH  30  31
ATOM     31  C   UNL     1      -6.349  -9.175  -7.201  1.00  0.00    -0.003 C 
ATOM     32  C   UNL     1      -7.712  -9.162  -6.512  1.00  0.00     0.004 C 
ENDBRANCH  30  31
ENDBRANCH  29  30
ENDBRANCH  28  29
ENDBRANCH  27  28
ENDBRANCH  26  27
ENDBRANCH  25  26
ENDBRANCH  24  25
ENDBRANCH  23  24
ENDBRANCH  22  23
ENDBRANCH  21  22
ENDBRANCH  20  21
ENDBRANCH  19  20
ENDBRANCH  18  19
ENDBRANCH   1  18
TORSDOF 28
ENDMDL
