MODEL 1
REMARK VINA RESULT:    -6.636      0.000      0.000
REMARK INTER + INTRA:          -6.636
REMARK INTER:                  -6.636
REMARK INTRA:                   0.000
REMARK UNBOUND:                 0.000
REMARK SMILES C=C1CCC[C@]2(C)CC(=O)C(=C(C)C)C[C@H]12
REMARK SMILES IDX 13 1 12 2 11 3 15 4 16 5 2 6 1 7 3 8 4 9 5 10 6 11 8 12 9 13
REMARK SMILES IDX 10 14 7 15 14 16
REMARK H PARENT
REMARK Flexibility Score: inf
ROOT
ATOM      1  C   UNL     1      -5.083   0.972   3.298  1.00  0.00     0.039 C 
ATOM      2  C   UNL     1      -4.236   0.711   2.074  1.00  0.00    -0.070 C 
ATOM      3  C   UNL     1      -4.789   0.271   0.907  1.00  0.00    -0.006 C 
ATOM      4  C   UNL     1      -3.971  -0.092  -0.318  1.00  0.00     0.047 C 
ATOM      5  C   UNL     1      -4.206  -1.566  -0.782  1.00  0.00     0.025 C 
ATOM      6  C   UNL     1      -3.699  -1.815  -2.219  1.00  0.00    -0.073 C 
ATOM      7  C   UNL     1      -2.723  -1.073  -2.779  1.00  0.00     0.008 C 
ATOM      8  C   UNL     1      -4.152  -3.026  -3.006  1.00  0.00     0.031 C 
ATOM      9  C   UNL     1      -5.166  -3.875  -2.254  1.00  0.00     0.005 C 
ATOM     10  C   UNL     1      -6.246  -2.977  -1.663  1.00  0.00     0.008 C 
ATOM     11  C   UNL     1      -5.697  -2.077  -0.516  1.00  0.00    -0.018 C 
ATOM     12  C   UNL     1      -6.688  -0.885  -0.358  1.00  0.00     0.088 C 
ATOM     13  C   UNL     1      -6.243   0.059   0.718  1.00  0.00     0.159 C 
ATOM     14  O   UNL     1      -7.105   0.704   1.372  1.00  0.00    -0.295 OA
ATOM     15  C   UNL     1      -5.723  -2.912   0.797  1.00  0.00     0.012 C 
ATOM     16  C   UNL     1      -2.746   0.917   2.210  1.00  0.00     0.039 C 
ENDROOT
TORSDOF 0
ENDMDL
MODEL 2
REMARK VINA RESULT:    -6.409      1.672      4.843
REMARK INTER + INTRA:          -6.409
REMARK INTER:                  -6.409
REMARK INTRA:                   0.000
REMARK UNBOUND:                 0.000
REMARK SMILES C=C1CCC[C@]2(C)CC(=O)C(=C(C)C)C[C@H]12
REMARK SMILES IDX 13 1 12 2 11 3 15 4 16 5 2 6 1 7 3 8 4 9 5 10 6 11 8 12 9 13
REMARK SMILES IDX 10 14 7 15 14 16
REMARK H PARENT
REMARK Flexibility Score: inf
ROOT
ATOM      1  C   UNL     1      -5.239  -3.226  -3.296  1.00  0.00     0.039 C 
ATOM      2  C   UNL     1      -4.357  -3.017  -2.087  1.00  0.00    -0.070 C 
ATOM      3  C   UNL     1      -4.865  -2.567  -0.904  1.00  0.00    -0.006 C 
ATOM      4  C   UNL     1      -4.007  -2.254   0.307  1.00  0.00     0.047 C 
ATOM      5  C   UNL     1      -4.168  -0.777   0.792  1.00  0.00     0.025 C 
ATOM      6  C   UNL     1      -3.621  -0.566   2.221  1.00  0.00    -0.073 C 
ATOM      7  C   UNL     1      -2.667  -1.357   2.752  1.00  0.00     0.008 C 
ATOM      8  C   UNL     1      -4.004   0.653   3.031  1.00  0.00     0.031 C 
ATOM      9  C   UNL     1      -4.996   1.554   2.309  1.00  0.00     0.005 C 
ATOM     10  C   UNL     1      -6.126   0.711   1.732  1.00  0.00     0.008 C 
ATOM     11  C   UNL     1      -5.640  -0.198   0.563  1.00  0.00    -0.018 C 
ATOM     12  C   UNL     1      -6.685  -1.344   0.414  1.00  0.00     0.088 C 
ATOM     13  C   UNL     1      -6.305  -2.294  -0.682  1.00  0.00     0.159 C 
ATOM     14  O   UNL     1      -7.207  -2.894  -1.325  1.00  0.00    -0.295 OA
ATOM     15  C   UNL     1      -5.658   0.652  -0.740  1.00  0.00     0.012 C 
ATOM     16  C   UNL     1      -2.880  -3.285  -2.256  1.00  0.00     0.039 C 
ENDROOT
TORSDOF 0
ENDMDL
MODEL 3
REMARK VINA RESULT:    -6.364      2.712      4.516
REMARK INTER + INTRA:          -6.364
REMARK INTER:                  -6.364
REMARK INTRA:                   0.000
REMARK UNBOUND:                 0.000
REMARK SMILES C=C1CCC[C@]2(C)CC(=O)C(=C(C)C)C[C@H]12
REMARK SMILES IDX 13 1 12 2 11 3 15 4 16 5 2 6 1 7 3 8 4 9 5 10 6 11 8 12 9 13
REMARK SMILES IDX 10 14 7 15 14 16
REMARK H PARENT
REMARK Flexibility Score: inf
ROOT
ATOM      1  C   UNL     1       0.996  -0.987   1.727  1.00  0.00     0.039 C 
ATOM      2  C   UNL     1      -0.191  -0.077   1.946  1.00  0.00    -0.070 C 
ATOM      3  C   UNL     1      -1.443  -0.577   2.154  1.00  0.00    -0.006 C 
ATOM      4  C   UNL     1      -2.678   0.293   2.287  1.00  0.00     0.047 C 
ATOM      5  C   UNL     1      -3.772  -0.050   1.225  1.00  0.00     0.025 C 
ATOM      6  C   UNL     1      -5.150   0.540   1.592  1.00  0.00    -0.073 C 
ATOM      7  C   UNL     1      -5.284   1.626   2.381  1.00  0.00     0.008 C 
ATOM      8  C   UNL     1      -6.416   0.033   0.936  1.00  0.00     0.031 C 
ATOM      9  C   UNL     1      -6.162  -1.117  -0.028  1.00  0.00     0.005 C 
ATOM     10  C   UNL     1      -5.251  -2.145   0.632  1.00  0.00     0.008 C 
ATOM     11  C   UNL     1      -3.806  -1.601   0.838  1.00  0.00    -0.018 C 
ATOM     12  C   UNL     1      -3.142  -2.477   1.942  1.00  0.00     0.088 C 
ATOM     13  C   UNL     1      -1.743  -2.027   2.233  1.00  0.00     0.159 C 
ATOM     14  O   UNL     1      -0.886  -2.869   2.614  1.00  0.00    -0.295 OA
ATOM     15  C   UNL     1      -3.024  -1.813  -0.490  1.00  0.00     0.012 C 
ATOM     16  C   UNL     1       0.059   1.411   1.881  1.00  0.00     0.039 C 
ENDROOT
TORSDOF 0
ENDMDL
MODEL 4
REMARK VINA RESULT:    -6.276      2.626      4.639
REMARK INTER + INTRA:          -6.276
REMARK INTER:                  -6.276
REMARK INTRA:                   0.000
REMARK UNBOUND:                 0.000
REMARK SMILES C=C1CCC[C@]2(C)CC(=O)C(=C(C)C)C[C@H]12
REMARK SMILES IDX 13 1 12 2 11 3 15 4 16 5 2 6 1 7 3 8 4 9 5 10 6 11 8 12 9 13
REMARK SMILES IDX 10 14 7 15 14 16
REMARK H PARENT
REMARK Flexibility Score: inf
ROOT
ATOM      1  C   UNL     1       0.956  -1.438  -1.314  1.00  0.00     0.039 C 
ATOM      2  C   UNL     1      -0.213  -2.323  -1.682  1.00  0.00    -0.070 C 
ATOM      3  C   UNL     1      -1.447  -1.802  -1.941  1.00  0.00    -0.006 C 
ATOM      4  C   UNL     1      -2.669  -2.653  -2.223  1.00  0.00     0.047 C 
ATOM      5  C   UNL     1      -3.835  -2.382  -1.218  1.00  0.00     0.025 C 
ATOM      6  C   UNL     1      -5.185  -2.936  -1.724  1.00  0.00    -0.073 C 
ATOM      7  C   UNL     1      -5.263  -3.961  -2.597  1.00  0.00     0.008 C 
ATOM      8  C   UNL     1      -6.494  -2.471  -1.123  1.00  0.00     0.031 C 
ATOM      9  C   UNL     1      -6.308  -1.396  -0.062  1.00  0.00     0.005 C 
ATOM     10  C   UNL     1      -5.352  -0.328  -0.579  1.00  0.00     0.008 C 
ATOM     11  C   UNL     1      -3.897  -0.864  -0.722  1.00  0.00    -0.018 C 
ATOM     12  C   UNL     1      -3.156   0.087  -1.710  1.00  0.00     0.088 C 
ATOM     13  C   UNL     1      -1.739  -0.348  -1.934  1.00  0.00     0.159 C 
ATOM     14  O   UNL     1      -0.858   0.514  -2.191  1.00  0.00    -0.295 OA
ATOM     15  C   UNL     1      -3.210  -0.754   0.670  1.00  0.00     0.012 C 
ATOM     16  C   UNL     1       0.032  -3.813  -1.708  1.00  0.00     0.039 C 
ENDROOT
TORSDOF 0
ENDMDL
MODEL 5
REMARK VINA RESULT:    -5.782      4.756      7.882
REMARK INTER + INTRA:          -5.782
REMARK INTER:                  -5.782
REMARK INTRA:                   0.000
REMARK UNBOUND:                 0.000
REMARK SMILES C=C1CCC[C@]2(C)CC(=O)C(=C(C)C)C[C@H]12
REMARK SMILES IDX 13 1 12 2 11 3 15 4 16 5 2 6 1 7 3 8 4 9 5 10 6 11 8 12 9 13
REMARK SMILES IDX 10 14 7 15 14 16
REMARK H PARENT
REMARK Flexibility Score: inf
ROOT
ATOM      1  C   UNL     1      -3.154  -2.096   1.943  1.00  0.00     0.039 C 
ATOM      2  C   UNL     1      -2.349  -0.849   2.223  1.00  0.00    -0.070 C 
ATOM      3  C   UNL     1      -1.059  -0.917   2.660  1.00  0.00    -0.006 C 
ATOM      4  C   UNL     1      -0.242   0.303   3.041  1.00  0.00     0.047 C 
ATOM      5  C   UNL     1       0.279   0.240   4.513  1.00  0.00     0.025 C 
ATOM      6  C   UNL     1       1.412   1.256   4.778  1.00  0.00    -0.073 C 
ATOM      7  C   UNL     1       1.552   2.385   4.053  1.00  0.00     0.008 C 
ATOM      8  C   UNL     1       2.315   1.121   5.984  1.00  0.00     0.031 C 
ATOM      9  C   UNL     1       2.012  -0.118   6.814  1.00  0.00     0.005 C 
ATOM     10  C   UNL     1       1.881  -1.327   5.896  1.00  0.00     0.008 C 
ATOM     11  C   UNL     1       0.608  -1.247   5.000  1.00  0.00    -0.018 C 
ATOM     12  C   UNL     1       0.841  -2.203   3.791  1.00  0.00     0.088 C 
ATOM     13  C   UNL     1      -0.325  -2.191   2.849  1.00  0.00     0.159 C 
ATOM     14  O   UNL     1      -0.598  -3.227   2.187  1.00  0.00    -0.295 OA
ATOM     15  C   UNL     1      -0.592  -1.790   5.828  1.00  0.00     0.012 C 
ATOM     16  C   UNL     1      -3.048   0.478   2.041  1.00  0.00     0.039 C 
ENDROOT
TORSDOF 0
ENDMDL
MODEL 6
REMARK VINA RESULT:    -5.551      2.363      5.394
REMARK INTER + INTRA:          -5.551
REMARK INTER:                  -5.551
REMARK INTRA:                   0.000
REMARK UNBOUND:                 0.000
REMARK SMILES C=C1CCC[C@]2(C)CC(=O)C(=C(C)C)C[C@H]12
REMARK SMILES IDX 13 1 12 2 11 3 15 4 16 5 2 6 1 7 3 8 4 9 5 10 6 11 8 12 9 13
REMARK SMILES IDX 10 14 7 15 14 16
REMARK H PARENT
REMARK Flexibility Score: inf
ROOT
ATOM      1  C   UNL     1      -4.903  -3.441  -2.622  1.00  0.00     0.039 C 
ATOM      2  C   UNL     1      -5.017  -2.541  -1.413  1.00  0.00    -0.070 C 
ATOM      3  C   UNL     1      -4.152  -1.506  -1.212  1.00  0.00    -0.006 C 
ATOM      4  C   UNL     1      -4.169  -0.634   0.028  1.00  0.00     0.047 C 
ATOM      5  C   UNL     1      -2.805  -0.647   0.791  1.00  0.00     0.025 C 
ATOM      6  C   UNL     1      -2.687   0.514   1.802  1.00  0.00    -0.073 C 
ATOM      7  C   UNL     1      -3.768   1.106   2.350  1.00  0.00     0.008 C 
ATOM      8  C   UNL     1      -1.344   0.926   2.364  1.00  0.00     0.031 C 
ATOM      9  C   UNL     1      -0.188   0.127   1.779  1.00  0.00     0.005 C 
ATOM     10  C   UNL     1      -0.327   0.066   0.262  1.00  0.00     0.008 C 
ATOM     11  C   UNL     1      -1.544  -0.799  -0.181  1.00  0.00    -0.018 C 
ATOM     12  C   UNL     1      -1.896  -0.378  -1.639  1.00  0.00     0.088 C 
ATOM     13  C   UNL     1      -3.074  -1.144  -2.163  1.00  0.00     0.159 C 
ATOM     14  O   UNL     1      -3.158  -1.386  -3.396  1.00  0.00    -0.295 OA
ATOM     15  C   UNL     1      -1.089  -2.287  -0.198  1.00  0.00     0.012 C 
ATOM     16  C   UNL     1      -6.104  -2.863  -0.414  1.00  0.00     0.039 C 
ENDROOT
TORSDOF 0
ENDMDL
MODEL 7
REMARK VINA RESULT:    -5.497      3.463      4.548
REMARK INTER + INTRA:          -5.497
REMARK INTER:                  -5.497
REMARK INTRA:                   0.000
REMARK UNBOUND:                 0.000
REMARK SMILES C=C1CCC[C@]2(C)CC(=O)C(=C(C)C)C[C@H]12
REMARK SMILES IDX 13 1 12 2 11 3 15 4 16 5 2 6 1 7 3 8 4 9 5 10 6 11 8 12 9 13
REMARK SMILES IDX 10 14 7 15 14 16
REMARK H PARENT
REMARK Flexibility Score: inf
ROOT
ATOM      1  C   UNL     1       0.506  -3.067   3.719  1.00  0.00     0.039 C 
ATOM      2  C   UNL     1       0.400  -2.709   2.255  1.00  0.00    -0.070 C 
ATOM      3  C   UNL     1      -0.372  -1.668   1.829  1.00  0.00    -0.006 C 
ATOM      4  C   UNL     1      -0.582  -1.329   0.366  1.00  0.00     0.047 C 
ATOM      5  C   UNL     1      -2.090  -1.347  -0.044  1.00  0.00     0.025 C 
ATOM      6  C   UNL     1      -2.339  -0.635  -1.391  1.00  0.00    -0.073 C 
ATOM      7  C   UNL     1      -1.379  -0.510  -2.330  1.00  0.00     0.008 C 
ATOM      8  C   UNL     1      -3.730  -0.197  -1.797  1.00  0.00     0.031 C 
ATOM      9  C   UNL     1      -4.774  -0.480  -0.726  1.00  0.00     0.005 C 
ATOM     10  C   UNL     1      -4.256  -0.012   0.628  1.00  0.00     0.008 C 
ATOM     11  C   UNL     1      -3.066  -0.881   1.133  1.00  0.00    -0.018 C 
ATOM     12  C   UNL     1      -2.307  -0.037   2.201  1.00  0.00     0.088 C 
ATOM     13  C   UNL     1      -1.123  -0.778   2.746  1.00  0.00     0.159 C 
ATOM     14  O   UNL     1      -0.750  -0.567   3.931  1.00  0.00    -0.295 OA
ATOM     15  C   UNL     1      -3.658  -2.138   1.833  1.00  0.00     0.012 C 
ATOM     16  C   UNL     1       1.152  -3.582   1.277  1.00  0.00     0.039 C 
ENDROOT
TORSDOF 0
ENDMDL
MODEL 8
REMARK VINA RESULT:    -5.388      6.974      9.112
REMARK INTER + INTRA:          -5.388
REMARK INTER:                  -5.388
REMARK INTRA:                   0.000
REMARK UNBOUND:                 0.000
REMARK SMILES C=C1CCC[C@]2(C)CC(=O)C(=C(C)C)C[C@H]12
REMARK SMILES IDX 13 1 12 2 11 3 15 4 16 5 2 6 1 7 3 8 4 9 5 10 6 11 8 12 9 13
REMARK SMILES IDX 10 14 7 15 14 16
REMARK H PARENT
REMARK Flexibility Score: inf
ROOT
ATOM      1  C   UNL     1      -0.332   5.081   2.299  1.00  0.00     0.039 C 
ATOM      2  C   UNL     1       0.093   4.663   3.687  1.00  0.00    -0.070 C 
ATOM      3  C   UNL     1       1.011   3.673   3.884  1.00  0.00    -0.006 C 
ATOM      4  C   UNL     1       1.401   3.157   5.255  1.00  0.00     0.047 C 
ATOM      5  C   UNL     1       1.150   1.622   5.412  1.00  0.00     0.025 C 
ATOM      6  C   UNL     1       1.893   1.029   6.630  1.00  0.00    -0.073 C 
ATOM      7  C   UNL     1       2.239   1.775   7.698  1.00  0.00     0.008 C 
ATOM      8  C   UNL     1       2.110  -0.463   6.760  1.00  0.00     0.031 C 
ATOM      9  C   UNL     1       1.585  -1.243   5.564  1.00  0.00     0.005 C 
ATOM     10  C   UNL     1       2.049  -0.575   4.275  1.00  0.00     0.008 C 
ATOM     11  C   UNL     1       1.367   0.808   4.054  1.00  0.00    -0.018 C 
ATOM     12  C   UNL     1       2.259   1.601   3.052  1.00  0.00     0.088 C 
ATOM     13  C   UNL     1       1.699   2.964   2.778  1.00  0.00     0.159 C 
ATOM     14  O   UNL     1       1.897   3.502   1.657  1.00  0.00    -0.295 OA
ATOM     15  C   UNL     1      -0.015   0.556   3.384  1.00  0.00     0.012 C 
ATOM     16  C   UNL     1      -0.574   5.358   4.851  1.00  0.00     0.039 C 
ENDROOT
TORSDOF 0
ENDMDL
MODEL 9
REMARK VINA RESULT:    -5.331      6.711      8.967
REMARK INTER + INTRA:          -5.331
REMARK INTER:                  -5.331
REMARK INTRA:                   0.000
REMARK UNBOUND:                 0.000
REMARK SMILES C=C1CCC[C@]2(C)CC(=O)C(=C(C)C)C[C@H]12
REMARK SMILES IDX 13 1 12 2 11 3 15 4 16 5 2 6 1 7 3 8 4 9 5 10 6 11 8 12 9 13
REMARK SMILES IDX 10 14 7 15 14 16
REMARK H PARENT
REMARK Flexibility Score: inf
ROOT
ATOM      1  C   UNL     1       1.987   4.690   1.833  1.00  0.00     0.039 C 
ATOM      2  C   UNL     1       1.310   3.343   1.939  1.00  0.00    -0.070 C 
ATOM      3  C   UNL     1       0.927   2.831   3.144  1.00  0.00    -0.006 C 
ATOM      4  C   UNL     1       0.329   1.448   3.310  1.00  0.00     0.047 C 
ATOM      5  C   UNL     1       1.155   0.550   4.287  1.00  0.00     0.025 C 
ATOM      6  C   UNL     1       0.361  -0.687   4.759  1.00  0.00    -0.073 C 
ATOM      7  C   UNL     1      -0.649  -1.215   4.038  1.00  0.00     0.008 C 
ATOM      8  C   UNL     1       0.796  -1.477   5.975  1.00  0.00     0.031 C 
ATOM      9  C   UNL     1       2.014  -0.878   6.663  1.00  0.00     0.005 C 
ATOM     10  C   UNL     1       1.818   0.624   6.833  1.00  0.00     0.008 C 
ATOM     11  C   UNL     1       1.843   1.376   5.469  1.00  0.00    -0.018 C 
ATOM     12  C   UNL     1       1.135   2.747   5.692  1.00  0.00     0.088 C 
ATOM     13  C   UNL     1       1.089   3.553   4.429  1.00  0.00     0.159 C 
ATOM     14  O   UNL     1       1.106   4.811   4.494  1.00  0.00    -0.295 OA
ATOM     15  C   UNL     1       3.331   1.648   5.103  1.00  0.00     0.012 C 
ATOM     16  C   UNL     1       1.115   2.568   0.657  1.00  0.00     0.039 C 
ENDROOT
TORSDOF 0
ENDMDL
