MODEL 1
REMARK VINA RESULT:    -5.555      0.000      0.000
REMARK INTER + INTRA:          -8.075
REMARK INTER:                  -7.504
REMARK INTRA:                  -0.571
REMARK UNBOUND:                -0.571
REMARK SMILES CC(=O)CCC=C(C)CCC=C(C)C
REMARK SMILES IDX 7 1 6 2 8 3 9 4 10 5 11 6 13 7 12 8 14 9 5 10 4 11 2 12 3 13
REMARK SMILES IDX 1 14
REMARK H PARENT
REMARK Flexibility Score: inf
ROOT
ATOM      1  C   UNL     1       3.561  18.657  -6.943  1.00  0.00    -0.077 C 
ATOM      2  C   UNL     1       3.456  17.325  -6.731  1.00  0.00    -0.028 C 
ATOM      3  C   UNL     1       3.563  19.565  -5.739  1.00  0.00     0.039 C 
ENDROOT
BRANCH   1   4
ATOM      4  C   UNL     1       3.687  19.280  -8.324  1.00  0.00     0.034 C 
BRANCH   4   5
ATOM      5  C   UNL     1       2.326  19.459  -9.016  1.00  0.00     0.032 C 
BRANCH   5   6
ATOM      6  C   UNL     1       1.433  20.419  -8.265  1.00  0.00    -0.028 C 
ATOM      7  C   UNL     1       0.627  22.584  -7.433  1.00  0.00     0.039 C 
ATOM      8  C   UNL     1       1.568  21.763  -8.277  1.00  0.00    -0.080 C 
ATOM      9  C   UNL     1       2.611  22.457  -9.120  1.00  0.00     0.039 C 
ENDBRANCH   5   6
ENDBRANCH   4   5
ENDBRANCH   1   4
BRANCH   2  10
ATOM     10  C   UNL     1       3.414  16.258  -7.802  1.00  0.00     0.035 C 
BRANCH  10  11
ATOM     11  C   UNL     1       4.794  15.617  -8.002  1.00  0.00     0.079 C 
BRANCH  11  12
ATOM     12  C   UNL     1       5.071  14.550  -6.975  1.00  0.00     0.130 C 
ATOM     13  O   UNL     1       5.698  14.832  -5.964  1.00  0.00    -0.300 OA
ATOM     14  C   UNL     1       4.619  13.137  -7.189  1.00  0.00     0.087 C 
ENDBRANCH  11  12
ENDBRANCH  10  11
ENDBRANCH   2  10
TORSDOF 6
ENDMDL
MODEL 2
REMARK VINA RESULT:    -5.451      1.461      2.208
REMARK INTER + INTRA:          -7.934
REMARK INTER:                  -6.847
REMARK INTRA:                  -1.087
REMARK UNBOUND:                -0.571
REMARK SMILES CC(=O)CCC=C(C)CCC=C(C)C
REMARK SMILES IDX 7 1 6 2 8 3 9 4 10 5 11 6 13 7 12 8 14 9 5 10 4 11 2 12 3 13
REMARK SMILES IDX 1 14
REMARK H PARENT
REMARK Flexibility Score: inf
ROOT
ATOM      1  C   UNL     1       1.809  17.259  -7.475  1.00  0.00    -0.077 C 
ATOM      2  C   UNL     1       1.867  16.707  -6.240  1.00  0.00    -0.028 C 
ATOM      3  C   UNL     1       0.452  17.631  -8.018  1.00  0.00     0.039 C 
ENDROOT
BRANCH   1   4
ATOM      4  C   UNL     1       3.036  17.532  -8.330  1.00  0.00     0.034 C 
BRANCH   4   5
ATOM      5  C   UNL     1       3.790  18.797  -7.891  1.00  0.00     0.032 C 
BRANCH   5   6
ATOM      6  C   UNL     1       3.326  20.021  -8.646  1.00  0.00    -0.028 C 
ATOM      7  C   UNL     1       2.074  22.096  -9.047  1.00  0.00     0.039 C 
ATOM      8  C   UNL     1       2.485  20.956  -8.151  1.00  0.00    -0.080 C 
ATOM      9  C   UNL     1       1.969  20.901  -6.732  1.00  0.00     0.039 C 
ENDBRANCH   5   6
ENDBRANCH   4   5
ENDBRANCH   1   4
BRANCH   2  10
ATOM     10  C   UNL     1       3.122  16.248  -5.534  1.00  0.00     0.035 C 
BRANCH  10  11
ATOM     11  C   UNL     1       3.510  14.825  -5.957  1.00  0.00     0.079 C 
BRANCH  11  12
ATOM     12  C   UNL     1       4.906  14.767  -6.520  1.00  0.00     0.130 C 
ATOM     13  O   UNL     1       5.865  14.913  -5.776  1.00  0.00    -0.300 OA
ATOM     14  C   UNL     1       5.139  14.568  -7.987  1.00  0.00     0.087 C 
ENDBRANCH  11  12
ENDBRANCH  10  11
ENDBRANCH   2  10
TORSDOF 6
ENDMDL
MODEL 3
REMARK VINA RESULT:    -5.414      1.382      1.898
REMARK INTER + INTRA:          -7.884
REMARK INTER:                  -6.762
REMARK INTRA:                  -1.121
REMARK UNBOUND:                -0.571
REMARK SMILES CC(=O)CCC=C(C)CCC=C(C)C
REMARK SMILES IDX 7 1 6 2 8 3 9 4 10 5 11 6 13 7 12 8 14 9 5 10 4 11 2 12 3 13
REMARK SMILES IDX 1 14
REMARK H PARENT
REMARK Flexibility Score: inf
ROOT
ATOM      1  C   UNL     1       1.944  17.607  -7.614  1.00  0.00    -0.077 C 
ATOM      2  C   UNL     1       2.731  16.918  -8.473  1.00  0.00    -0.028 C 
ATOM      3  C   UNL     1       0.472  17.701  -7.927  1.00  0.00     0.039 C 
ENDROOT
BRANCH   1   4
ATOM      4  C   UNL     1       2.463  18.275  -6.351  1.00  0.00     0.034 C 
BRANCH   4   5
ATOM      5  C   UNL     1       3.089  19.652  -6.628  1.00  0.00     0.032 C 
BRANCH   5   6
ATOM      6  C   UNL     1       2.051  20.750  -6.648  1.00  0.00    -0.028 C 
ATOM      7  C   UNL     1       0.683  22.556  -7.595  1.00  0.00     0.039 C 
ATOM      8  C   UNL     1       1.701  21.455  -7.746  1.00  0.00    -0.080 C 
ATOM      9  C   UNL     1       2.280  21.158  -9.110  1.00  0.00     0.039 C 
ENDBRANCH   5   6
ENDBRANCH   4   5
ENDBRANCH   1   4
BRANCH   2  10
ATOM     10  C   UNL     1       4.226  16.729  -8.346  1.00  0.00     0.035 C 
BRANCH  10  11
ATOM     11  C   UNL     1       4.576  15.272  -8.016  1.00  0.00     0.079 C 
BRANCH  11  12
ATOM     12  C   UNL     1       4.356  14.957  -6.559  1.00  0.00     0.130 C 
ATOM     13  O   UNL     1       5.080  15.465  -5.715  1.00  0.00    -0.300 OA
ATOM     14  C   UNL     1       3.283  14.003  -6.129  1.00  0.00     0.087 C 
ENDBRANCH  11  12
ENDBRANCH  10  11
ENDBRANCH   2  10
TORSDOF 6
ENDMDL
MODEL 4
REMARK VINA RESULT:    -5.394      1.398      2.300
REMARK INTER + INTRA:          -7.857
REMARK INTER:                  -7.164
REMARK INTRA:                  -0.692
REMARK UNBOUND:                -0.571
REMARK SMILES CC(=O)CCC=C(C)CCC=C(C)C
REMARK SMILES IDX 7 1 6 2 8 3 9 4 10 5 11 6 13 7 12 8 14 9 5 10 4 11 2 12 3 13
REMARK SMILES IDX 1 14
REMARK H PARENT
REMARK Flexibility Score: inf
ROOT
ATOM      1  C   UNL     1       3.004  16.811  -6.010  1.00  0.00    -0.077 C 
ATOM      2  C   UNL     1       3.602  15.605  -5.870  1.00  0.00    -0.028 C 
ATOM      3  C   UNL     1       1.517  16.892  -5.772  1.00  0.00     0.039 C 
ENDROOT
BRANCH   1   4
ATOM      4  C   UNL     1       3.751  18.081  -6.382  1.00  0.00     0.034 C 
BRANCH   4   5
ATOM      5  C   UNL     1       3.796  18.316  -7.900  1.00  0.00     0.032 C 
BRANCH   5   6
ATOM      6  C   UNL     1       3.719  19.785  -8.246  1.00  0.00    -0.028 C 
ATOM      7  C   UNL     1       2.680  21.894  -8.956  1.00  0.00     0.039 C 
ATOM      8  C   UNL     1       2.586  20.436  -8.587  1.00  0.00    -0.080 C 
ATOM      9  C   UNL     1       1.238  19.754  -8.589  1.00  0.00     0.039 C 
ENDBRANCH   5   6
ENDBRANCH   4   5
ENDBRANCH   1   4
BRANCH   2  10
ATOM     10  C   UNL     1       5.071  15.316  -6.085  1.00  0.00     0.035 C 
BRANCH  10  11
ATOM     11  C   UNL     1       5.278  14.315  -7.229  1.00  0.00     0.079 C 
BRANCH  11  12
ATOM     12  C   UNL     1       5.791  12.989  -6.730  1.00  0.00     0.130 C 
ATOM     13  O   UNL     1       6.320  12.921  -5.630  1.00  0.00    -0.300 OA
ATOM     14  C   UNL     1       5.693  11.755  -7.576  1.00  0.00     0.087 C 
ENDBRANCH  11  12
ENDBRANCH  10  11
ENDBRANCH   2  10
TORSDOF 6
ENDMDL
MODEL 5
REMARK VINA RESULT:    -5.165      3.091      6.764
REMARK INTER + INTRA:          -7.548
REMARK INTER:                  -6.753
REMARK INTRA:                  -0.795
REMARK UNBOUND:                -0.571
REMARK SMILES CC(=O)CCC=C(C)CCC=C(C)C
REMARK SMILES IDX 7 1 6 2 8 3 9 4 10 5 11 6 13 7 12 8 14 9 5 10 4 11 2 12 3 13
REMARK SMILES IDX 1 14
REMARK H PARENT
REMARK Flexibility Score: inf
ROOT
ATOM      1  C   UNL     1       3.359  19.466  -7.025  1.00  0.00    -0.077 C 
ATOM      2  C   UNL     1       2.304  20.313  -7.029  1.00  0.00    -0.028 C 
ATOM      3  C   UNL     1       4.076  19.239  -5.718  1.00  0.00     0.039 C 
ENDROOT
BRANCH   1   4
ATOM      4  C   UNL     1       3.847  18.727  -8.260  1.00  0.00     0.034 C 
BRANCH   4   5
ATOM      5  C   UNL     1       3.215  17.333  -8.401  1.00  0.00     0.032 C 
BRANCH   5   6
ATOM      6  C   UNL     1       4.196  16.233  -8.066  1.00  0.00    -0.028 C 
ATOM      7  C   UNL     1       5.247  14.467  -6.721  1.00  0.00     0.039 C 
ATOM      8  C   UNL     1       4.166  15.495  -6.934  1.00  0.00    -0.080 C 
ATOM      9  C   UNL     1       3.078  15.658  -5.899  1.00  0.00     0.039 C 
ENDBRANCH   5   6
ENDBRANCH   4   5
ENDBRANCH   1   4
BRANCH   2  10
ATOM     10  C   UNL     1       1.473  20.687  -8.237  1.00  0.00     0.035 C 
BRANCH  10  11
ATOM     11  C   UNL     1       1.903  22.044  -8.809  1.00  0.00     0.079 C 
BRANCH  11  12
ATOM     12  C   UNL     1       0.930  23.137  -8.452  1.00  0.00     0.130 C 
ATOM     13  O   UNL     1       0.892  24.157  -9.125  1.00  0.00    -0.300 OA
ATOM     14  C   UNL     1       0.028  23.010  -7.261  1.00  0.00     0.087 C 
ENDBRANCH  11  12
ENDBRANCH  10  11
ENDBRANCH   2  10
TORSDOF 6
ENDMDL
MODEL 6
REMARK VINA RESULT:    -5.052      2.441      6.445
REMARK INTER + INTRA:          -7.396
REMARK INTER:                  -6.518
REMARK INTRA:                  -0.878
REMARK UNBOUND:                -0.571
REMARK SMILES CC(=O)CCC=C(C)CCC=C(C)C
REMARK SMILES IDX 7 1 6 2 8 3 9 4 10 5 11 6 13 7 12 8 14 9 5 10 4 11 2 12 3 13
REMARK SMILES IDX 1 14
REMARK H PARENT
REMARK Flexibility Score: inf
ROOT
ATOM      1  C   UNL     1       1.649  18.624  -8.149  1.00  0.00    -0.077 C 
ATOM      2  C   UNL     1       1.898  19.613  -9.039  1.00  0.00    -0.028 C 
ATOM      3  C   UNL     1       0.721  17.513  -8.572  1.00  0.00     0.039 C 
ENDROOT
BRANCH   1   4
ATOM      4  C   UNL     1       2.263  18.572  -6.760  1.00  0.00     0.034 C 
BRANCH   4   5
ATOM      5  C   UNL     1       3.743  18.157  -6.785  1.00  0.00     0.032 C 
BRANCH   5   6
ATOM      6  C   UNL     1       3.918  16.676  -6.539  1.00  0.00    -0.028 C 
ATOM      7  C   UNL     1       4.311  14.318  -7.101  1.00  0.00     0.039 C 
ATOM      8  C   UNL     1       4.219  15.770  -7.494  1.00  0.00    -0.080 C 
ATOM      9  C   UNL     1       4.485  16.171  -8.927  1.00  0.00     0.039 C 
ENDBRANCH   5   6
ENDBRANCH   4   5
ENDBRANCH   1   4
BRANCH   2  10
ATOM     10  C   UNL     1       2.779  20.820  -8.799  1.00  0.00     0.035 C 
BRANCH  10  11
ATOM     11  C   UNL     1       1.962  22.118  -8.829  1.00  0.00     0.079 C 
BRANCH  11  12
ATOM     12  C   UNL     1       1.246  22.362  -7.525  1.00  0.00     0.130 C 
ATOM     13  O   UNL     1       1.654  21.830  -6.503  1.00  0.00    -0.300 OA
ATOM     14  C   UNL     1       0.020  23.221  -7.467  1.00  0.00     0.087 C 
ENDBRANCH  11  12
ENDBRANCH  10  11
ENDBRANCH   2  10
TORSDOF 6
ENDMDL
MODEL 7
REMARK VINA RESULT:    -4.972      1.854      3.372
REMARK INTER + INTRA:          -7.288
REMARK INTER:                  -6.428
REMARK INTRA:                  -0.860
REMARK UNBOUND:                -0.571
REMARK SMILES CC(=O)CCC=C(C)CCC=C(C)C
REMARK SMILES IDX 7 1 6 2 8 3 9 4 10 5 11 6 13 7 12 8 14 9 5 10 4 11 2 12 3 13
REMARK SMILES IDX 1 14
REMARK H PARENT
REMARK Flexibility Score: inf
ROOT
ATOM      1  C   UNL     1       2.844  15.147  -6.760  1.00  0.00    -0.077 C 
ATOM      2  C   UNL     1       2.876  13.797  -6.840  1.00  0.00    -0.028 C 
ATOM      3  C   UNL     1       2.814  15.772  -5.387  1.00  0.00     0.039 C 
ENDROOT
BRANCH   1   4
ATOM      4  C   UNL     1       2.849  16.061  -7.975  1.00  0.00     0.034 C 
BRANCH   4   5
ATOM      5  C   UNL     1       4.086  16.972  -8.022  1.00  0.00     0.032 C 
BRANCH   5   6
ATOM      6  C   UNL     1       3.753  18.347  -8.554  1.00  0.00    -0.028 C 
ATOM      7  C   UNL     1       3.103  20.714  -8.467  1.00  0.00     0.039 C 
ATOM      8  C   UNL     1       3.466  19.420  -7.785  1.00  0.00    -0.080 C 
ATOM      9  C   UNL     1       3.519  19.363  -6.276  1.00  0.00     0.039 C 
ENDBRANCH   5   6
ENDBRANCH   4   5
ENDBRANCH   1   4
BRANCH   2  10
ATOM     10  C   UNL     1       2.887  12.986  -8.116  1.00  0.00     0.035 C 
BRANCH  10  11
ATOM     11  C   UNL     1       3.800  11.759  -7.987  1.00  0.00     0.079 C 
BRANCH  11  12
ATOM     12  C   UNL     1       5.249  12.150  -7.852  1.00  0.00     0.130 C 
ATOM     13  O   UNL     1       5.926  11.662  -6.959  1.00  0.00    -0.300 OA
ATOM     14  C   UNL     1       5.867  13.155  -8.777  1.00  0.00     0.087 C 
ENDBRANCH  11  12
ENDBRANCH  10  11
ENDBRANCH   2  10
TORSDOF 6
ENDMDL
MODEL 8
REMARK VINA RESULT:    -4.940      2.679      6.633
REMARK INTER + INTRA:          -7.244
REMARK INTER:                  -6.511
REMARK INTRA:                  -0.733
REMARK UNBOUND:                -0.571
REMARK SMILES CC(=O)CCC=C(C)CCC=C(C)C
REMARK SMILES IDX 7 1 6 2 8 3 9 4 10 5 11 6 13 7 12 8 14 9 5 10 4 11 2 12 3 13
REMARK SMILES IDX 1 14
REMARK H PARENT
REMARK Flexibility Score: inf
ROOT
ATOM      1  C   UNL     1       3.725  17.745  -6.980  1.00  0.00    -0.077 C 
ATOM      2  C   UNL     1       3.734  19.094  -7.083  1.00  0.00    -0.028 C 
ATOM      3  C   UNL     1       3.705  17.143  -5.597  1.00  0.00     0.039 C 
ENDROOT
BRANCH   1   4
ATOM      4  C   UNL     1       3.722  16.812  -8.180  1.00  0.00     0.034 C 
BRANCH   4   5
ATOM      5  C   UNL     1       2.437  15.974  -8.272  1.00  0.00     0.032 C 
BRANCH   5   6
ATOM      6  C   UNL     1       2.718  14.559  -8.723  1.00  0.00    -0.028 C 
ATOM      7  C   UNL     1       3.275  12.178  -8.496  1.00  0.00     0.039 C 
ATOM      8  C   UNL     1       2.961  13.522  -7.892  1.00  0.00    -0.080 C 
ATOM      9  C   UNL     1       2.906  13.668  -6.389  1.00  0.00     0.039 C 
ENDBRANCH   5   6
ENDBRANCH   4   5
ENDBRANCH   1   4
BRANCH   2  10
ATOM     10  C   UNL     1       3.775  19.884  -8.372  1.00  0.00     0.035 C 
BRANCH  10  11
ATOM     11  C   UNL     1       2.367  20.308  -8.809  1.00  0.00     0.079 C 
BRANCH  11  12
ATOM     12  C   UNL     1       2.115  21.770  -8.548  1.00  0.00     0.130 C 
ATOM     13  O   UNL     1       2.789  22.613  -9.122  1.00  0.00    -0.300 OA
ATOM     14  C   UNL     1       1.070  22.210  -7.566  1.00  0.00     0.087 C 
ENDBRANCH  11  12
ENDBRANCH  10  11
ENDBRANCH   2  10
TORSDOF 6
ENDMDL
MODEL 9
REMARK VINA RESULT:    -4.914      2.282      6.648
REMARK INTER + INTRA:          -7.209
REMARK INTER:                  -6.375
REMARK INTRA:                  -0.834
REMARK UNBOUND:                -0.571
REMARK SMILES CC(=O)CCC=C(C)CCC=C(C)C
REMARK SMILES IDX 7 1 6 2 8 3 9 4 10 5 11 6 13 7 12 8 14 9 5 10 4 11 2 12 3 13
REMARK SMILES IDX 1 14
REMARK H PARENT
REMARK Flexibility Score: inf
ROOT
ATOM      1  C   UNL     1       2.734  17.177  -5.747  1.00  0.00    -0.077 C 
ATOM      2  C   UNL     1       2.446  18.497  -5.837  1.00  0.00    -0.028 C 
ATOM      3  C   UNL     1       1.624  16.239  -5.344  1.00  0.00     0.039 C 
ENDROOT
BRANCH   1   4
ATOM      4  C   UNL     1       4.108  16.596  -6.039  1.00  0.00     0.034 C 
BRANCH   4   5
ATOM      5  C   UNL     1       4.193  15.962  -7.437  1.00  0.00     0.032 C 
BRANCH   5   6
ATOM      6  C   UNL     1       5.064  14.726  -7.442  1.00  0.00    -0.028 C 
ATOM      7  C   UNL     1       5.615  12.342  -7.233  1.00  0.00     0.039 C 
ATOM      8  C   UNL     1       4.613  13.468  -7.250  1.00  0.00    -0.080 C 
ATOM      9  C   UNL     1       3.144  13.160  -7.074  1.00  0.00     0.039 C 
ENDBRANCH   5   6
ENDBRANCH   4   5
ENDBRANCH   1   4
BRANCH   2  10
ATOM     10  C   UNL     1       3.422  19.593  -6.202  1.00  0.00     0.035 C 
BRANCH  10  11
ATOM     11  C   UNL     1       3.299  19.976  -7.682  1.00  0.00     0.079 C 
BRANCH  11  12
ATOM     12  C   UNL     1       1.920  20.483  -8.019  1.00  0.00     0.130 C 
ATOM     13  O   UNL     1       1.239  19.886  -8.839  1.00  0.00    -0.300 OA
ATOM     14  C   UNL     1       1.381  21.731  -7.386  1.00  0.00     0.087 C 
ENDBRANCH  11  12
ENDBRANCH  10  11
ENDBRANCH   2  10
TORSDOF 6
ENDMDL
