MODEL 1
REMARK VINA RESULT:    14.635      0.000      0.000
REMARK INTER + INTRA:          16.937
REMARK INTER:                  17.202
REMARK INTRA:                  -0.266
REMARK UNBOUND:                -0.266
REMARK SMILES O=c1cc(-c2ccc(O)c(O)c2)oc2cc(O)cc(O)c12
REMARK SMILES IDX 4 1 3 2 2 3 1 4 21 5 19 6 18 7 16 8 15 9 14 10 13 11 5 12
REMARK SMILES IDX 6 13 7 14 8 15 12 16 10 17 9 18 11 20 20 22 17 24
REMARK H PARENT 9 19 11 21 20 23 17 25
REMARK Flexibility Score: inf
ROOT
ATOM      1  C   UNL     1      -4.726   5.627   4.103  1.00  0.00     0.138 A 
ATOM      2  C   UNL     1      -5.664   6.639   4.350  1.00  0.00     0.100 A 
ATOM      3  C   UNL     1      -5.274   7.788   5.040  1.00  0.00     0.197 A 
ATOM      4  O   UNL     1      -6.125   8.702   5.196  1.00  0.00    -0.289 OA
ATOM      5  C   UNL     1      -3.946   7.906   5.516  1.00  0.00     0.107 A 
ATOM      6  C   UNL     1      -3.444   9.016   6.261  1.00  0.00     0.134 A 
ATOM      7  C   UNL     1      -2.085   9.066   6.593  1.00  0.00     0.093 A 
ATOM      8  C   UNL     1      -1.222   8.019   6.260  1.00  0.00     0.123 A 
ATOM      9  C   UNL     1      -1.713   6.909   5.577  1.00  0.00     0.094 A 
ATOM     10  C   UNL     1      -3.056   6.845   5.200  1.00  0.00     0.146 A 
ATOM     11  O   UNL     1      -3.479   5.775   4.534  1.00  0.00    -0.456 OA
ENDROOT
BRANCH   1  12
ATOM     12  C   UNL     1      -5.087   4.382   3.378  1.00  0.00     0.021 A 
ATOM     13  C   UNL     1      -5.113   4.385   1.972  1.00  0.00     0.016 A 
ATOM     14  C   UNL     1      -5.454   3.230   1.265  1.00  0.00     0.051 A 
ATOM     15  C   UNL     1      -5.788   2.056   1.946  1.00  0.00     0.157 A 
ATOM     16  C   UNL     1      -5.435   3.201   4.060  1.00  0.00     0.062 A 
ATOM     17  C   UNL     1      -5.781   2.041   3.351  1.00  0.00     0.158 A 
BRANCH  15  18
ATOM     18  O   UNL     1      -6.124   0.919   1.213  1.00  0.00    -0.504 OA
ATOM     19  H   UNL     1      -5.812  -0.006   1.482  1.00  0.00     0.293 HD
ENDBRANCH  15  18
BRANCH  17  20
ATOM     20  O   UNL     1      -6.123   0.875   4.036  1.00  0.00    -0.504 OA
ATOM     21  H   UNL     1      -6.915   0.845   4.668  1.00  0.00     0.293 HD
ENDBRANCH  17  20
ENDBRANCH   1  12
BRANCH   6  22
ATOM     22  O   UNL     1      -4.235  10.076   6.716  1.00  0.00    -0.507 OA
ATOM     23  H   UNL     1      -4.573  10.835   6.144  1.00  0.00     0.293 HD
ENDBRANCH   6  22
BRANCH   8  24
ATOM     24  O   UNL     1       0.126   8.070   6.609  1.00  0.00    -0.508 OA
ATOM     25  H   UNL     1       0.424   8.032   7.577  1.00  0.00     0.293 HD
ENDBRANCH   8  24
TORSDOF 5
ENDMDL
