MODEL 1
REMARK VINA RESULT:    -3.404      0.000      0.000
REMARK INTER + INTRA:          -5.608
REMARK INTER:                  -5.195
REMARK INTRA:                  -0.413
REMARK UNBOUND:                -0.413
REMARK SMILES CC1=CCC[C@H](C)C(=O)C[C@H](C(C)C)C(=O)C1
REMARK SMILES IDX 8 1 9 2 6 3 7 4 5 5 4 6 3 7 2 8 1 9 10 11 11 12 15 13 16 14
REMARK SMILES IDX 17 15 12 17 13 18 14 19
REMARK H PARENT
REMARK Flexibility Score: 70.00
ROOT
ATOM      1  C   UNL     1      13.274  -7.780  18.326  1.00  0.00     0.136 C 
ATOM      2  O   UNL     1      12.143  -8.217  18.160  1.00  0.00    -0.299 OA
ENDROOT
BRANCH   1   3
ATOM      3  C   UNL     1      14.165  -8.395  19.388  1.00  0.00     0.053 C 
ATOM      4  C   UNL     1      13.422  -8.401  20.729  1.00  0.00     0.016 C 
BRANCH   3   5
ATOM      5  C   UNL     1      14.611  -9.831  19.021  1.00  0.00     0.015 C 
BRANCH   5   6
ATOM      6  C   UNL     1      15.625  -9.901  17.867  1.00  0.00     0.028 C 
BRANCH   6   7
ATOM      7  C   UNL     1      16.938  -9.255  18.242  1.00  0.00    -0.028 C 
ATOM      8  C   UNL     1      17.474  -8.172  17.634  1.00  0.00    -0.070 CG0
ATOM      9  C   UNL     1      18.792  -7.650  18.149  1.00  0.00     0.039 C 
ATOM     10  G   UNL     1      16.804  -7.460  16.471  1.00  0.00     0.000 G0
ENDBRANCH   6   7
ENDBRANCH   5   6
ENDBRANCH   3   5
ENDBRANCH   1   3
BRANCH   1  11
ATOM     11  C   UNL     1      13.735  -6.602  17.498  1.00  0.00     0.087 C 
BRANCH  11  12
ATOM     12  C   UNL     1      15.110  -6.044  17.947  1.00  0.00     0.066 C 
BRANCH  12  13
ATOM     13  C   UNL     1      16.145  -6.147  16.835  1.00  0.00     0.140 C 
ATOM     14  O   UNL     1      16.496  -5.134  16.247  1.00  0.00    -0.299 OA
BRANCH  13  15
ATOM     15  C   UNL     1      16.816  -7.453  16.469  1.00  0.00     0.106 CG0
ATOM     16  G   UNL     1      17.474  -8.158  17.643  1.00  0.00     0.000 G0
ENDBRANCH  13  15
ENDBRANCH  12  13
BRANCH  12  17
ATOM     17  C   UNL     1      15.049  -4.590  18.510  1.00  0.00    -0.006 C 
ATOM     18  C   UNL     1      15.622  -4.505  19.934  1.00  0.00     0.008 C 
ATOM     19  C   UNL     1      13.648  -3.956  18.470  1.00  0.00     0.008 C 
ENDBRANCH  12  17
ENDBRANCH  11  12
ENDBRANCH   1  11
TORSDOF 1
ENDMDL
MODEL 2
REMARK VINA RESULT:    -3.396      1.728      3.986
REMARK INTER + INTRA:          -5.596
REMARK INTER:                  -5.642
REMARK INTRA:                   0.046
REMARK UNBOUND:                -0.413
REMARK SMILES CC1=CCC[C@H](C)C(=O)C[C@H](C(C)C)C(=O)C1
REMARK SMILES IDX 8 1 9 2 6 3 7 4 5 5 4 6 3 7 2 8 1 9 10 11 11 12 15 13 16 14
REMARK SMILES IDX 17 15 12 17 13 18 14 19
REMARK H PARENT
REMARK Flexibility Score: 70.00
ROOT
ATOM      1  C   UNL     1      14.658  -6.474  16.508  1.00  0.00     0.136 C 
ATOM      2  O   UNL     1      14.538  -6.705  15.312  1.00  0.00    -0.299 OA
ENDROOT
BRANCH   1   3
ATOM      3  C   UNL     1      15.795  -5.595  16.990  1.00  0.00     0.053 C 
ATOM      4  C   UNL     1      15.719  -5.461  18.515  1.00  0.00     0.016 C 
BRANCH   3   5
ATOM      5  C   UNL     1      17.181  -6.146  16.573  1.00  0.00     0.015 C 
BRANCH   5   6
ATOM      6  C   UNL     1      17.344  -7.662  16.773  1.00  0.00     0.028 C 
BRANCH   6   7
ATOM      7  C   UNL     1      17.720  -7.996  18.196  1.00  0.00    -0.028 C 
ATOM      8  C   UNL     1      17.130  -8.948  18.955  1.00  0.00    -0.070 CG0
ATOM      9  C   UNL     1      17.644  -9.158  20.357  1.00  0.00     0.039 C 
ATOM     10  G   UNL     1      15.987  -9.815  18.452  1.00  0.00     0.000 G0
ENDBRANCH   6   7
ENDBRANCH   5   6
ENDBRANCH   3   5
ENDBRANCH   1   3
BRANCH   1  11
ATOM     11  C   UNL     1      13.692  -7.115  17.479  1.00  0.00     0.087 C 
BRANCH  11  12
ATOM     12  C   UNL     1      13.777  -8.663  17.490  1.00  0.00     0.066 C 
BRANCH  12  13
ATOM     13  C   UNL     1      14.614  -9.167  18.657  1.00  0.00     0.140 C 
ATOM     14  O   UNL     1      14.160  -9.108  19.790  1.00  0.00    -0.299 OA
BRANCH  13  15
ATOM     15  C   UNL     1      15.970  -9.811  18.465  1.00  0.00     0.106 CG0
ATOM     16  G   UNL     1      17.131  -8.957  18.948  1.00  0.00     0.000 G0
ENDBRANCH  13  15
ENDBRANCH  12  13
BRANCH  12  17
ATOM     17  C   UNL     1      12.389  -9.373  17.459  1.00  0.00    -0.006 C 
ATOM     18  C   UNL     1      12.037  -9.880  16.051  1.00  0.00     0.008 C 
ATOM     19  C   UNL     1      11.233  -8.523  18.014  1.00  0.00     0.008 C 
ENDBRANCH  12  17
ENDBRANCH  11  12
ENDBRANCH   1  11
TORSDOF 1
ENDMDL
MODEL 3
REMARK VINA RESULT:    -3.341      2.072      4.774
REMARK INTER + INTRA:          -5.512
REMARK INTER:                  -5.781
REMARK INTRA:                   0.269
REMARK UNBOUND:                -0.413
REMARK SMILES CC1=CCC[C@H](C)C(=O)C[C@H](C(C)C)C(=O)C1
REMARK SMILES IDX 8 1 9 2 6 3 7 4 5 5 4 6 3 7 2 8 1 9 10 11 11 12 15 13 16 14
REMARK SMILES IDX 17 15 12 17 13 18 14 19
REMARK H PARENT
REMARK Flexibility Score: 70.00
ROOT
ATOM      1  C   UNL     1      14.626  -6.437  16.464  1.00  0.00     0.136 C 
ATOM      2  O   UNL     1      14.582  -6.607  15.253  1.00  0.00    -0.299 OA
ENDROOT
BRANCH   1   3
ATOM      3  C   UNL     1      15.786  -5.671  17.069  1.00  0.00     0.053 C 
ATOM      4  C   UNL     1      16.503  -4.885  15.966  1.00  0.00     0.016 C 
BRANCH   3   5
ATOM      5  C   UNL     1      15.332  -4.711  18.197  1.00  0.00     0.015 C 
BRANCH   5   6
ATOM      6  C   UNL     1      15.970  -4.999  19.566  1.00  0.00     0.028 C 
BRANCH   6   7
ATOM      7  C   UNL     1      15.000  -5.686  20.497  1.00  0.00    -0.028 C 
ATOM      8  C   UNL     1      14.711  -7.007  20.484  1.00  0.00    -0.070 CG0
ATOM      9  C   UNL     1      13.724  -7.527  21.499  1.00  0.00     0.039 C 
ATOM     10  G   UNL     1      15.342  -7.982  19.505  1.00  0.00     0.000 G0
ENDBRANCH   6   7
ENDBRANCH   5   6
ENDBRANCH   3   5
ENDBRANCH   1   3
BRANCH   1  11
ATOM     11  C   UNL     1      13.543  -7.040  17.330  1.00  0.00     0.087 C 
BRANCH  11  12
ATOM     12  C   UNL     1      13.688  -8.573  17.505  1.00  0.00     0.066 C 
BRANCH  12  13
ATOM     13  C   UNL     1      14.368  -8.923  18.822  1.00  0.00     0.140 C 
ATOM     14  O   UNL     1      14.170 -10.018  19.327  1.00  0.00    -0.299 OA
BRANCH  13  15
ATOM     15  C   UNL     1      15.345  -7.990  19.504  1.00  0.00     0.106 CG0
ATOM     16  G   UNL     1      14.694  -7.016  20.472  1.00  0.00     0.000 G0
ENDBRANCH  13  15
ENDBRANCH  12  13
BRANCH  12  17
ATOM     17  C   UNL     1      12.348  -9.357  17.352  1.00  0.00    -0.006 C 
ATOM     18  C   UNL     1      12.052  -9.701  15.883  1.00  0.00     0.008 C 
ATOM     19  C   UNL     1      11.132  -8.657  17.982  1.00  0.00     0.008 C 
ENDBRANCH  12  17
ENDBRANCH  11  12
ENDBRANCH   1  11
TORSDOF 1
ENDMDL
MODEL 4
REMARK VINA RESULT:    -3.314      1.769      3.851
REMARK INTER + INTRA:          -5.470
REMARK INTER:                  -5.172
REMARK INTRA:                  -0.298
REMARK UNBOUND:                -0.413
REMARK SMILES CC1=CCC[C@H](C)C(=O)C[C@H](C(C)C)C(=O)C1
REMARK SMILES IDX 8 1 9 2 6 3 7 4 5 5 4 6 3 7 2 8 1 9 10 11 11 12 15 13 16 14
REMARK SMILES IDX 17 15 12 17 13 18 14 19
REMARK H PARENT
REMARK Flexibility Score: 70.00
ROOT
ATOM      1  C   UNL     1      15.169  -5.864  19.452  1.00  0.00     0.136 C 
ATOM      2  O   UNL     1      16.061  -5.417  20.161  1.00  0.00    -0.299 OA
ENDROOT
BRANCH   1   3
ATOM      3  C   UNL     1      14.631  -5.026  18.309  1.00  0.00     0.053 C 
ATOM      4  C   UNL     1      14.016  -3.739  18.871  1.00  0.00     0.016 C 
BRANCH   3   5
ATOM      5  C   UNL     1      15.724  -4.682  17.267  1.00  0.00     0.015 C 
BRANCH   5   6
ATOM      6  C   UNL     1      16.174  -5.875  16.407  1.00  0.00     0.028 C 
BRANCH   6   7
ATOM      7  C   UNL     1      17.519  -6.400  16.848  1.00  0.00    -0.028 C 
ATOM      8  C   UNL     1      17.787  -7.688  17.163  1.00  0.00    -0.070 CG0
ATOM      9  C   UNL     1      19.195  -8.041  17.572  1.00  0.00     0.039 C 
ATOM     10  G   UNL     1      16.739  -8.787  17.112  1.00  0.00     0.000 G0
ENDBRANCH   6   7
ENDBRANCH   5   6
ENDBRANCH   3   5
ENDBRANCH   1   3
BRANCH   1  11
ATOM     11  C   UNL     1      14.594  -7.226  19.768  1.00  0.00     0.087 C 
BRANCH  11  12
ATOM     12  C   UNL     1      14.575  -8.176  18.543  1.00  0.00     0.066 C 
BRANCH  12  13
ATOM     13  C   UNL     1      15.902  -8.903  18.379  1.00  0.00     0.140 C 
ATOM     14  O   UNL     1      16.292  -9.647  19.268  1.00  0.00    -0.299 OA
BRANCH  13  15
ATOM     15  C   UNL     1      16.736  -8.799  17.121  1.00  0.00     0.106 CG0
ATOM     16  G   UNL     1      17.782  -7.698  17.166  1.00  0.00     0.000 G0
ENDBRANCH  13  15
ENDBRANCH  12  13
BRANCH  12  17
ATOM     17  C   UNL     1      13.389  -9.190  18.547  1.00  0.00    -0.006 C 
ATOM     18  C   UNL     1      12.678  -9.244  17.184  1.00  0.00     0.008 C 
ATOM     19  C   UNL     1      12.359  -8.952  19.666  1.00  0.00     0.008 C 
ENDBRANCH  12  17
ENDBRANCH  11  12
ENDBRANCH   1  11
TORSDOF 1
ENDMDL
MODEL 5
REMARK VINA RESULT:    -2.956      9.173     12.033
REMARK INTER + INTRA:          -4.923
REMARK INTER:                  -4.502
REMARK INTRA:                  -0.422
REMARK UNBOUND:                -0.413
REMARK SMILES CC1=CCC[C@H](C)C(=O)C[C@H](C(C)C)C(=O)C1
REMARK SMILES IDX 8 1 9 2 6 3 7 4 5 5 4 6 3 7 2 8 1 9 10 11 11 12 15 13 16 14
REMARK SMILES IDX 17 15 12 17 13 18 14 19
REMARK H PARENT
REMARK Flexibility Score: 70.00
ROOT
ATOM      1  C   UNL     1      15.149   2.688  22.027  1.00  0.00     0.136 C 
ATOM      2  O   UNL     1      15.210   3.762  21.444  1.00  0.00    -0.299 OA
ENDROOT
BRANCH   1   3
ATOM      3  C   UNL     1      16.380   2.145  22.726  1.00  0.00     0.053 C 
ATOM      4  C   UNL     1      17.385   1.660  21.676  1.00  0.00     0.016 C 
BRANCH   3   5
ATOM      5  C   UNL     1      17.042   3.197  23.650  1.00  0.00     0.015 C 
BRANCH   5   6
ATOM      6  C   UNL     1      16.510   3.194  25.093  1.00  0.00     0.028 C 
BRANCH   6   7
ATOM      7  C   UNL     1      15.308   4.096  25.243  1.00  0.00    -0.028 C 
ATOM      8  C   UNL     1      14.039   3.675  25.447  1.00  0.00    -0.070 CG0
ATOM      9  C   UNL     1      12.959   4.719  25.588  1.00  0.00     0.039 C 
ATOM     10  G   UNL     1      13.661   2.207  25.551  1.00  0.00     0.000 G0
ENDBRANCH   6   7
ENDBRANCH   5   6
ENDBRANCH   3   5
ENDBRANCH   1   3
BRANCH   1  11
ATOM     11  C   UNL     1      13.855   1.906  21.991  1.00  0.00     0.087 C 
BRANCH  11  12
ATOM     12  C   UNL     1      13.681   0.963  23.209  1.00  0.00     0.066 C 
BRANCH  12  13
ATOM     13  C   UNL     1      12.942   1.652  24.348  1.00  0.00     0.140 C 
ATOM     14  O   UNL     1      11.721   1.719  24.315  1.00  0.00    -0.299 OA
BRANCH  13  15
ATOM     15  C   UNL     1      13.654   2.200  25.564  1.00  0.00     0.106 CG0
ATOM     16  G   UNL     1      14.024   3.670  25.451  1.00  0.00     0.000 G0
ENDBRANCH  13  15
ENDBRANCH  12  13
BRANCH  12  17
ATOM     17  C   UNL     1      13.010  -0.402  22.861  1.00  0.00    -0.006 C 
ATOM     18  C   UNL     1      13.186  -1.430  23.991  1.00  0.00     0.008 C 
ATOM     19  C   UNL     1      13.469  -1.009  21.524  1.00  0.00     0.008 C 
ENDBRANCH  12  17
ENDBRANCH  11  12
ENDBRANCH   1  11
TORSDOF 1
ENDMDL
MODEL 6
REMARK VINA RESULT:    -2.919      1.881      4.326
REMARK INTER + INTRA:          -4.868
REMARK INTER:                  -5.067
REMARK INTRA:                   0.199
REMARK UNBOUND:                -0.413
REMARK SMILES CC1=CCC[C@H](C)C(=O)C[C@H](C(C)C)C(=O)C1
REMARK SMILES IDX 8 1 9 2 6 3 7 4 5 5 4 6 3 7 2 8 1 9 10 11 11 12 15 13 16 14
REMARK SMILES IDX 17 15 12 17 13 18 14 19
REMARK H PARENT
REMARK Flexibility Score: 70.00
ROOT
ATOM      1  C   UNL     1      16.694  -9.082  17.766  1.00  0.00     0.136 C 
ATOM      2  O   UNL     1      17.383  -9.992  17.324  1.00  0.00    -0.299 OA
ENDROOT
BRANCH   1   3
ATOM      3  C   UNL     1      17.330  -7.736  18.054  1.00  0.00     0.053 C 
ATOM      4  C   UNL     1      18.641  -7.950  18.817  1.00  0.00     0.016 C 
BRANCH   3   5
ATOM      5  C   UNL     1      17.592  -6.921  16.764  1.00  0.00     0.015 C 
BRANCH   5   6
ATOM      6  C   UNL     1      16.501  -5.887  16.438  1.00  0.00     0.028 C 
BRANCH   6   7
ATOM      7  C   UNL     1      16.029  -5.169  17.680  1.00  0.00    -0.028 C 
ATOM      8  C   UNL     1      14.753  -5.150  18.131  1.00  0.00    -0.070 CG0
ATOM      9  C   UNL     1      14.461  -4.391  19.401  1.00  0.00     0.039 C 
ATOM     10  G   UNL     1      13.615  -5.867  17.424  1.00  0.00     0.000 G0
ENDBRANCH   6   7
ENDBRANCH   5   6
ENDBRANCH   3   5
ENDBRANCH   1   3
BRANCH   1  11
ATOM     11  C   UNL     1      15.233  -9.341  18.056  1.00  0.00     0.087 C 
BRANCH  11  12
ATOM     12  C   UNL     1      14.496  -8.099  18.622  1.00  0.00     0.066 C 
BRANCH  12  13
ATOM     13  C   UNL     1      13.673  -7.402  17.547  1.00  0.00     0.140 C 
ATOM     14  O   UNL     1      12.993  -8.072  16.784  1.00  0.00    -0.299 OA
BRANCH  13  15
ATOM     15  C   UNL     1      13.606  -5.895  17.427  1.00  0.00     0.106 CG0
ATOM     16  G   UNL     1      14.745  -5.170  18.124  1.00  0.00     0.000 G0
ENDBRANCH  13  15
ENDBRANCH  12  13
BRANCH  12  17
ATOM     17  C   UNL     1      13.621  -8.401  19.877  1.00  0.00    -0.006 C 
ATOM     18  C   UNL     1      14.447  -8.355  21.174  1.00  0.00     0.008 C 
ATOM     19  C   UNL     1      12.840  -9.724  19.800  1.00  0.00     0.008 C 
ENDBRANCH  12  17
ENDBRANCH  11  12
ENDBRANCH   1  11
TORSDOF 1
ENDMDL
MODEL 7
REMARK VINA RESULT:    -2.878      2.402      4.570
REMARK INTER + INTRA:          -4.805
REMARK INTER:                  -4.955
REMARK INTRA:                   0.150
REMARK UNBOUND:                -0.413
REMARK SMILES CC1=CCC[C@H](C)C(=O)C[C@H](C(C)C)C(=O)C1
REMARK SMILES IDX 8 1 9 2 6 3 7 4 5 5 4 6 3 7 2 8 1 9 10 11 11 12 15 13 16 14
REMARK SMILES IDX 17 15 12 17 13 18 14 19
REMARK H PARENT
REMARK Flexibility Score: 70.00
ROOT
ATOM      1  C   UNL     1      14.717  -5.053  20.280  1.00  0.00     0.136 C 
ATOM      2  O   UNL     1      14.288  -4.373  21.203  1.00  0.00    -0.299 OA
ENDROOT
BRANCH   1   3
ATOM      3  C   UNL     1      14.496  -4.598  18.851  1.00  0.00     0.053 C 
ATOM      4  C   UNL     1      14.415  -3.068  18.814  1.00  0.00     0.016 C 
BRANCH   3   5
ATOM      5  C   UNL     1      15.609  -5.095  17.897  1.00  0.00     0.015 C 
BRANCH   5   6
ATOM      6  C   UNL     1      15.104  -5.974  16.740  1.00  0.00     0.028 C 
BRANCH   6   7
ATOM      7  C   UNL     1      13.721  -6.516  17.018  1.00  0.00    -0.028 C 
ATOM      8  C   UNL     1      13.453  -7.738  17.534  1.00  0.00    -0.070 CG0
ATOM      9  C   UNL     1      12.009  -8.110  17.759  1.00  0.00     0.039 C 
ATOM     10  G   UNL     1      14.537  -8.737  17.902  1.00  0.00     0.000 G0
ENDBRANCH   6   7
ENDBRANCH   5   6
ENDBRANCH   3   5
ENDBRANCH   1   3
BRANCH   1  11
ATOM     11  C   UNL     1      15.415  -6.357  20.592  1.00  0.00     0.087 C 
BRANCH  11  12
ATOM     12  C   UNL     1      14.536  -7.601  20.306  1.00  0.00     0.066 C 
BRANCH  12  13
ATOM     13  C   UNL     1      15.172  -8.505  19.259  1.00  0.00     0.140 C 
ATOM     14  O   UNL     1      16.207  -9.098  19.528  1.00  0.00    -0.299 OA
BRANCH  13  15
ATOM     15  C   UNL     1      14.534  -8.760  17.911  1.00  0.00     0.106 CG0
ATOM     16  G   UNL     1      13.460  -7.752  17.537  1.00  0.00     0.000 G0
ENDBRANCH  13  15
ENDBRANCH  12  13
BRANCH  12  17
ATOM     17  C   UNL     1      14.158  -8.416  21.581  1.00  0.00    -0.006 C 
ATOM     18  C   UNL     1      13.292  -9.640  21.242  1.00  0.00     0.008 C 
ATOM     19  C   UNL     1      13.481  -7.584  22.684  1.00  0.00     0.008 C 
ENDBRANCH  12  17
ENDBRANCH  11  12
ENDBRANCH   1  11
TORSDOF 1
ENDMDL
MODEL 8
REMARK VINA RESULT:    -2.806      1.600      2.129
REMARK INTER + INTRA:          -4.695
REMARK INTER:                  -4.876
REMARK INTRA:                   0.181
REMARK UNBOUND:                -0.413
REMARK SMILES CC1=CCC[C@H](C)C(=O)C[C@H](C(C)C)C(=O)C1
REMARK SMILES IDX 8 1 9 2 6 3 7 4 5 5 4 6 3 7 2 8 1 9 10 11 11 12 15 13 16 14
REMARK SMILES IDX 17 15 12 17 13 18 14 19
REMARK H PARENT
REMARK Flexibility Score: 70.00
ROOT
ATOM      1  C   UNL     1      13.290  -7.192  17.500  1.00  0.00     0.136 C 
ATOM      2  O   UNL     1      13.535  -7.596  16.372  1.00  0.00    -0.299 OA
ENDROOT
BRANCH   1   3
ATOM      3  C   UNL     1      12.357  -7.987  18.393  1.00  0.00     0.053 C 
ATOM      4  C   UNL     1      11.662  -9.069  17.560  1.00  0.00     0.016 C 
BRANCH   3   5
ATOM      5  C   UNL     1      13.097  -8.631  19.591  1.00  0.00     0.015 C 
BRANCH   5   6
ATOM      6  C   UNL     1      14.011  -9.808  19.210  1.00  0.00     0.028 C 
BRANCH   6   7
ATOM      7  C   UNL     1      15.330  -9.745  19.943  1.00  0.00    -0.028 C 
ATOM      8  C   UNL     1      16.393  -8.997  19.570  1.00  0.00    -0.070 CG0
ATOM      9  C   UNL     1      17.631  -9.045  20.430  1.00  0.00     0.039 C 
ATOM     10  G   UNL     1      16.388  -8.109  18.338  1.00  0.00     0.000 G0
ENDBRANCH   6   7
ENDBRANCH   5   6
ENDBRANCH   3   5
ENDBRANCH   1   3
BRANCH   1  11
ATOM     11  C   UNL     1      13.890  -5.881  17.957  1.00  0.00     0.087 C 
BRANCH  11  12
ATOM     12  C   UNL     1      14.898  -6.047  19.123  1.00  0.00     0.066 C 
BRANCH  12  13
ATOM     13  C   UNL     1      16.221  -6.626  18.638  1.00  0.00     0.140 C 
ATOM     14  O   UNL     1      17.196  -5.895  18.544  1.00  0.00    -0.299 OA
BRANCH  13  15
ATOM     15  C   UNL     1      16.400  -8.096  18.332  1.00  0.00     0.106 CG0
ATOM     16  G   UNL     1      16.399  -8.987  19.563  1.00  0.00     0.000 G0
ENDBRANCH  13  15
ENDBRANCH  12  13
BRANCH  12  17
ATOM     17  C   UNL     1      15.135  -4.743  19.945  1.00  0.00    -0.006 C 
ATOM     18  C   UNL     1      14.389  -4.771  21.289  1.00  0.00     0.008 C 
ATOM     19  C   UNL     1      14.799  -3.448  19.185  1.00  0.00     0.008 C 
ENDBRANCH  12  17
ENDBRANCH  11  12
ENDBRANCH   1  11
TORSDOF 1
ENDMDL
MODEL 9
REMARK VINA RESULT:    -2.740      2.080      4.087
REMARK INTER + INTRA:          -4.595
REMARK INTER:                  -4.336
REMARK INTRA:                  -0.259
REMARK UNBOUND:                -0.413
REMARK SMILES CC1=CCC[C@H](C)C(=O)C[C@H](C(C)C)C(=O)C1
REMARK SMILES IDX 8 1 9 2 6 3 7 4 5 5 4 6 3 7 2 8 1 9 10 11 11 12 15 13 16 14
REMARK SMILES IDX 17 15 12 17 13 18 14 19
REMARK H PARENT
REMARK Flexibility Score: 70.00
ROOT
ATOM      1  C   UNL     1      14.212  -4.491  18.876  1.00  0.00     0.136 C 
ATOM      2  O   UNL     1      13.687  -3.387  18.826  1.00  0.00    -0.299 OA
ENDROOT
BRANCH   1   3
ATOM      3  C   UNL     1      15.161  -4.817  20.012  1.00  0.00     0.053 C 
ATOM      4  C   UNL     1      16.223  -3.716  20.115  1.00  0.00     0.016 C 
BRANCH   3   5
ATOM      5  C   UNL     1      14.426  -4.974  21.366  1.00  0.00     0.015 C 
BRANCH   5   6
ATOM      6  C   UNL     1      13.884  -6.389  21.629  1.00  0.00     0.028 C 
BRANCH   6   7
ATOM      7  C   UNL     1      14.942  -7.441  21.394  1.00  0.00    -0.028 C 
ATOM      8  C   UNL     1      14.894  -8.391  20.432  1.00  0.00    -0.070 CG0
ATOM      9  C   UNL     1      16.049  -9.357  20.331  1.00  0.00     0.039 C 
ATOM     10  G   UNL     1      13.741  -8.518  19.450  1.00  0.00     0.000 G0
ENDBRANCH   6   7
ENDBRANCH   5   6
ENDBRANCH   3   5
ENDBRANCH   1   3
BRANCH   1  11
ATOM     11  C   UNL     1      13.934  -5.486  17.772  1.00  0.00     0.087 C 
BRANCH  11  12
ATOM     12  C   UNL     1      14.854  -6.732  17.832  1.00  0.00     0.066 C 
BRANCH  12  13
ATOM     13  C   UNL     1      14.054  -8.007  18.063  1.00  0.00     0.140 C 
ATOM     14  O   UNL     1      13.699  -8.674  17.102  1.00  0.00    -0.299 OA
BRANCH  13  15
ATOM     15  C   UNL     1      13.735  -8.526  19.448  1.00  0.00     0.106 CG0
ATOM     16  G   UNL     1      14.886  -8.401  20.432  1.00  0.00     0.000 G0
ENDBRANCH  13  15
ENDBRANCH  12  13
BRANCH  12  17
ATOM     17  C   UNL     1      15.792  -6.887  16.595  1.00  0.00    -0.006 C 
ATOM     18  C   UNL     1      17.235  -7.216  17.009  1.00  0.00     0.008 C 
ATOM     19  C   UNL     1      15.782  -5.679  15.641  1.00  0.00     0.008 C 
ENDBRANCH  12  17
ENDBRANCH  11  12
ENDBRANCH   1  11
TORSDOF 1
ENDMDL
