MODEL 1
REMARK VINA RESULT:    -7.747      0.000      0.000
REMARK INTER + INTRA:          -9.389
REMARK INTER:                  -9.106
REMARK INTRA:                  -0.283
REMARK UNBOUND:                -0.283
REMARK SMILES O=c1cc(-c2ccc(O)c(O)c2)oc2cc(O)cc(O)c12
REMARK SMILES IDX 4 1 3 2 2 3 1 4 21 5 19 6 18 7 16 8 15 9 14 10 13 11 5 12
REMARK SMILES IDX 6 13 7 14 8 15 12 16 10 17 9 18 11 20 20 22 17 24
REMARK H PARENT 9 19 11 21 20 23 17 25
REMARK Flexibility Score: inf
ROOT
ATOM      1  C   UNL     1     169.359 149.280 147.113  1.00  0.00     0.138 A 
ATOM      2  C   UNL     1     170.026 150.504 147.259  1.00  0.00     0.100 A 
ATOM      3  C   UNL     1     169.299 151.695 147.218  1.00  0.00     0.197 A 
ATOM      4  O   UNL     1     169.932 152.780 147.290  1.00  0.00    -0.289 OA
ATOM      5  C   UNL     1     167.893 151.655 147.062  1.00  0.00     0.107 A 
ATOM      6  C   UNL     1     167.044 152.802 147.047  1.00  0.00     0.134 A 
ATOM      7  C   UNL     1     165.681 152.648 146.768  1.00  0.00     0.093 A 
ATOM      8  C   UNL     1     165.124 151.386 146.565  1.00  0.00     0.123 A 
ATOM      9  C   UNL     1     165.935 150.252 146.631  1.00  0.00     0.094 A 
ATOM     10  C   UNL     1     167.306 150.375 146.871  1.00  0.00     0.146 A 
ATOM     11  O   UNL     1     168.046 149.273 146.912  1.00  0.00    -0.456 OA
ENDROOT
BRANCH   1  12
ATOM     12  C   UNL     1     170.084 147.984 147.150  1.00  0.00     0.021 A 
ATOM     13  C   UNL     1     169.478 146.870 147.754  1.00  0.00     0.016 A 
ATOM     14  C   UNL     1     170.142 145.642 147.809  1.00  0.00     0.051 A 
ATOM     15  C   UNL     1     171.424 145.507 147.270  1.00  0.00     0.157 A 
ATOM     16  C   UNL     1     171.382 147.847 146.621  1.00  0.00     0.062 A 
ATOM     17  C   UNL     1     172.050 146.614 146.676  1.00  0.00     0.158 A 
BRANCH  15  18
ATOM     18  O   UNL     1     172.061 144.268 147.338  1.00  0.00    -0.504 OA
ATOM     19  H   UNL     1     173.065 144.174 147.248  1.00  0.00     0.293 HD
ENDBRANCH  15  18
BRANCH  17  20
ATOM     20  O   UNL     1     173.334 146.489 146.147  1.00  0.00    -0.504 OA
ATOM     21  H   UNL     1     174.129 146.959 146.564  1.00  0.00     0.293 HD
ENDBRANCH  17  20
ENDBRANCH   1  12
BRANCH   6  22
ATOM     22  O   UNL     1     167.482 154.101 147.322  1.00  0.00    -0.507 OA
ATOM     23  H   UNL     1     166.966 154.941 147.111  1.00  0.00     0.293 HD
ENDBRANCH   6  22
BRANCH   8  24
ATOM     24  O   UNL     1     163.760 151.270 146.305  1.00  0.00    -0.508 OA
ATOM     25  H   UNL     1     163.313 150.364 146.219  1.00  0.00     0.293 HD
ENDBRANCH   8  24
TORSDOF 5
ENDMDL
MODEL 2
REMARK VINA RESULT:    -7.628      5.415      8.989
REMARK INTER + INTRA:          -9.249
REMARK INTER:                  -8.935
REMARK INTRA:                  -0.314
REMARK UNBOUND:                -0.283
REMARK SMILES O=c1cc(-c2ccc(O)c(O)c2)oc2cc(O)cc(O)c12
REMARK SMILES IDX 4 1 3 2 2 3 1 4 21 5 19 6 18 7 16 8 15 9 14 10 13 11 5 12
REMARK SMILES IDX 6 13 7 14 8 15 12 16 10 17 9 18 11 20 20 22 17 24
REMARK H PARENT 9 19 11 21 20 23 17 25
REMARK Flexibility Score: inf
ROOT
ATOM      1  C   UNL     1     164.575 152.532 150.246  1.00  0.00     0.138 A 
ATOM      2  C   UNL     1     165.137 152.355 148.974  1.00  0.00     0.100 A 
ATOM      3  C   UNL     1     165.041 151.114 148.343  1.00  0.00     0.197 A 
ATOM      4  O   UNL     1     165.609 150.968 147.231  1.00  0.00    -0.289 OA
ATOM      5  C   UNL     1     164.349 150.055 148.977  1.00  0.00     0.107 A 
ATOM      6  C   UNL     1     164.151 148.760 148.413  1.00  0.00     0.134 A 
ATOM      7  C   UNL     1     163.551 147.756 149.182  1.00  0.00     0.093 A 
ATOM      8  C   UNL     1     163.087 148.015 150.471  1.00  0.00     0.123 A 
ATOM      9  C   UNL     1     163.226 149.293 151.014  1.00  0.00     0.094 A 
ATOM     10  C   UNL     1     163.852 150.307 150.285  1.00  0.00     0.146 A 
ATOM     11  O   UNL     1     163.979 151.507 150.843  1.00  0.00    -0.456 OA
ENDROOT
BRANCH   1  12
ATOM     12  C   UNL     1     164.649 153.831 150.961  1.00  0.00     0.021 A 
ATOM     13  C   UNL     1     165.570 154.804 150.535  1.00  0.00     0.016 A 
ATOM     14  C   UNL     1     165.665 156.031 151.196  1.00  0.00     0.051 A 
ATOM     15  C   UNL     1     164.851 156.306 152.298  1.00  0.00     0.157 A 
ATOM     16  C   UNL     1     163.840 154.107 152.081  1.00  0.00     0.062 A 
ATOM     17  C   UNL     1     163.936 155.339 152.746  1.00  0.00     0.158 A 
BRANCH  15  18
ATOM     18  O   UNL     1     164.967 157.540 152.936  1.00  0.00    -0.504 OA
ATOM     19  H   UNL     1     165.238 157.619 153.909  1.00  0.00     0.293 HD
ENDBRANCH  15  18
BRANCH  17  20
ATOM     20  O   UNL     1     163.129 155.602 153.852  1.00  0.00    -0.504 OA
ATOM     21  H   UNL     1     162.994 154.918 154.587  1.00  0.00     0.293 HD
ENDBRANCH  17  20
ENDBRANCH   1  12
BRANCH   6  22
ATOM     22  O   UNL     1     164.499 148.418 147.102  1.00  0.00    -0.507 OA
ATOM     23  H   UNL     1     165.440 148.249 146.781  1.00  0.00     0.293 HD
ENDBRANCH   6  22
BRANCH   8  24
ATOM     24  O   UNL     1     162.481 146.995 151.201  1.00  0.00    -0.508 OA
ATOM     25  H   UNL     1     161.840 147.196 151.961  1.00  0.00     0.293 HD
ENDBRANCH   8  24
TORSDOF 5
ENDMDL
MODEL 3
REMARK VINA RESULT:    -7.625      5.545      8.851
REMARK INTER + INTRA:          -9.245
REMARK INTER:                  -8.979
REMARK INTRA:                  -0.267
REMARK UNBOUND:                -0.283
REMARK SMILES O=c1cc(-c2ccc(O)c(O)c2)oc2cc(O)cc(O)c12
REMARK SMILES IDX 4 1 3 2 2 3 1 4 21 5 19 6 18 7 16 8 15 9 14 10 13 11 5 12
REMARK SMILES IDX 6 13 7 14 8 15 12 16 10 17 9 18 11 20 20 22 17 24
REMARK H PARENT 9 19 11 21 20 23 17 25
REMARK Flexibility Score: inf
ROOT
ATOM      1  C   UNL     1     165.287 153.337 150.615  1.00  0.00     0.138 A 
ATOM      2  C   UNL     1     165.739 153.245 149.292  1.00  0.00     0.100 A 
ATOM      3  C   UNL     1     165.454 152.102 148.543  1.00  0.00     0.197 A 
ATOM      4  O   UNL     1     165.925 152.023 147.379  1.00  0.00    -0.289 OA
ATOM      5  C   UNL     1     164.685 151.061 149.114  1.00  0.00     0.107 A 
ATOM      6  C   UNL     1     164.297 149.869 148.432  1.00  0.00     0.134 A 
ATOM      7  C   UNL     1     163.635 148.856 149.136  1.00  0.00     0.093 A 
ATOM      8  C   UNL     1     163.292 149.016 150.478  1.00  0.00     0.123 A 
ATOM      9  C   UNL     1     163.618 150.200 151.140  1.00  0.00     0.094 A 
ATOM     10  C   UNL     1     164.310 151.215 150.476  1.00  0.00     0.146 A 
ATOM     11  O   UNL     1     164.615 152.321 151.146  1.00  0.00    -0.456 OA
ENDROOT
BRANCH   1  12
ATOM     12  C   UNL     1     165.562 154.529 151.456  1.00  0.00     0.021 A 
ATOM     13  C   UNL     1     166.315 154.386 152.635  1.00  0.00     0.016 A 
ATOM     14  C   UNL     1     166.581 155.490 153.448  1.00  0.00     0.051 A 
ATOM     15  C   UNL     1     166.093 156.754 153.105  1.00  0.00     0.157 A 
ATOM     16  C   UNL     1     165.062 155.803 151.122  1.00  0.00     0.062 A 
ATOM     17  C   UNL     1     165.327 156.912 151.939  1.00  0.00     0.158 A 
BRANCH  15  18
ATOM     18  O   UNL     1     166.376 157.838 153.935  1.00  0.00    -0.504 OA
ATOM     19  H   UNL     1     165.827 158.688 153.916  1.00  0.00     0.293 HD
ENDBRANCH  15  18
BRANCH  17  20
ATOM     20  O   UNL     1     164.828 158.169 151.597  1.00  0.00    -0.504 OA
ATOM     21  H   UNL     1     164.311 158.320 150.740  1.00  0.00     0.293 HD
ENDBRANCH  17  20
ENDBRANCH   1  12
BRANCH   6  22
ATOM     22  O   UNL     1     164.515 149.643 147.069  1.00  0.00    -0.507 OA
ATOM     23  H   UNL     1     164.634 150.365 146.377  1.00  0.00     0.293 HD
ENDBRANCH   6  22
BRANCH   8  24
ATOM     24  O   UNL     1     162.619 147.992 151.142  1.00  0.00    -0.508 OA
ATOM     25  H   UNL     1     162.385 148.063 152.126  1.00  0.00     0.293 HD
ENDBRANCH   8  24
TORSDOF 5
ENDMDL
MODEL 4
REMARK VINA RESULT:    -7.591      6.008      7.294
REMARK INTER + INTRA:          -9.206
REMARK INTER:                  -8.916
REMARK INTRA:                  -0.290
REMARK UNBOUND:                -0.283
REMARK SMILES O=c1cc(-c2ccc(O)c(O)c2)oc2cc(O)cc(O)c12
REMARK SMILES IDX 4 1 3 2 2 3 1 4 21 5 19 6 18 7 16 8 15 9 14 10 13 11 5 12
REMARK SMILES IDX 6 13 7 14 8 15 12 16 10 17 9 18 11 20 20 22 17 24
REMARK H PARENT 9 19 11 21 20 23 17 25
REMARK Flexibility Score: inf
ROOT
ATOM      1  C   UNL     1     164.072 151.054 150.253  1.00  0.00     0.138 A 
ATOM      2  C   UNL     1     164.986 151.597 149.339  1.00  0.00     0.100 A 
ATOM      3  C   UNL     1     165.443 152.904 149.515  1.00  0.00     0.197 A 
ATOM      4  O   UNL     1     166.214 153.385 148.645  1.00  0.00    -0.289 OA
ATOM      5  C   UNL     1     165.007 153.657 150.631  1.00  0.00     0.107 A 
ATOM      6  C   UNL     1     165.438 154.983 150.935  1.00  0.00     0.134 A 
ATOM      7  C   UNL     1     164.849 155.672 152.002  1.00  0.00     0.093 A 
ATOM      8  C   UNL     1     163.891 155.064 152.812  1.00  0.00     0.123 A 
ATOM      9  C   UNL     1     163.501 153.749 152.557  1.00  0.00     0.094 A 
ATOM     10  C   UNL     1     164.044 153.046 151.479  1.00  0.00     0.146 A 
ATOM     11  O   UNL     1     163.636 151.801 151.261  1.00  0.00    -0.456 OA
ENDROOT
BRANCH   1  12
ATOM     12  C   UNL     1     163.554 149.669 150.112  1.00  0.00     0.021 A 
ATOM     13  C   UNL     1     163.107 148.979 151.252  1.00  0.00     0.016 A 
ATOM     14  C   UNL     1     162.623 147.673 151.149  1.00  0.00     0.051 A 
ATOM     15  C   UNL     1     162.584 147.030 149.909  1.00  0.00     0.157 A 
ATOM     16  C   UNL     1     163.526 149.011 148.867  1.00  0.00     0.062 A 
ATOM     17  C   UNL     1     163.041 147.699 148.762  1.00  0.00     0.158 A 
BRANCH  15  18
ATOM     18  O   UNL     1     162.093 145.726 149.836  1.00  0.00    -0.504 OA
ATOM     19  H   UNL     1     162.586 144.942 150.247  1.00  0.00     0.293 HD
ENDBRANCH  15  18
BRANCH  17  20
ATOM     20  O   UNL     1     163.015 147.059 147.524  1.00  0.00    -0.504 OA
ATOM     21  H   UNL     1     163.230 146.073 147.431  1.00  0.00     0.293 HD
ENDBRANCH  17  20
ENDBRANCH   1  12
BRANCH   6  22
ATOM     22  O   UNL     1     166.451 155.653 150.242  1.00  0.00    -0.507 OA
ATOM     23  H   UNL     1     167.426 155.643 150.494  1.00  0.00     0.293 HD
ENDBRANCH   6  22
BRANCH   8  24
ATOM     24  O   UNL     1     163.338 155.776 153.875  1.00  0.00    -0.508 OA
ATOM     25  H   UNL     1     163.791 155.811 154.782  1.00  0.00     0.293 HD
ENDBRANCH   8  24
TORSDOF 5
ENDMDL
MODEL 5
REMARK VINA RESULT:    -7.587      4.855      7.031
REMARK INTER + INTRA:          -9.201
REMARK INTER:                  -8.911
REMARK INTRA:                  -0.290
REMARK UNBOUND:                -0.283
REMARK SMILES O=c1cc(-c2ccc(O)c(O)c2)oc2cc(O)cc(O)c12
REMARK SMILES IDX 4 1 3 2 2 3 1 4 21 5 19 6 18 7 16 8 15 9 14 10 13 11 5 12
REMARK SMILES IDX 6 13 7 14 8 15 12 16 10 17 9 18 11 20 20 22 17 24
REMARK H PARENT 9 19 11 21 20 23 17 25
REMARK Flexibility Score: inf
ROOT
ATOM      1  C   UNL     1     166.657 153.370 150.160  1.00  0.00     0.138 A 
ATOM      2  C   UNL     1     166.091 152.524 151.124  1.00  0.00     0.100 A 
ATOM      3  C   UNL     1     165.322 153.068 152.154  1.00  0.00     0.197 A 
ATOM      4  O   UNL     1     164.880 152.291 153.038  1.00  0.00    -0.289 OA
ATOM      5  C   UNL     1     165.094 154.464 152.198  1.00  0.00     0.107 A 
ATOM      6  C   UNL     1     164.293 155.125 153.177  1.00  0.00     0.134 A 
ATOM      7  C   UNL     1     164.234 156.524 153.189  1.00  0.00     0.093 A 
ATOM      8  C   UNL     1     164.896 157.282 152.224  1.00  0.00     0.123 A 
ATOM      9  C   UNL     1     165.637 156.644 151.230  1.00  0.00     0.094 A 
ATOM     10  C   UNL     1     165.745 155.251 151.211  1.00  0.00     0.146 A 
ATOM     11  O   UNL     1     166.473 154.682 150.256  1.00  0.00    -0.456 OA
ENDROOT
BRANCH   1  12
ATOM     12  C   UNL     1     167.482 152.844 149.043  1.00  0.00     0.021 A 
ATOM     13  C   UNL     1     167.022 151.742 148.302  1.00  0.00     0.016 A 
ATOM     14  C   UNL     1     167.783 151.222 147.252  1.00  0.00     0.051 A 
ATOM     15  C   UNL     1     169.020 151.787 146.930  1.00  0.00     0.157 A 
ATOM     16  C   UNL     1     168.736 153.400 148.723  1.00  0.00     0.062 A 
ATOM     17  C   UNL     1     169.502 152.878 147.670  1.00  0.00     0.158 A 
BRANCH  15  18
ATOM     18  O   UNL     1     169.757 151.248 145.875  1.00  0.00    -0.504 OA
ATOM     19  H   UNL     1     170.769 151.271 145.859  1.00  0.00     0.293 HD
ENDBRANCH  15  18
BRANCH  17  20
ATOM     20  O   UNL     1     170.741 153.438 147.360  1.00  0.00    -0.504 OA
ATOM     21  H   UNL     1     170.877 154.000 146.529  1.00  0.00     0.293 HD
ENDBRANCH  17  20
ENDBRANCH   1  12
BRANCH   6  22
ATOM     22  O   UNL     1     163.523 154.459 154.135  1.00  0.00    -0.507 OA
ATOM     23  H   UNL     1     163.775 153.588 154.575  1.00  0.00     0.293 HD
ENDBRANCH   6  22
BRANCH   8  24
ATOM     24  O   UNL     1     164.801 158.672 152.259  1.00  0.00    -0.508 OA
ATOM     25  H   UNL     1     164.422 159.157 153.064  1.00  0.00     0.293 HD
ENDBRANCH   8  24
TORSDOF 5
ENDMDL
MODEL 6
REMARK VINA RESULT:    -7.539      5.643      6.950
REMARK INTER + INTRA:          -9.144
REMARK INTER:                  -8.829
REMARK INTRA:                  -0.315
REMARK UNBOUND:                -0.283
REMARK SMILES O=c1cc(-c2ccc(O)c(O)c2)oc2cc(O)cc(O)c12
REMARK SMILES IDX 4 1 3 2 2 3 1 4 21 5 19 6 18 7 16 8 15 9 14 10 13 11 5 12
REMARK SMILES IDX 6 13 7 14 8 15 12 16 10 17 9 18 11 20 20 22 17 24
REMARK H PARENT 9 19 11 21 20 23 17 25
REMARK Flexibility Score: inf
ROOT
ATOM      1  C   UNL     1     164.075 150.596 150.334  1.00  0.00     0.138 A 
ATOM      2  C   UNL     1     163.924 151.309 151.531  1.00  0.00     0.100 A 
ATOM      3  C   UNL     1     164.504 152.571 151.660  1.00  0.00     0.197 A 
ATOM      4  O   UNL     1     164.404 153.160 152.768  1.00  0.00    -0.289 OA
ATOM      5  C   UNL     1     165.211 153.135 150.572  1.00  0.00     0.107 A 
ATOM      6  C   UNL     1     165.808 154.431 150.574  1.00  0.00     0.134 A 
ATOM      7  C   UNL     1     166.582 154.836 149.481  1.00  0.00     0.093 A 
ATOM      8  C   UNL     1     166.731 154.019 148.360  1.00  0.00     0.123 A 
ATOM      9  C   UNL     1     166.106 152.772 148.324  1.00  0.00     0.094 A 
ATOM     10  C   UNL     1     165.356 152.324 149.414  1.00  0.00     0.146 A 
ATOM     11  O   UNL     1     164.790 151.124 149.347  1.00  0.00    -0.456 OA
ENDROOT
BRANCH   1  12
ATOM     12  C   UNL     1     163.478 149.250 150.143  1.00  0.00     0.021 A 
ATOM     13  C   UNL     1     162.993 148.544 151.257  1.00  0.00     0.016 A 
ATOM     14  C   UNL     1     162.435 147.272 151.107  1.00  0.00     0.051 A 
ATOM     15  C   UNL     1     162.360 146.679 149.844  1.00  0.00     0.157 A 
ATOM     16  C   UNL     1     163.413 148.642 148.874  1.00  0.00     0.062 A 
ATOM     17  C   UNL     1     162.854 147.364 148.722  1.00  0.00     0.158 A 
BRANCH  15  18
ATOM     18  O   UNL     1     161.796 145.409 149.723  1.00  0.00    -0.504 OA
ATOM     19  H   UNL     1     161.400 144.919 150.516  1.00  0.00     0.293 HD
ENDBRANCH  15  18
BRANCH  17  20
ATOM     20  O   UNL     1     162.792 146.772 147.460  1.00  0.00    -0.504 OA
ATOM     21  H   UNL     1     163.337 147.122 146.682  1.00  0.00     0.293 HD
ENDBRANCH  17  20
ENDBRANCH   1  12
BRANCH   6  22
ATOM     22  O   UNL     1     165.652 155.361 151.607  1.00  0.00    -0.507 OA
ATOM     23  H   UNL     1     166.409 155.794 152.113  1.00  0.00     0.293 HD
ENDBRANCH   6  22
BRANCH   8  24
ATOM     24  O   UNL     1     167.497 154.462 147.283  1.00  0.00    -0.508 OA
ATOM     25  H   UNL     1     167.202 155.246 146.711  1.00  0.00     0.293 HD
ENDBRANCH   8  24
TORSDOF 5
ENDMDL
MODEL 7
REMARK VINA RESULT:    -7.372      7.008      9.825
REMARK INTER + INTRA:          -8.948
REMARK INTER:                  -8.685
REMARK INTRA:                  -0.263
REMARK UNBOUND:                -0.283
REMARK SMILES O=c1cc(-c2ccc(O)c(O)c2)oc2cc(O)cc(O)c12
REMARK SMILES IDX 4 1 3 2 2 3 1 4 21 5 19 6 18 7 16 8 15 9 14 10 13 11 5 12
REMARK SMILES IDX 6 13 7 14 8 15 12 16 10 17 9 18 11 20 20 22 17 24
REMARK H PARENT 9 19 11 21 20 23 17 25
REMARK Flexibility Score: inf
ROOT
ATOM      1  C   UNL     1     168.571 144.889 153.882  1.00  0.00     0.138 A 
ATOM      2  C   UNL     1     168.266 143.550 154.159  1.00  0.00     0.100 A 
ATOM      3  C   UNL     1     168.073 142.654 153.106  1.00  0.00     0.197 A 
ATOM      4  O   UNL     1     167.739 141.474 153.385  1.00  0.00    -0.289 OA
ATOM      5  C   UNL     1     168.220 143.097 151.770  1.00  0.00     0.107 A 
ATOM      6  C   UNL     1     168.088 142.265 150.619  1.00  0.00     0.134 A 
ATOM      7  C   UNL     1     168.140 142.838 149.343  1.00  0.00     0.093 A 
ATOM      8  C   UNL     1     168.379 144.202 149.175  1.00  0.00     0.123 A 
ATOM      9  C   UNL     1     168.563 145.016 150.292  1.00  0.00     0.094 A 
ATOM     10  C   UNL     1     168.482 144.481 151.580  1.00  0.00     0.146 A 
ATOM     11  O   UNL     1     168.649 145.292 152.619  1.00  0.00    -0.456 OA
ENDROOT
BRANCH   1  12
ATOM     12  C   UNL     1     168.786 145.884 154.964  1.00  0.00     0.021 A 
ATOM     13  C   UNL     1     167.704 146.658 155.416  1.00  0.00     0.016 A 
ATOM     14  C   UNL     1     167.880 147.606 156.427  1.00  0.00     0.051 A 
ATOM     15  C   UNL     1     169.141 147.804 156.997  1.00  0.00     0.157 A 
ATOM     16  C   UNL     1     170.057 146.097 155.532  1.00  0.00     0.062 A 
ATOM     17  C   UNL     1     170.236 147.050 156.546  1.00  0.00     0.158 A 
BRANCH  15  18
ATOM     18  O   UNL     1     169.287 148.757 158.005  1.00  0.00    -0.504 OA
ATOM     19  H   UNL     1     168.604 148.866 158.745  1.00  0.00     0.293 HD
ENDBRANCH  15  18
BRANCH  17  20
ATOM     20  O   UNL     1     171.498 147.252 157.103  1.00  0.00    -0.504 OA
ATOM     21  H   UNL     1     171.926 146.564 157.711  1.00  0.00     0.293 HD
ENDBRANCH  17  20
ENDBRANCH   1  12
BRANCH   6  22
ATOM     22  O   UNL     1     167.932 140.876 150.673  1.00  0.00    -0.507 OA
ATOM     23  H   UNL     1     168.453 140.260 151.277  1.00  0.00     0.293 HD
ENDBRANCH   6  22
BRANCH   8  24
ATOM     24  O   UNL     1     168.439 144.736 147.889  1.00  0.00    -0.508 OA
ATOM     25  H   UNL     1     168.606 145.723 147.732  1.00  0.00     0.293 HD
ENDBRANCH   8  24
TORSDOF 5
ENDMDL
MODEL 8
REMARK VINA RESULT:    -7.341      5.128      9.150
REMARK INTER + INTRA:          -8.911
REMARK INTER:                  -8.642
REMARK INTRA:                  -0.269
REMARK UNBOUND:                -0.283
REMARK SMILES O=c1cc(-c2ccc(O)c(O)c2)oc2cc(O)cc(O)c12
REMARK SMILES IDX 4 1 3 2 2 3 1 4 21 5 19 6 18 7 16 8 15 9 14 10 13 11 5 12
REMARK SMILES IDX 6 13 7 14 8 15 12 16 10 17 9 18 11 20 20 22 17 24
REMARK H PARENT 9 19 11 21 20 23 17 25
REMARK Flexibility Score: inf
ROOT
ATOM      1  C   UNL     1     164.938 153.290 151.294  1.00  0.00     0.138 A 
ATOM      2  C   UNL     1     164.095 152.381 151.948  1.00  0.00     0.100 A 
ATOM      3  C   UNL     1     163.752 151.183 151.318  1.00  0.00     0.197 A 
ATOM      4  O   UNL     1     162.944 150.416 151.903  1.00  0.00    -0.289 OA
ATOM      5  C   UNL     1     164.283 150.883 150.041  1.00  0.00     0.107 A 
ATOM      6  C   UNL     1     164.036 149.676 149.322  1.00  0.00     0.134 A 
ATOM      7  C   UNL     1     164.521 149.538 148.016  1.00  0.00     0.093 A 
ATOM      8  C   UNL     1     165.295 150.538 147.426  1.00  0.00     0.123 A 
ATOM      9  C   UNL     1     165.588 151.700 148.140  1.00  0.00     0.094 A 
ATOM     10  C   UNL     1     165.089 151.882 149.432  1.00  0.00     0.146 A 
ATOM     11  O   UNL     1     165.379 153.009 150.073  1.00  0.00    -0.456 OA
ENDROOT
BRANCH   1  12
ATOM     12  C   UNL     1     165.335 154.578 151.919  1.00  0.00     0.021 A 
ATOM     13  C   UNL     1     166.216 154.573 153.014  1.00  0.00     0.016 A 
ATOM     14  C   UNL     1     166.598 155.770 153.624  1.00  0.00     0.051 A 
ATOM     15  C   UNL     1     166.102 156.991 153.159  1.00  0.00     0.157 A 
ATOM     16  C   UNL     1     164.826 155.810 151.462  1.00  0.00     0.062 A 
ATOM     17  C   UNL     1     165.209 157.012 152.076  1.00  0.00     0.158 A 
BRANCH  15  18
ATOM     18  O   UNL     1     166.503 158.170 153.787  1.00  0.00    -0.504 OA
ATOM     19  H   UNL     1     166.752 159.000 153.264  1.00  0.00     0.293 HD
ENDBRANCH  15  18
BRANCH  17  20
ATOM     20  O   UNL     1     164.701 158.226 151.614  1.00  0.00    -0.504 OA
ATOM     21  H   UNL     1     164.801 159.081 152.148  1.00  0.00     0.293 HD
ENDBRANCH  17  20
ENDBRANCH   1  12
BRANCH   6  22
ATOM     22  O   UNL     1     163.347 148.579 149.850  1.00  0.00    -0.507 OA
ATOM     23  H   UNL     1     163.780 147.788 150.301  1.00  0.00     0.293 HD
ENDBRANCH   6  22
BRANCH   8  24
ATOM     24  O   UNL     1     165.774 150.360 146.129  1.00  0.00    -0.508 OA
ATOM     25  H   UNL     1     166.632 150.800 145.817  1.00  0.00     0.293 HD
ENDBRANCH   8  24
TORSDOF 5
ENDMDL
MODEL 9
REMARK VINA RESULT:    -7.241      4.296      8.679
REMARK INTER + INTRA:          -8.793
REMARK INTER:                  -8.499
REMARK INTRA:                  -0.295
REMARK UNBOUND:                -0.283
REMARK SMILES O=c1cc(-c2ccc(O)c(O)c2)oc2cc(O)cc(O)c12
REMARK SMILES IDX 4 1 3 2 2 3 1 4 21 5 19 6 18 7 16 8 15 9 14 10 13 11 5 12
REMARK SMILES IDX 6 13 7 14 8 15 12 16 10 17 9 18 11 20 20 22 17 24
REMARK H PARENT 9 19 11 21 20 23 17 25
REMARK Flexibility Score: inf
ROOT
ATOM      1  C   UNL     1     164.876 152.574 149.853  1.00  0.00     0.138 A 
ATOM      2  C   UNL     1     163.929 151.578 149.579  1.00  0.00     0.100 A 
ATOM      3  C   UNL     1     164.204 150.613 148.609  1.00  0.00     0.197 A 
ATOM      4  O   UNL     1     163.310 149.769 148.342  1.00  0.00    -0.289 OA
ATOM      5  C   UNL     1     165.447 150.628 147.934  1.00  0.00     0.107 A 
ATOM      6  C   UNL     1     165.853 149.671 146.957  1.00  0.00     0.134 A 
ATOM      7  C   UNL     1     167.059 149.855 146.271  1.00  0.00     0.093 A 
ATOM      8  C   UNL     1     167.903 150.925 146.568  1.00  0.00     0.123 A 
ATOM      9  C   UNL     1     167.541 151.837 147.560  1.00  0.00     0.094 A 
ATOM     10  C   UNL     1     166.327 151.702 148.238  1.00  0.00     0.146 A 
ATOM     11  O   UNL     1     166.013 152.600 149.166  1.00  0.00    -0.456 OA
ENDROOT
BRANCH   1  12
ATOM     12  C   UNL     1     164.636 153.625 150.874  1.00  0.00     0.021 A 
ATOM     13  C   UNL     1     165.466 154.759 150.910  1.00  0.00     0.016 A 
ATOM     14  C   UNL     1     165.266 155.757 151.866  1.00  0.00     0.051 A 
ATOM     15  C   UNL     1     164.241 155.638 152.808  1.00  0.00     0.157 A 
ATOM     16  C   UNL     1     163.613 153.503 151.835  1.00  0.00     0.062 A 
ATOM     17  C   UNL     1     163.412 154.505 152.797  1.00  0.00     0.158 A 
BRANCH  15  18
ATOM     18  O   UNL     1     164.064 156.652 153.750  1.00  0.00    -0.504 OA
ATOM     19  H   UNL     1     163.297 156.645 154.410  1.00  0.00     0.293 HD
ENDBRANCH  15  18
BRANCH  17  20
ATOM     20  O   UNL     1     162.395 154.375 153.742  1.00  0.00    -0.504 OA
ATOM     21  H   UNL     1     161.420 154.488 153.492  1.00  0.00     0.293 HD
ENDBRANCH  17  20
ENDBRANCH   1  12
BRANCH   6  22
ATOM     22  O   UNL     1     165.126 148.518 146.644  1.00  0.00    -0.507 OA
ATOM     23  H   UNL     1     165.531 147.639 146.363  1.00  0.00     0.293 HD
ENDBRANCH   6  22
BRANCH   8  24
ATOM     24  O   UNL     1     169.103 151.067 145.875  1.00  0.00    -0.508 OA
ATOM     25  H   UNL     1     169.736 150.285 145.746  1.00  0.00     0.293 HD
ENDBRANCH   8  24
TORSDOF 5
ENDMDL
