MODEL 1
REMARK VINA RESULT:    -5.058      0.000      0.000
REMARK INTER + INTRA:          -5.696
REMARK INTER:                  -5.501
REMARK INTRA:                  -0.195
REMARK UNBOUND:                -0.195
REMARK SMILES Cc1ccc(C(C)C)c(O)c1
REMARK SMILES IDX 1 1 2 2 11 3 9 4 5 5 4 6 3 7 10 8 6 10 7 11 8 12
REMARK H PARENT 10 9
REMARK Flexibility Score: inf
ROOT
ATOM      1  C   UNL     1      45.989   8.518  20.913  1.00  0.00     0.044 C 
ATOM      2  C   UNL     1      45.834   8.038  19.500  1.00  0.00    -0.047 A 
ATOM      3  C   UNL     1      46.717   7.085  18.977  1.00  0.00     0.049 A 
ATOM      4  C   UNL     1      46.557   6.602  17.670  1.00  0.00     0.119 A 
ATOM      5  C   UNL     1      45.489   7.070  16.868  1.00  0.00    -0.004 A 
ATOM      6  C   UNL     1      44.599   8.015  17.412  1.00  0.00     0.008 A 
ATOM      7  C   UNL     1      44.766   8.488  18.715  1.00  0.00     0.004 A 
ENDROOT
BRANCH   4   8
ATOM      8  O   UNL     1      47.458   5.659  17.176  1.00  0.00    -0.508 OA
ATOM      9  H   UNL     1      47.146   4.792  16.753  1.00  0.00     0.293 HD
ENDBRANCH   4   8
BRANCH   5  10
ATOM     10  C   UNL     1      45.265   6.585  15.441  1.00  0.00     0.017 C 
ATOM     11  C   UNL     1      45.763   7.605  14.410  1.00  0.00     0.012 C 
ATOM     12  C   UNL     1      43.801   6.200  15.193  1.00  0.00     0.012 C 
ENDBRANCH   5  10
TORSDOF 2
ENDMDL
MODEL 2
REMARK VINA RESULT:    -4.999      2.096      5.197
REMARK INTER + INTRA:          -5.632
REMARK INTER:                  -5.439
REMARK INTRA:                  -0.193
REMARK UNBOUND:                -0.195
REMARK SMILES Cc1ccc(C(C)C)c(O)c1
REMARK SMILES IDX 1 1 2 2 11 3 9 4 5 5 4 6 3 7 10 8 6 10 7 11 8 12
REMARK H PARENT 10 9
REMARK Flexibility Score: inf
ROOT
ATOM      1  C   UNL     1      46.264   7.750  16.847  1.00  0.00     0.044 C 
ATOM      2  C   UNL     1      46.228   7.878  18.341  1.00  0.00    -0.047 A 
ATOM      3  C   UNL     1      46.760   6.866  19.150  1.00  0.00     0.049 A 
ATOM      4  C   UNL     1      46.765   6.994  20.547  1.00  0.00     0.119 A 
ATOM      5  C   UNL     1      46.239   8.160  21.152  1.00  0.00    -0.004 A 
ATOM      6  C   UNL     1      45.725   9.177  20.327  1.00  0.00     0.008 A 
ATOM      7  C   UNL     1      45.726   9.041  18.937  1.00  0.00     0.004 A 
ENDROOT
BRANCH   4   8
ATOM      8  O   UNL     1      47.293   5.964  21.324  1.00  0.00    -0.508 OA
ATOM      9  H   UNL     1      46.730   5.466  22.005  1.00  0.00     0.293 HD
ENDBRANCH   4   8
BRANCH   5  10
ATOM     10  C   UNL     1      46.215   8.356  22.663  1.00  0.00     0.017 C 
ATOM     11  C   UNL     1      44.812   8.713  23.167  1.00  0.00     0.012 C 
ATOM     12  C   UNL     1      47.258   9.384  23.121  1.00  0.00     0.012 C 
ENDBRANCH   5  10
TORSDOF 2
ENDMDL
MODEL 3
REMARK VINA RESULT:    -4.970      1.796      2.551
REMARK INTER + INTRA:          -5.600
REMARK INTER:                  -5.406
REMARK INTRA:                  -0.194
REMARK UNBOUND:                -0.195
REMARK SMILES Cc1ccc(C(C)C)c(O)c1
REMARK SMILES IDX 1 1 2 2 11 3 9 4 5 5 4 6 3 7 10 8 6 10 7 11 8 12
REMARK H PARENT 10 9
REMARK Flexibility Score: inf
ROOT
ATOM      1  C   UNL     1      46.751   7.350  20.328  1.00  0.00     0.044 C 
ATOM      2  C   UNL     1      46.149   7.395  18.955  1.00  0.00    -0.047 A 
ATOM      3  C   UNL     1      45.036   8.206  18.698  1.00  0.00     0.049 A 
ATOM      4  C   UNL     1      44.489   8.284  17.408  1.00  0.00     0.119 A 
ATOM      5  C   UNL     1      45.068   7.547  16.349  1.00  0.00    -0.004 A 
ATOM      6  C   UNL     1      46.197   6.751  16.616  1.00  0.00     0.008 A 
ATOM      7  C   UNL     1      46.735   6.681  17.904  1.00  0.00     0.004 A 
ENDROOT
BRANCH   4   8
ATOM      8  O   UNL     1      43.375   9.093  17.188  1.00  0.00    -0.508 OA
ATOM      9  H   UNL     1      43.364  10.071  17.455  1.00  0.00     0.293 HD
ENDBRANCH   4   8
BRANCH   5  10
ATOM     10  C   UNL     1      44.518   7.588  14.929  1.00  0.00     0.017 C 
ATOM     11  C   UNL     1      43.721   6.323  14.590  1.00  0.00     0.012 C 
ATOM     12  C   UNL     1      45.622   7.852  13.897  1.00  0.00     0.012 C 
ENDBRANCH   5  10
TORSDOF 2
ENDMDL
MODEL 4
REMARK VINA RESULT:    -4.864      2.851      5.471
REMARK INTER + INTRA:          -5.486
REMARK INTER:                  -5.390
REMARK INTRA:                  -0.096
REMARK UNBOUND:                -0.195
REMARK SMILES Cc1ccc(C(C)C)c(O)c1
REMARK SMILES IDX 1 1 2 2 11 3 9 4 5 5 4 6 3 7 10 8 6 10 7 11 8 12
REMARK H PARENT 10 9
REMARK Flexibility Score: inf
ROOT
ATOM      1  C   UNL     1      44.182   8.512  17.517  1.00  0.00     0.044 C 
ATOM      2  C   UNL     1      44.947   8.315  18.793  1.00  0.00    -0.047 A 
ATOM      3  C   UNL     1      44.440   8.805  20.003  1.00  0.00     0.049 A 
ATOM      4  C   UNL     1      45.129   8.593  21.206  1.00  0.00     0.119 A 
ATOM      5  C   UNL     1      46.344   7.868  21.207  1.00  0.00    -0.004 A 
ATOM      6  C   UNL     1      46.833   7.365  19.987  1.00  0.00     0.008 A 
ATOM      7  C   UNL     1      46.139   7.581  18.794  1.00  0.00     0.004 A 
ENDROOT
BRANCH   4   8
ATOM      8  O   UNL     1      44.602   9.102  22.393  1.00  0.00    -0.508 OA
ATOM      9  H   UNL     1      44.286   8.494  23.140  1.00  0.00     0.293 HD
ENDBRANCH   4   8
BRANCH   5  10
ATOM     10  C   UNL     1      47.139   7.607  22.481  1.00  0.00     0.017 C 
ATOM     11  C   UNL     1      47.813   8.882  23.001  1.00  0.00     0.012 C 
ATOM     12  C   UNL     1      48.149   6.467  22.299  1.00  0.00     0.012 C 
ENDBRANCH   5  10
TORSDOF 2
ENDMDL
MODEL 5
REMARK VINA RESULT:    -4.631      1.808      4.452
REMARK INTER + INTRA:          -5.232
REMARK INTER:                  -5.092
REMARK INTRA:                  -0.140
REMARK UNBOUND:                -0.195
REMARK SMILES Cc1ccc(C(C)C)c(O)c1
REMARK SMILES IDX 1 1 2 2 11 3 9 4 5 5 4 6 3 7 10 8 6 10 7 11 8 12
REMARK H PARENT 10 9
REMARK Flexibility Score: inf
ROOT
ATOM      1  C   UNL     1      46.308   5.514  14.571  1.00  0.00     0.044 C 
ATOM      2  C   UNL     1      46.068   6.320  15.812  1.00  0.00    -0.047 A 
ATOM      3  C   UNL     1      44.888   7.061  15.956  1.00  0.00     0.049 A 
ATOM      4  C   UNL     1      44.637   7.789  17.129  1.00  0.00     0.119 A 
ATOM      5  C   UNL     1      45.576   7.769  18.187  1.00  0.00    -0.004 A 
ATOM      6  C   UNL     1      46.749   7.006  18.037  1.00  0.00     0.008 A 
ATOM      7  C   UNL     1      46.989   6.285  16.866  1.00  0.00     0.004 A 
ENDROOT
BRANCH   4   8
ATOM      8  O   UNL     1      43.457   8.523  17.236  1.00  0.00    -0.508 OA
ATOM      9  H   UNL     1      42.806   8.604  16.463  1.00  0.00     0.293 HD
ENDBRANCH   4   8
BRANCH   5  10
ATOM     10  C   UNL     1      45.361   8.540  19.484  1.00  0.00     0.017 C 
ATOM     11  C   UNL     1      45.631  10.039  19.306  1.00  0.00     0.012 C 
ATOM     12  C   UNL     1      46.181   7.952  20.639  1.00  0.00     0.012 C 
ENDBRANCH   5  10
TORSDOF 2
ENDMDL
MODEL 6
REMARK VINA RESULT:    -4.586      1.173      1.550
REMARK INTER + INTRA:          -5.183
REMARK INTER:                  -5.006
REMARK INTRA:                  -0.177
REMARK UNBOUND:                -0.195
REMARK SMILES Cc1ccc(C(C)C)c(O)c1
REMARK SMILES IDX 1 1 2 2 11 3 9 4 5 5 4 6 3 7 10 8 6 10 7 11 8 12
REMARK H PARENT 10 9
REMARK Flexibility Score: inf
ROOT
ATOM      1  C   UNL     1      46.503   8.139  22.298  1.00  0.00     0.044 C 
ATOM      2  C   UNL     1      46.311   8.081  20.812  1.00  0.00    -0.047 A 
ATOM      3  C   UNL     1      46.824   7.006  20.075  1.00  0.00     0.049 A 
ATOM      4  C   UNL     1      46.618   6.924  18.689  1.00  0.00     0.119 A 
ATOM      5  C   UNL     1      45.875   7.928  18.025  1.00  0.00    -0.004 A 
ATOM      6  C   UNL     1      45.349   8.993  18.780  1.00  0.00     0.008 A 
ATOM      7  C   UNL     1      45.560   9.065  20.159  1.00  0.00     0.004 A 
ENDROOT
BRANCH   4   8
ATOM      8  O   UNL     1      47.149   5.846  17.983  1.00  0.00    -0.508 OA
ATOM      9  H   UNL     1      47.025   4.889  18.296  1.00  0.00     0.293 HD
ENDBRANCH   4   8
BRANCH   5  10
ATOM     10  C   UNL     1      45.619   7.896  16.523  1.00  0.00     0.017 C 
ATOM     11  C   UNL     1      45.444   9.305  15.945  1.00  0.00     0.012 C 
ATOM     12  C   UNL     1      44.434   6.989  16.166  1.00  0.00     0.012 C 
ENDBRANCH   5  10
TORSDOF 2
ENDMDL
MODEL 7
REMARK VINA RESULT:    -4.461      1.839      4.073
REMARK INTER + INTRA:          -5.047
REMARK INTER:                  -4.871
REMARK INTRA:                  -0.176
REMARK UNBOUND:                -0.195
REMARK SMILES Cc1ccc(C(C)C)c(O)c1
REMARK SMILES IDX 1 1 2 2 11 3 9 4 5 5 4 6 3 7 10 8 6 10 7 11 8 12
REMARK H PARENT 10 9
REMARK Flexibility Score: inf
ROOT
ATOM      1  C   UNL     1      48.012   4.293  14.266  1.00  0.00     0.044 C 
ATOM      2  C   UNL     1      47.324   5.388  15.026  1.00  0.00    -0.047 A 
ATOM      3  C   UNL     1      47.476   5.486  16.415  1.00  0.00     0.049 A 
ATOM      4  C   UNL     1      46.867   6.528  17.131  1.00  0.00     0.119 A 
ATOM      5  C   UNL     1      46.099   7.501  16.447  1.00  0.00    -0.004 A 
ATOM      6  C   UNL     1      45.970   7.401  15.050  1.00  0.00     0.008 A 
ATOM      7  C   UNL     1      46.581   6.360  14.346  1.00  0.00     0.004 A 
ENDROOT
BRANCH   4   8
ATOM      8  O   UNL     1      47.030   6.592  18.514  1.00  0.00    -0.508 OA
ATOM      9  H   UNL     1      47.381   5.805  19.047  1.00  0.00     0.293 HD
ENDBRANCH   4   8
BRANCH   5  10
ATOM     10  C   UNL     1      45.413   8.654  17.168  1.00  0.00     0.017 C 
ATOM     11  C   UNL     1      44.073   8.226  17.777  1.00  0.00     0.012 C 
ATOM     12  C   UNL     1      45.255   9.881  16.261  1.00  0.00     0.012 C 
ENDBRANCH   5  10
TORSDOF 2
ENDMDL
MODEL 8
REMARK VINA RESULT:    -4.438      2.084      3.036
REMARK INTER + INTRA:          -5.022
REMARK INTER:                  -4.890
REMARK INTRA:                  -0.132
REMARK UNBOUND:                -0.195
REMARK SMILES Cc1ccc(C(C)C)c(O)c1
REMARK SMILES IDX 1 1 2 2 11 3 9 4 5 5 4 6 3 7 10 8 6 10 7 11 8 12
REMARK H PARENT 10 9
REMARK Flexibility Score: inf
ROOT
ATOM      1  C   UNL     1      46.630   8.200  22.851  1.00  0.00     0.044 C 
ATOM      2  C   UNL     1      46.409   8.102  21.370  1.00  0.00    -0.047 A 
ATOM      3  C   UNL     1      45.745   9.128  20.686  1.00  0.00     0.049 A 
ATOM      4  C   UNL     1      45.567   9.064  19.296  1.00  0.00     0.119 A 
ATOM      5  C   UNL     1      46.071   7.959  18.569  1.00  0.00    -0.004 A 
ATOM      6  C   UNL     1      46.752   6.944  19.266  1.00  0.00     0.008 A 
ATOM      7  C   UNL     1      46.925   7.018  20.651  1.00  0.00     0.004 A 
ENDROOT
BRANCH   4   8
ATOM      8  O   UNL     1      44.894  10.097  18.646  1.00  0.00    -0.508 OA
ATOM      9  H   UNL     1      43.998  10.440  18.974  1.00  0.00     0.293 HD
ENDBRANCH   4   8
BRANCH   5  10
ATOM     10  C   UNL     1      45.908   7.831  17.060  1.00  0.00     0.017 C 
ATOM     11  C   UNL     1      44.478   7.432  16.675  1.00  0.00     0.012 C 
ATOM     12  C   UNL     1      46.943   6.876  16.453  1.00  0.00     0.012 C 
ENDBRANCH   5  10
TORSDOF 2
ENDMDL
MODEL 9
REMARK VINA RESULT:    -4.384      2.575      5.416
REMARK INTER + INTRA:          -4.964
REMARK INTER:                  -4.768
REMARK INTRA:                  -0.196
REMARK UNBOUND:                -0.195
REMARK SMILES Cc1ccc(C(C)C)c(O)c1
REMARK SMILES IDX 1 1 2 2 11 3 9 4 5 5 4 6 3 7 10 8 6 10 7 11 8 12
REMARK H PARENT 10 9
REMARK Flexibility Score: inf
ROOT
ATOM      1  C   UNL     1      46.706   6.623  17.311  1.00  0.00     0.044 C 
ATOM      2  C   UNL     1      46.425   7.367  18.583  1.00  0.00    -0.047 A 
ATOM      3  C   UNL     1      45.648   8.532  18.563  1.00  0.00     0.049 A 
ATOM      4  C   UNL     1      45.348   9.214  19.752  1.00  0.00     0.119 A 
ATOM      5  C   UNL     1      45.823   8.719  20.990  1.00  0.00    -0.004 A 
ATOM      6  C   UNL     1      46.586   7.537  20.998  1.00  0.00     0.008 A 
ATOM      7  C   UNL     1      46.879   6.865  19.809  1.00  0.00     0.004 A 
ENDROOT
BRANCH   4   8
ATOM      8  O   UNL     1      44.580  10.376  19.697  1.00  0.00    -0.508 OA
ATOM      9  H   UNL     1      43.918  10.614  20.427  1.00  0.00     0.293 HD
ENDBRANCH   4   8
BRANCH   5  10
ATOM     10  C   UNL     1      45.532   9.415  22.314  1.00  0.00     0.017 C 
ATOM     11  C   UNL     1      46.781   9.495  23.200  1.00  0.00     0.012 C 
ATOM     12  C   UNL     1      44.355   8.767  23.053  1.00  0.00     0.012 C 
ENDBRANCH   5  10
TORSDOF 2
ENDMDL
