MODEL 1
REMARK VINA RESULT:    -4.922      0.000      0.000
REMARK INTER + INTRA:          -5.587
REMARK INTER:                  -5.353
REMARK INTRA:                  -0.233
REMARK UNBOUND:                -0.233
REMARK SMILES O=C([O-])c1ccccc1O
REMARK SMILES IDX 4 1 9 2 5 3 8 4 6 5 7 6 2 7 1 8 3 9 10 10
REMARK H PARENT 10 11
REMARK Flexibility Score: inf
ROOT
ATOM      1  C   UNL     1      -5.128   5.443  -6.068  1.00  0.00     0.039 A 
ATOM      2  C   UNL     1      -5.097   6.860  -6.136  1.00  0.00     0.124 A 
ATOM      3  C   UNL     1      -4.990   4.702  -7.256  1.00  0.00     0.014 A 
ATOM      4  C   UNL     1      -4.867   7.489  -7.366  1.00  0.00     0.047 A 
ATOM      5  C   UNL     1      -4.783   5.346  -8.478  1.00  0.00     0.001 A 
ATOM      6  C   UNL     1      -4.712   6.737  -8.531  1.00  0.00     0.004 A 
ENDROOT
BRANCH   1   7
ATOM      7  C   UNL     1      -5.263   4.713  -4.788  1.00  0.00     0.075 C 
ATOM      8  O   UNL     1      -4.750   3.569  -4.655  1.00  0.00    -0.545 OA
ATOM      9  O   UNL     1      -5.893   5.300  -3.698  1.00  0.00    -0.545 OA
ENDBRANCH   1   7
BRANCH   2  10
ATOM     10  O   UNL     1      -5.322   7.671  -5.022  1.00  0.00    -0.507 OA
ATOM     11  H   UNL     1      -6.213   7.736  -4.552  1.00  0.00     0.293 HD
ENDBRANCH   2  10
TORSDOF 2
ENDMDL
MODEL 2
REMARK VINA RESULT:    -4.731      1.037      2.504
REMARK INTER + INTRA:          -5.379
REMARK INTER:                  -5.153
REMARK INTRA:                  -0.226
REMARK UNBOUND:                -0.233
REMARK SMILES O=C([O-])c1ccccc1O
REMARK SMILES IDX 4 1 9 2 5 3 8 4 6 5 7 6 2 7 1 8 3 9 10 10
REMARK H PARENT 10 11
REMARK Flexibility Score: inf
ROOT
ATOM      1  C   UNL     1      -5.366   5.619  -5.280  1.00  0.00     0.039 A 
ATOM      2  C   UNL     1      -5.206   4.451  -6.068  1.00  0.00     0.124 A 
ATOM      3  C   UNL     1      -5.244   6.878  -5.898  1.00  0.00     0.014 A 
ATOM      4  C   UNL     1      -4.994   4.568  -7.447  1.00  0.00     0.047 A 
ATOM      5  C   UNL     1      -5.011   6.978  -7.272  1.00  0.00     0.001 A 
ATOM      6  C   UNL     1      -4.896   5.825  -8.047  1.00  0.00     0.004 A 
ENDROOT
BRANCH   1   7
ATOM      7  C   UNL     1      -5.694   5.566  -3.838  1.00  0.00     0.075 C 
ATOM      8  O   UNL     1      -5.596   6.603  -3.128  1.00  0.00    -0.545 OA
ATOM      9  O   UNL     1      -6.179   4.398  -3.262  1.00  0.00    -0.545 OA
ENDBRANCH   1   7
BRANCH   2  10
ATOM     10  O   UNL     1      -5.216   3.167  -5.518  1.00  0.00    -0.507 OA
ATOM     11  H   UNL     1      -6.060   2.688  -5.239  1.00  0.00     0.293 HD
ENDBRANCH   2  10
TORSDOF 2
ENDMDL
MODEL 3
REMARK VINA RESULT:    -4.703      1.143      2.714
REMARK INTER + INTRA:          -5.349
REMARK INTER:                  -5.098
REMARK INTRA:                  -0.251
REMARK UNBOUND:                -0.233
REMARK SMILES O=C([O-])c1ccccc1O
REMARK SMILES IDX 4 1 9 2 5 3 8 4 6 5 7 6 2 7 1 8 3 9 10 10
REMARK H PARENT 10 11
REMARK Flexibility Score: inf
ROOT
ATOM      1  C   UNL     1      -5.318   6.668  -6.543  1.00  0.00     0.039 A 
ATOM      2  C   UNL     1      -5.442   5.264  -6.700  1.00  0.00     0.124 A 
ATOM      3  C   UNL     1      -4.765   7.424  -7.595  1.00  0.00     0.014 A 
ATOM      4  C   UNL     1      -5.076   4.667  -7.913  1.00  0.00     0.047 A 
ATOM      5  C   UNL     1      -4.385   6.810  -8.790  1.00  0.00     0.001 A 
ATOM      6  C   UNL     1      -4.549   5.436  -8.953  1.00  0.00     0.004 A 
ENDROOT
BRANCH   1   7
ATOM      7  C   UNL     1      -5.781   7.376  -5.329  1.00  0.00     0.075 C 
ATOM      8  O   UNL     1      -6.399   8.470  -5.431  1.00  0.00    -0.545 OA
ATOM      9  O   UNL     1      -5.605   6.816  -4.070  1.00  0.00    -0.545 OA
ENDBRANCH   1   7
BRANCH   2  10
ATOM     10  O   UNL     1      -5.888   4.430  -5.673  1.00  0.00    -0.507 OA
ATOM     11  H   UNL     1      -6.632   3.757  -5.787  1.00  0.00     0.293 HD
ENDBRANCH   2  10
TORSDOF 2
ENDMDL
MODEL 4
REMARK VINA RESULT:    -4.698      2.025      3.089
REMARK INTER + INTRA:          -5.343
REMARK INTER:                  -5.096
REMARK INTRA:                  -0.247
REMARK UNBOUND:                -0.233
REMARK SMILES O=C([O-])c1ccccc1O
REMARK SMILES IDX 4 1 9 2 5 3 8 4 6 5 7 6 2 7 1 8 3 9 10 10
REMARK H PARENT 10 11
REMARK Flexibility Score: inf
ROOT
ATOM      1  C   UNL     1      -5.471   4.546  -4.361  1.00  0.00     0.039 A 
ATOM      2  C   UNL     1      -5.235   4.076  -5.678  1.00  0.00     0.124 A 
ATOM      3  C   UNL     1      -5.501   5.934  -4.129  1.00  0.00     0.014 A 
ATOM      4  C   UNL     1      -5.103   4.993  -6.728  1.00  0.00     0.047 A 
ATOM      5  C   UNL     1      -5.346   6.836  -5.184  1.00  0.00     0.001 A 
ATOM      6  C   UNL     1      -5.157   6.366  -6.483  1.00  0.00     0.004 A 
ENDROOT
BRANCH   1   7
ATOM      7  C   UNL     1      -5.723   3.632  -3.225  1.00  0.00     0.075 C 
ATOM      8  O   UNL     1      -6.571   3.937  -2.343  1.00  0.00    -0.545 OA
ATOM      9  O   UNL     1      -5.084   2.401  -3.148  1.00  0.00    -0.545 OA
ENDBRANCH   1   7
BRANCH   2  10
ATOM     10  O   UNL     1      -5.094   2.719  -5.978  1.00  0.00    -0.507 OA
ATOM     11  H   UNL     1      -5.294   2.326  -6.886  1.00  0.00     0.293 HD
ENDBRANCH   2  10
TORSDOF 2
ENDMDL
MODEL 5
REMARK VINA RESULT:    -4.692      1.691      2.396
REMARK INTER + INTRA:          -5.337
REMARK INTER:                  -5.097
REMARK INTRA:                  -0.240
REMARK UNBOUND:                -0.233
REMARK SMILES O=C([O-])c1ccccc1O
REMARK SMILES IDX 4 1 9 2 5 3 8 4 6 5 7 6 2 7 1 8 3 9 10 10
REMARK H PARENT 10 11
REMARK Flexibility Score: inf
ROOT
ATOM      1  C   UNL     1      -5.401   5.130  -5.512  1.00  0.00     0.039 A 
ATOM      2  C   UNL     1      -5.547   5.176  -6.922  1.00  0.00     0.124 A 
ATOM      3  C   UNL     1      -5.235   6.336  -4.805  1.00  0.00     0.014 A 
ATOM      4  C   UNL     1      -5.586   6.414  -7.575  1.00  0.00     0.047 A 
ATOM      5  C   UNL     1      -5.256   7.562  -5.474  1.00  0.00     0.001 A 
ATOM      6  C   UNL     1      -5.441   7.602  -6.855  1.00  0.00     0.004 A 
ENDROOT
BRANCH   1   7
ATOM      7  C   UNL     1      -5.455   3.863  -4.749  1.00  0.00     0.075 C 
ATOM      8  O   UNL     1      -4.978   2.806  -5.243  1.00  0.00    -0.545 OA
ATOM      9  O   UNL     1      -5.965   3.832  -3.457  1.00  0.00    -0.545 OA
ENDBRANCH   1   7
BRANCH   2  10
ATOM     10  O   UNL     1      -5.619   4.023  -7.708  1.00  0.00    -0.507 OA
ATOM     11  H   UNL     1      -5.953   4.020  -8.661  1.00  0.00     0.293 HD
ENDBRANCH   2  10
TORSDOF 2
ENDMDL
MODEL 6
REMARK VINA RESULT:    -4.603      2.284      4.000
REMARK INTER + INTRA:          -5.240
REMARK INTER:                  -5.027
REMARK INTRA:                  -0.213
REMARK UNBOUND:                -0.233
REMARK SMILES O=C([O-])c1ccccc1O
REMARK SMILES IDX 4 1 9 2 5 3 8 4 6 5 7 6 2 7 1 8 3 9 10 10
REMARK H PARENT 10 11
REMARK Flexibility Score: inf
ROOT
ATOM      1  C   UNL     1      -5.250   6.434  -6.674  1.00  0.00     0.039 A 
ATOM      2  C   UNL     1      -5.201   5.052  -6.985  1.00  0.00     0.124 A 
ATOM      3  C   UNL     1      -5.264   6.828  -5.322  1.00  0.00     0.014 A 
ATOM      4  C   UNL     1      -5.103   4.112  -5.952  1.00  0.00     0.047 A 
ATOM      5  C   UNL     1      -5.187   5.876  -4.302  1.00  0.00     0.001 A 
ATOM      6  C   UNL     1      -5.096   4.521  -4.617  1.00  0.00     0.004 A 
ENDROOT
BRANCH   1   7
ATOM      7  C   UNL     1      -5.251   7.484  -7.717  1.00  0.00     0.075 C 
ATOM      8  O   UNL     1      -4.293   7.566  -8.532  1.00  0.00    -0.545 OA
ATOM      9  O   UNL     1      -6.331   8.345  -7.858  1.00  0.00    -0.545 OA
ENDBRANCH   1   7
BRANCH   2  10
ATOM     10  O   UNL     1      -5.282   4.573  -8.294  1.00  0.00    -0.507 OA
ATOM     11  H   UNL     1      -4.622   3.917  -8.688  1.00  0.00     0.293 HD
ENDBRANCH   2  10
TORSDOF 2
ENDMDL
MODEL 7
REMARK VINA RESULT:    -4.579      2.626      4.876
REMARK INTER + INTRA:          -5.214
REMARK INTER:                  -4.965
REMARK INTRA:                  -0.249
REMARK UNBOUND:                -0.233
REMARK SMILES O=C([O-])c1ccccc1O
REMARK SMILES IDX 4 1 9 2 5 3 8 4 6 5 7 6 2 7 1 8 3 9 10 10
REMARK H PARENT 10 11
REMARK Flexibility Score: inf
ROOT
ATOM      1  C   UNL     1      -5.808   4.267  -4.236  1.00  0.00     0.039 A 
ATOM      2  C   UNL     1      -5.896   3.043  -3.525  1.00  0.00     0.124 A 
ATOM      3  C   UNL     1      -6.338   5.433  -3.653  1.00  0.00     0.014 A 
ATOM      4  C   UNL     1      -6.447   3.028  -2.238  1.00  0.00     0.047 A 
ATOM      5  C   UNL     1      -6.904   5.396  -2.376  1.00  0.00     0.001 A 
ATOM      6  C   UNL     1      -6.949   4.198  -1.665  1.00  0.00     0.004 A 
ENDROOT
BRANCH   1   7
ATOM      7  C   UNL     1      -5.146   4.372  -5.556  1.00  0.00     0.075 C 
ATOM      8  O   UNL     1      -4.040   3.802  -5.756  1.00  0.00    -0.545 OA
ATOM      9  O   UNL     1      -5.761   5.039  -6.608  1.00  0.00    -0.545 OA
ENDBRANCH   1   7
BRANCH   2  10
ATOM     10  O   UNL     1      -5.484   1.825  -4.070  1.00  0.00    -0.507 OA
ATOM     11  H   UNL     1      -6.074   1.247  -4.650  1.00  0.00     0.293 HD
ENDBRANCH   2  10
TORSDOF 2
ENDMDL
MODEL 8
REMARK VINA RESULT:    -4.558      1.869      3.530
REMARK INTER + INTRA:          -5.192
REMARK INTER:                  -4.942
REMARK INTRA:                  -0.250
REMARK UNBOUND:                -0.233
REMARK SMILES O=C([O-])c1ccccc1O
REMARK SMILES IDX 4 1 9 2 5 3 8 4 6 5 7 6 2 7 1 8 3 9 10 10
REMARK H PARENT 10 11
REMARK Flexibility Score: inf
ROOT
ATOM      1  C   UNL     1      -5.215   6.139  -6.617  1.00  0.00     0.039 A 
ATOM      2  C   UNL     1      -5.347   6.586  -5.277  1.00  0.00     0.124 A 
ATOM      3  C   UNL     1      -5.079   4.760  -6.864  1.00  0.00     0.014 A 
ATOM      4  C   UNL     1      -5.404   5.651  -4.237  1.00  0.00     0.047 A 
ATOM      5  C   UNL     1      -5.116   3.841  -5.812  1.00  0.00     0.001 A 
ATOM      6  C   UNL     1      -5.289   4.285  -4.502  1.00  0.00     0.004 A 
ENDROOT
BRANCH   1   7
ATOM      7  C   UNL     1      -5.252   7.066  -7.770  1.00  0.00     0.075 C 
ATOM      8  O   UNL     1      -6.034   8.054  -7.764  1.00  0.00    -0.545 OA
ATOM      9  O   UNL     1      -4.381   6.902  -8.841  1.00  0.00    -0.545 OA
ENDBRANCH   1   7
BRANCH   2  10
ATOM     10  O   UNL     1      -5.390   7.940  -4.938  1.00  0.00    -0.507 OA
ATOM     11  H   UNL     1      -4.565   8.501  -4.781  1.00  0.00     0.293 HD
ENDBRANCH   2  10
TORSDOF 2
ENDMDL
MODEL 9
REMARK VINA RESULT:    -4.464      3.346      4.631
REMARK INTER + INTRA:          -5.089
REMARK INTER:                  -4.841
REMARK INTRA:                  -0.248
REMARK UNBOUND:                -0.233
REMARK SMILES O=C([O-])c1ccccc1O
REMARK SMILES IDX 4 1 9 2 5 3 8 4 6 5 7 6 2 7 1 8 3 9 10 10
REMARK H PARENT 10 11
REMARK Flexibility Score: inf
ROOT
ATOM      1  C   UNL     1      -6.509   3.669  -2.834  1.00  0.00     0.039 A 
ATOM      2  C   UNL     1      -5.654   3.137  -3.832  1.00  0.00     0.124 A 
ATOM      3  C   UNL     1      -6.629   5.067  -2.715  1.00  0.00     0.014 A 
ATOM      4  C   UNL     1      -4.998   4.002  -4.716  1.00  0.00     0.047 A 
ATOM      5  C   UNL     1      -5.951   5.917  -3.591  1.00  0.00     0.001 A 
ATOM      6  C   UNL     1      -5.145   5.386  -4.597  1.00  0.00     0.004 A 
ENDROOT
BRANCH   1   7
ATOM      7  C   UNL     1      -7.311   2.810  -1.935  1.00  0.00     0.075 C 
ATOM      8  O   UNL     1      -7.425   3.104  -0.715  1.00  0.00    -0.545 OA
ATOM      9  O   UNL     1      -8.002   1.712  -2.431  1.00  0.00    -0.545 OA
ENDBRANCH   1   7
BRANCH   2  10
ATOM     10  O   UNL     1      -5.403   1.769  -3.956  1.00  0.00    -0.507 OA
ATOM     11  H   UNL     1      -5.955   1.058  -3.496  1.00  0.00     0.293 HD
ENDBRANCH   2  10
TORSDOF 2
ENDMDL
