MODEL 1
REMARK VINA RESULT:    -8.084      0.000      0.000
REMARK INTER + INTRA:         -17.608
REMARK INTER:                 -15.408
REMARK INTRA:                  -2.200
REMARK UNBOUND:                -2.200
REMARK SMILES C[C@H]1O[C@@H](O[C@H]2[C@H](O)[C@H](OCCc3ccc(O)c(O)c3)O[C@@H](CO)[C@@H]2OC(=O)C=Cc2ccc(O)c(O)c2)[C@H](O)[C@H](O)[C@H]1O
REMARK SMILES IDX 6 1 7 2 9 3 21 4 22 5 25 6 5 7 4 8 1 9 2 10 43 11 3 12 41 13
REMARK SMILES IDX 39 14 44 15 42 17 40 19 8 21 26 23 27 24 28 25 29 26 30 27
REMARK SMILES IDX 31 28 38 29 32 30 36 31 33 32 34 33 37 34 35 36 10 38 11 39
REMARK SMILES IDX 12 40 13 41 20 42 14 43 18 44 15 45 16 46 19 47 17 49 23 51
REMARK SMILES IDX 24 52
REMARK H PARENT 44 16 42 18 40 20 8 22 37 35 35 37 19 48 17 50 24 53
REMARK Flexibility Score: inf
ROOT
ATOM      1  C   UNL     1      32.934  33.555   2.104  1.00  0.00     0.199 C 
ATOM      2  C   UNL     1      32.353  32.706   0.947  1.00  0.00     0.203 C 
ATOM      3  C   UNL     1      32.288  33.593  -0.342  1.00  0.00     0.282 C 
ATOM      4  O   UNL     1      33.198  34.692  -0.303  1.00  0.00    -0.340 OA
ATOM      5  C   UNL     1      34.465  34.299   0.196  1.00  0.00     0.190 C 
ATOM      6  C   UNL     1      34.386  33.958   1.711  1.00  0.00     0.240 C 
ENDROOT
BRANCH   1   7
ATOM      7  O   UNL     1      32.087  34.682   2.220  1.00  0.00    -0.340 OA
BRANCH   7   8
ATOM      8  C   UNL     1      31.303  34.721   3.393  1.00  0.00     0.282 C 
ATOM      9  C   UNL     1      30.231  38.240   3.483  1.00  0.00     0.041 C 
ATOM     10  C   UNL     1      30.961  37.022   4.023  1.00  0.00     0.150 C 
ATOM     11  C   UNL     1      32.499  37.182   3.901  1.00  0.00     0.174 C 
ATOM     12  O   UNL     1      30.454  35.871   3.351  1.00  0.00    -0.344 OA
ATOM     13  C   UNL     1      33.232  35.936   4.475  1.00  0.00     0.179 C 
ATOM     14  C   UNL     1      32.282  34.713   4.585  1.00  0.00     0.202 C 
BRANCH  11  15
ATOM     15  O   UNL     1      32.845  37.372   2.546  1.00  0.00    -0.388 OA
ATOM     16  H   UNL     1      32.062  37.097   1.998  1.00  0.00     0.211 HD
ENDBRANCH  11  15
BRANCH  13  17
ATOM     17  O   UNL     1      33.795  36.242   5.727  1.00  0.00    -0.387 OA
ATOM     18  H   UNL     1      33.036  36.381   6.358  1.00  0.00     0.211 HD
ENDBRANCH  13  17
BRANCH  14  19
ATOM     19  O   UNL     1      31.550  34.720   5.787  1.00  0.00    -0.385 OA
ATOM     20  H   UNL     1      32.145  34.320   6.475  1.00  0.00     0.211 HD
ENDBRANCH  14  19
ENDBRANCH   7   8
ENDBRANCH   1   7
BRANCH   2  21
ATOM     21  O   UNL     1      33.148  31.559   0.757  1.00  0.00    -0.385 OA
ATOM     22  H   UNL     1      32.693  30.807   1.224  1.00  0.00     0.211 HD
ENDBRANCH   2  21
BRANCH   6  23
ATOM     23  O   UNL     1      35.264  32.854   1.949  1.00  0.00    -0.453 OA
BRANCH  23  24
ATOM     24  C   UNL     1      36.114  32.681   3.051  1.00  0.00     0.331 C 
ATOM     25  O   UNL     1      35.874  31.742   3.852  1.00  0.00    -0.247 OA
BRANCH  24  26
ATOM     26  C   UNL     1      37.277  33.563   3.283  1.00  0.00     0.094 C 
ATOM     27  C   UNL     1      38.406  33.503   2.557  1.00  0.00     0.016 C 
BRANCH  27  28
ATOM     28  C   UNL     1      38.555  32.665   1.349  1.00  0.00    -0.021 A 
ATOM     29  C   UNL     1      39.172  31.402   1.407  1.00  0.00     0.058 A 
ATOM     30  C   UNL     1      38.104  33.144   0.109  1.00  0.00     0.012 A 
ATOM     31  C   UNL     1      39.383  30.653   0.249  1.00  0.00     0.157 A 
ATOM     32  C   UNL     1      38.334  32.406  -1.058  1.00  0.00     0.051 A 
ATOM     33  C   UNL     1      38.973  31.160  -0.998  1.00  0.00     0.157 A 
BRANCH  31  34
ATOM     34  O   UNL     1      40.005  29.405   0.357  1.00  0.00    -0.504 OA
ATOM     35  H   UNL     1      39.786  28.646  -0.272  1.00  0.00     0.293 HD
ENDBRANCH  31  34
BRANCH  33  36
ATOM     36  O   UNL     1      39.213  30.429  -2.161  1.00  0.00    -0.504 OA
ATOM     37  H   UNL     1      38.872  30.743  -3.066  1.00  0.00     0.293 HD
ENDBRANCH  33  36
ENDBRANCH  27  28
ENDBRANCH  24  26
ENDBRANCH  23  24
ENDBRANCH   6  23
BRANCH   3  38
ATOM     38  O   UNL     1      32.468  32.825  -1.522  1.00  0.00    -0.350 OA
BRANCH  38  39
ATOM     39  C   UNL     1      31.489  33.151  -2.497  1.00  0.00     0.168 C 
BRANCH  39  40
ATOM     40  C   UNL     1      32.111  33.888  -3.692  1.00  0.00     0.064 C 
BRANCH  40  41
ATOM     41  C   UNL     1      32.060  33.043  -4.940  1.00  0.00    -0.042 A 
ATOM     42  C   UNL     1      33.236  32.490  -5.460  1.00  0.00     0.054 A 
ATOM     43  C   UNL     1      30.826  32.764  -5.556  1.00  0.00     0.008 A 
ATOM     44  C   UNL     1      33.187  31.667  -6.595  1.00  0.00     0.157 A 
ATOM     45  C   UNL     1      30.779  31.936  -6.680  1.00  0.00     0.050 A 
ATOM     46  C   UNL     1      31.955  31.390  -7.204  1.00  0.00     0.157 A 
BRANCH  44  47
ATOM     47  O   UNL     1      34.360  31.133  -7.118  1.00  0.00    -0.504 OA
ATOM     48  H   UNL     1      34.447  30.924  -8.106  1.00  0.00     0.293 HD
ENDBRANCH  44  47
BRANCH  46  49
ATOM     49  O   UNL     1      31.881  30.557  -8.325  1.00  0.00    -0.504 OA
ATOM     50  H   UNL     1      31.315  29.723  -8.324  1.00  0.00     0.293 HD
ENDBRANCH  46  49
ENDBRANCH  40  41
ENDBRANCH  39  40
ENDBRANCH  38  39
ENDBRANCH   3  38
BRANCH   5  51
ATOM     51  C   UNL     1      35.486  35.408  -0.074  1.00  0.00     0.192 C 
BRANCH  51  52
ATOM     52  O   UNL     1      35.120  36.578   0.609  1.00  0.00    -0.394 OA
ATOM     53  H   UNL     1      34.829  36.307   1.510  1.00  0.00     0.210 HD
ENDBRANCH  51  52
ENDBRANCH   5  51
TORSDOF 20
ENDMDL
MODEL 2
REMARK VINA RESULT:    -8.025      3.366      6.899
REMARK INTER + INTRA:         -17.496
REMARK INTER:                 -13.917
REMARK INTRA:                  -3.579
REMARK UNBOUND:                -2.200
REMARK SMILES C[C@H]1O[C@@H](O[C@H]2[C@H](O)[C@H](OCCc3ccc(O)c(O)c3)O[C@@H](CO)[C@@H]2OC(=O)C=Cc2ccc(O)c(O)c2)[C@H](O)[C@H](O)[C@H]1O
REMARK SMILES IDX 6 1 7 2 9 3 21 4 22 5 25 6 5 7 4 8 1 9 2 10 43 11 3 12 41 13
REMARK SMILES IDX 39 14 44 15 42 17 40 19 8 21 26 23 27 24 28 25 29 26 30 27
REMARK SMILES IDX 31 28 38 29 32 30 36 31 33 32 34 33 37 34 35 36 10 38 11 39
REMARK SMILES IDX 12 40 13 41 20 42 14 43 18 44 15 45 16 46 19 47 17 49 23 51
REMARK SMILES IDX 24 52
REMARK H PARENT 44 16 42 18 40 20 8 22 37 35 35 37 19 48 17 50 24 53
REMARK Flexibility Score: inf
ROOT
ATOM      1  C   UNL     1      34.066  34.750   4.873  1.00  0.00     0.199 C 
ATOM      2  C   UNL     1      35.351  35.023   5.693  1.00  0.00     0.203 C 
ATOM      3  C   UNL     1      36.002  33.651   6.077  1.00  0.00     0.282 C 
ATOM      4  O   UNL     1      35.610  32.590   5.206  1.00  0.00    -0.340 OA
ATOM      5  C   UNL     1      35.625  33.001   3.849  1.00  0.00     0.190 C 
ATOM      6  C   UNL     1      34.489  34.022   3.562  1.00  0.00     0.240 C 
ENDROOT
BRANCH   1   7
ATOM      7  O   UNL     1      33.251  33.932   5.692  1.00  0.00    -0.340 OA
BRANCH   7   8
ATOM      8  C   UNL     1      31.983  33.627   5.155  1.00  0.00     0.282 C 
ATOM      9  C   UNL     1      30.382  36.938   5.039  1.00  0.00     0.041 C 
ATOM     10  C   UNL     1      30.514  35.503   5.519  1.00  0.00     0.150 C 
ATOM     11  C   UNL     1      30.958  35.437   7.003  1.00  0.00     0.174 C 
ATOM     12  O   UNL     1      31.396  34.821   4.630  1.00  0.00    -0.344 OA
ATOM     13  C   UNL     1      31.069  33.962   7.483  1.00  0.00     0.179 C 
ATOM     14  C   UNL     1      31.162  32.976   6.288  1.00  0.00     0.202 C 
BRANCH  11  15
ATOM     15  O   UNL     1      32.198  36.096   7.150  1.00  0.00    -0.388 OA
ATOM     16  H   UNL     1      32.872  35.408   7.396  1.00  0.00     0.211 HD
ENDBRANCH  11  15
BRANCH  13  17
ATOM     17  O   UNL     1      29.978  33.640   8.309  1.00  0.00    -0.387 OA
ATOM     18  H   UNL     1      29.519  34.497   8.528  1.00  0.00     0.211 HD
ENDBRANCH  13  17
BRANCH  14  19
ATOM     19  O   UNL     1      29.892  32.623   5.797  1.00  0.00    -0.385 OA
ATOM     20  H   UNL     1      30.044  32.218   4.901  1.00  0.00     0.211 HD
ENDBRANCH  14  19
ENDBRANCH   7   8
ENDBRANCH   1   7
BRANCH   2  21
ATOM     21  O   UNL     1      36.228  35.829   4.943  1.00  0.00    -0.385 OA
ATOM     22  H   UNL     1      36.978  35.248   4.645  1.00  0.00     0.211 HD
ENDBRANCH   2  21
BRANCH   6  23
ATOM     23  O   UNL     1      34.997  34.981   2.632  1.00  0.00    -0.453 OA
BRANCH  23  24
ATOM     24  C   UNL     1      34.267  35.664   1.648  1.00  0.00     0.331 C 
ATOM     25  O   UNL     1      33.036  35.846   1.831  1.00  0.00    -0.247 OA
BRANCH  24  26
ATOM     26  C   UNL     1      34.907  36.175   0.418  1.00  0.00     0.094 C 
ATOM     27  C   UNL     1      35.460  35.379  -0.513  1.00  0.00     0.016 C 
BRANCH  27  28
ATOM     28  C   UNL     1      35.352  33.905  -0.494  1.00  0.00    -0.021 A 
ATOM     29  C   UNL     1      36.492  33.087  -0.600  1.00  0.00     0.058 A 
ATOM     30  C   UNL     1      34.089  33.300  -0.401  1.00  0.00     0.012 A 
ATOM     31  C   UNL     1      36.374  31.699  -0.664  1.00  0.00     0.157 A 
ATOM     32  C   UNL     1      33.965  31.909  -0.487  1.00  0.00     0.051 A 
ATOM     33  C   UNL     1      35.102  31.100  -0.620  1.00  0.00     0.157 A 
BRANCH  31  34
ATOM     34  O   UNL     1      37.536  30.928  -0.774  1.00  0.00    -0.504 OA
ATOM     35  H   UNL     1      38.200  31.071  -1.521  1.00  0.00     0.293 HD
ENDBRANCH  31  34
BRANCH  33  36
ATOM     36  O   UNL     1      34.979  29.714  -0.718  1.00  0.00    -0.504 OA
ATOM     37  H   UNL     1      35.339  29.096   0.006  1.00  0.00     0.293 HD
ENDBRANCH  33  36
ENDBRANCH  27  28
ENDBRANCH  24  26
ENDBRANCH  23  24
ENDBRANCH   6  23
BRANCH   3  38
ATOM     38  O   UNL     1      37.415  33.742   6.164  1.00  0.00    -0.350 OA
BRANCH  38  39
ATOM     39  C   UNL     1      37.958  32.612   6.832  1.00  0.00     0.168 C 
BRANCH  39  40
ATOM     40  C   UNL     1      39.282  32.166   6.193  1.00  0.00     0.064 C 
BRANCH  40  41
ATOM     41  C   UNL     1      39.041  31.430   4.899  1.00  0.00    -0.042 A 
ATOM     42  C   UNL     1      39.289  32.064   3.675  1.00  0.00     0.054 A 
ATOM     43  C   UNL     1      38.619  30.088   4.916  1.00  0.00     0.008 A 
ATOM     44  C   UNL     1      39.109  31.369   2.471  1.00  0.00     0.157 A 
ATOM     45  C   UNL     1      38.450  29.395   3.715  1.00  0.00     0.050 A 
ATOM     46  C   UNL     1      38.689  30.031   2.492  1.00  0.00     0.157 A 
BRANCH  44  47
ATOM     47  O   UNL     1      39.340  32.008   1.257  1.00  0.00    -0.504 OA
ATOM     48  H   UNL     1      39.746  32.937   1.222  1.00  0.00     0.293 HD
ENDBRANCH  44  47
BRANCH  46  49
ATOM     49  O   UNL     1      38.522  29.314   1.304  1.00  0.00    -0.504 OA
ATOM     50  H   UNL     1      37.637  28.895   1.063  1.00  0.00     0.293 HD
ENDBRANCH  46  49
ENDBRANCH  40  41
ENDBRANCH  39  40
ENDBRANCH  38  39
ENDBRANCH   3  38
BRANCH   5  51
ATOM     51  C   UNL     1      35.514  31.772   2.942  1.00  0.00     0.192 C 
BRANCH  51  52
ATOM     52  O   UNL     1      35.130  30.651   3.694  1.00  0.00    -0.394 OA
ATOM     53  H   UNL     1      35.580  30.722   4.567  1.00  0.00     0.210 HD
ENDBRANCH  51  52
ENDBRANCH   5  51
TORSDOF 20
ENDMDL
MODEL 3
REMARK VINA RESULT:    -7.987      1.937      3.574
REMARK INTER + INTRA:         -17.423
REMARK INTER:                 -14.017
REMARK INTRA:                  -3.406
REMARK UNBOUND:                -2.200
REMARK SMILES C[C@H]1O[C@@H](O[C@H]2[C@H](O)[C@H](OCCc3ccc(O)c(O)c3)O[C@@H](CO)[C@@H]2OC(=O)C=Cc2ccc(O)c(O)c2)[C@H](O)[C@H](O)[C@H]1O
REMARK SMILES IDX 6 1 7 2 9 3 21 4 22 5 25 6 5 7 4 8 1 9 2 10 43 11 3 12 41 13
REMARK SMILES IDX 39 14 44 15 42 17 40 19 8 21 26 23 27 24 28 25 29 26 30 27
REMARK SMILES IDX 31 28 38 29 32 30 36 31 33 32 34 33 37 34 35 36 10 38 11 39
REMARK SMILES IDX 12 40 13 41 20 42 14 43 18 44 15 45 16 46 19 47 17 49 23 51
REMARK SMILES IDX 24 52
REMARK H PARENT 44 16 42 18 40 20 8 22 37 35 35 37 19 48 17 50 24 53
REMARK Flexibility Score: inf
ROOT
ATOM      1  C   UNL     1      34.068  31.555   1.064  1.00  0.00     0.199 C 
ATOM      2  C   UNL     1      33.392  31.109  -0.255  1.00  0.00     0.203 C 
ATOM      3  C   UNL     1      33.128  32.376  -1.138  1.00  0.00     0.282 C 
ATOM      4  O   UNL     1      33.982  33.469  -0.803  1.00  0.00    -0.340 OA
ATOM      5  C   UNL     1      35.318  33.041  -0.599  1.00  0.00     0.190 C 
ATOM      6  C   UNL     1      35.440  32.194   0.699  1.00  0.00     0.240 C 
ENDROOT
BRANCH   1   7
ATOM      7  O   UNL     1      33.187  32.496   1.651  1.00  0.00    -0.340 OA
BRANCH   7   8
ATOM      8  C   UNL     1      33.700  33.167   2.781  1.00  0.00     0.282 C 
ATOM      9  C   UNL     1      30.893  32.935   5.149  1.00  0.00     0.041 C 
ATOM     10  C   UNL     1      31.875  33.687   4.268  1.00  0.00     0.150 C 
ATOM     11  C   UNL     1      31.173  34.306   3.032  1.00  0.00     0.174 C 
ATOM     12  O   UNL     1      32.937  32.796   3.932  1.00  0.00    -0.344 OA
ATOM     13  C   UNL     1      32.189  35.089   2.152  1.00  0.00     0.179 C 
ATOM     14  C   UNL     1      33.653  34.677   2.464  1.00  0.00     0.202 C 
BRANCH  11  15
ATOM     15  O   UNL     1      30.560  33.282   2.280  1.00  0.00    -0.388 OA
ATOM     16  H   UNL     1      31.240  32.930   1.646  1.00  0.00     0.211 HD
ENDBRANCH  11  15
BRANCH  13  17
ATOM     17  O   UNL     1      32.015  36.472   2.329  1.00  0.00    -0.387 OA
ATOM     18  H   UNL     1      32.870  36.908   2.062  1.00  0.00     0.211 HD
ENDBRANCH  13  17
BRANCH  14  19
ATOM     19  O   UNL     1      34.183  35.396   3.551  1.00  0.00    -0.385 OA
ATOM     20  H   UNL     1      33.971  34.865   4.364  1.00  0.00     0.211 HD
ENDBRANCH  14  19
ENDBRANCH   7   8
ENDBRANCH   1   7
BRANCH   2  21
ATOM     21  O   UNL     1      34.211  30.171  -0.912  1.00  0.00    -0.385 OA
ATOM     22  H   UNL     1      34.866  30.685  -1.456  1.00  0.00     0.211 HD
ENDBRANCH   2  21
BRANCH   6  23
ATOM     23  O   UNL     1      36.392  31.157   0.447  1.00  0.00    -0.453 OA
BRANCH  23  24
ATOM     24  C   UNL     1      37.745  31.153   0.815  1.00  0.00     0.331 C 
ATOM     25  O   UNL     1      38.519  31.978   0.266  1.00  0.00    -0.247 OA
BRANCH  24  26
ATOM     26  C   UNL     1      38.273  30.217   1.830  1.00  0.00     0.094 C 
ATOM     27  C   UNL     1      38.520  30.571   3.103  1.00  0.00     0.016 C 
BRANCH  27  28
ATOM     28  C   UNL     1      38.146  31.882   3.673  1.00  0.00    -0.021 A 
ATOM     29  C   UNL     1      36.964  32.044   4.419  1.00  0.00     0.058 A 
ATOM     30  C   UNL     1      38.963  33.000   3.444  1.00  0.00     0.012 A 
ATOM     31  C   UNL     1      36.576  33.301   4.883  1.00  0.00     0.157 A 
ATOM     32  C   UNL     1      38.567  34.266   3.888  1.00  0.00     0.051 A 
ATOM     33  C   UNL     1      37.374  34.427   4.608  1.00  0.00     0.157 A 
BRANCH  31  34
ATOM     34  O   UNL     1      35.391  33.413   5.616  1.00  0.00    -0.504 OA
ATOM     35  H   UNL     1      35.353  33.916   6.491  1.00  0.00     0.293 HD
ENDBRANCH  31  34
BRANCH  33  36
ATOM     36  O   UNL     1      36.972  35.690   5.042  1.00  0.00    -0.504 OA
ATOM     37  H   UNL     1      36.391  35.808   5.869  1.00  0.00     0.293 HD
ENDBRANCH  33  36
ENDBRANCH  27  28
ENDBRANCH  24  26
ENDBRANCH  23  24
ENDBRANCH   6  23
BRANCH   3  38
ATOM     38  O   UNL     1      33.200  32.079  -2.523  1.00  0.00    -0.350 OA
BRANCH  38  39
ATOM     39  C   UNL     1      32.485  33.039  -3.288  1.00  0.00     0.168 C 
BRANCH  39  40
ATOM     40  C   UNL     1      31.448  32.370  -4.201  1.00  0.00     0.064 C 
BRANCH  40  41
ATOM     41  C   UNL     1      31.948  32.280  -5.621  1.00  0.00    -0.042 A 
ATOM     42  C   UNL     1      33.320  32.378  -5.888  1.00  0.00     0.054 A 
ATOM     43  C   UNL     1      31.047  32.045  -6.675  1.00  0.00     0.008 A 
ATOM     44  C   UNL     1      33.793  32.250  -7.201  1.00  0.00     0.157 A 
ATOM     45  C   UNL     1      31.523  31.908  -7.982  1.00  0.00     0.050 A 
ATOM     46  C   UNL     1      32.892  32.014  -8.250  1.00  0.00     0.157 A 
BRANCH  44  47
ATOM     47  O   UNL     1      35.155  32.364  -7.464  1.00  0.00    -0.504 OA
ATOM     48  H   UNL     1      35.692  33.150  -7.114  1.00  0.00     0.293 HD
ENDBRANCH  44  47
BRANCH  46  49
ATOM     49  O   UNL     1      33.344  31.865  -9.564  1.00  0.00    -0.504 OA
ATOM     50  H   UNL     1      32.778  31.418 -10.268  1.00  0.00     0.293 HD
ENDBRANCH  46  49
ENDBRANCH  40  41
ENDBRANCH  39  40
ENDBRANCH  38  39
ENDBRANCH   3  38
BRANCH   5  51
ATOM     51  C   UNL     1      36.245  34.259  -0.561  1.00  0.00     0.192 C 
BRANCH  51  52
ATOM     52  O   UNL     1      36.827  34.382   0.711  1.00  0.00    -0.394 OA
ATOM     53  H   UNL     1      36.096  34.334   1.369  1.00  0.00     0.210 HD
ENDBRANCH  51  52
ENDBRANCH   5  51
TORSDOF 20
ENDMDL
MODEL 4
REMARK VINA RESULT:    -7.875      1.422      2.201
REMARK INTER + INTRA:         -17.210
REMARK INTER:                 -14.935
REMARK INTRA:                  -2.275
REMARK UNBOUND:                -2.200
REMARK SMILES C[C@H]1O[C@@H](O[C@H]2[C@H](O)[C@H](OCCc3ccc(O)c(O)c3)O[C@@H](CO)[C@@H]2OC(=O)C=Cc2ccc(O)c(O)c2)[C@H](O)[C@H](O)[C@H]1O
REMARK SMILES IDX 6 1 7 2 9 3 21 4 22 5 25 6 5 7 4 8 1 9 2 10 43 11 3 12 41 13
REMARK SMILES IDX 39 14 44 15 42 17 40 19 8 21 26 23 27 24 28 25 29 26 30 27
REMARK SMILES IDX 31 28 38 29 32 30 36 31 33 32 34 33 37 34 35 36 10 38 11 39
REMARK SMILES IDX 12 40 13 41 20 42 14 43 18 44 15 45 16 46 19 47 17 49 23 51
REMARK SMILES IDX 24 52
REMARK H PARENT 44 16 42 18 40 20 8 22 37 35 35 37 19 48 17 50 24 53
REMARK Flexibility Score: inf
ROOT
ATOM      1  C   UNL     1      33.093  33.582   3.271  1.00  0.00     0.199 C 
ATOM      2  C   UNL     1      32.427  32.623   2.253  1.00  0.00     0.203 C 
ATOM      3  C   UNL     1      32.133  33.416   0.935  1.00  0.00     0.282 C 
ATOM      4  O   UNL     1      32.961  34.570   0.788  1.00  0.00    -0.340 OA
ATOM      5  C   UNL     1      34.307  34.290   1.135  1.00  0.00     0.190 C 
ATOM      6  C   UNL     1      34.450  34.046   2.663  1.00  0.00     0.240 C 
ENDROOT
BRANCH   1   7
ATOM      7  O   UNL     1      32.191  34.660   3.433  1.00  0.00    -0.340 OA
BRANCH   7   8
ATOM      8  C   UNL     1      32.732  35.799   4.066  1.00  0.00     0.282 C 
ATOM      9  C   UNL     1      30.653  36.056   7.092  1.00  0.00     0.041 C 
ATOM     10  C   UNL     1      31.192  36.552   5.761  1.00  0.00     0.150 C 
ATOM     11  C   UNL     1      30.105  36.505   4.655  1.00  0.00     0.174 C 
ATOM     12  O   UNL     1      32.357  35.791   5.447  1.00  0.00    -0.344 OA
ATOM     13  C   UNL     1      30.667  37.033   3.304  1.00  0.00     0.179 C 
ATOM     14  C   UNL     1      32.219  37.030   3.289  1.00  0.00     0.202 C 
BRANCH  11  15
ATOM     15  O   UNL     1      29.643  35.179   4.508  1.00  0.00    -0.388 OA
ATOM     16  H   UNL     1      30.214  34.600   5.080  1.00  0.00     0.211 HD
ENDBRANCH  11  15
BRANCH  13  17
ATOM     17  O   UNL     1      30.171  38.324   3.048  1.00  0.00    -0.387 OA
ATOM     18  H   UNL     1      30.858  38.967   3.376  1.00  0.00     0.211 HD
ENDBRANCH  13  17
BRANCH  14  19
ATOM     19  O   UNL     1      32.755  38.197   3.862  1.00  0.00    -0.385 OA
ATOM     20  H   UNL     1      33.581  37.918   4.339  1.00  0.00     0.211 HD
ENDBRANCH  14  19
ENDBRANCH   7   8
ENDBRANCH   1   7
BRANCH   2  21
ATOM     21  O   UNL     1      33.268  31.517   2.025  1.00  0.00    -0.385 OA
ATOM     22  H   UNL     1      33.788  31.710   1.199  1.00  0.00     0.211 HD
ENDBRANCH   2  21
BRANCH   6  23
ATOM     23  O   UNL     1      35.426  33.017   2.845  1.00  0.00    -0.453 OA
BRANCH  23  24
ATOM     24  C   UNL     1      36.360  32.921   3.887  1.00  0.00     0.331 C 
ATOM     25  O   UNL     1      36.177  32.054   4.779  1.00  0.00    -0.247 OA
BRANCH  24  26
ATOM     26  C   UNL     1      37.545  33.802   3.954  1.00  0.00     0.094 C 
ATOM     27  C   UNL     1      38.559  33.744   3.074  1.00  0.00     0.016 C 
BRANCH  27  28
ATOM     28  C   UNL     1      38.534  32.909   1.855  1.00  0.00    -0.021 A 
ATOM     29  C   UNL     1      39.054  31.601   1.853  1.00  0.00     0.058 A 
ATOM     30  C   UNL     1      38.012  33.433   0.662  1.00  0.00     0.012 A 
ATOM     31  C   UNL     1      39.102  30.851   0.679  1.00  0.00     0.157 A 
ATOM     32  C   UNL     1      38.079  32.692  -0.523  1.00  0.00     0.051 A 
ATOM     33  C   UNL     1      38.623  31.400  -0.525  1.00  0.00     0.157 A 
BRANCH  31  34
ATOM     34  O   UNL     1      39.633  29.557   0.726  1.00  0.00    -0.504 OA
ATOM     35  H   UNL     1      40.591  29.386   0.992  1.00  0.00     0.293 HD
ENDBRANCH  31  34
BRANCH  33  36
ATOM     36  O   UNL     1      38.700  30.664  -1.707  1.00  0.00    -0.504 OA
ATOM     37  H   UNL     1      38.523  31.093  -2.613  1.00  0.00     0.293 HD
ENDBRANCH  33  36
ENDBRANCH  27  28
ENDBRANCH  24  26
ENDBRANCH  23  24
ENDBRANCH   6  23
BRANCH   3  38
ATOM     38  O   UNL     1      32.211  32.584  -0.211  1.00  0.00    -0.350 OA
BRANCH  38  39
ATOM     39  C   UNL     1      32.179  33.355  -1.404  1.00  0.00     0.168 C 
BRANCH  39  40
ATOM     40  C   UNL     1      33.161  32.809  -2.452  1.00  0.00     0.064 C 
BRANCH  40  41
ATOM     41  C   UNL     1      32.482  32.612  -3.784  1.00  0.00    -0.042 A 
ATOM     42  C   UNL     1      31.317  33.326  -4.089  1.00  0.00     0.054 A 
ATOM     43  C   UNL     1      33.045  31.752  -4.744  1.00  0.00     0.008 A 
ATOM     44  C   UNL     1      30.708  33.179  -5.343  1.00  0.00     0.157 A 
ATOM     45  C   UNL     1      32.441  31.615  -5.997  1.00  0.00     0.050 A 
ATOM     46  C   UNL     1      31.273  32.322  -6.299  1.00  0.00     0.157 A 
BRANCH  44  47
ATOM     47  O   UNL     1      29.541  33.878  -5.636  1.00  0.00    -0.504 OA
ATOM     48  H   UNL     1      28.969  34.277  -4.900  1.00  0.00     0.293 HD
ENDBRANCH  44  47
BRANCH  46  49
ATOM     49  O   UNL     1      30.692  32.175  -7.562  1.00  0.00    -0.504 OA
ATOM     50  H   UNL     1      30.056  31.420  -7.763  1.00  0.00     0.293 HD
ENDBRANCH  46  49
ENDBRANCH  40  41
ENDBRANCH  39  40
ENDBRANCH  38  39
ENDBRANCH   3  38
BRANCH   5  51
ATOM     51  C   UNL     1      35.204  35.439   0.665  1.00  0.00     0.192 C 
BRANCH  51  52
ATOM     52  O   UNL     1      35.414  35.352  -0.720  1.00  0.00    -0.394 OA
ATOM     53  H   UNL     1      34.580  35.642  -1.156  1.00  0.00     0.210 HD
ENDBRANCH  51  52
ENDBRANCH   5  51
TORSDOF 20
ENDMDL
MODEL 5
REMARK VINA RESULT:    -7.873      1.739      3.459
REMARK INTER + INTRA:         -17.206
REMARK INTER:                 -14.168
REMARK INTRA:                  -3.039
REMARK UNBOUND:                -2.200
REMARK SMILES C[C@H]1O[C@@H](O[C@H]2[C@H](O)[C@H](OCCc3ccc(O)c(O)c3)O[C@@H](CO)[C@@H]2OC(=O)C=Cc2ccc(O)c(O)c2)[C@H](O)[C@H](O)[C@H]1O
REMARK SMILES IDX 6 1 7 2 9 3 21 4 22 5 25 6 5 7 4 8 1 9 2 10 43 11 3 12 41 13
REMARK SMILES IDX 39 14 44 15 42 17 40 19 8 21 26 23 27 24 28 25 29 26 30 27
REMARK SMILES IDX 31 28 38 29 32 30 36 31 33 32 34 33 37 34 35 36 10 38 11 39
REMARK SMILES IDX 12 40 13 41 20 42 14 43 18 44 15 45 16 46 19 47 17 49 23 51
REMARK SMILES IDX 24 52
REMARK H PARENT 44 16 42 18 40 20 8 22 37 35 35 37 19 48 17 50 24 53
REMARK Flexibility Score: inf
ROOT
ATOM      1  C   UNL     1      33.578  32.550   1.698  1.00  0.00     0.199 C 
ATOM      2  C   UNL     1      32.663  32.053   0.552  1.00  0.00     0.203 C 
ATOM      3  C   UNL     1      32.680  33.114  -0.599  1.00  0.00     0.282 C 
ATOM      4  O   UNL     1      33.843  33.941  -0.571  1.00  0.00    -0.340 OA
ATOM      5  C   UNL     1      35.014  33.182  -0.320  1.00  0.00     0.190 C 
ATOM      6  C   UNL     1      35.028  32.644   1.138  1.00  0.00     0.240 C 
ENDROOT
BRANCH   1   7
ATOM      7  O   UNL     1      33.074  33.818   2.073  1.00  0.00    -0.340 OA
BRANCH   7   8
ATOM      8  C   UNL     1      33.959  34.610   2.835  1.00  0.00     0.282 C 
ATOM      9  C   UNL     1      32.525  34.330   6.212  1.00  0.00     0.041 C 
ATOM     10  C   UNL     1      32.934  35.091   4.963  1.00  0.00     0.150 C 
ATOM     11  C   UNL     1      31.699  35.559   4.152  1.00  0.00     0.174 C 
ATOM     12  O   UNL     1      33.825  34.264   4.217  1.00  0.00    -0.344 OA
ATOM     13  C   UNL     1      32.135  36.353   2.888  1.00  0.00     0.179 C 
ATOM     14  C   UNL     1      33.620  36.083   2.527  1.00  0.00     0.202 C 
BRANCH  11  15
ATOM     15  O   UNL     1      30.927  34.436   3.784  1.00  0.00    -0.388 OA
ATOM     16  H   UNL     1      31.559  33.712   3.529  1.00  0.00     0.211 HD
ENDBRANCH  11  15
BRANCH  13  17
ATOM     17  O   UNL     1      31.913  37.728   3.081  1.00  0.00    -0.387 OA
ATOM     18  H   UNL     1      31.343  38.038   2.325  1.00  0.00     0.211 HD
ENDBRANCH  13  17
BRANCH  14  19
ATOM     19  O   UNL     1      34.497  36.921   3.240  1.00  0.00    -0.385 OA
ATOM     20  H   UNL     1      34.118  37.002   4.156  1.00  0.00     0.211 HD
ENDBRANCH  14  19
ENDBRANCH   7   8
ENDBRANCH   1   7
BRANCH   2  21
ATOM     21  O   UNL     1      33.103  30.790   0.111  1.00  0.00    -0.385 OA
ATOM     22  H   UNL     1      33.643  30.939  -0.711  1.00  0.00     0.211 HD
ENDBRANCH   2  21
BRANCH   6  23
ATOM     23  O   UNL     1      35.609  31.338   1.109  1.00  0.00    -0.453 OA
BRANCH  23  24
ATOM     24  C   UNL     1      36.794  30.932   1.739  1.00  0.00     0.331 C 
ATOM     25  O   UNL     1      36.717  30.129   2.704  1.00  0.00    -0.247 OA
BRANCH  24  26
ATOM     26  C   UNL     1      38.118  31.417   1.294  1.00  0.00     0.094 C 
ATOM     27  C   UNL     1      38.847  32.311   1.982  1.00  0.00     0.016 C 
BRANCH  27  28
ATOM     28  C   UNL     1      38.487  32.791   3.333  1.00  0.00    -0.021 A 
ATOM     29  C   UNL     1      37.677  33.927   3.514  1.00  0.00     0.058 A 
ATOM     30  C   UNL     1      38.983  32.124   4.464  1.00  0.00     0.012 A 
ATOM     31  C   UNL     1      37.410  34.421   4.790  1.00  0.00     0.157 A 
ATOM     32  C   UNL     1      38.736  32.630   5.746  1.00  0.00     0.051 A 
ATOM     33  C   UNL     1      37.951  33.778   5.919  1.00  0.00     0.157 A 
BRANCH  31  34
ATOM     34  O   UNL     1      36.603  35.557   4.919  1.00  0.00    -0.504 OA
ATOM     35  H   UNL     1      36.017  35.703   5.728  1.00  0.00     0.293 HD
ENDBRANCH  31  34
BRANCH  33  36
ATOM     36  O   UNL     1      37.713  34.289   7.194  1.00  0.00    -0.504 OA
ATOM     37  H   UNL     1      38.111  33.855   8.024  1.00  0.00     0.293 HD
ENDBRANCH  33  36
ENDBRANCH  27  28
ENDBRANCH  24  26
ENDBRANCH  23  24
ENDBRANCH   6  23
BRANCH   3  38
ATOM     38  O   UNL     1      32.513  32.514  -1.874  1.00  0.00    -0.350 OA
BRANCH  38  39
ATOM     39  C   UNL     1      32.263  33.495  -2.870  1.00  0.00     0.168 C 
BRANCH  39  40
ATOM     40  C   UNL     1      31.103  33.079  -3.788  1.00  0.00     0.064 C 
BRANCH  40  41
ATOM     41  C   UNL     1      31.601  32.720  -5.166  1.00  0.00    -0.042 A 
ATOM     42  C   UNL     1      32.974  32.731  -5.440  1.00  0.00     0.054 A 
ATOM     43  C   UNL     1      30.693  32.320  -6.164  1.00  0.00     0.008 A 
ATOM     44  C   UNL     1      33.444  32.355  -6.706  1.00  0.00     0.157 A 
ATOM     45  C   UNL     1      31.165  31.937  -7.422  1.00  0.00     0.050 A 
ATOM     46  C   UNL     1      32.536  31.956  -7.699  1.00  0.00     0.157 A 
BRANCH  44  47
ATOM     47  O   UNL     1      34.807  32.384  -6.980  1.00  0.00    -0.504 OA
ATOM     48  H   UNL     1      35.492  32.402  -6.232  1.00  0.00     0.293 HD
ENDBRANCH  44  47
BRANCH  46  49
ATOM     49  O   UNL     1      32.984  31.560  -8.962  1.00  0.00    -0.504 OA
ATOM     50  H   UNL     1      33.022  30.588  -9.225  1.00  0.00     0.293 HD
ENDBRANCH  46  49
ENDBRANCH  40  41
ENDBRANCH  39  40
ENDBRANCH  38  39
ENDBRANCH   3  38
BRANCH   5  51
ATOM     51  C   UNL     1      36.250  34.038  -0.612  1.00  0.00     0.192 C 
BRANCH  51  52
ATOM     52  O   UNL     1      35.868  35.361  -0.880  1.00  0.00    -0.394 OA
ATOM     53  H   UNL     1      36.644  35.933  -0.677  1.00  0.00     0.210 HD
ENDBRANCH  51  52
ENDBRANCH   5  51
TORSDOF 20
ENDMDL
MODEL 6
REMARK VINA RESULT:    -7.836      2.360      4.247
REMARK INTER + INTRA:         -17.136
REMARK INTER:                 -14.166
REMARK INTRA:                  -2.970
REMARK UNBOUND:                -2.200
REMARK SMILES C[C@H]1O[C@@H](O[C@H]2[C@H](O)[C@H](OCCc3ccc(O)c(O)c3)O[C@@H](CO)[C@@H]2OC(=O)C=Cc2ccc(O)c(O)c2)[C@H](O)[C@H](O)[C@H]1O
REMARK SMILES IDX 6 1 7 2 9 3 21 4 22 5 25 6 5 7 4 8 1 9 2 10 43 11 3 12 41 13
REMARK SMILES IDX 39 14 44 15 42 17 40 19 8 21 26 23 27 24 28 25 29 26 30 27
REMARK SMILES IDX 31 28 38 29 32 30 36 31 33 32 34 33 37 34 35 36 10 38 11 39
REMARK SMILES IDX 12 40 13 41 20 42 14 43 18 44 15 45 16 46 19 47 17 49 23 51
REMARK SMILES IDX 24 52
REMARK H PARENT 44 16 42 18 40 20 8 22 37 35 35 37 19 48 17 50 24 53
REMARK Flexibility Score: inf
ROOT
ATOM      1  C   UNL     1      34.927  31.755   1.850  1.00  0.00     0.199 C 
ATOM      2  C   UNL     1      33.933  30.900   1.028  1.00  0.00     0.203 C 
ATOM      3  C   UNL     1      33.895  31.446  -0.439  1.00  0.00     0.282 C 
ATOM      4  O   UNL     1      35.072  32.174  -0.788  1.00  0.00    -0.340 OA
ATOM      5  C   UNL     1      36.242  31.519  -0.329  1.00  0.00     0.190 C 
ATOM      6  C   UNL     1      36.340  31.572   1.221  1.00  0.00     0.240 C 
ENDROOT
BRANCH   1   7
ATOM      7  O   UNL     1      34.470  33.091   1.741  1.00  0.00    -0.340 OA
BRANCH   7   8
ATOM      8  C   UNL     1      34.520  33.837   2.938  1.00  0.00     0.282 C 
ATOM      9  C   UNL     1      30.993  33.837   3.989  1.00  0.00     0.041 C 
ATOM     10  C   UNL     1      32.280  34.502   3.532  1.00  0.00     0.150 C 
ATOM     11  C   UNL     1      32.159  35.037   2.081  1.00  0.00     0.174 C 
ATOM     12  O   UNL     1      33.344  33.568   3.707  1.00  0.00    -0.344 OA
ATOM     13  C   UNL     1      33.478  35.732   1.636  1.00  0.00     0.179 C 
ATOM     14  C   UNL     1      34.674  35.319   2.535  1.00  0.00     0.202 C 
BRANCH  11  15
ATOM     15  O   UNL     1      31.850  33.969   1.212  1.00  0.00    -0.388 OA
ATOM     16  H   UNL     1      31.165  33.407   1.663  1.00  0.00     0.211 HD
ENDBRANCH  11  15
BRANCH  13  17
ATOM     17  O   UNL     1      33.313  37.128   1.641  1.00  0.00    -0.387 OA
ATOM     18  H   UNL     1      33.428  37.435   0.700  1.00  0.00     0.211 HD
ENDBRANCH  13  17
BRANCH  14  19
ATOM     19  O   UNL     1      34.760  36.109   3.695  1.00  0.00    -0.385 OA
ATOM     20  H   UNL     1      35.622  35.871   4.130  1.00  0.00     0.211 HD
ENDBRANCH  14  19
ENDBRANCH   7   8
ENDBRANCH   1   7
BRANCH   2  21
ATOM     21  O   UNL     1      34.321  29.547   1.077  1.00  0.00    -0.385 OA
ATOM     22  H   UNL     1      34.261  29.192   0.149  1.00  0.00     0.211 HD
ENDBRANCH   2  21
BRANCH   6  23
ATOM     23  O   UNL     1      36.895  30.329   1.660  1.00  0.00    -0.453 OA
BRANCH  23  24
ATOM     24  C   UNL     1      38.226  30.089   2.030  1.00  0.00     0.331 C 
ATOM     25  O   UNL     1      39.139  30.399   1.223  1.00  0.00    -0.247 OA
BRANCH  24  26
ATOM     26  C   UNL     1      38.575  29.494   3.337  1.00  0.00     0.094 C 
ATOM     27  C   UNL     1      38.641  30.202   4.477  1.00  0.00     0.016 C 
BRANCH  27  28
ATOM     28  C   UNL     1      38.222  31.615   4.585  1.00  0.00    -0.021 A 
ATOM     29  C   UNL     1      38.897  32.634   3.888  1.00  0.00     0.058 A 
ATOM     30  C   UNL     1      37.149  31.961   5.421  1.00  0.00     0.012 A 
ATOM     31  C   UNL     1      38.548  33.973   4.059  1.00  0.00     0.157 A 
ATOM     32  C   UNL     1      36.810  33.306   5.613  1.00  0.00     0.051 A 
ATOM     33  C   UNL     1      37.504  34.319   4.937  1.00  0.00     0.157 A 
BRANCH  31  34
ATOM     34  O   UNL     1      39.252  34.951   3.348  1.00  0.00    -0.504 OA
ATOM     35  H   UNL     1      39.719  34.741   2.479  1.00  0.00     0.293 HD
ENDBRANCH  31  34
BRANCH  33  36
ATOM     36  O   UNL     1      37.174  35.659   5.136  1.00  0.00    -0.504 OA
ATOM     37  H   UNL     1      37.812  36.300   5.603  1.00  0.00     0.293 HD
ENDBRANCH  33  36
ENDBRANCH  27  28
ENDBRANCH  24  26
ENDBRANCH  23  24
ENDBRANCH   6  23
BRANCH   3  38
ATOM     38  O   UNL     1      33.637  30.415  -1.380  1.00  0.00    -0.350 OA
BRANCH  38  39
ATOM     39  C   UNL     1      32.527  30.744  -2.204  1.00  0.00     0.168 C 
BRANCH  39  40
ATOM     40  C   UNL     1      32.952  31.619  -3.393  1.00  0.00     0.064 C 
BRANCH  40  41
ATOM     41  C   UNL     1      31.778  32.381  -3.955  1.00  0.00    -0.042 A 
ATOM     42  C   UNL     1      30.969  33.147  -3.107  1.00  0.00     0.054 A 
ATOM     43  C   UNL     1      31.524  32.369  -5.339  1.00  0.00     0.008 A 
ATOM     44  C   UNL     1      29.903  33.892  -3.632  1.00  0.00     0.157 A 
ATOM     45  C   UNL     1      30.468  33.121  -5.860  1.00  0.00     0.050 A 
ATOM     46  C   UNL     1      29.654  33.879  -5.012  1.00  0.00     0.157 A 
BRANCH  44  47
ATOM     47  O   UNL     1      29.092  34.638  -2.783  1.00  0.00    -0.504 OA
ATOM     48  H   UNL     1      29.423  35.499  -2.362  1.00  0.00     0.293 HD
ENDBRANCH  44  47
BRANCH  46  49
ATOM     49  O   UNL     1      28.609  34.629  -5.558  1.00  0.00    -0.504 OA
ATOM     50  H   UNL     1      27.777  34.188  -5.919  1.00  0.00     0.293 HD
ENDBRANCH  46  49
ENDBRANCH  40  41
ENDBRANCH  39  40
ENDBRANCH  38  39
ENDBRANCH   3  38
BRANCH   5  51
ATOM     51  C   UNL     1      37.472  32.150  -0.988  1.00  0.00     0.192 C 
BRANCH  51  52
ATOM     52  O   UNL     1      38.350  31.148  -1.429  1.00  0.00    -0.394 OA
ATOM     53  H   UNL     1      38.659  30.663  -0.629  1.00  0.00     0.210 HD
ENDBRANCH  51  52
ENDBRANCH   5  51
TORSDOF 20
ENDMDL
MODEL 7
REMARK VINA RESULT:    -7.820      2.090      8.400
REMARK INTER + INTRA:         -17.105
REMARK INTER:                 -15.128
REMARK INTRA:                  -1.977
REMARK UNBOUND:                -2.200
REMARK SMILES C[C@H]1O[C@@H](O[C@H]2[C@H](O)[C@H](OCCc3ccc(O)c(O)c3)O[C@@H](CO)[C@@H]2OC(=O)C=Cc2ccc(O)c(O)c2)[C@H](O)[C@H](O)[C@H]1O
REMARK SMILES IDX 6 1 7 2 9 3 21 4 22 5 25 6 5 7 4 8 1 9 2 10 43 11 3 12 41 13
REMARK SMILES IDX 39 14 44 15 42 17 40 19 8 21 26 23 27 24 28 25 29 26 30 27
REMARK SMILES IDX 31 28 38 29 32 30 36 31 33 32 34 33 37 34 35 36 10 38 11 39
REMARK SMILES IDX 12 40 13 41 20 42 14 43 18 44 15 45 16 46 19 47 17 49 23 51
REMARK SMILES IDX 24 52
REMARK H PARENT 44 16 42 18 40 20 8 22 37 35 35 37 19 48 17 50 24 53
REMARK Flexibility Score: inf
ROOT
ATOM      1  C   UNL     1      33.422  33.807   0.504  1.00  0.00     0.199 C 
ATOM      2  C   UNL     1      34.839  34.419   0.381  1.00  0.00     0.203 C 
ATOM      3  C   UNL     1      35.852  33.496   1.139  1.00  0.00     0.282 C 
ATOM      4  O   UNL     1      35.379  32.157   1.281  1.00  0.00    -0.340 OA
ATOM      5  C   UNL     1      34.786  31.686   0.083  1.00  0.00     0.190 C 
ATOM      6  C   UNL     1      33.445  32.418  -0.201  1.00  0.00     0.240 C 
ENDROOT
BRANCH   1   7
ATOM      7  O   UNL     1      33.171  33.689   1.892  1.00  0.00    -0.340 OA
BRANCH   7   8
ATOM      8  C   UNL     1      33.142  34.911   2.598  1.00  0.00     0.282 C 
ATOM      9  C   UNL     1      31.979  33.850   5.923  1.00  0.00     0.041 C 
ATOM     10  C   UNL     1      31.858  34.613   4.615  1.00  0.00     0.150 C 
ATOM     11  C   UNL     1      30.753  34.014   3.707  1.00  0.00     0.174 C 
ATOM     12  O   UNL     1      33.146  34.641   4.002  1.00  0.00    -0.344 OA
ATOM     13  C   UNL     1      30.630  34.818   2.382  1.00  0.00     0.179 C 
ATOM     14  C   UNL     1      31.894  35.678   2.114  1.00  0.00     0.202 C 
BRANCH  11  15
ATOM     15  O   UNL     1      31.053  32.662   3.434  1.00  0.00    -0.388 OA
ATOM     16  H   UNL     1      31.535  32.634   2.565  1.00  0.00     0.211 HD
ENDBRANCH  11  15
BRANCH  13  17
ATOM     17  O   UNL     1      29.478  35.624   2.412  1.00  0.00    -0.387 OA
ATOM     18  H   UNL     1      29.712  36.443   2.930  1.00  0.00     0.211 HD
ENDBRANCH  13  17
BRANCH  14  19
ATOM     19  O   UNL     1      31.832  36.923   2.766  1.00  0.00    -0.385 OA
ATOM     20  H   UNL     1      32.503  36.885   3.499  1.00  0.00     0.211 HD
ENDBRANCH  14  19
ENDBRANCH   7   8
ENDBRANCH   1   7
BRANCH   2  21
ATOM     21  O   UNL     1      35.174  34.563  -0.979  1.00  0.00    -0.385 OA
ATOM     22  H   UNL     1      34.545  35.229  -1.367  1.00  0.00     0.211 HD
ENDBRANCH   2  21
BRANCH   6  23
ATOM     23  O   UNL     1      33.348  32.605  -1.616  1.00  0.00    -0.453 OA
BRANCH  23  24
ATOM     24  C   UNL     1      32.259  32.270  -2.433  1.00  0.00     0.331 C 
ATOM     25  O   UNL     1      32.141  31.079  -2.819  1.00  0.00    -0.247 OA
BRANCH  24  26
ATOM     26  C   UNL     1      31.252  33.274  -2.839  1.00  0.00     0.094 C 
ATOM     27  C   UNL     1      30.989  33.579  -4.121  1.00  0.00     0.016 C 
BRANCH  27  28
ATOM     28  C   UNL     1      31.556  32.840  -5.268  1.00  0.00    -0.021 A 
ATOM     29  C   UNL     1      32.923  32.927  -5.591  1.00  0.00     0.058 A 
ATOM     30  C   UNL     1      30.716  32.058  -6.077  1.00  0.00     0.012 A 
ATOM     31  C   UNL     1      33.433  32.292  -6.724  1.00  0.00     0.157 A 
ATOM     32  C   UNL     1      31.220  31.438  -7.226  1.00  0.00     0.051 A 
ATOM     33  C   UNL     1      32.577  31.551  -7.559  1.00  0.00     0.157 A 
BRANCH  31  34
ATOM     34  O   UNL     1      34.798  32.412  -7.006  1.00  0.00    -0.504 OA
ATOM     35  H   UNL     1      35.333  33.215  -6.710  1.00  0.00     0.293 HD
ENDBRANCH  31  34
BRANCH  33  36
ATOM     36  O   UNL     1      33.078  30.943  -8.709  1.00  0.00    -0.504 OA
ATOM     37  H   UNL     1      34.078  30.808  -8.847  1.00  0.00     0.293 HD
ENDBRANCH  33  36
ENDBRANCH  27  28
ENDBRANCH  24  26
ENDBRANCH  23  24
ENDBRANCH   6  23
BRANCH   3  38
ATOM     38  O   UNL     1      37.139  33.521   0.541  1.00  0.00    -0.350 OA
BRANCH  38  39
ATOM     39  C   UNL     1      38.131  33.068   1.451  1.00  0.00     0.168 C 
BRANCH  39  40
ATOM     40  C   UNL     1      38.529  34.171   2.443  1.00  0.00     0.064 C 
BRANCH  40  41
ATOM     41  C   UNL     1      38.793  33.601   3.814  1.00  0.00    -0.042 A 
ATOM     42  C   UNL     1      38.755  34.435   4.939  1.00  0.00     0.054 A 
ATOM     43  C   UNL     1      39.024  32.223   3.975  1.00  0.00     0.008 A 
ATOM     44  C   UNL     1      38.956  33.901   6.220  1.00  0.00     0.157 A 
ATOM     45  C   UNL     1      39.214  31.693   5.253  1.00  0.00     0.050 A 
ATOM     46  C   UNL     1      39.185  32.526   6.376  1.00  0.00     0.157 A 
BRANCH  44  47
ATOM     47  O   UNL     1      38.934  34.736   7.332  1.00  0.00    -0.504 OA
ATOM     48  H   UNL     1      39.095  35.733   7.243  1.00  0.00     0.293 HD
ENDBRANCH  44  47
BRANCH  46  49
ATOM     49  O   UNL     1      39.369  31.971   7.645  1.00  0.00    -0.504 OA
ATOM     50  H   UNL     1      40.286  31.897   8.059  1.00  0.00     0.293 HD
ENDBRANCH  46  49
ENDBRANCH  40  41
ENDBRANCH  39  40
ENDBRANCH  38  39
ENDBRANCH   3  38
BRANCH   5  51
ATOM     51  C   UNL     1      34.587  30.170   0.173  1.00  0.00     0.192 C 
BRANCH  51  52
ATOM     52  O   UNL     1      33.972  29.695  -0.996  1.00  0.00    -0.394 OA
ATOM     53  H   UNL     1      33.000  29.705  -0.836  1.00  0.00     0.210 HD
ENDBRANCH  51  52
ENDBRANCH   5  51
TORSDOF 20
ENDMDL
MODEL 8
REMARK VINA RESULT:    -7.791      1.768      2.948
REMARK INTER + INTRA:         -17.050
REMARK INTER:                 -13.941
REMARK INTRA:                  -3.109
REMARK UNBOUND:                -2.200
REMARK SMILES C[C@H]1O[C@@H](O[C@H]2[C@H](O)[C@H](OCCc3ccc(O)c(O)c3)O[C@@H](CO)[C@@H]2OC(=O)C=Cc2ccc(O)c(O)c2)[C@H](O)[C@H](O)[C@H]1O
REMARK SMILES IDX 6 1 7 2 9 3 21 4 22 5 25 6 5 7 4 8 1 9 2 10 43 11 3 12 41 13
REMARK SMILES IDX 39 14 44 15 42 17 40 19 8 21 26 23 27 24 28 25 29 26 30 27
REMARK SMILES IDX 31 28 38 29 32 30 36 31 33 32 34 33 37 34 35 36 10 38 11 39
REMARK SMILES IDX 12 40 13 41 20 42 14 43 18 44 15 45 16 46 19 47 17 49 23 51
REMARK SMILES IDX 24 52
REMARK H PARENT 44 16 42 18 40 20 8 22 37 35 35 37 19 48 17 50 24 53
REMARK Flexibility Score: inf
ROOT
ATOM      1  C   UNL     1      34.032  32.506   1.932  1.00  0.00     0.199 C 
ATOM      2  C   UNL     1      32.976  32.118   0.869  1.00  0.00     0.203 C 
ATOM      3  C   UNL     1      32.964  33.213  -0.250  1.00  0.00     0.282 C 
ATOM      4  O   UNL     1      34.185  33.949  -0.315  1.00  0.00    -0.340 OA
ATOM      5  C   UNL     1      35.312  33.096  -0.201  1.00  0.00     0.190 C 
ATOM      6  C   UNL     1      35.424  32.510   1.234  1.00  0.00     0.240 C 
ENDROOT
BRANCH   1   7
ATOM      7  O   UNL     1      33.667  33.795   2.388  1.00  0.00    -0.340 OA
BRANCH   7   8
ATOM      8  C   UNL     1      33.190  33.846   3.715  1.00  0.00     0.282 C 
ATOM      9  C   UNL     1      31.193  36.936   3.697  1.00  0.00     0.041 C 
ATOM     10  C   UNL     1      32.347  36.060   4.154  1.00  0.00     0.150 C 
ATOM     11  C   UNL     1      33.704  36.578   3.611  1.00  0.00     0.174 C 
ATOM     12  O   UNL     1      32.058  34.717   3.774  1.00  0.00    -0.344 OA
ATOM     13  C   UNL     1      34.876  35.683   4.104  1.00  0.00     0.179 C 
ATOM     14  C   UNL     1      34.372  34.300   4.598  1.00  0.00     0.202 C 
BRANCH  11  15
ATOM     15  O   UNL     1      33.666  36.603   2.200  1.00  0.00    -0.388 OA
ATOM     16  H   UNL     1      32.721  36.755   1.932  1.00  0.00     0.211 HD
ENDBRANCH  11  15
BRANCH  13  17
ATOM     17  O   UNL     1      35.592  36.341   5.119  1.00  0.00    -0.387 OA
ATOM     18  H   UNL     1      36.178  37.012   4.672  1.00  0.00     0.211 HD
ENDBRANCH  13  17
BRANCH  14  19
ATOM     19  O   UNL     1      33.959  34.338   5.942  1.00  0.00    -0.385 OA
ATOM     20  H   UNL     1      33.235  35.018   5.990  1.00  0.00     0.211 HD
ENDBRANCH  14  19
ENDBRANCH   7   8
ENDBRANCH   1   7
BRANCH   2  21
ATOM     21  O   UNL     1      33.271  30.841   0.354  1.00  0.00    -0.385 OA
ATOM     22  H   UNL     1      32.928  30.175   1.008  1.00  0.00     0.211 HD
ENDBRANCH   2  21
BRANCH   6  23
ATOM     23  O   UNL     1      35.897  31.165   1.113  1.00  0.00    -0.453 OA
BRANCH  23  24
ATOM     24  C   UNL     1      36.838  30.530   1.936  1.00  0.00     0.331 C 
ATOM     25  O   UNL     1      36.450  30.045   3.029  1.00  0.00    -0.247 OA
BRANCH  24  26
ATOM     26  C   UNL     1      38.259  30.412   1.545  1.00  0.00     0.094 C 
ATOM     27  C   UNL     1      39.222  31.227   2.007  1.00  0.00     0.016 C 
BRANCH  27  28
ATOM     28  C   UNL     1      39.003  32.226   3.073  1.00  0.00    -0.021 A 
ATOM     29  C   UNL     1      39.102  31.879   4.433  1.00  0.00     0.058 A 
ATOM     30  C   UNL     1      38.657  33.543   2.732  1.00  0.00     0.012 A 
ATOM     31  C   UNL     1      38.813  32.808   5.433  1.00  0.00     0.157 A 
ATOM     32  C   UNL     1      38.344  34.472   3.732  1.00  0.00     0.051 A 
ATOM     33  C   UNL     1      38.419  34.113   5.085  1.00  0.00     0.157 A 
BRANCH  31  34
ATOM     34  O   UNL     1      38.921  32.414   6.771  1.00  0.00    -0.504 OA
ATOM     35  H   UNL     1      38.429  31.610   7.129  1.00  0.00     0.293 HD
ENDBRANCH  31  34
BRANCH  33  36
ATOM     36  O   UNL     1      38.097  35.034   6.082  1.00  0.00    -0.504 OA
ATOM     37  H   UNL     1      37.412  35.769   5.925  1.00  0.00     0.293 HD
ENDBRANCH  33  36
ENDBRANCH  27  28
ENDBRANCH  24  26
ENDBRANCH  23  24
ENDBRANCH   6  23
BRANCH   3  38
ATOM     38  O   UNL     1      32.629  32.670  -1.518  1.00  0.00    -0.350 OA
BRANCH  38  39
ATOM     39  C   UNL     1      32.553  33.689  -2.504  1.00  0.00     0.168 C 
BRANCH  39  40
ATOM     40  C   UNL     1      31.285  33.549  -3.359  1.00  0.00     0.064 C 
BRANCH  40  41
ATOM     41  C   UNL     1      31.616  33.077  -4.753  1.00  0.00    -0.042 A 
ATOM     42  C   UNL     1      32.945  32.808  -5.104  1.00  0.00     0.054 A 
ATOM     43  C   UNL     1      30.588  32.854  -5.688  1.00  0.00     0.008 A 
ATOM     44  C   UNL     1      33.252  32.327  -6.385  1.00  0.00     0.157 A 
ATOM     45  C   UNL     1      30.897  32.366  -6.960  1.00  0.00     0.050 A 
ATOM     46  C   UNL     1      32.224  32.105  -7.314  1.00  0.00     0.157 A 
BRANCH  44  47
ATOM     47  O   UNL     1      34.575  32.078  -6.735  1.00  0.00    -0.504 OA
ATOM     48  H   UNL     1      35.023  32.586  -7.490  1.00  0.00     0.293 HD
ENDBRANCH  44  47
BRANCH  46  49
ATOM     49  O   UNL     1      32.506  31.609  -8.589  1.00  0.00    -0.504 OA
ATOM     50  H   UNL     1      32.353  30.640  -8.823  1.00  0.00     0.293 HD
ENDBRANCH  46  49
ENDBRANCH  40  41
ENDBRANCH  39  40
ENDBRANCH  38  39
ENDBRANCH   3  38
BRANCH   5  51
ATOM     51  C   UNL     1      36.577  33.866  -0.591  1.00  0.00     0.192 C 
BRANCH  51  52
ATOM     52  O   UNL     1      37.665  32.985  -0.693  1.00  0.00    -0.394 OA
ATOM     53  H   UNL     1      37.883  32.905  -1.650  1.00  0.00     0.210 HD
ENDBRANCH  51  52
ENDBRANCH   5  51
TORSDOF 20
ENDMDL
MODEL 9
REMARK VINA RESULT:    -7.753      1.948      8.133
REMARK INTER + INTRA:         -16.977
REMARK INTER:                 -14.520
REMARK INTRA:                  -2.457
REMARK UNBOUND:                -2.200
REMARK SMILES C[C@H]1O[C@@H](O[C@H]2[C@H](O)[C@H](OCCc3ccc(O)c(O)c3)O[C@@H](CO)[C@@H]2OC(=O)C=Cc2ccc(O)c(O)c2)[C@H](O)[C@H](O)[C@H]1O
REMARK SMILES IDX 6 1 7 2 9 3 21 4 22 5 25 6 5 7 4 8 1 9 2 10 43 11 3 12 41 13
REMARK SMILES IDX 39 14 44 15 42 17 40 19 8 21 26 23 27 24 28 25 29 26 30 27
REMARK SMILES IDX 31 28 38 29 32 30 36 31 33 32 34 33 37 34 35 36 10 38 11 39
REMARK SMILES IDX 12 40 13 41 20 42 14 43 18 44 15 45 16 46 19 47 17 49 23 51
REMARK SMILES IDX 24 52
REMARK H PARENT 44 16 42 18 40 20 8 22 37 35 35 37 19 48 17 50 24 53
REMARK Flexibility Score: inf
ROOT
ATOM      1  C   UNL     1      33.731  33.640   0.462  1.00  0.00     0.199 C 
ATOM      2  C   UNL     1      35.277  33.654   0.375  1.00  0.00     0.203 C 
ATOM      3  C   UNL     1      35.835  32.423   1.167  1.00  0.00     0.282 C 
ATOM      4  O   UNL     1      34.878  31.374   1.305  1.00  0.00    -0.340 OA
ATOM      5  C   UNL     1      34.176  31.149   0.093  1.00  0.00     0.190 C 
ATOM      6  C   UNL     1      33.231  32.339  -0.233  1.00  0.00     0.240 C 
ENDROOT
BRANCH   1   7
ATOM      7  O   UNL     1      33.422  33.652   1.844  1.00  0.00    -0.340 OA
BRANCH   7   8
ATOM      8  C   UNL     1      32.242  34.348   2.184  1.00  0.00     0.282 C 
ATOM      9  C   UNL     1      33.489  37.774   2.682  1.00  0.00     0.041 C 
ATOM     10  C   UNL     1      32.845  36.477   3.141  1.00  0.00     0.150 C 
ATOM     11  C   UNL     1      33.783  35.677   4.082  1.00  0.00     0.174 C 
ATOM     12  O   UNL     1      32.449  35.748   1.980  1.00  0.00    -0.344 OA
ATOM     13  C   UNL     1      33.101  34.363   4.557  1.00  0.00     0.179 C 
ATOM     14  C   UNL     1      31.908  33.974   3.644  1.00  0.00     0.202 C 
BRANCH  11  15
ATOM     15  O   UNL     1      34.989  35.388   3.408  1.00  0.00    -0.388 OA
ATOM     16  H   UNL     1      35.694  35.971   3.797  1.00  0.00     0.211 HD
ENDBRANCH  11  15
BRANCH  13  17
ATOM     17  O   UNL     1      32.682  34.492   5.893  1.00  0.00    -0.387 OA
ATOM     18  H   UNL     1      33.491  34.367   6.463  1.00  0.00     0.211 HD
ENDBRANCH  13  17
BRANCH  14  19
ATOM     19  O   UNL     1      30.719  34.620   4.027  1.00  0.00    -0.385 OA
ATOM     20  H   UNL     1      30.781  35.547   3.675  1.00  0.00     0.211 HD
ENDBRANCH  14  19
ENDBRANCH   7   8
ENDBRANCH   1   7
BRANCH   2  21
ATOM     21  O   UNL     1      35.674  33.634  -0.976  1.00  0.00    -0.385 OA
ATOM     22  H   UNL     1      35.769  32.680  -1.239  1.00  0.00     0.211 HD
ENDBRANCH   2  21
BRANCH   6  23
ATOM     23  O   UNL     1      33.247  32.525  -1.651  1.00  0.00    -0.453 OA
BRANCH  23  24
ATOM     24  C   UNL     1      32.243  32.153  -2.557  1.00  0.00     0.331 C 
ATOM     25  O   UNL     1      32.231  30.972  -2.988  1.00  0.00    -0.247 OA
BRANCH  24  26
ATOM     26  C   UNL     1      31.206  33.106  -3.004  1.00  0.00     0.094 C 
ATOM     27  C   UNL     1      30.979  33.398  -4.295  1.00  0.00     0.016 C 
BRANCH  27  28
ATOM     28  C   UNL     1      31.625  32.688  -5.418  1.00  0.00    -0.021 A 
ATOM     29  C   UNL     1      32.992  32.862  -5.704  1.00  0.00     0.058 A 
ATOM     30  C   UNL     1      30.862  31.845  -6.241  1.00  0.00     0.012 A 
ATOM     31  C   UNL     1      33.576  32.252  -6.814  1.00  0.00     0.157 A 
ATOM     32  C   UNL     1      31.439  31.249  -7.369  1.00  0.00     0.051 A 
ATOM     33  C   UNL     1      32.795  31.448  -7.665  1.00  0.00     0.157 A 
BRANCH  31  34
ATOM     34  O   UNL     1      34.937  32.459  -7.059  1.00  0.00    -0.504 OA
ATOM     35  H   UNL     1      35.398  33.321  -6.806  1.00  0.00     0.293 HD
ENDBRANCH  31  34
BRANCH  33  36
ATOM     36  O   UNL     1      33.368  30.864  -8.794  1.00  0.00    -0.504 OA
ATOM     37  H   UNL     1      33.133  29.916  -9.079  1.00  0.00     0.293 HD
ENDBRANCH  33  36
ENDBRANCH  27  28
ENDBRANCH  24  26
ENDBRANCH  23  24
ENDBRANCH   6  23
BRANCH   3  38
ATOM     38  O   UNL     1      37.045  31.938   0.606  1.00  0.00    -0.350 OA
BRANCH  38  39
ATOM     39  C   UNL     1      38.170  32.581   1.187  1.00  0.00     0.168 C 
BRANCH  39  40
ATOM     40  C   UNL     1      38.795  31.724   2.298  1.00  0.00     0.064 C 
BRANCH  40  41
ATOM     41  C   UNL     1      38.707  32.415   3.635  1.00  0.00    -0.042 A 
ATOM     42  C   UNL     1      38.052  33.648   3.744  1.00  0.00     0.054 A 
ATOM     43  C   UNL     1      39.233  31.800   4.786  1.00  0.00     0.008 A 
ATOM     44  C   UNL     1      37.929  34.273   4.993  1.00  0.00     0.157 A 
ATOM     45  C   UNL     1      39.100  32.421   6.030  1.00  0.00     0.050 A 
ATOM     46  C   UNL     1      38.454  33.656   6.139  1.00  0.00     0.157 A 
BRANCH  44  47
ATOM     47  O   UNL     1      37.293  35.506   5.095  1.00  0.00    -0.504 OA
ATOM     48  H   UNL     1      37.578  36.293   4.522  1.00  0.00     0.293 HD
ENDBRANCH  44  47
BRANCH  46  49
ATOM     49  O   UNL     1      38.326  34.253   7.396  1.00  0.00    -0.504 OA
ATOM     50  H   UNL     1      38.540  33.748   8.242  1.00  0.00     0.293 HD
ENDBRANCH  46  49
ENDBRANCH  40  41
ENDBRANCH  39  40
ENDBRANCH  38  39
ENDBRANCH   3  38
BRANCH   5  51
ATOM     51  C   UNL     1      33.404  29.831   0.187  1.00  0.00     0.192 C 
BRANCH  51  52
ATOM     52  O   UNL     1      33.558  29.097  -1.000  1.00  0.00    -0.394 OA
ATOM     53  H   UNL     1      32.703  28.635  -1.166  1.00  0.00     0.210 HD
ENDBRANCH  51  52
ENDBRANCH   5  51
TORSDOF 20
ENDMDL
