MODEL 1
REMARK VINA RESULT:     1.420      0.000      0.000
REMARK INTER + INTRA:           1.659
REMARK INTER:                   2.167
REMARK INTRA:                  -0.507
REMARK UNBOUND:                -0.507
REMARK SMILES O=C([O-])CCCCCCCCC(=O)[O-]
REMARK SMILES IDX 7 1 6 2 5 3 4 4 2 5 1 6 3 7 8 8 9 9 10 10 11 11 12 12 13 13
REMARK SMILES IDX 14 14
REMARK H PARENT
REMARK Flexibility Score: inf
ROOT
ATOM      1  C   UNL     1      88.603  83.051  18.803  1.00  0.00     0.000 C 
ENDROOT
BRANCH   1   2
ATOM      2  C   UNL     1      90.013  82.464  18.999  1.00  0.00     0.000 C 
BRANCH   2   3
ATOM      3  C   UNL     1      90.131  81.026  18.471  1.00  0.00     0.006 C 
BRANCH   3   4
ATOM      4  C   UNL     1      91.182  80.885  17.361  1.00  0.00     0.053 C 
BRANCH   4   5
ATOM      5  C   UNL     1      90.527  80.908  16.016  1.00  0.00     0.041 C 
ATOM      6  O   UNL     1      89.273  80.875  15.922  1.00  0.00    -0.550 OA
ATOM      7  O   UNL     1      91.305  80.916  14.865  1.00  0.00    -0.550 OA
ENDBRANCH   4   5
ENDBRANCH   3   4
ENDBRANCH   2   3
ENDBRANCH   1   2
BRANCH   1   8
ATOM      8  C   UNL     1      87.775  83.040  20.099  1.00  0.00     0.000 C 
BRANCH   8   9
ATOM      9  C   UNL     1      86.670  81.969  20.084  1.00  0.00     0.000 C 
BRANCH   9  10
ATOM     10  C   UNL     1      85.945  81.880  18.728  1.00  0.00     0.006 C 
BRANCH  10  11
ATOM     11  C   UNL     1      84.647  81.058  18.754  1.00  0.00     0.053 C 
BRANCH  11  12
ATOM     12  C   UNL     1      83.488  81.823  18.196  1.00  0.00     0.041 C 
ATOM     13  O   UNL     1      83.027  82.817  18.816  1.00  0.00    -0.550 OA
ATOM     14  O   UNL     1      82.895  81.419  17.006  1.00  0.00    -0.550 OA
ENDBRANCH  11  12
ENDBRANCH  10  11
ENDBRANCH   9  10
ENDBRANCH   8   9
ENDBRANCH   1   8
TORSDOF 9
ENDMDL
MODEL 2
REMARK VINA RESULT:     1.988     19.785     21.699
REMARK INTER + INTRA:           2.527
REMARK INTER:                   2.755
REMARK INTRA:                  -0.228
REMARK UNBOUND:                -0.507
REMARK SMILES O=C([O-])CCCCCCCCC(=O)[O-]
REMARK SMILES IDX 7 1 6 2 5 3 4 4 2 5 1 6 3 7 8 8 9 9 10 10 11 11 12 12 13 13
REMARK SMILES IDX 14 14
REMARK H PARENT
REMARK Flexibility Score: inf
ROOT
ATOM      1  C   UNL     1     102.211  96.561  10.358  1.00  0.00     0.000 C 
ENDROOT
BRANCH   1   2
ATOM      2  C   UNL     1     102.108  98.097  10.415  1.00  0.00     0.000 C 
BRANCH   2   3
ATOM      3  C   UNL     1     100.677  98.582  10.695  1.00  0.00     0.006 C 
BRANCH   3   4
ATOM      4  C   UNL     1     100.599 100.096  10.932  1.00  0.00     0.053 C 
BRANCH   4   5
ATOM      5  C   UNL     1     101.472 100.822   9.958  1.00  0.00     0.041 C 
ATOM      6  O   UNL     1     101.033 101.124   8.818  1.00  0.00    -0.550 OA
ATOM      7  O   UNL     1     102.786 101.122  10.292  1.00  0.00    -0.550 OA
ENDBRANCH   4   5
ENDBRANCH   3   4
ENDBRANCH   2   3
ENDBRANCH   1   2
BRANCH   1   8
ATOM      8  C   UNL     1     100.833  95.878  10.369  1.00  0.00     0.000 C 
BRANCH   8   9
ATOM      9  C   UNL     1     100.933  94.350  10.524  1.00  0.00     0.000 C 
BRANCH   9  10
ATOM     10  C   UNL     1      99.662  93.729  11.132  1.00  0.00     0.006 C 
BRANCH  10  11
ATOM     11  C   UNL     1      98.484  94.705  11.278  1.00  0.00     0.053 C 
BRANCH  11  12
ATOM     12  C   UNL     1      98.321  95.180  12.688  1.00  0.00     0.041 C 
ATOM     13  O   UNL     1      98.564  94.406  13.651  1.00  0.00    -0.550 OA
ATOM     14  O   UNL     1      97.869  96.470  12.940  1.00  0.00    -0.550 OA
ENDBRANCH  11  12
ENDBRANCH  10  11
ENDBRANCH   9  10
ENDBRANCH   8   9
ENDBRANCH   1   8
TORSDOF 9
ENDMDL
MODEL 3
REMARK VINA RESULT:     2.137     19.765     22.020
REMARK INTER + INTRA:           2.754
REMARK INTER:                   3.286
REMARK INTRA:                  -0.532
REMARK UNBOUND:                -0.507
REMARK SMILES O=C([O-])CCCCCCCCC(=O)[O-]
REMARK SMILES IDX 7 1 6 2 5 3 4 4 2 5 1 6 3 7 8 8 9 9 10 10 11 11 12 12 13 13
REMARK SMILES IDX 14 14
REMARK H PARENT
REMARK Flexibility Score: inf
ROOT
ATOM      1  C   UNL     1     101.008  95.614   9.979  1.00  0.00     0.000 C 
ENDROOT
BRANCH   1   2
ATOM      2  C   UNL     1     100.868  94.212  10.599  1.00  0.00     0.000 C 
BRANCH   2   3
ATOM      3  C   UNL     1      99.455  93.945  11.140  1.00  0.00     0.006 C 
BRANCH   3   4
ATOM      4  C   UNL     1      98.610  95.221  11.248  1.00  0.00     0.053 C 
BRANCH   4   5
ATOM      5  C   UNL     1      98.263  95.498  12.677  1.00  0.00     0.041 C 
ATOM      6  O   UNL     1      97.868  96.642  13.022  1.00  0.00    -0.550 OA
ATOM      7  O   UNL     1      98.424  94.506  13.636  1.00  0.00    -0.550 OA
ENDBRANCH   4   5
ENDBRANCH   3   4
ENDBRANCH   2   3
ENDBRANCH   1   2
BRANCH   1   8
ATOM      8  C   UNL     1     102.192  96.402  10.565  1.00  0.00     0.000 C 
BRANCH   8   9
ATOM      9  C   UNL     1     102.056  97.919  10.346  1.00  0.00     0.000 C 
BRANCH   9  10
ATOM     10  C   UNL     1     100.645  98.444  10.671  1.00  0.00     0.006 C 
BRANCH  10  11
ATOM     11  C   UNL     1     100.578  99.953  10.952  1.00  0.00     0.053 C 
BRANCH  11  12
ATOM     12  C   UNL     1     101.417 100.740   9.994  1.00  0.00     0.041 C 
ATOM     13  O   UNL     1     100.972 101.032   8.853  1.00  0.00    -0.550 OA
ATOM     14  O   UNL     1     102.703 101.125  10.349  1.00  0.00    -0.550 OA
ENDBRANCH  11  12
ENDBRANCH  10  11
ENDBRANCH   9  10
ENDBRANCH   8   9
ENDBRANCH   1   8
TORSDOF 9
ENDMDL
MODEL 4
REMARK VINA RESULT:     2.470     19.751     22.001
REMARK INTER + INTRA:           3.263
REMARK INTER:                   3.707
REMARK INTRA:                  -0.444
REMARK UNBOUND:                -0.507
REMARK SMILES O=C([O-])CCCCCCCCC(=O)[O-]
REMARK SMILES IDX 7 1 6 2 5 3 4 4 2 5 1 6 3 7 8 8 9 9 10 10 11 11 12 12 13 13
REMARK SMILES IDX 14 14
REMARK H PARENT
REMARK Flexibility Score: inf
ROOT
ATOM      1  C   UNL     1     101.093  95.500   9.921  1.00  0.00     0.000 C 
ENDROOT
BRANCH   1   2
ATOM      2  C   UNL     1     100.871  94.185  10.691  1.00  0.00     0.000 C 
BRANCH   2   3
ATOM      3  C   UNL     1      99.398  93.964  11.068  1.00  0.00     0.006 C 
BRANCH   3   4
ATOM      4  C   UNL     1      98.618  95.278  11.209  1.00  0.00     0.053 C 
BRANCH   4   5
ATOM      5  C   UNL     1      98.288  95.537  12.646  1.00  0.00     0.041 C 
ATOM      6  O   UNL     1      98.418  94.622  13.500  1.00  0.00    -0.550 OA
ATOM      7  O   UNL     1      97.791  96.775  13.032  1.00  0.00    -0.550 OA
ENDBRANCH   4   5
ENDBRANCH   3   4
ENDBRANCH   2   3
ENDBRANCH   1   2
BRANCH   1   8
ATOM      8  C   UNL     1     102.198  96.369  10.545  1.00  0.00     0.000 C 
BRANCH   8   9
ATOM      9  C   UNL     1     102.004  97.868  10.256  1.00  0.00     0.000 C 
BRANCH   9  10
ATOM     10  C   UNL     1     100.603  98.373  10.648  1.00  0.00     0.006 C 
BRANCH  10  11
ATOM     11  C   UNL     1     100.525  99.884  10.916  1.00  0.00     0.053 C 
BRANCH  11  12
ATOM     12  C   UNL     1     101.468 100.657  10.047  1.00  0.00     0.041 C 
ATOM     13  O   UNL     1     102.633 100.914  10.447  1.00  0.00    -0.550 OA
ATOM     14  O   UNL     1     101.048 101.123   8.807  1.00  0.00    -0.550 OA
ENDBRANCH  11  12
ENDBRANCH  10  11
ENDBRANCH   9  10
ENDBRANCH   8   9
ENDBRANCH   1   8
TORSDOF 9
ENDMDL
MODEL 5
REMARK VINA RESULT:     3.243     19.722     21.598
REMARK INTER + INTRA:           4.442
REMARK INTER:                   4.787
REMARK INTRA:                  -0.345
REMARK UNBOUND:                -0.507
REMARK SMILES O=C([O-])CCCCCCCCC(=O)[O-]
REMARK SMILES IDX 7 1 6 2 5 3 4 4 2 5 1 6 3 7 8 8 9 9 10 10 11 11 12 12 13 13
REMARK SMILES IDX 14 14
REMARK H PARENT
REMARK Flexibility Score: inf
ROOT
ATOM      1  C   UNL     1     100.925  95.721  10.089  1.00  0.00     0.000 C 
ENDROOT
BRANCH   1   2
ATOM      2  C   UNL     1     101.857  96.737  10.775  1.00  0.00     0.000 C 
BRANCH   2   3
ATOM      3  C   UNL     1     101.937  98.070  10.016  1.00  0.00     0.006 C 
BRANCH   3   4
ATOM      4  C   UNL     1     101.374  99.248  10.822  1.00  0.00     0.053 C 
BRANCH   4   5
ATOM      5  C   UNL     1     101.640 100.539  10.115  1.00  0.00     0.041 C 
ATOM      6  O   UNL     1     102.744 101.125  10.260  1.00  0.00    -0.550 OA
ATOM      7  O   UNL     1     100.649 101.121   9.336  1.00  0.00    -0.550 OA
ENDBRANCH   4   5
ENDBRANCH   3   4
ENDBRANCH   2   3
ENDBRANCH   1   2
BRANCH   1   8
ATOM      8  C   UNL     1     101.124  94.290  10.615  1.00  0.00     0.000 C 
BRANCH   8   9
ATOM      9  C   UNL     1      99.803  93.632  11.051  1.00  0.00     0.000 C 
BRANCH   9  10
ATOM     10  C   UNL     1      98.635  94.633  11.123  1.00  0.00     0.006 C 
BRANCH  10  11
ATOM     11  C   UNL     1      98.441  95.285  12.500  1.00  0.00     0.053 C 
BRANCH  11  12
ATOM     12  C   UNL     1      98.119  96.744  12.390  1.00  0.00     0.041 C 
ATOM     13  O   UNL     1      97.461  97.319  13.296  1.00  0.00    -0.550 OA
ATOM     14  O   UNL     1      98.519  97.461  11.269  1.00  0.00    -0.550 OA
ENDBRANCH  11  12
ENDBRANCH  10  11
ENDBRANCH   9  10
ENDBRANCH   8   9
ENDBRANCH   1   8
TORSDOF 9
ENDMDL
MODEL 6
REMARK VINA RESULT:     4.066     19.161     21.051
REMARK INTER + INTRA:           5.698
REMARK INTER:                   5.324
REMARK INTRA:                   0.374
REMARK UNBOUND:                -0.507
REMARK SMILES O=C([O-])CCCCCCCCC(=O)[O-]
REMARK SMILES IDX 7 1 6 2 5 3 4 4 2 5 1 6 3 7 8 8 9 9 10 10 11 11 12 12 13 13
REMARK SMILES IDX 14 14
REMARK H PARENT
REMARK Flexibility Score: inf
ROOT
ATOM      1  C   UNL     1     100.795  95.668  10.244  1.00  0.00     0.000 C 
ENDROOT
BRANCH   1   2
ATOM      2  C   UNL     1     102.118  96.449  10.345  1.00  0.00     0.000 C 
BRANCH   2   3
ATOM      3  C   UNL     1     101.913  97.896  10.822  1.00  0.00     0.006 C 
BRANCH   3   4
ATOM      4  C   UNL     1     101.879  98.903   9.665  1.00  0.00     0.053 C 
BRANCH   4   5
ATOM      5  C   UNL     1     101.614 100.282  10.181  1.00  0.00     0.041 C 
ATOM      6  O   UNL     1     102.546 101.125  10.244  1.00  0.00    -0.550 OA
ATOM      7  O   UNL     1     100.347 100.621  10.640  1.00  0.00    -0.550 OA
ENDBRANCH   4   5
ENDBRANCH   3   4
ENDBRANCH   2   3
ENDBRANCH   1   2
BRANCH   1   8
ATOM      8  C   UNL     1      99.571  96.534  10.588  1.00  0.00     0.000 C 
BRANCH   8   9
ATOM      9  C   UNL     1      98.352  95.693  11.008  1.00  0.00     0.000 C 
BRANCH   9  10
ATOM     10  C   UNL     1      98.650  94.183  11.025  1.00  0.00     0.006 C 
BRANCH  10  11
ATOM     11  C   UNL     1      99.338  93.685  12.306  1.00  0.00     0.053 C 
BRANCH  11  12
ATOM     12  C   UNL     1      98.536  93.998  13.531  1.00  0.00     0.041 C 
ATOM     13  O   UNL     1      98.214  95.186  13.792  1.00  0.00    -0.550 OA
ATOM     14  O   UNL     1      98.172  92.979  14.403  1.00  0.00    -0.550 OA
ENDBRANCH  11  12
ENDBRANCH  10  11
ENDBRANCH   9  10
ENDBRANCH   8   9
ENDBRANCH   1   8
TORSDOF 9
ENDMDL
