MODEL 1
REMARK VINA RESULT:    -2.522      0.000      0.000
REMARK INTER + INTRA:          -3.686
REMARK INTER:                  -3.259
REMARK INTRA:                  -0.427
REMARK UNBOUND:                -0.427
REMARK SMILES CCCCCCC(C)=O
REMARK SMILES IDX 4 1 3 2 2 3 1 4 5 5 6 6 7 7 9 8 8 9
REMARK H PARENT
REMARK Flexibility Score: inf
ROOT
ATOM      1  C   UNL     1     142.680 146.175 141.189  1.00  0.00     0.000 C 
ENDROOT
BRANCH   1   2
ATOM      2  C   UNL     1     142.094 145.204 142.223  1.00  0.00    -0.000 C 
BRANCH   2   3
ATOM      3  C   UNL     1     141.852 145.869 143.586  1.00  0.00    -0.003 C 
ATOM      4  C   UNL     1     142.503 145.106 144.740  1.00  0.00     0.004 C 
ENDBRANCH   2   3
ENDBRANCH   1   2
BRANCH   1   5
ATOM      5  C   UNL     1     142.844 147.581 141.786  1.00  0.00     0.008 C 
BRANCH   5   6
ATOM      6  C   UNL     1     142.357 148.678 140.828  1.00  0.00     0.075 C 
BRANCH   6   7
ATOM      7  C   UNL     1     140.912 148.495 140.448  1.00  0.00     0.129 C 
ATOM      8  O   UNL     1     140.603 148.383 139.271  1.00  0.00    -0.300 OA
ATOM      9  C   UNL     1     139.852 148.424 141.506  1.00  0.00     0.087 C 
ENDBRANCH   6   7
ENDBRANCH   5   6
ENDBRANCH   1   5
TORSDOF 5
ENDMDL
MODEL 2
REMARK VINA RESULT:    -2.521      8.672      9.415
REMARK INTER + INTRA:          -3.685
REMARK INTER:                  -3.273
REMARK INTRA:                  -0.411
REMARK UNBOUND:                -0.427
REMARK SMILES CCCCCCC(C)=O
REMARK SMILES IDX 4 1 3 2 2 3 1 4 5 5 6 6 7 7 9 8 8 9
REMARK H PARENT
REMARK Flexibility Score: inf
ROOT
ATOM      1  C   UNL     1     146.292 138.893 141.263  1.00  0.00     0.000 C 
ENDROOT
BRANCH   1   2
ATOM      2  C   UNL     1     145.275 139.483 142.250  1.00  0.00    -0.000 C 
BRANCH   2   3
ATOM      3  C   UNL     1     145.896 139.797 143.620  1.00  0.00    -0.003 C 
ATOM      4  C   UNL     1     145.147 139.132 144.775  1.00  0.00     0.004 C 
ENDBRANCH   2   3
ENDBRANCH   1   2
BRANCH   1   5
ATOM      5  C   UNL     1     147.694 138.834 141.887  1.00  0.00     0.008 C 
BRANCH   5   6
ATOM      6  C   UNL     1     148.791 139.228 140.887  1.00  0.00     0.075 C 
BRANCH   6   7
ATOM      7  C   UNL     1     148.687 140.672 140.475  1.00  0.00     0.129 C 
ATOM      8  O   UNL     1     148.714 140.969 139.290  1.00  0.00    -0.300 OA
ATOM      9  C   UNL     1     148.524 141.746 141.508  1.00  0.00     0.087 C 
ENDBRANCH   6   7
ENDBRANCH   5   6
ENDBRANCH   1   5
TORSDOF 5
ENDMDL
MODEL 3
REMARK VINA RESULT:    -2.485     11.600     13.254
REMARK INTER + INTRA:          -3.638
REMARK INTER:                  -3.202
REMARK INTRA:                  -0.435
REMARK UNBOUND:                -0.427
REMARK SMILES CCCCCCC(C)=O
REMARK SMILES IDX 4 1 3 2 2 3 1 4 5 5 6 6 7 7 9 8 8 9
REMARK H PARENT
REMARK Flexibility Score: inf
ROOT
ATOM      1  C   UNL     1     138.784 135.342 141.268  1.00  0.00     0.000 C 
ENDROOT
BRANCH   1   2
ATOM      2  C   UNL     1     139.550 136.302 142.188  1.00  0.00    -0.000 C 
BRANCH   2   3
ATOM      3  C   UNL     1     139.797 135.709 143.585  1.00  0.00    -0.003 C 
ATOM      4  C   UNL     1     139.151 136.534 144.699  1.00  0.00     0.004 C 
ENDBRANCH   2   3
ENDBRANCH   1   2
BRANCH   1   5
ATOM      5  C   UNL     1     138.869 133.898 141.785  1.00  0.00     0.008 C 
BRANCH   5   6
ATOM      6  C   UNL     1     139.319 132.917 140.694  1.00  0.00     0.075 C 
BRANCH   6   7
ATOM      7  C   UNL     1     140.788 133.046 140.389  1.00  0.00     0.129 C 
ATOM      8  O   UNL     1     141.166 133.081 139.227  1.00  0.00    -0.300 OA
ATOM      9  C   UNL     1     141.786 133.158 141.501  1.00  0.00     0.087 C 
ENDBRANCH   6   7
ENDBRANCH   5   6
ENDBRANCH   1   5
TORSDOF 5
ENDMDL
MODEL 4
REMARK VINA RESULT:    -2.471      8.141      8.857
REMARK INTER + INTRA:          -3.620
REMARK INTER:                  -3.292
REMARK INTRA:                  -0.328
REMARK UNBOUND:                -0.427
REMARK SMILES CCCCCCC(C)=O
REMARK SMILES IDX 4 1 3 2 2 3 1 4 5 5 6 6 7 7 9 8 8 9
REMARK H PARENT
REMARK Flexibility Score: inf
ROOT
ATOM      1  C   UNL     1     136.520 142.125 142.569  1.00  0.00     0.000 C 
ENDROOT
BRANCH   1   2
ATOM      2  C   UNL     1     135.726 141.773 143.834  1.00  0.00    -0.000 C 
BRANCH   2   3
ATOM      3  C   UNL     1     136.483 142.125 145.124  1.00  0.00    -0.003 C 
ATOM      4  C   UNL     1     137.847 142.761 144.853  1.00  0.00     0.004 C 
ENDBRANCH   2   3
ENDBRANCH   1   2
BRANCH   1   5
ATOM      5  C   UNL     1     135.579 142.365 141.378  1.00  0.00     0.008 C 
BRANCH   5   6
ATOM      6  C   UNL     1     134.101 142.326 141.790  1.00  0.00     0.075 C 
BRANCH   6   7
ATOM      7  C   UNL     1     133.316 141.327 140.982  1.00  0.00     0.129 C 
ATOM      8  O   UNL     1     132.749 141.685 139.960  1.00  0.00    -0.300 OA
ATOM      9  C   UNL     1     133.248 139.892 141.407  1.00  0.00     0.087 C 
ENDBRANCH   6   7
ENDBRANCH   5   6
ENDBRANCH   1   5
TORSDOF 5
ENDMDL
MODEL 5
REMARK VINA RESULT:    -2.434      7.846      8.595
REMARK INTER + INTRA:          -3.572
REMARK INTER:                  -3.396
REMARK INTRA:                  -0.176
REMARK UNBOUND:                -0.427
REMARK SMILES CCCCCCC(C)=O
REMARK SMILES IDX 4 1 3 2 2 3 1 4 5 5 6 6 7 7 9 8 8 9
REMARK H PARENT
REMARK Flexibility Score: inf
ROOT
ATOM      1  C   UNL     1     136.162 142.090 142.964  1.00  0.00     0.000 C 
ENDROOT
BRANCH   1   2
ATOM      2  C   UNL     1     136.224 142.233 144.491  1.00  0.00    -0.000 C 
BRANCH   2   3
ATOM      3  C   UNL     1     137.600 142.709 144.983  1.00  0.00    -0.003 C 
ATOM      4  C   UNL     1     138.675 142.633 143.898  1.00  0.00     0.004 C 
ENDBRANCH   2   3
ENDBRANCH   1   2
BRANCH   1   5
ATOM      5  C   UNL     1     134.728 141.793 142.498  1.00  0.00     0.008 C 
BRANCH   5   6
ATOM      6  C   UNL     1     134.025 143.045 141.954  1.00  0.00     0.075 C 
BRANCH   6   7
ATOM      7  C   UNL     1     132.853 142.696 141.075  1.00  0.00     0.129 C 
ATOM      8  O   UNL     1     132.126 143.584 140.652  1.00  0.00    -0.300 OA
ATOM      9  C   UNL     1     132.589 141.272 140.692  1.00  0.00     0.087 C 
ENDBRANCH   6   7
ENDBRANCH   5   6
ENDBRANCH   1   5
TORSDOF 5
ENDMDL
MODEL 6
REMARK VINA RESULT:    -2.431      0.786      1.506
REMARK INTER + INTRA:          -3.569
REMARK INTER:                  -3.215
REMARK INTRA:                  -0.354
REMARK UNBOUND:                -0.427
REMARK SMILES CCCCCCC(C)=O
REMARK SMILES IDX 4 1 3 2 2 3 1 4 5 5 6 6 7 7 9 8 8 9
REMARK H PARENT
REMARK Flexibility Score: inf
ROOT
ATOM      1  C   UNL     1     141.609 145.203 142.592  1.00  0.00     0.000 C 
ENDROOT
BRANCH   1   2
ATOM      2  C   UNL     1     141.759 145.783 144.005  1.00  0.00    -0.000 C 
BRANCH   2   3
ATOM      3  C   UNL     1     142.611 144.891 144.922  1.00  0.00    -0.003 C 
ATOM      4  C   UNL     1     142.696 143.447 144.427  1.00  0.00     0.004 C 
ENDBRANCH   2   3
ENDBRANCH   1   2
BRANCH   1   5
ATOM      5  C   UNL     1     142.457 145.989 141.581  1.00  0.00     0.008 C 
BRANCH   5   6
ATOM      6  C   UNL     1     142.338 147.507 141.781  1.00  0.00     0.075 C 
BRANCH   6   7
ATOM      7  C   UNL     1     141.265 148.108 140.913  1.00  0.00     0.129 C 
ATOM      8  O   UNL     1     141.500 148.353 139.739  1.00  0.00    -0.300 OA
ATOM      9  C   UNL     1     139.902 148.383 141.472  1.00  0.00     0.087 C 
ENDBRANCH   6   7
ENDBRANCH   5   6
ENDBRANCH   1   5
TORSDOF 5
ENDMDL
MODEL 7
REMARK VINA RESULT:    -2.392      8.817      9.907
REMARK INTER + INTRA:          -3.518
REMARK INTER:                  -3.261
REMARK INTRA:                  -0.257
REMARK UNBOUND:                -0.427
REMARK SMILES CCCCCCC(C)=O
REMARK SMILES IDX 4 1 3 2 2 3 1 4 5 5 6 6 7 7 9 8 8 9
REMARK H PARENT
REMARK Flexibility Score: inf
ROOT
ATOM      1  C   UNL     1     146.707 140.653 141.556  1.00  0.00     0.000 C 
ENDROOT
BRANCH   1   2
ATOM      2  C   UNL     1     146.716 139.752 142.798  1.00  0.00    -0.000 C 
BRANCH   2   3
ATOM      3  C   UNL     1     145.365 139.743 143.531  1.00  0.00    -0.003 C 
ATOM      4  C   UNL     1     145.486 140.149 145.000  1.00  0.00     0.004 C 
ENDBRANCH   2   3
ENDBRANCH   1   2
BRANCH   1   5
ATOM      5  C   UNL     1     148.058 141.364 141.381  1.00  0.00     0.008 C 
BRANCH   5   6
ATOM      6  C   UNL     1     148.861 140.801 140.200  1.00  0.00     0.075 C 
BRANCH   6   7
ATOM      7  C   UNL     1     149.895 139.802 140.645  1.00  0.00     0.129 C 
ATOM      8  O   UNL     1     151.020 140.181 140.936  1.00  0.00    -0.300 OA
ATOM      9  C   UNL     1     149.547 138.349 140.761  1.00  0.00     0.087 C 
ENDBRANCH   6   7
ENDBRANCH   5   6
ENDBRANCH   1   5
TORSDOF 5
ENDMDL
MODEL 8
REMARK VINA RESULT:    -2.388      8.589      9.255
REMARK INTER + INTRA:          -3.513
REMARK INTER:                  -3.167
REMARK INTRA:                  -0.346
REMARK UNBOUND:                -0.427
REMARK SMILES CCCCCCC(C)=O
REMARK SMILES IDX 4 1 3 2 2 3 1 4 5 5 6 6 7 7 9 8 8 9
REMARK H PARENT
REMARK Flexibility Score: inf
ROOT
ATOM      1  C   UNL     1     145.321 139.921 142.396  1.00  0.00     0.000 C 
ENDROOT
BRANCH   1   2
ATOM      2  C   UNL     1     145.882 139.772 143.817  1.00  0.00    -0.000 C 
BRANCH   2   3
ATOM      3  C   UNL     1     144.874 139.133 144.785  1.00  0.00    -0.003 C 
ATOM      4  C   UNL     1     143.470 139.024 144.190  1.00  0.00     0.004 C 
ENDBRANCH   2   3
ENDBRANCH   1   2
BRANCH   1   5
ATOM      5  C   UNL     1     146.200 139.180 141.377  1.00  0.00     0.008 C 
BRANCH   5   6
ATOM      6  C   UNL     1     147.691 139.248 141.740  1.00  0.00     0.075 C 
BRANCH   6   7
ATOM      7  C   UNL     1     148.415 140.310 140.955  1.00  0.00     0.129 C 
ATOM      8  O   UNL     1     148.951 140.021 139.895  1.00  0.00    -0.300 OA
ATOM      9  C   UNL     1     148.460 141.723 141.452  1.00  0.00     0.087 C 
ENDBRANCH   6   7
ENDBRANCH   5   6
ENDBRANCH   1   5
TORSDOF 5
ENDMDL
MODEL 9
REMARK VINA RESULT:    -2.383      8.499      9.597
REMARK INTER + INTRA:          -3.506
REMARK INTER:                  -3.258
REMARK INTRA:                  -0.248
REMARK UNBOUND:                -0.427
REMARK SMILES CCCCCCC(C)=O
REMARK SMILES IDX 4 1 3 2 2 3 1 4 5 5 6 6 7 7 9 8 8 9
REMARK H PARENT
REMARK Flexibility Score: inf
ROOT
ATOM      1  C   UNL     1     135.002 140.554 140.839  1.00  0.00     0.000 C 
ENDROOT
BRANCH   1   2
ATOM      2  C   UNL     1     133.586 140.178 141.296  1.00  0.00    -0.000 C 
BRANCH   2   3
ATOM      3  C   UNL     1     132.500 141.011 140.597  1.00  0.00    -0.003 C 
ATOM      4  C   UNL     1     132.645 141.015 139.075  1.00  0.00     0.004 C 
ENDBRANCH   2   3
ENDBRANCH   1   2
BRANCH   1   5
ATOM      5  C   UNL     1     135.439 141.894 141.448  1.00  0.00     0.008 C 
BRANCH   5   6
ATOM      6  C   UNL     1     135.298 141.909 142.977  1.00  0.00     0.075 C 
BRANCH   6   7
ATOM      7  C   UNL     1     136.598 142.238 143.661  1.00  0.00     0.129 C 
ATOM      8  O   UNL     1     137.638 142.246 143.017  1.00  0.00    -0.300 OA
ATOM      9  C   UNL     1     136.623 142.580 145.120  1.00  0.00     0.087 C 
ENDBRANCH   6   7
ENDBRANCH   5   6
ENDBRANCH   1   5
TORSDOF 5
ENDMDL
