MODEL 1
REMARK VINA RESULT:    -4.683      0.000      0.000
REMARK INTER + INTRA:          -7.050
REMARK INTER:                  -6.326
REMARK INTRA:                  -0.724
REMARK UNBOUND:                -0.724
REMARK SMILES CC(=O)CCC=C(C)CCC=C(C)C
REMARK SMILES IDX 7 1 6 2 8 3 9 4 10 5 11 6 13 7 12 8 14 9 5 10 4 11 2 12 3 13
REMARK SMILES IDX 1 14
REMARK H PARENT
REMARK Flexibility Score: inf
ROOT
ATOM      1  C   UNL     1      26.866  31.227  30.592  1.00  0.00    -0.077 C 
ATOM      2  C   UNL     1      25.782  30.700  29.980  1.00  0.00    -0.028 C 
ATOM      3  C   UNL     1      27.513  30.562  31.785  1.00  0.00     0.039 C 
ENDROOT
BRANCH   1   4
ATOM      4  C   UNL     1      27.435  32.533  30.082  1.00  0.00     0.034 C 
BRANCH   4   5
ATOM      5  C   UNL     1      28.769  32.852  30.765  1.00  0.00     0.032 C 
BRANCH   5   6
ATOM      6  C   UNL     1      29.856  33.061  29.741  1.00  0.00    -0.028 C 
ATOM      7  C   UNL     1      30.586  30.666  29.791  1.00  0.00     0.039 C 
ATOM      8  C   UNL     1      30.665  32.083  29.275  1.00  0.00    -0.080 C 
ATOM      9  C   UNL     1      31.683  32.435  28.221  1.00  0.00     0.039 C 
ENDBRANCH   5   6
ENDBRANCH   4   5
ENDBRANCH   1   4
BRANCH   2  10
ATOM     10  C   UNL     1      25.140  29.385  30.354  1.00  0.00     0.035 C 
BRANCH  10  11
ATOM     11  C   UNL     1      24.346  28.788  29.184  1.00  0.00     0.079 C 
BRANCH  11  12
ATOM     12  C   UNL     1      25.148  27.758  28.432  1.00  0.00     0.130 C 
ATOM     13  O   UNL     1      24.994  26.571  28.679  1.00  0.00    -0.300 OA
ATOM     14  C   UNL     1      26.143  28.181  27.395  1.00  0.00     0.087 C 
ENDBRANCH  11  12
ENDBRANCH  10  11
ENDBRANCH   2  10
TORSDOF 6
ENDMDL
MODEL 2
REMARK VINA RESULT:    -4.452      4.927      7.899
REMARK INTER + INTRA:          -6.737
REMARK INTER:                  -5.927
REMARK INTRA:                  -0.810
REMARK UNBOUND:                -0.724
REMARK SMILES CC(=O)CCC=C(C)CCC=C(C)C
REMARK SMILES IDX 7 1 6 2 8 3 9 4 10 5 11 6 13 7 12 8 14 9 5 10 4 11 2 12 3 13
REMARK SMILES IDX 1 14
REMARK H PARENT
REMARK Flexibility Score: inf
ROOT
ATOM      1  C   UNL     1      21.810  31.684  30.930  1.00  0.00    -0.077 C 
ATOM      2  C   UNL     1      21.490  30.371  30.978  1.00  0.00    -0.028 C 
ATOM      3  C   UNL     1      23.245  32.156  30.898  1.00  0.00     0.039 C 
ENDROOT
BRANCH   1   4
ATOM      4  C   UNL     1      20.699  32.710  30.933  1.00  0.00     0.034 C 
BRANCH   4   5
ATOM      5  C   UNL     1      20.316  33.105  29.503  1.00  0.00     0.032 C 
BRANCH   5   6
ATOM      6  C   UNL     1      18.825  33.297  29.381  1.00  0.00    -0.028 C 
ATOM      7  C   UNL     1      18.378  30.858  29.028  1.00  0.00     0.039 C 
ATOM      8  C   UNL     1      17.938  32.293  29.193  1.00  0.00    -0.080 C 
ATOM      9  C   UNL     1      16.472  32.634  29.130  1.00  0.00     0.039 C 
ENDBRANCH   5   6
ENDBRANCH   4   5
ENDBRANCH   1   4
BRANCH   2  10
ATOM     10  C   UNL     1      22.492  29.241  30.935  1.00  0.00     0.035 C 
BRANCH  10  11
ATOM     11  C   UNL     1      22.479  28.522  29.580  1.00  0.00     0.079 C 
BRANCH  11  12
ATOM     12  C   UNL     1      23.873  28.264  29.071  1.00  0.00     0.130 C 
ATOM     13  O   UNL     1      24.076  27.340  28.297  1.00  0.00    -0.300 OA
ATOM     14  C   UNL     1      25.015  29.126  29.517  1.00  0.00     0.087 C 
ENDBRANCH  11  12
ENDBRANCH  10  11
ENDBRANCH   2  10
TORSDOF 6
ENDMDL
MODEL 3
REMARK VINA RESULT:    -4.376      2.291      5.032
REMARK INTER + INTRA:          -6.635
REMARK INTER:                  -5.478
REMARK INTRA:                  -1.156
REMARK UNBOUND:                -0.724
REMARK SMILES CC(=O)CCC=C(C)CCC=C(C)C
REMARK SMILES IDX 7 1 6 2 8 3 9 4 10 5 11 6 13 7 12 8 14 9 5 10 4 11 2 12 3 13
REMARK SMILES IDX 1 14
REMARK H PARENT
REMARK Flexibility Score: inf
ROOT
ATOM      1  C   UNL     1      28.148  33.712  30.049  1.00  0.00    -0.077 C 
ATOM      2  C   UNL     1      28.813  33.684  28.872  1.00  0.00    -0.028 C 
ATOM      3  C   UNL     1      28.809  33.321  31.350  1.00  0.00     0.039 C 
ENDROOT
BRANCH   1   4
ATOM      4  C   UNL     1      26.693  34.125  30.060  1.00  0.00     0.034 C 
BRANCH   4   5
ATOM      5  C   UNL     1      25.864  33.182  30.938  1.00  0.00     0.032 C 
BRANCH   5   6
ATOM      6  C   UNL     1      25.425  31.970  30.156  1.00  0.00    -0.028 C 
ATOM      7  C   UNL     1      26.637  30.367  31.652  1.00  0.00     0.039 C 
ATOM      8  C   UNL     1      25.744  30.696  30.479  1.00  0.00    -0.080 C 
ATOM      9  C   UNL     1      25.199  29.581  29.624  1.00  0.00     0.039 C 
ENDBRANCH   5   6
ENDBRANCH   4   5
ENDBRANCH   1   4
BRANCH   2  10
ATOM     10  C   UNL     1      30.275  33.337  28.720  1.00  0.00     0.035 C 
BRANCH  10  11
ATOM     11  C   UNL     1      30.481  32.146  27.774  1.00  0.00     0.079 C 
BRANCH  11  12
ATOM     12  C   UNL     1      29.987  30.859  28.380  1.00  0.00     0.130 C 
ATOM     13  O   UNL     1      30.715  30.221  29.126  1.00  0.00    -0.300 OA
ATOM     14  C   UNL     1      28.614  30.350  28.063  1.00  0.00     0.087 C 
ENDBRANCH  11  12
ENDBRANCH  10  11
ENDBRANCH   2  10
TORSDOF 6
ENDMDL
MODEL 4
REMARK VINA RESULT:    -4.349      1.396      2.028
REMARK INTER + INTRA:          -6.599
REMARK INTER:                  -5.812
REMARK INTRA:                  -0.786
REMARK UNBOUND:                -0.724
REMARK SMILES CC(=O)CCC=C(C)CCC=C(C)C
REMARK SMILES IDX 7 1 6 2 8 3 9 4 10 5 11 6 13 7 12 8 14 9 5 10 4 11 2 12 3 13
REMARK SMILES IDX 1 14
REMARK H PARENT
REMARK Flexibility Score: inf
ROOT
ATOM      1  C   UNL     1      26.513  32.787  30.376  1.00  0.00    -0.077 C 
ATOM      2  C   UNL     1      26.756  31.466  30.225  1.00  0.00    -0.028 C 
ATOM      3  C   UNL     1      25.111  33.332  30.512  1.00  0.00     0.039 C 
ENDROOT
BRANCH   1   4
ATOM      4  C   UNL     1      27.680  33.751  30.384  1.00  0.00     0.034 C 
BRANCH   4   5
ATOM      5  C   UNL     1      28.175  34.022  28.960  1.00  0.00     0.032 C 
BRANCH   5   6
ATOM      6  C   UNL     1      29.650  33.729  28.842  1.00  0.00    -0.028 C 
ATOM      7  C   UNL     1      29.287  31.570  27.625  1.00  0.00     0.039 C 
ATOM      8  C   UNL     1      30.166  32.643  28.223  1.00  0.00    -0.080 C 
ATOM      9  C   UNL     1      31.664  32.504  28.149  1.00  0.00     0.039 C 
ENDBRANCH   5   6
ENDBRANCH   4   5
ENDBRANCH   1   4
BRANCH   2  10
ATOM     10  C   UNL     1      25.695  30.391  30.245  1.00  0.00     0.035 C 
BRANCH  10  11
ATOM     11  C   UNL     1      25.749  29.516  28.985  1.00  0.00     0.079 C 
BRANCH  11  12
ATOM     12  C   UNL     1      24.514  28.666  28.841  1.00  0.00     0.130 C 
ATOM     13  O   UNL     1      24.454  27.827  27.955  1.00  0.00    -0.300 OA
ATOM     14  C   UNL     1      23.352  28.853  29.769  1.00  0.00     0.087 C 
ENDBRANCH  11  12
ENDBRANCH  10  11
ENDBRANCH   2  10
TORSDOF 6
ENDMDL
MODEL 5
REMARK VINA RESULT:    -4.328      3.211      6.452
REMARK INTER + INTRA:          -6.571
REMARK INTER:                  -5.498
REMARK INTRA:                  -1.072
REMARK UNBOUND:                -0.724
REMARK SMILES CC(=O)CCC=C(C)CCC=C(C)C
REMARK SMILES IDX 7 1 6 2 8 3 9 4 10 5 11 6 13 7 12 8 14 9 5 10 4 11 2 12 3 13
REMARK SMILES IDX 1 14
REMARK H PARENT
REMARK Flexibility Score: inf
ROOT
ATOM      1  C   UNL     1      30.111  31.352  29.637  1.00  0.00    -0.077 C 
ATOM      2  C   UNL     1      30.307  32.677  29.450  1.00  0.00    -0.028 C 
ATOM      3  C   UNL     1      29.811  30.418  28.489  1.00  0.00     0.039 C 
ENDROOT
BRANCH   1   4
ATOM      4  C   UNL     1      30.171  30.794  31.042  1.00  0.00     0.034 C 
BRANCH   4   5
ATOM      5  C   UNL     1      29.060  31.387  31.914  1.00  0.00     0.032 C 
BRANCH   5   6
ATOM      6  C   UNL     1      27.805  30.555  31.820  1.00  0.00    -0.028 C 
ATOM      7  C   UNL     1      26.605  32.236  30.403  1.00  0.00     0.039 C 
ATOM      8  C   UNL     1      26.702  30.912  31.124  1.00  0.00    -0.080 C 
ATOM      9  C   UNL     1      25.536  29.959  31.088  1.00  0.00     0.039 C 
ENDBRANCH   5   6
ENDBRANCH   4   5
ENDBRANCH   1   4
BRANCH   2  10
ATOM     10  C   UNL     1      30.321  33.360  28.102  1.00  0.00     0.035 C 
BRANCH  10  11
ATOM     11  C   UNL     1      31.631  34.124  27.866  1.00  0.00     0.079 C 
BRANCH  11  12
ATOM     12  C   UNL     1      32.836  33.244  28.073  1.00  0.00     0.130 C 
ATOM     13  O   UNL     1      32.969  32.230  27.404  1.00  0.00    -0.300 OA
ATOM     14  C   UNL     1      33.864  33.597  29.104  1.00  0.00     0.087 C 
ENDBRANCH  11  12
ENDBRANCH  10  11
ENDBRANCH   2  10
TORSDOF 6
ENDMDL
MODEL 6
REMARK VINA RESULT:    -4.297      2.644      5.753
REMARK INTER + INTRA:          -6.528
REMARK INTER:                  -5.672
REMARK INTRA:                  -0.856
REMARK UNBOUND:                -0.724
REMARK SMILES CC(=O)CCC=C(C)CCC=C(C)C
REMARK SMILES IDX 7 1 6 2 8 3 9 4 10 5 11 6 13 7 12 8 14 9 5 10 4 11 2 12 3 13
REMARK SMILES IDX 1 14
REMARK H PARENT
REMARK Flexibility Score: inf
ROOT
ATOM      1  C   UNL     1      28.377  31.611  31.129  1.00  0.00    -0.077 C 
ATOM      2  C   UNL     1      28.522  32.767  30.443  1.00  0.00    -0.028 C 
ATOM      3  C   UNL     1      29.565  30.777  31.551  1.00  0.00     0.039 C 
ENDROOT
BRANCH   1   4
ATOM      4  C   UNL     1      26.984  31.127  31.465  1.00  0.00     0.034 C 
BRANCH   4   5
ATOM      5  C   UNL     1      26.036  31.326  30.278  1.00  0.00     0.032 C 
BRANCH   5   6
ATOM      6  C   UNL     1      25.907  30.055  29.477  1.00  0.00    -0.028 C 
ATOM      7  C   UNL     1      23.657  29.495  30.423  1.00  0.00     0.039 C 
ATOM      8  C   UNL     1      24.833  29.234  29.512  1.00  0.00    -0.080 C 
ATOM      9  C   UNL     1      24.830  28.017  28.624  1.00  0.00     0.039 C 
ENDBRANCH   5   6
ENDBRANCH   4   5
ENDBRANCH   1   4
BRANCH   2  10
ATOM     10  C   UNL     1      29.850  33.390  30.083  1.00  0.00     0.035 C 
BRANCH  10  11
ATOM     11  C   UNL     1      30.136  33.289  28.579  1.00  0.00     0.079 C 
BRANCH  11  12
ATOM     12  C   UNL     1      30.879  32.024  28.235  1.00  0.00     0.130 C 
ATOM     13  O   UNL     1      32.101  32.023  28.223  1.00  0.00    -0.300 OA
ATOM     14  C   UNL     1      30.130  30.773  27.894  1.00  0.00     0.087 C 
ENDBRANCH  11  12
ENDBRANCH  10  11
ENDBRANCH   2  10
TORSDOF 6
ENDMDL
MODEL 7
REMARK VINA RESULT:    -4.289      8.097     10.622
REMARK INTER + INTRA:          -6.518
REMARK INTER:                  -5.022
REMARK INTRA:                  -1.496
REMARK UNBOUND:                -0.724
REMARK SMILES CC(=O)CCC=C(C)CCC=C(C)C
REMARK SMILES IDX 7 1 6 2 8 3 9 4 10 5 11 6 13 7 12 8 14 9 5 10 4 11 2 12 3 13
REMARK SMILES IDX 1 14
REMARK H PARENT
REMARK Flexibility Score: inf
ROOT
ATOM      1  C   UNL     1      15.820  31.835  30.116  1.00  0.00    -0.077 C 
ATOM      2  C   UNL     1      15.870  32.008  31.456  1.00  0.00    -0.028 C 
ATOM      3  C   UNL     1      15.366  30.535  29.493  1.00  0.00     0.039 C 
ENDROOT
BRANCH   1   4
ATOM      4  C   UNL     1      16.254  32.970  29.213  1.00  0.00     0.034 C 
BRANCH   4   5
ATOM      5  C   UNL     1      17.693  33.394  29.522  1.00  0.00     0.032 C 
BRANCH   5   6
ATOM      6  C   UNL     1      18.669  32.331  29.085  1.00  0.00    -0.028 C 
ATOM      7  C   UNL     1      19.645  32.058  31.375  1.00  0.00     0.039 C 
ATOM      8  C   UNL     1      19.536  31.703  29.911  1.00  0.00    -0.080 C 
ATOM      9  C   UNL     1      20.427  30.632  29.338  1.00  0.00     0.039 C 
ENDBRANCH   5   6
ENDBRANCH   4   5
ENDBRANCH   1   4
BRANCH   2  10
ATOM     10  C   UNL     1      15.426  30.980  32.470  1.00  0.00     0.035 C 
BRANCH  10  11
ATOM     11  C   UNL     1      16.621  30.268  33.118  1.00  0.00     0.079 C 
BRANCH  11  12
ATOM     12  C   UNL     1      16.874  28.921  32.494  1.00  0.00     0.130 C 
ATOM     13  O   UNL     1      16.244  27.947  32.878  1.00  0.00    -0.300 OA
ATOM     14  C   UNL     1      17.903  28.766  31.417  1.00  0.00     0.087 C 
ENDBRANCH  11  12
ENDBRANCH  10  11
ENDBRANCH   2  10
TORSDOF 6
ENDMDL
MODEL 8
REMARK VINA RESULT:    -4.241      3.230      6.596
REMARK INTER + INTRA:          -6.452
REMARK INTER:                  -5.453
REMARK INTRA:                  -0.999
REMARK UNBOUND:                -0.724
REMARK SMILES CC(=O)CCC=C(C)CCC=C(C)C
REMARK SMILES IDX 7 1 6 2 8 3 9 4 10 5 11 6 13 7 12 8 14 9 5 10 4 11 2 12 3 13
REMARK SMILES IDX 1 14
REMARK H PARENT
REMARK Flexibility Score: inf
ROOT
ATOM      1  C   UNL     1      29.381  33.195  29.055  1.00  0.00    -0.077 C 
ATOM      2  C   UNL     1      30.417  33.385  29.903  1.00  0.00    -0.028 C 
ATOM      3  C   UNL     1      29.487  32.282  27.856  1.00  0.00     0.039 C 
ENDROOT
BRANCH   1   4
ATOM      4  C   UNL     1      28.085  33.937  29.301  1.00  0.00     0.034 C 
BRANCH   4   5
ATOM      5  C   UNL     1      27.478  33.543  30.651  1.00  0.00     0.032 C 
BRANCH   5   6
ATOM      6  C   UNL     1      26.559  32.358  30.499  1.00  0.00    -0.028 C 
ATOM      7  C   UNL     1      28.147  30.778  31.620  1.00  0.00     0.039 C 
ATOM      8  C   UNL     1      26.835  31.114  30.952  1.00  0.00    -0.080 C 
ATOM      9  C   UNL     1      25.800  30.035  30.762  1.00  0.00     0.039 C 
ENDBRANCH   5   6
ENDBRANCH   4   5
ENDBRANCH   1   4
BRANCH   2  10
ATOM     10  C   UNL     1      31.747  32.677  29.805  1.00  0.00     0.035 C 
BRANCH  10  11
ATOM     11  C   UNL     1      32.865  33.628  29.356  1.00  0.00     0.079 C 
BRANCH  11  12
ATOM     12  C   UNL     1      33.494  33.180  28.063  1.00  0.00     0.130 C 
ATOM     13  O   UNL     1      33.009  32.244  27.444  1.00  0.00    -0.300 OA
ATOM     14  C   UNL     1      34.719  33.865  27.539  1.00  0.00     0.087 C 
ENDBRANCH  11  12
ENDBRANCH  10  11
ENDBRANCH   2  10
TORSDOF 6
ENDMDL
