MODEL 1
REMARK VINA RESULT:    -5.822      0.000      0.000
REMARK INTER + INTRA:          -5.992
REMARK INTER:                  -5.992
REMARK INTRA:                   0.000
REMARK UNBOUND:                 0.000
REMARK SMILES C=C1[C@H](O)C[C@]23C[C@H]1C(C)(C)[C@H]2CC[C@@H]3C
REMARK SMILES IDX 16 1 15 2 14 3 13 4 12 5 6 6 7 7 8 8 9 9 10 10 11 11 2 12
REMARK SMILES IDX 1 13 3 14 5 15 4 16
REMARK H PARENT 4 17
REMARK Flexibility Score: inf
ROOT
ATOM      1  C   UNL     1      -1.017  15.899  47.389  1.00  0.00     0.008 C 
ATOM      2  C   UNL     1      -1.690  17.284  47.332  1.00  0.00    -0.008 C 
ATOM      3  C   UNL     1      -2.742  17.403  48.437  1.00  0.00     0.004 C 
ATOM      4  C   UNL     1      -2.009  17.969  49.645  1.00  0.00     0.005 C 
ATOM      5  C   UNL     1      -0.846  18.821  49.095  1.00  0.00     0.002 C 
ATOM      6  C   UNL     1      -0.728  18.475  47.591  1.00  0.00    -0.020 C 
ATOM      7  C   UNL     1      -1.202  19.737  46.861  1.00  0.00     0.016 C 
ATOM      8  C   UNL     1      -0.597  20.830  47.718  1.00  0.00     0.023 C 
ATOM      9  C   UNL     1      -0.962  20.387  49.166  1.00  0.00    -0.025 C 
ATOM     10  C   UNL     1      -2.386  20.911  49.503  1.00  0.00     0.012 C 
ATOM     11  C   UNL     1      -0.002  20.968  50.233  1.00  0.00     0.012 C 
ATOM     12  C   UNL     1       0.910  20.821  47.462  1.00  0.00    -0.045 C 
ATOM     13  C   UNL     1       1.585  21.982  47.461  1.00  0.00     0.011 C 
ATOM     14  C   UNL     1       1.669  19.492  47.383  1.00  0.00     0.140 C 
ATOM     15  C   UNL     1       0.754  18.249  47.169  1.00  0.00     0.044 C 
ENDROOT
BRANCH  14  16
ATOM     16  O   UNL     1       2.605  19.540  46.334  1.00  0.00    -0.389 OA
ATOM     17  H   UNL     1       2.968  18.624  46.216  1.00  0.00     0.211 HD
ENDBRANCH  14  16
TORSDOF 1
ENDMDL
MODEL 2
REMARK VINA RESULT:    -5.766      1.432      2.197
REMARK INTER + INTRA:          -5.934
REMARK INTER:                  -5.934
REMARK INTRA:                   0.000
REMARK UNBOUND:                 0.000
REMARK SMILES C=C1[C@H](O)C[C@]23C[C@H]1C(C)(C)[C@H]2CC[C@@H]3C
REMARK SMILES IDX 16 1 15 2 14 3 13 4 12 5 6 6 7 7 8 8 9 9 10 10 11 11 2 12
REMARK SMILES IDX 1 13 3 14 5 15 4 16
REMARK H PARENT 4 17
REMARK Flexibility Score: inf
ROOT
ATOM      1  C   UNL     1       0.676  15.893  44.888  1.00  0.00     0.008 C 
ATOM      2  C   UNL     1      -0.424  16.928  45.189  1.00  0.00    -0.008 C 
ATOM      3  C   UNL     1      -1.728  16.219  45.559  1.00  0.00     0.004 C 
ATOM      4  C   UNL     1      -1.686  16.039  47.070  1.00  0.00     0.005 C 
ATOM      5  C   UNL     1      -0.832  17.197  47.627  1.00  0.00     0.002 C 
ATOM      6  C   UNL     1      -0.128  17.842  46.409  1.00  0.00    -0.020 C 
ATOM      7  C   UNL     1      -0.798  19.212  46.251  1.00  0.00     0.016 C 
ATOM      8  C   UNL     1      -0.959  19.640  47.695  1.00  0.00     0.023 C 
ATOM      9  C   UNL     1      -1.558  18.373  48.375  1.00  0.00    -0.025 C 
ATOM     10  C   UNL     1      -3.102  18.393  48.195  1.00  0.00     0.012 C 
ATOM     11  C   UNL     1      -1.280  18.321  49.897  1.00  0.00     0.012 C 
ATOM     12  C   UNL     1       0.433  19.989  48.220  1.00  0.00    -0.045 C 
ATOM     13  C   UNL     1       0.573  20.996  49.098  1.00  0.00     0.011 C 
ATOM     14  C   UNL     1       1.628  19.090  47.887  1.00  0.00     0.140 C 
ATOM     15  C   UNL     1       1.379  18.116  46.697  1.00  0.00     0.044 C 
ENDROOT
BRANCH  14  16
ATOM     16  O   UNL     1       2.750  19.883  47.583  1.00  0.00    -0.389 OA
ATOM     17  H   UNL     1       2.936  20.454  48.374  1.00  0.00     0.211 HD
ENDBRANCH  14  16
TORSDOF 1
ENDMDL
MODEL 3
REMARK VINA RESULT:    -5.646      1.397      2.113
REMARK INTER + INTRA:          -5.811
REMARK INTER:                  -5.811
REMARK INTRA:                   0.000
REMARK UNBOUND:                 0.000
REMARK SMILES C=C1[C@H](O)C[C@]23C[C@H]1C(C)(C)[C@H]2CC[C@@H]3C
REMARK SMILES IDX 16 1 15 2 14 3 13 4 12 5 6 6 7 7 8 8 9 9 10 10 11 11 2 12
REMARK SMILES IDX 1 13 3 14 5 15 4 16
REMARK H PARENT 4 17
REMARK Flexibility Score: inf
ROOT
ATOM      1  C   UNL     1      -3.028  17.405  48.898  1.00  0.00     0.008 C 
ATOM      2  C   UNL     1      -2.602  18.579  47.998  1.00  0.00    -0.008 C 
ATOM      3  C   UNL     1      -3.148  19.895  48.556  1.00  0.00     0.004 C 
ATOM      4  C   UNL     1      -2.075  20.419  49.501  1.00  0.00     0.005 C 
ATOM      5  C   UNL     1      -0.726  19.889  48.973  1.00  0.00     0.002 C 
ATOM      6  C   UNL     1      -1.067  18.805  47.921  1.00  0.00    -0.020 C 
ATOM      7  C   UNL     1      -0.665  19.423  46.578  1.00  0.00     0.016 C 
ATOM      8  C   UNL     1       0.621  20.135  46.943  1.00  0.00     0.023 C 
ATOM      9  C   UNL     1       0.246  20.893  48.252  1.00  0.00    -0.025 C 
ATOM     10  C   UNL     1      -0.402  22.254  47.872  1.00  0.00     0.012 C 
ATOM     11  C   UNL     1       1.476  21.209  49.137  1.00  0.00     0.012 C 
ATOM     12  C   UNL     1       1.684  19.061  47.169  1.00  0.00    -0.045 C 
ATOM     13  C   UNL     1       2.955  19.306  46.809  1.00  0.00     0.011 C 
ATOM     14  C   UNL     1       1.341  17.792  47.955  1.00  0.00     0.140 C 
ATOM     15  C   UNL     1      -0.188  17.531  48.106  1.00  0.00     0.044 C 
ENDROOT
BRANCH  14  16
ATOM     16  O   UNL     1       1.921  16.673  47.330  1.00  0.00    -0.389 OA
ATOM     17  H   UNL     1       2.862  16.905  47.115  1.00  0.00     0.211 HD
ENDBRANCH  14  16
TORSDOF 1
ENDMDL
MODEL 4
REMARK VINA RESULT:    -5.607      1.971      4.539
REMARK INTER + INTRA:          -5.771
REMARK INTER:                  -5.771
REMARK INTRA:                   0.000
REMARK UNBOUND:                 0.000
REMARK SMILES C=C1[C@H](O)C[C@]23C[C@H]1C(C)(C)[C@H]2CC[C@@H]3C
REMARK SMILES IDX 16 1 15 2 14 3 13 4 12 5 6 6 7 7 8 8 9 9 10 10 11 11 2 12
REMARK SMILES IDX 1 13 3 14 5 15 4 16
REMARK H PARENT 4 17
REMARK Flexibility Score: inf
ROOT
ATOM      1  C   UNL     1       2.719  20.394  48.438  1.00  0.00     0.008 C 
ATOM      2  C   UNL     1       1.905  19.806  47.269  1.00  0.00    -0.008 C 
ATOM      3  C   UNL     1       2.657  18.630  46.644  1.00  0.00     0.004 C 
ATOM      4  C   UNL     1       2.192  17.393  47.400  1.00  0.00     0.005 C 
ATOM      5  C   UNL     1       0.757  17.688  47.885  1.00  0.00     0.002 C 
ATOM      6  C   UNL     1       0.533  19.206  47.681  1.00  0.00    -0.020 C 
ATOM      7  C   UNL     1      -0.479  19.302  46.534  1.00  0.00     0.016 C 
ATOM      8  C   UNL     1      -1.416  18.156  46.859  1.00  0.00     0.023 C 
ATOM      9  C   UNL     1      -0.442  16.978  47.158  1.00  0.00    -0.025 C 
ATOM     10  C   UNL     1      -0.064  16.290  45.817  1.00  0.00     0.012 C 
ATOM     11  C   UNL     1      -1.075  15.891  48.061  1.00  0.00     0.012 C 
ATOM     12  C   UNL     1      -2.231  18.573  48.083  1.00  0.00    -0.045 C 
ATOM     13  C   UNL     1      -3.513  18.186  48.184  1.00  0.00     0.011 C 
ATOM     14  C   UNL     1      -1.546  19.271  49.262  1.00  0.00     0.140 C 
ATOM     15  C   UNL     1      -0.142  19.858  48.925  1.00  0.00     0.044 C 
ENDROOT
BRANCH  14  16
ATOM     16  O   UNL     1      -2.361  20.316  49.735  1.00  0.00    -0.389 OA
ATOM     17  H   UNL     1      -1.852  20.796  50.440  1.00  0.00     0.211 HD
ENDBRANCH  14  16
TORSDOF 1
ENDMDL
MODEL 5
REMARK VINA RESULT:    -5.431      1.994      4.282
REMARK INTER + INTRA:          -5.590
REMARK INTER:                  -5.590
REMARK INTRA:                   0.000
REMARK UNBOUND:                 0.000
REMARK SMILES C=C1[C@H](O)C[C@]23C[C@H]1C(C)(C)[C@H]2CC[C@@H]3C
REMARK SMILES IDX 16 1 15 2 14 3 13 4 12 5 6 6 7 7 8 8 9 9 10 10 11 11 2 12
REMARK SMILES IDX 1 13 3 14 5 15 4 16
REMARK H PARENT 4 17
REMARK Flexibility Score: inf
ROOT
ATOM      1  C   UNL     1      -2.377  21.856  50.164  1.00  0.00     0.008 C 
ATOM      2  C   UNL     1      -1.616  21.967  48.830  1.00  0.00    -0.008 C 
ATOM      3  C   UNL     1      -0.259  22.638  49.052  1.00  0.00     0.004 C 
ATOM      4  C   UNL     1       0.717  21.508  49.348  1.00  0.00     0.005 C 
ATOM      5  C   UNL     1       0.179  20.259  48.618  1.00  0.00     0.002 C 
ATOM      6  C   UNL     1      -1.264  20.602  48.177  1.00  0.00    -0.020 C 
ATOM      7  C   UNL     1      -1.189  20.722  46.651  1.00  0.00     0.016 C 
ATOM      8  C   UNL     1      -0.247  19.588  46.303  1.00  0.00     0.023 C 
ATOM      9  C   UNL     1       0.919  19.772  47.319  1.00  0.00    -0.025 C 
ATOM     10  C   UNL     1       1.933  20.795  46.735  1.00  0.00     0.012 C 
ATOM     11  C   UNL     1       1.699  18.461  47.582  1.00  0.00     0.012 C 
ATOM     12  C   UNL     1      -1.014  18.283  46.516  1.00  0.00    -0.045 C 
ATOM     13  C   UNL     1      -0.787  17.244  45.694  1.00  0.00     0.011 C 
ATOM     14  C   UNL     1      -1.897  18.103  47.754  1.00  0.00     0.140 C 
ATOM     15  C   UNL     1      -2.250  19.435  48.483  1.00  0.00     0.044 C 
ENDROOT
BRANCH  14  16
ATOM     16  O   UNL     1      -3.097  17.463  47.395  1.00  0.00    -0.389 OA
ATOM     17  H   UNL     1      -2.870  16.539  47.111  1.00  0.00     0.211 HD
ENDBRANCH  14  16
TORSDOF 1
ENDMDL
MODEL 6
REMARK VINA RESULT:    -5.337      1.448      2.194
REMARK INTER + INTRA:          -5.493
REMARK INTER:                  -5.493
REMARK INTRA:                   0.000
REMARK UNBOUND:                 0.000
REMARK SMILES C=C1[C@H](O)C[C@]23C[C@H]1C(C)(C)[C@H]2CC[C@@H]3C
REMARK SMILES IDX 16 1 15 2 14 3 13 4 12 5 6 6 7 7 8 8 9 9 10 10 11 11 2 12
REMARK SMILES IDX 1 13 3 14 5 15 4 16
REMARK H PARENT 4 17
REMARK Flexibility Score: inf
ROOT
ATOM      1  C   UNL     1       1.980  17.373  47.382  1.00  0.00     0.008 C 
ATOM      2  C   UNL     1       0.564  17.740  46.900  1.00  0.00    -0.008 C 
ATOM      3  C   UNL     1      -0.466  16.802  47.531  1.00  0.00     0.004 C 
ATOM      4  C   UNL     1      -0.892  17.471  48.830  1.00  0.00     0.005 C 
ATOM      5  C   UNL     1      -0.729  18.991  48.617  1.00  0.00     0.002 C 
ATOM      6  C   UNL     1       0.092  19.160  47.315  1.00  0.00    -0.020 C 
ATOM      7  C   UNL     1      -0.901  19.733  46.298  1.00  0.00     0.016 C 
ATOM      8  C   UNL     1      -1.687  20.704  47.154  1.00  0.00     0.023 C 
ATOM      9  C   UNL     1      -2.020  19.865  48.424  1.00  0.00    -0.025 C 
ATOM     10  C   UNL     1      -3.316  19.049  48.158  1.00  0.00     0.012 C 
ATOM     11  C   UNL     1      -2.287  20.744  49.671  1.00  0.00     0.012 C 
ATOM     12  C   UNL     1      -0.769  21.888  47.454  1.00  0.00    -0.045 C 
ATOM     13  C   UNL     1      -1.290  23.123  47.532  1.00  0.00     0.011 C 
ATOM     14  C   UNL     1       0.696  21.648  47.834  1.00  0.00     0.140 C 
ATOM     15  C   UNL     1       1.219  20.223  47.482  1.00  0.00     0.044 C 
ENDROOT
BRANCH  14  16
ATOM     16  O   UNL     1       1.516  22.592  47.189  1.00  0.00    -0.389 OA
ATOM     17  H   UNL     1       1.166  22.712  46.267  1.00  0.00     0.211 HD
ENDBRANCH  14  16
TORSDOF 1
ENDMDL
MODEL 7
REMARK VINA RESULT:    -5.296      1.478      3.923
REMARK INTER + INTRA:          -5.450
REMARK INTER:                  -5.450
REMARK INTRA:                   0.000
REMARK UNBOUND:                 0.000
REMARK SMILES C=C1[C@H](O)C[C@]23C[C@H]1C(C)(C)[C@H]2CC[C@@H]3C
REMARK SMILES IDX 16 1 15 2 14 3 13 4 12 5 6 6 7 7 8 8 9 9 10 10 11 11 2 12
REMARK SMILES IDX 1 13 3 14 5 15 4 16
REMARK H PARENT 4 17
REMARK Flexibility Score: inf
ROOT
ATOM      1  C   UNL     1       1.684  21.530  46.204  1.00  0.00     0.008 C 
ATOM      2  C   UNL     1       1.014  21.509  47.590  1.00  0.00    -0.008 C 
ATOM      3  C   UNL     1      -0.002  22.647  47.701  1.00  0.00     0.004 C 
ATOM      4  C   UNL     1      -1.324  22.070  47.213  1.00  0.00     0.005 C 
ATOM      5  C   UNL     1      -1.283  20.558  47.518  1.00  0.00     0.002 C 
ATOM      6  C   UNL     1       0.185  20.228  47.882  1.00  0.00    -0.020 C 
ATOM      7  C   UNL     1       0.155  19.918  49.383  1.00  0.00     0.016 C 
ATOM      8  C   UNL     1      -1.138  19.139  49.507  1.00  0.00     0.023 C 
ATOM      9  C   UNL     1      -2.153  20.008  48.706  1.00  0.00    -0.025 C 
ATOM     10  C   UNL     1      -2.722  21.106  49.648  1.00  0.00     0.012 C 
ATOM     11  C   UNL     1      -3.359  19.192  48.181  1.00  0.00     0.012 C 
ATOM     12  C   UNL     1      -0.903  17.770  48.870  1.00  0.00    -0.045 C 
ATOM     13  C   UNL     1      -1.496  16.687  49.399  1.00  0.00     0.011 C 
ATOM     14  C   UNL     1      -0.145  17.659  47.544  1.00  0.00     0.140 C 
ATOM     15  C   UNL     1       0.674  18.931  47.171  1.00  0.00     0.044 C 
ENDROOT
BRANCH  14  16
ATOM     16  O   UNL     1       0.737  16.563  47.590  1.00  0.00    -0.389 OA
ATOM     17  H   UNL     1       0.870  16.327  48.545  1.00  0.00     0.211 HD
ENDBRANCH  14  16
TORSDOF 1
ENDMDL
MODEL 8
REMARK VINA RESULT:    -5.253      4.602      6.794
REMARK INTER + INTRA:          -5.406
REMARK INTER:                  -5.406
REMARK INTRA:                   0.000
REMARK UNBOUND:                 0.000
REMARK SMILES C=C1[C@H](O)C[C@]23C[C@H]1C(C)(C)[C@H]2CC[C@@H]3C
REMARK SMILES IDX 16 1 15 2 14 3 13 4 12 5 6 6 7 7 8 8 9 9 10 10 11 11 2 12
REMARK SMILES IDX 1 13 3 14 5 15 4 16
REMARK H PARENT 4 17
REMARK Flexibility Score: inf
ROOT
ATOM      1  C   UNL     1      -1.489  23.614  47.844  1.00  0.00     0.008 C 
ATOM      2  C   UNL     1      -1.523  22.811  49.158  1.00  0.00    -0.008 C 
ATOM      3  C   UNL     1      -0.245  21.982  49.301  1.00  0.00     0.004 C 
ATOM      4  C   UNL     1       0.745  22.872  50.039  1.00  0.00     0.005 C 
ATOM      5  C   UNL     1      -0.091  23.821  50.923  1.00  0.00     0.002 C 
ATOM      6  C   UNL     1      -1.556  23.684  50.442  1.00  0.00    -0.020 C 
ATOM      7  C   UNL     1      -2.277  22.960  51.585  1.00  0.00     0.016 C 
ATOM      8  C   UNL     1      -1.648  23.608  52.801  1.00  0.00     0.023 C 
ATOM      9  C   UNL     1      -0.125  23.568  52.474  1.00  0.00    -0.025 C 
ATOM     10  C   UNL     1       0.443  22.190  52.913  1.00  0.00     0.012 C 
ATOM     11  C   UNL     1       0.680  24.652  53.232  1.00  0.00     0.012 C 
ATOM     12  C   UNL     1      -2.195  25.032  52.887  1.00  0.00    -0.045 C 
ATOM     13  C   UNL     1      -2.423  25.579  54.093  1.00  0.00     0.011 C 
ATOM     14  C   UNL     1      -2.315  25.888  51.622  1.00  0.00     0.140 C 
ATOM     15  C   UNL     1      -2.244  25.075  50.295  1.00  0.00     0.044 C 
ENDROOT
BRANCH  14  16
ATOM     16  O   UNL     1      -3.529  26.599  51.641  1.00  0.00    -0.389 OA
ATOM     17  H   UNL     1      -4.246  25.973  51.359  1.00  0.00     0.211 HD
ENDBRANCH  14  16
TORSDOF 1
ENDMDL
MODEL 9
REMARK VINA RESULT:    -5.140      5.876      8.597
REMARK INTER + INTRA:          -5.291
REMARK INTER:                  -5.291
REMARK INTRA:                   0.000
REMARK UNBOUND:                 0.000
REMARK SMILES C=C1[C@H](O)C[C@]23C[C@H]1C(C)(C)[C@H]2CC[C@@H]3C
REMARK SMILES IDX 16 1 15 2 14 3 13 4 12 5 6 6 7 7 8 8 9 9 10 10 11 11 2 12
REMARK SMILES IDX 1 13 3 14 5 15 4 16
REMARK H PARENT 4 17
REMARK Flexibility Score: inf
ROOT
ATOM      1  C   UNL     1       6.123  20.061  42.579  1.00  0.00     0.008 C 
ATOM      2  C   UNL     1       6.626  18.651  42.941  1.00  0.00    -0.008 C 
ATOM      3  C   UNL     1       8.152  18.645  43.042  1.00  0.00     0.004 C 
ATOM      4  C   UNL     1       8.470  18.973  44.494  1.00  0.00     0.005 C 
ATOM      5  C   UNL     1       7.280  18.461  45.332  1.00  0.00     0.002 C 
ATOM      6  C   UNL     1       6.149  18.135  44.326  1.00  0.00    -0.020 C 
ATOM      7  C   UNL     1       6.040  16.607  44.341  1.00  0.00     0.016 C 
ATOM      8  C   UNL     1       6.230  16.302  45.813  1.00  0.00     0.023 C 
ATOM      9  C   UNL     1       7.473  17.161  46.194  1.00  0.00    -0.025 C 
ATOM     10  C   UNL     1       8.758  16.353  45.860  1.00  0.00     0.012 C 
ATOM     11  C   UNL     1       7.530  17.497  47.704  1.00  0.00     0.012 C 
ATOM     12  C   UNL     1       4.960  16.752  46.534  1.00  0.00    -0.045 C 
ATOM     13  C   UNL     1       4.513  16.044  47.584  1.00  0.00     0.011 C 
ATOM     14  C   UNL     1       4.304  18.089  46.175  1.00  0.00     0.140 C 
ATOM     15  C   UNL     1       4.774  18.683  44.813  1.00  0.00     0.044 C 
ENDROOT
BRANCH  14  16
ATOM     16  O   UNL     1       2.906  17.938  46.134  1.00  0.00    -0.389 OA
ATOM     17  H   UNL     1       2.668  17.190  46.741  1.00  0.00     0.211 HD
ENDBRANCH  14  16
TORSDOF 1
ENDMDL
