MODEL 1
REMARK VINA RESULT:    -3.873      0.000      0.000
REMARK INTER + INTRA:         -15.337
REMARK INTER:                  -9.760
REMARK INTRA:                  -5.577
REMARK UNBOUND:                -5.577
REMARK SMILES CCCCCCCCCCCCCCCCCCCCCCCCCCCC(=O)[O-]
REMARK SMILES IDX 15 1 16 2 17 3 18 4 19 5 20 6 21 7 22 8 23 9 24 10 25 11
REMARK SMILES IDX 26 12 27 13 28 14 29 15 30 16 14 17 13 18 12 19 11 20 10 21
REMARK SMILES IDX 9 22 8 23 7 24 6 25 5 26 4 27 3 28 2 29 1 30
REMARK H PARENT
REMARK Flexibility Score: inf
ROOT
ATOM      1  C   UNL     1     172.810 176.964 181.580  1.00  0.00     0.000 C 
ENDROOT
BRANCH   1   2
ATOM      2  C   UNL     1     171.672 177.971 181.818  1.00  0.00     0.000 C 
BRANCH   2   3
ATOM      3  C   UNL     1     171.327 178.125 183.308  1.00  0.00     0.000 C 
BRANCH   3   4
ATOM      4  C   UNL     1     170.112 177.276 183.719  1.00  0.00     0.000 C 
BRANCH   4   5
ATOM      5  C   UNL     1     169.335 176.722 182.510  1.00  0.00     0.000 C 
BRANCH   5   6
ATOM      6  C   UNL     1     169.278 175.185 182.417  1.00  0.00     0.000 C 
BRANCH   6   7
ATOM      7  C   UNL     1     170.225 174.436 183.375  1.00  0.00     0.000 C 
BRANCH   7   8
ATOM      8  C   UNL     1     171.433 173.757 182.699  1.00  0.00     0.000 C 
BRANCH   8   9
ATOM      9  C   UNL     1     171.488 173.906 181.167  1.00  0.00     0.000 C 
BRANCH   9  10
ATOM     10  C   UNL     1     172.787 173.351 180.561  1.00  0.00     0.000 C 
BRANCH  10  11
ATOM     11  C   UNL     1     173.145 171.992 181.182  1.00  0.00     0.000 C 
BRANCH  11  12
ATOM     12  C   UNL     1     174.557 171.971 181.789  1.00  0.00     0.006 C 
BRANCH  12  13
ATOM     13  C   UNL     1     175.590 172.683 180.904  1.00  0.00     0.053 C 
BRANCH  13  14
ATOM     14  C   UNL     1     176.977 172.242 181.255  1.00  0.00     0.041 C 
ATOM     15  O   UNL     1     177.295 171.027 181.174  1.00  0.00    -0.550 OA
ATOM     16  O   UNL     1     177.917 173.174 181.681  1.00  0.00    -0.550 OA
ENDBRANCH  13  14
ENDBRANCH  12  13
ENDBRANCH  11  12
ENDBRANCH  10  11
ENDBRANCH   9  10
ENDBRANCH   8   9
ENDBRANCH   7   8
ENDBRANCH   6   7
ENDBRANCH   5   6
ENDBRANCH   4   5
ENDBRANCH   3   4
ENDBRANCH   2   3
ENDBRANCH   1   2
BRANCH   1  17
ATOM     17  C   UNL     1     173.811 176.903 182.750  1.00  0.00     0.000 C 
BRANCH  17  18
ATOM     18  C   UNL     1     174.693 175.636 182.802  1.00  0.00     0.000 C 
BRANCH  18  19
ATOM     19  C   UNL     1     176.152 175.878 183.225  1.00  0.00     0.000 C 
BRANCH  19  20
ATOM     20  C   UNL     1     176.797 177.056 182.477  1.00  0.00     0.000 C 
BRANCH  20  21
ATOM     21  C   UNL     1     177.179 176.689 181.034  1.00  0.00     0.000 C 
BRANCH  21  22
ATOM     22  C   UNL     1     176.794 177.791 180.029  1.00  0.00    -0.000 C 
BRANCH  22  23
ATOM     23  C   UNL     1     175.511 177.449 179.241  1.00  0.00    -0.000 C 
BRANCH  23  24
ATOM     24  C   UNL     1     175.242 175.938 179.116  1.00  0.00    -0.000 C 
BRANCH  24  25
ATOM     25  C   UNL     1     174.742 175.537 177.722  1.00  0.00    -0.000 C 
BRANCH  25  26
ATOM     26  C   UNL     1     174.032 176.708 177.027  1.00  0.00    -0.000 C 
BRANCH  26  27
ATOM     27  C   UNL     1     172.552 176.409 176.730  1.00  0.00    -0.000 C 
BRANCH  27  28
ATOM     28  C   UNL     1     171.972 175.323 177.653  1.00  0.00    -0.000 C 
BRANCH  28  29
ATOM     29  C   UNL     1     170.452 175.459 177.841  1.00  0.00    -0.003 C 
ATOM     30  C   UNL     1     170.073 176.498 178.895  1.00  0.00     0.004 C 
ENDBRANCH  28  29
ENDBRANCH  27  28
ENDBRANCH  26  27
ENDBRANCH  25  26
ENDBRANCH  24  25
ENDBRANCH  23  24
ENDBRANCH  22  23
ENDBRANCH  21  22
ENDBRANCH  20  21
ENDBRANCH  19  20
ENDBRANCH  18  19
ENDBRANCH  17  18
ENDBRANCH   1  17
TORSDOF 26
ENDMDL
MODEL 2
REMARK VINA RESULT:    -3.767      1.445      5.603
REMARK INTER + INTRA:         -15.069
REMARK INTER:                  -9.813
REMARK INTRA:                  -5.257
REMARK UNBOUND:                -5.577
REMARK SMILES CCCCCCCCCCCCCCCCCCCCCCCCCCCC(=O)[O-]
REMARK SMILES IDX 15 1 16 2 17 3 18 4 19 5 20 6 21 7 22 8 23 9 24 10 25 11
REMARK SMILES IDX 26 12 27 13 28 14 29 15 30 16 14 17 13 18 12 19 11 20 10 21
REMARK SMILES IDX 9 22 8 23 7 24 6 25 5 26 4 27 3 28 2 29 1 30
REMARK H PARENT
REMARK Flexibility Score: inf
ROOT
ATOM      1  C   UNL     1     174.397 174.508 182.986  1.00  0.00     0.000 C 
ENDROOT
BRANCH   1   2
ATOM      2  C   UNL     1     175.769 175.176 183.182  1.00  0.00     0.000 C 
BRANCH   2   3
ATOM      3  C   UNL     1     176.872 174.507 182.345  1.00  0.00     0.000 C 
BRANCH   3   4
ATOM      4  C   UNL     1     177.282 175.357 181.131  1.00  0.00     0.000 C 
BRANCH   4   5
ATOM      5  C   UNL     1     177.051 176.863 181.350  1.00  0.00     0.000 C 
BRANCH   5   6
ATOM      6  C   UNL     1     176.839 177.688 180.066  1.00  0.00     0.000 C 
BRANCH   6   7
ATOM      7  C   UNL     1     175.576 177.327 179.259  1.00  0.00     0.000 C 
BRANCH   7   8
ATOM      8  C   UNL     1     175.815 176.387 178.061  1.00  0.00     0.000 C 
BRANCH   8   9
ATOM      9  C   UNL     1     174.707 175.344 177.822  1.00  0.00     0.000 C 
BRANCH   9  10
ATOM     10  C   UNL     1     173.978 174.944 179.114  1.00  0.00     0.000 C 
BRANCH  10  11
ATOM     11  C   UNL     1     173.881 173.416 179.238  1.00  0.00     0.000 C 
BRANCH  11  12
ATOM     12  C   UNL     1     175.242 172.755 179.511  1.00  0.00     0.006 C 
BRANCH  12  13
ATOM     13  C   UNL     1     175.160 171.655 180.579  1.00  0.00     0.053 C 
BRANCH  13  14
ATOM     14  C   UNL     1     176.433 170.868 180.622  1.00  0.00     0.041 C 
ATOM     15  O   UNL     1     177.521 171.437 180.896  1.00  0.00    -0.550 OA
ATOM     16  O   UNL     1     176.417 169.504 180.352  1.00  0.00    -0.550 OA
ENDBRANCH  13  14
ENDBRANCH  12  13
ENDBRANCH  11  12
ENDBRANCH  10  11
ENDBRANCH   9  10
ENDBRANCH   8   9
ENDBRANCH   7   8
ENDBRANCH   6   7
ENDBRANCH   5   6
ENDBRANCH   4   5
ENDBRANCH   3   4
ENDBRANCH   2   3
ENDBRANCH   1   2
BRANCH   1  17
ATOM     17  C   UNL     1     173.327 175.480 182.453  1.00  0.00     0.000 C 
BRANCH  17  18
ATOM     18  C   UNL     1     173.692 176.979 182.536  1.00  0.00     0.000 C 
BRANCH  18  19
ATOM     19  C   UNL     1     172.509 177.921 182.818  1.00  0.00     0.000 C 
BRANCH  19  20
ATOM     20  C   UNL     1     171.254 177.550 182.013  1.00  0.00     0.000 C 
BRANCH  20  21
ATOM     21  C   UNL     1     170.014 177.395 182.908  1.00  0.00     0.000 C 
BRANCH  21  22
ATOM     22  C   UNL     1     168.749 177.050 182.100  1.00  0.00    -0.000 C 
BRANCH  22  23
ATOM     23  C   UNL     1     169.011 177.017 180.579  1.00  0.00    -0.000 C 
BRANCH  23  24
ATOM     24  C   UNL     1     168.302 175.861 179.850  1.00  0.00    -0.000 C 
BRANCH  24  25
ATOM     25  C   UNL     1     168.675 174.484 180.415  1.00  0.00    -0.000 C 
BRANCH  25  26
ATOM     26  C   UNL     1     170.187 174.235 180.320  1.00  0.00    -0.000 C 
BRANCH  26  27
ATOM     27  C   UNL     1     170.734 173.449 181.525  1.00  0.00    -0.000 C 
BRANCH  27  28
ATOM     28  C   UNL     1     169.747 173.417 182.706  1.00  0.00    -0.000 C 
BRANCH  28  29
ATOM     29  C   UNL     1     170.240 174.237 183.909  1.00  0.00    -0.003 C 
ATOM     30  C   UNL     1     171.051 173.407 184.902  1.00  0.00     0.004 C 
ENDBRANCH  28  29
ENDBRANCH  27  28
ENDBRANCH  26  27
ENDBRANCH  25  26
ENDBRANCH  24  25
ENDBRANCH  23  24
ENDBRANCH  22  23
ENDBRANCH  21  22
ENDBRANCH  20  21
ENDBRANCH  19  20
ENDBRANCH  18  19
ENDBRANCH  17  18
ENDBRANCH   1  17
TORSDOF 26
ENDMDL
MODEL 3
REMARK VINA RESULT:    -3.746      6.130      8.213
REMARK INTER + INTRA:         -15.017
REMARK INTER:                 -11.605
REMARK INTRA:                  -3.412
REMARK UNBOUND:                -5.577
REMARK SMILES CCCCCCCCCCCCCCCCCCCCCCCCCCCC(=O)[O-]
REMARK SMILES IDX 15 1 16 2 17 3 18 4 19 5 20 6 21 7 22 8 23 9 24 10 25 11
REMARK SMILES IDX 26 12 27 13 28 14 29 15 30 16 14 17 13 18 12 19 11 20 10 21
REMARK SMILES IDX 9 22 8 23 7 24 6 25 5 26 4 27 3 28 2 29 1 30
REMARK H PARENT
REMARK Flexibility Score: inf
ROOT
ATOM      1  C   UNL     1     171.684 175.515 182.490  1.00  0.00     0.000 C 
ENDROOT
BRANCH   1   2
ATOM      2  C   UNL     1     170.186 175.532 182.839  1.00  0.00     0.000 C 
BRANCH   2   3
ATOM      3  C   UNL     1     169.586 176.946 182.784  1.00  0.00     0.000 C 
BRANCH   3   4
ATOM      4  C   UNL     1     168.432 177.054 181.773  1.00  0.00     0.000 C 
BRANCH   4   5
ATOM      5  C   UNL     1     167.830 175.686 181.406  1.00  0.00     0.000 C 
BRANCH   5   6
ATOM      6  C   UNL     1     166.348 175.499 181.785  1.00  0.00     0.000 C 
BRANCH   6   7
ATOM      7  C   UNL     1     165.383 176.536 181.177  1.00  0.00     0.000 C 
BRANCH   7   8
ATOM      8  C   UNL     1     164.843 177.585 182.170  1.00  0.00     0.000 C 
BRANCH   8   9
ATOM      9  C   UNL     1     163.636 177.125 183.008  1.00  0.00     0.000 C 
BRANCH   9  10
ATOM     10  C   UNL     1     162.796 176.050 182.303  1.00  0.00     0.000 C 
BRANCH  10  11
ATOM     11  C   UNL     1     161.308 176.431 182.299  1.00  0.00     0.000 C 
BRANCH  11  12
ATOM     12  C   UNL     1     160.388 175.234 182.592  1.00  0.00     0.006 C 
BRANCH  12  13
ATOM     13  C   UNL     1     160.841 173.954 181.876  1.00  0.00     0.053 C 
BRANCH  13  14
ATOM     14  C   UNL     1     159.691 173.317 181.158  1.00  0.00     0.041 C 
ATOM     15  O   UNL     1     159.385 172.119 181.389  1.00  0.00    -0.550 OA
ATOM     16  O   UNL     1     158.963 174.048 180.226  1.00  0.00    -0.550 OA
ENDBRANCH  13  14
ENDBRANCH  12  13
ENDBRANCH  11  12
ENDBRANCH  10  11
ENDBRANCH   9  10
ENDBRANCH   8   9
ENDBRANCH   7   8
ENDBRANCH   6   7
ENDBRANCH   5   6
ENDBRANCH   4   5
ENDBRANCH   3   4
ENDBRANCH   2   3
ENDBRANCH   1   2
BRANCH   1  17
ATOM     17  C   UNL     1     172.215 176.897 182.064  1.00  0.00     0.000 C 
BRANCH  17  18
ATOM     18  C   UNL     1     173.667 177.209 182.487  1.00  0.00     0.000 C 
BRANCH  18  19
ATOM     19  C   UNL     1     174.547 175.974 182.747  1.00  0.00     0.000 C 
BRANCH  19  20
ATOM     20  C   UNL     1     175.937 176.341 183.290  1.00  0.00     0.000 C 
BRANCH  20  21
ATOM     21  C   UNL     1     176.995 176.413 182.177  1.00  0.00     0.000 C 
BRANCH  21  22
ATOM     22  C   UNL     1     177.352 177.864 181.802  1.00  0.00    -0.000 C 
BRANCH  22  23
ATOM     23  C   UNL     1     177.337 178.099 180.276  1.00  0.00    -0.000 C 
BRANCH  23  24
ATOM     24  C   UNL     1     176.455 177.102 179.501  1.00  0.00    -0.000 C 
BRANCH  24  25
ATOM     25  C   UNL     1     175.087 177.686 179.125  1.00  0.00    -0.000 C 
BRANCH  25  26
ATOM     26  C   UNL     1     174.140 176.594 178.607  1.00  0.00    -0.000 C 
BRANCH  26  27
ATOM     27  C   UNL     1     174.730 175.181 178.754  1.00  0.00    -0.000 C 
BRANCH  27  28
ATOM     28  C   UNL     1     173.879 174.277 179.663  1.00  0.00    -0.000 C 
BRANCH  28  29
ATOM     29  C   UNL     1     174.730 173.284 180.471  1.00  0.00    -0.003 C 
ATOM     30  C   UNL     1     176.223 173.393 180.165  1.00  0.00     0.004 C 
ENDBRANCH  28  29
ENDBRANCH  27  28
ENDBRANCH  26  27
ENDBRANCH  25  26
ENDBRANCH  24  25
ENDBRANCH  23  24
ENDBRANCH  22  23
ENDBRANCH  21  22
ENDBRANCH  20  21
ENDBRANCH  19  20
ENDBRANCH  18  19
ENDBRANCH  17  18
ENDBRANCH   1  17
TORSDOF 26
ENDMDL
MODEL 4
REMARK VINA RESULT:    -3.722      3.057      5.407
REMARK INTER + INTRA:         -14.956
REMARK INTER:                  -9.472
REMARK INTRA:                  -5.484
REMARK UNBOUND:                -5.577
REMARK SMILES CCCCCCCCCCCCCCCCCCCCCCCCCCCC(=O)[O-]
REMARK SMILES IDX 15 1 16 2 17 3 18 4 19 5 20 6 21 7 22 8 23 9 24 10 25 11
REMARK SMILES IDX 26 12 27 13 28 14 29 15 30 16 14 17 13 18 12 19 11 20 10 21
REMARK SMILES IDX 9 22 8 23 7 24 6 25 5 26 4 27 3 28 2 29 1 30
REMARK H PARENT
REMARK Flexibility Score: inf
ROOT
ATOM      1  C   UNL     1     174.013 175.291 179.540  1.00  0.00     0.000 C 
ENDROOT
BRANCH   1   2
ATOM      2  C   UNL     1     173.065 175.552 180.723  1.00  0.00     0.000 C 
BRANCH   2   3
ATOM      3  C   UNL     1     172.853 177.051 180.986  1.00  0.00     0.000 C 
BRANCH   3   4
ATOM      4  C   UNL     1     172.943 177.402 182.480  1.00  0.00     0.000 C 
BRANCH   4   5
ATOM      5  C   UNL     1     171.653 178.044 183.022  1.00  0.00     0.000 C 
BRANCH   5   6
ATOM      6  C   UNL     1     170.347 177.328 182.623  1.00  0.00     0.000 C 
BRANCH   6   7
ATOM      7  C   UNL     1     170.160 175.925 183.232  1.00  0.00     0.000 C 
BRANCH   7   8
ATOM      8  C   UNL     1     169.702 174.839 182.238  1.00  0.00     0.000 C 
BRANCH   8   9
ATOM      9  C   UNL     1     168.842 175.351 181.067  1.00  0.00     0.000 C 
BRANCH   9  10
ATOM     10  C   UNL     1     169.498 175.114 179.698  1.00  0.00     0.000 C 
BRANCH  10  11
ATOM     11  C   UNL     1     169.835 176.448 179.013  1.00  0.00     0.000 C 
BRANCH  11  12
ATOM     12  C   UNL     1     170.813 176.281 177.840  1.00  0.00     0.006 C 
BRANCH  12  13
ATOM     13  C   UNL     1     171.003 177.578 177.041  1.00  0.00     0.053 C 
BRANCH  13  14
ATOM     14  C   UNL     1     170.583 177.386 175.617  1.00  0.00     0.041 C 
ATOM     15  O   UNL     1     169.387 177.577 175.277  1.00  0.00    -0.550 OA
ATOM     16  O   UNL     1     171.515 176.987 174.665  1.00  0.00    -0.550 OA
ENDBRANCH  13  14
ENDBRANCH  12  13
ENDBRANCH  11  12
ENDBRANCH  10  11
ENDBRANCH   9  10
ENDBRANCH   8   9
ENDBRANCH   7   8
ENDBRANCH   6   7
ENDBRANCH   5   6
ENDBRANCH   4   5
ENDBRANCH   3   4
ENDBRANCH   2   3
ENDBRANCH   1   2
BRANCH   1  17
ATOM     17  C   UNL     1     174.752 176.560 179.074  1.00  0.00     0.000 C 
BRANCH  17  18
ATOM     18  C   UNL     1     176.284 176.422 178.935  1.00  0.00     0.000 C 
BRANCH  18  19
ATOM     19  C   UNL     1     177.105 177.404 179.790  1.00  0.00     0.000 C 
BRANCH  19  20
ATOM     20  C   UNL     1     176.439 177.711 181.140  1.00  0.00     0.000 C 
BRANCH  20  21
ATOM     21  C   UNL     1     177.171 177.041 182.315  1.00  0.00     0.000 C 
BRANCH  21  22
ATOM     22  C   UNL     1     176.209 176.273 183.241  1.00  0.00    -0.000 C 
BRANCH  22  23
ATOM     23  C   UNL     1     176.062 174.790 182.839  1.00  0.00    -0.000 C 
BRANCH  23  24
ATOM     24  C   UNL     1     177.206 174.270 181.949  1.00  0.00    -0.000 C 
BRANCH  24  25
ATOM     25  C   UNL     1     177.044 172.790 181.576  1.00  0.00    -0.000 C 
BRANCH  25  26
ATOM     26  C   UNL     1     176.304 172.631 180.240  1.00  0.00    -0.000 C 
BRANCH  26  27
ATOM     27  C   UNL     1     175.351 171.423 180.233  1.00  0.00    -0.000 C 
BRANCH  27  28
ATOM     28  C   UNL     1     174.547 171.297 181.539  1.00  0.00    -0.000 C 
BRANCH  28  29
ATOM     29  C   UNL     1     173.165 171.964 181.448  1.00  0.00    -0.003 C 
ATOM     30  C   UNL     1     172.863 172.872 182.640  1.00  0.00     0.004 C 
ENDBRANCH  28  29
ENDBRANCH  27  28
ENDBRANCH  26  27
ENDBRANCH  25  26
ENDBRANCH  24  25
ENDBRANCH  23  24
ENDBRANCH  22  23
ENDBRANCH  21  22
ENDBRANCH  20  21
ENDBRANCH  19  20
ENDBRANCH  18  19
ENDBRANCH  17  18
ENDBRANCH   1  17
TORSDOF 26
ENDMDL
MODEL 5
REMARK VINA RESULT:    -3.691      5.557      7.384
REMARK INTER + INTRA:         -14.878
REMARK INTER:                 -10.885
REMARK INTRA:                  -3.993
REMARK UNBOUND:                -5.577
REMARK SMILES CCCCCCCCCCCCCCCCCCCCCCCCCCCC(=O)[O-]
REMARK SMILES IDX 15 1 16 2 17 3 18 4 19 5 20 6 21 7 22 8 23 9 24 10 25 11
REMARK SMILES IDX 26 12 27 13 28 14 29 15 30 16 14 17 13 18 12 19 11 20 10 21
REMARK SMILES IDX 9 22 8 23 7 24 6 25 5 26 4 27 3 28 2 29 1 30
REMARK H PARENT
REMARK Flexibility Score: inf
ROOT
ATOM      1  C   UNL     1     173.031 175.438 181.888  1.00  0.00     0.000 C 
ENDROOT
BRANCH   1   2
ATOM      2  C   UNL     1     173.012 176.976 181.909  1.00  0.00     0.000 C 
BRANCH   2   3
ATOM      3  C   UNL     1     171.628 177.541 182.266  1.00  0.00     0.000 C 
BRANCH   3   4
ATOM      4  C   UNL     1     170.695 176.472 182.859  1.00  0.00     0.000 C 
BRANCH   4   5
ATOM      5  C   UNL     1     169.249 176.972 183.032  1.00  0.00     0.000 C 
BRANCH   5   6
ATOM      6  C   UNL     1     168.391 176.954 181.752  1.00  0.00     0.000 C 
BRANCH   6   7
ATOM      7  C   UNL     1     167.085 177.768 181.829  1.00  0.00     0.000 C 
BRANCH   7   8
ATOM      8  C   UNL     1     166.012 177.380 180.793  1.00  0.00     0.000 C 
BRANCH   8   9
ATOM      9  C   UNL     1     164.589 177.874 181.114  1.00  0.00     0.000 C 
BRANCH   9  10
ATOM     10  C   UNL     1     164.110 177.446 182.509  1.00  0.00     0.000 C 
BRANCH  10  11
ATOM     11  C   UNL     1     164.163 175.918 182.662  1.00  0.00     0.000 C 
BRANCH  11  12
ATOM     12  C   UNL     1     162.955 175.215 182.020  1.00  0.00     0.006 C 
BRANCH  12  13
ATOM     13  C   UNL     1     161.616 175.808 182.480  1.00  0.00     0.053 C 
BRANCH  13  14
ATOM     14  C   UNL     1     160.531 174.779 182.403  1.00  0.00     0.041 C 
ATOM     15  O   UNL     1     160.709 173.633 182.889  1.00  0.00    -0.550 OA
ATOM     16  O   UNL     1     159.324 175.086 181.784  1.00  0.00    -0.550 OA
ENDBRANCH  13  14
ENDBRANCH  12  13
ENDBRANCH  11  12
ENDBRANCH  10  11
ENDBRANCH   9  10
ENDBRANCH   8   9
ENDBRANCH   7   8
ENDBRANCH   6   7
ENDBRANCH   5   6
ENDBRANCH   4   5
ENDBRANCH   3   4
ENDBRANCH   2   3
ENDBRANCH   1   2
BRANCH   1  17
ATOM     17  C   UNL     1     174.061 174.837 182.864  1.00  0.00     0.000 C 
BRANCH  17  18
ATOM     18  C   UNL     1     175.309 174.208 182.208  1.00  0.00     0.000 C 
BRANCH  18  19
ATOM     19  C   UNL     1     176.638 174.910 182.536  1.00  0.00     0.000 C 
BRANCH  19  20
ATOM     20  C   UNL     1     176.436 176.313 183.128  1.00  0.00     0.000 C 
BRANCH  20  21
ATOM     21  C   UNL     1     176.698 177.423 182.097  1.00  0.00     0.000 C 
BRANCH  21  22
ATOM     22  C   UNL     1     177.028 176.859 180.702  1.00  0.00    -0.000 C 
BRANCH  22  23
ATOM     23  C   UNL     1     175.923 177.160 179.668  1.00  0.00    -0.000 C 
BRANCH  23  24
ATOM     24  C   UNL     1     175.437 175.919 178.896  1.00  0.00    -0.000 C 
BRANCH  24  25
ATOM     25  C   UNL     1     174.011 176.078 178.352  1.00  0.00    -0.000 C 
BRANCH  25  26
ATOM     26  C   UNL     1     173.624 177.558 178.229  1.00  0.00    -0.000 C 
BRANCH  26  27
ATOM     27  C   UNL     1     172.211 177.754 177.650  1.00  0.00    -0.000 C 
BRANCH  27  28
ATOM     28  C   UNL     1     171.109 177.562 178.706  1.00  0.00    -0.000 C 
BRANCH  28  29
ATOM     29  C   UNL     1     170.194 176.367 178.393  1.00  0.00    -0.003 C 
ATOM     30  C   UNL     1     170.467 175.157 179.286  1.00  0.00     0.004 C 
ENDBRANCH  28  29
ENDBRANCH  27  28
ENDBRANCH  26  27
ENDBRANCH  25  26
ENDBRANCH  24  25
ENDBRANCH  23  24
ENDBRANCH  22  23
ENDBRANCH  21  22
ENDBRANCH  20  21
ENDBRANCH  19  20
ENDBRANCH  18  19
ENDBRANCH  17  18
ENDBRANCH   1  17
TORSDOF 26
ENDMDL
MODEL 6
REMARK VINA RESULT:    -3.685      1.457      5.110
REMARK INTER + INTRA:         -14.863
REMARK INTER:                  -9.848
REMARK INTRA:                  -5.014
REMARK UNBOUND:                -5.577
REMARK SMILES CCCCCCCCCCCCCCCCCCCCCCCCCCCC(=O)[O-]
REMARK SMILES IDX 15 1 16 2 17 3 18 4 19 5 20 6 21 7 22 8 23 9 24 10 25 11
REMARK SMILES IDX 26 12 27 13 28 14 29 15 30 16 14 17 13 18 12 19 11 20 10 21
REMARK SMILES IDX 9 22 8 23 7 24 6 25 5 26 4 27 3 28 2 29 1 30
REMARK H PARENT
REMARK Flexibility Score: inf
ROOT
ATOM      1  C   UNL     1     174.128 174.505 182.881  1.00  0.00     0.000 C 
ENDROOT
BRANCH   1   2
ATOM      2  C   UNL     1     175.518 175.094 183.179  1.00  0.00     0.000 C 
BRANCH   2   3
ATOM      3  C   UNL     1     176.632 174.396 182.382  1.00  0.00     0.000 C 
BRANCH   3   4
ATOM      4  C   UNL     1     177.291 175.331 181.354  1.00  0.00     0.000 C 
BRANCH   4   5
ATOM      5  C   UNL     1     176.862 176.800 181.523  1.00  0.00     0.000 C 
BRANCH   5   6
ATOM      6  C   UNL     1     176.741 177.603 180.213  1.00  0.00     0.000 C 
BRANCH   6   7
ATOM      7  C   UNL     1     175.515 177.255 179.346  1.00  0.00     0.000 C 
BRANCH   7   8
ATOM      8  C   UNL     1     175.825 176.437 178.076  1.00  0.00     0.000 C 
BRANCH   8   9
ATOM      9  C   UNL     1     174.967 175.171 177.893  1.00  0.00     0.000 C 
BRANCH   9  10
ATOM     10  C   UNL     1     174.524 174.554 179.228  1.00  0.00     0.000 C 
BRANCH  10  11
ATOM     11  C   UNL     1     174.528 173.019 179.151  1.00  0.00     0.000 C 
BRANCH  11  12
ATOM     12  C   UNL     1     175.846 172.404 179.648  1.00  0.00     0.006 C 
BRANCH  12  13
ATOM     13  C   UNL     1     175.683 170.943 180.092  1.00  0.00     0.053 C 
BRANCH  13  14
ATOM     14  C   UNL     1     176.832 170.525 180.957  1.00  0.00     0.041 C 
ATOM     15  O   UNL     1     176.899 170.914 182.152  1.00  0.00    -0.550 OA
ATOM     16  O   UNL     1     177.833 169.712 180.438  1.00  0.00    -0.550 OA
ENDBRANCH  13  14
ENDBRANCH  12  13
ENDBRANCH  11  12
ENDBRANCH  10  11
ENDBRANCH   9  10
ENDBRANCH   8   9
ENDBRANCH   7   8
ENDBRANCH   6   7
ENDBRANCH   5   6
ENDBRANCH   4   5
ENDBRANCH   3   4
ENDBRANCH   2   3
ENDBRANCH   1   2
BRANCH   1  17
ATOM     17  C   UNL     1     173.147 175.545 182.304  1.00  0.00     0.000 C 
BRANCH  17  18
ATOM     18  C   UNL     1     173.560 177.021 182.492  1.00  0.00     0.000 C 
BRANCH  18  19
ATOM     19  C   UNL     1     172.446 177.947 183.009  1.00  0.00     0.000 C 
BRANCH  19  20
ATOM     20  C   UNL     1     171.082 177.644 182.369  1.00  0.00     0.000 C 
BRANCH  20  21
ATOM     21  C   UNL     1     170.108 176.986 183.360  1.00  0.00     0.000 C 
BRANCH  21  22
ATOM     22  C   UNL     1     169.523 175.669 182.817  1.00  0.00    -0.000 C 
BRANCH  22  23
ATOM     23  C   UNL     1     168.589 175.892 181.608  1.00  0.00    -0.000 C 
BRANCH  23  24
ATOM     24  C   UNL     1     168.820 174.901 180.452  1.00  0.00    -0.000 C 
BRANCH  24  25
ATOM     25  C   UNL     1     170.192 175.072 179.787  1.00  0.00    -0.000 C 
BRANCH  25  26
ATOM     26  C   UNL     1     170.265 176.384 178.993  1.00  0.00    -0.000 C 
BRANCH  26  27
ATOM     27  C   UNL     1     171.703 176.917 178.863  1.00  0.00    -0.000 C 
BRANCH  27  28
ATOM     28  C   UNL     1     171.823 178.043 177.820  1.00  0.00    -0.000 C 
BRANCH  28  29
ATOM     29  C   UNL     1     172.427 177.555 176.494  1.00  0.00    -0.003 C 
ATOM     30  C   UNL     1     172.004 176.131 176.135  1.00  0.00     0.004 C 
ENDBRANCH  28  29
ENDBRANCH  27  28
ENDBRANCH  26  27
ENDBRANCH  25  26
ENDBRANCH  24  25
ENDBRANCH  23  24
ENDBRANCH  22  23
ENDBRANCH  21  22
ENDBRANCH  20  21
ENDBRANCH  19  20
ENDBRANCH  18  19
ENDBRANCH  17  18
ENDBRANCH   1  17
TORSDOF 26
ENDMDL
MODEL 7
REMARK VINA RESULT:    -3.653      2.658      5.069
REMARK INTER + INTRA:         -14.783
REMARK INTER:                  -9.713
REMARK INTRA:                  -5.069
REMARK UNBOUND:                -5.577
REMARK SMILES CCCCCCCCCCCCCCCCCCCCCCCCCCCC(=O)[O-]
REMARK SMILES IDX 15 1 16 2 17 3 18 4 19 5 20 6 21 7 22 8 23 9 24 10 25 11
REMARK SMILES IDX 26 12 27 13 28 14 29 15 30 16 14 17 13 18 12 19 11 20 10 21
REMARK SMILES IDX 9 22 8 23 7 24 6 25 5 26 4 27 3 28 2 29 1 30
REMARK H PARENT
REMARK Flexibility Score: inf
ROOT
ATOM      1  C   UNL     1     174.810 175.826 182.822  1.00  0.00     0.000 C 
ENDROOT
BRANCH   1   2
ATOM      2  C   UNL     1     173.832 177.013 182.871  1.00  0.00     0.000 C 
BRANCH   2   3
ATOM      3  C   UNL     1     173.082 177.211 181.544  1.00  0.00     0.000 C 
BRANCH   3   4
ATOM      4  C   UNL     1     171.715 177.888 181.739  1.00  0.00     0.000 C 
BRANCH   4   5
ATOM      5  C   UNL     1     171.057 177.528 183.083  1.00  0.00     0.000 C 
BRANCH   5   6
ATOM      6  C   UNL     1     169.613 176.998 182.985  1.00  0.00     0.000 C 
BRANCH   6   7
ATOM      7  C   UNL     1     169.487 175.472 182.813  1.00  0.00     0.000 C 
BRANCH   7   8
ATOM      8  C   UNL     1     170.609 174.647 183.475  1.00  0.00     0.000 C 
BRANCH   8   9
ATOM      9  C   UNL     1     171.123 173.460 182.639  1.00  0.00     0.000 C 
BRANCH   9  10
ATOM     10  C   UNL     1     171.973 173.901 181.438  1.00  0.00     0.000 C 
BRANCH  10  11
ATOM     11  C   UNL     1     171.150 173.867 180.141  1.00  0.00     0.000 C 
BRANCH  11  12
ATOM     12  C   UNL     1     171.535 174.991 179.165  1.00  0.00     0.006 C 
BRANCH  12  13
ATOM     13  C   UNL     1     170.423 176.037 179.002  1.00  0.00     0.053 C 
BRANCH  13  14
ATOM     14  C   UNL     1     170.815 177.069 177.991  1.00  0.00     0.041 C 
ATOM     15  O   UNL     1     170.315 177.047 176.837  1.00  0.00    -0.550 OA
ATOM     16  O   UNL     1     171.741 178.052 178.323  1.00  0.00    -0.550 OA
ENDBRANCH  13  14
ENDBRANCH  12  13
ENDBRANCH  11  12
ENDBRANCH  10  11
ENDBRANCH   9  10
ENDBRANCH   8   9
ENDBRANCH   7   8
ENDBRANCH   6   7
ENDBRANCH   5   6
ENDBRANCH   4   5
ENDBRANCH   3   4
ENDBRANCH   2   3
ENDBRANCH   1   2
BRANCH   1  17
ATOM     17  C   UNL     1     176.234 176.202 183.275  1.00  0.00     0.000 C 
BRANCH  17  18
ATOM     18  C   UNL     1     177.247 176.454 182.137  1.00  0.00     0.000 C 
BRANCH  18  19
ATOM     19  C   UNL     1     177.396 177.925 181.714  1.00  0.00     0.000 C 
BRANCH  19  20
ATOM     20  C   UNL     1     177.300 178.115 180.192  1.00  0.00     0.000 C 
BRANCH  20  21
ATOM     21  C   UNL     1     176.042 177.457 179.602  1.00  0.00     0.000 C 
BRANCH  21  22
ATOM     22  C   UNL     1     176.384 176.351 178.586  1.00  0.00    -0.000 C 
BRANCH  22  23
ATOM     23  C   UNL     1     175.236 175.332 178.415  1.00  0.00    -0.000 C 
BRANCH  23  24
ATOM     24  C   UNL     1     175.044 174.402 179.627  1.00  0.00    -0.000 C 
BRANCH  24  25
ATOM     25  C   UNL     1     176.253 173.491 179.876  1.00  0.00    -0.000 C 
BRANCH  25  26
ATOM     26  C   UNL     1     176.187 172.846 181.268  1.00  0.00    -0.000 C 
BRANCH  26  27
ATOM     27  C   UNL     1     175.168 171.695 181.338  1.00  0.00    -0.000 C 
BRANCH  27  28
ATOM     28  C   UNL     1     175.828 170.342 181.658  1.00  0.00    -0.000 C 
BRANCH  28  29
ATOM     29  C   UNL     1     176.938 169.977 180.660  1.00  0.00    -0.003 C 
ATOM     30  C   UNL     1     177.690 168.704 181.046  1.00  0.00     0.004 C 
ENDBRANCH  28  29
ENDBRANCH  27  28
ENDBRANCH  26  27
ENDBRANCH  25  26
ENDBRANCH  24  25
ENDBRANCH  23  24
ENDBRANCH  22  23
ENDBRANCH  21  22
ENDBRANCH  20  21
ENDBRANCH  19  20
ENDBRANCH  18  19
ENDBRANCH  17  18
ENDBRANCH   1  17
TORSDOF 26
ENDMDL
MODEL 8
REMARK VINA RESULT:    -3.650      6.564      8.929
REMARK INTER + INTRA:         -14.774
REMARK INTER:                 -11.480
REMARK INTRA:                  -3.295
REMARK UNBOUND:                -5.577
REMARK SMILES CCCCCCCCCCCCCCCCCCCCCCCCCCCC(=O)[O-]
REMARK SMILES IDX 15 1 16 2 17 3 18 4 19 5 20 6 21 7 22 8 23 9 24 10 25 11
REMARK SMILES IDX 26 12 27 13 28 14 29 15 30 16 14 17 13 18 12 19 11 20 10 21
REMARK SMILES IDX 9 22 8 23 7 24 6 25 5 26 4 27 3 28 2 29 1 30
REMARK H PARENT
REMARK Flexibility Score: inf
ROOT
ATOM      1  C   UNL     1     170.867 176.516 182.733  1.00  0.00     0.000 C 
ENDROOT
BRANCH   1   2
ATOM      2  C   UNL     1     169.423 176.994 182.966  1.00  0.00     0.000 C 
BRANCH   2   3
ATOM      3  C   UNL     1     168.490 176.634 181.799  1.00  0.00     0.000 C 
BRANCH   3   4
ATOM      4  C   UNL     1     167.393 177.688 181.579  1.00  0.00     0.000 C 
BRANCH   4   5
ATOM      5  C   UNL     1     165.972 177.106 181.701  1.00  0.00     0.000 C 
BRANCH   5   6
ATOM      6  C   UNL     1     164.884 178.114 182.120  1.00  0.00     0.000 C 
BRANCH   6   7
ATOM      7  C   UNL     1     163.819 177.561 183.086  1.00  0.00     0.000 C 
BRANCH   7   8
ATOM      8  C   UNL     1     163.483 176.067 182.901  1.00  0.00     0.000 C 
BRANCH   8   9
ATOM      9  C   UNL     1     162.062 175.781 182.382  1.00  0.00     0.000 C 
BRANCH   9  10
ATOM     10  C   UNL     1     161.590 176.804 181.338  1.00  0.00     0.000 C 
BRANCH  10  11
ATOM     11  C   UNL     1     162.193 176.498 179.958  1.00  0.00     0.000 C 
BRANCH  11  12
ATOM     12  C   UNL     1     161.327 175.532 179.134  1.00  0.00     0.006 C 
BRANCH  12  13
ATOM     13  C   UNL     1     160.715 176.200 177.895  1.00  0.00     0.053 C 
BRANCH  13  14
ATOM     14  C   UNL     1     159.691 175.307 177.266  1.00  0.00     0.041 C 
ATOM     15  O   UNL     1     160.047 174.267 176.654  1.00  0.00    -0.550 OA
ATOM     16  O   UNL     1     158.341 175.629 177.350  1.00  0.00    -0.550 OA
ENDBRANCH  13  14
ENDBRANCH  12  13
ENDBRANCH  11  12
ENDBRANCH  10  11
ENDBRANCH   9  10
ENDBRANCH   8   9
ENDBRANCH   7   8
ENDBRANCH   6   7
ENDBRANCH   5   6
ENDBRANCH   4   5
ENDBRANCH   3   4
ENDBRANCH   2   3
ENDBRANCH   1   2
BRANCH   1  17
ATOM     17  C   UNL     1     171.859 177.679 182.538  1.00  0.00     0.000 C 
BRANCH  17  18
ATOM     18  C   UNL     1     173.050 177.384 181.599  1.00  0.00     0.000 C 
BRANCH  18  19
ATOM     19  C   UNL     1     172.685 176.645 180.300  1.00  0.00     0.000 C 
BRANCH  19  20
ATOM     20  C   UNL     1     173.892 176.454 179.369  1.00  0.00     0.000 C 
BRANCH  20  21
ATOM     21  C   UNL     1     175.065 177.374 179.742  1.00  0.00     0.000 C 
BRANCH  21  22
ATOM     22  C   UNL     1     176.432 176.697 179.524  1.00  0.00    -0.000 C 
BRANCH  22  23
ATOM     23  C   UNL     1     177.185 176.450 180.848  1.00  0.00    -0.000 C 
BRANCH  23  24
ATOM     24  C   UNL     1     176.750 177.381 181.996  1.00  0.00    -0.000 C 
BRANCH  24  25
ATOM     25  C   UNL     1     176.250 176.613 183.227  1.00  0.00    -0.000 C 
BRANCH  25  26
ATOM     26  C   UNL     1     176.191 175.103 182.955  1.00  0.00    -0.000 C 
BRANCH  26  27
ATOM     27  C   UNL     1     174.756 174.549 183.003  1.00  0.00    -0.000 C 
BRANCH  27  28
ATOM     28  C   UNL     1     174.431 173.647 181.799  1.00  0.00    -0.000 C 
BRANCH  28  29
ATOM     29  C   UNL     1     175.631 172.792 181.362  1.00  0.00    -0.003 C 
ATOM     30  C   UNL     1     176.022 173.015 179.902  1.00  0.00     0.004 C 
ENDBRANCH  28  29
ENDBRANCH  27  28
ENDBRANCH  26  27
ENDBRANCH  25  26
ENDBRANCH  24  25
ENDBRANCH  23  24
ENDBRANCH  22  23
ENDBRANCH  21  22
ENDBRANCH  20  21
ENDBRANCH  19  20
ENDBRANCH  18  19
ENDBRANCH  17  18
ENDBRANCH   1  17
TORSDOF 26
ENDMDL
MODEL 9
REMARK VINA RESULT:    -3.627      1.133      2.294
REMARK INTER + INTRA:         -14.718
REMARK INTER:                  -9.599
REMARK INTRA:                  -5.119
REMARK UNBOUND:                -5.577
REMARK SMILES CCCCCCCCCCCCCCCCCCCCCCCCCCCC(=O)[O-]
REMARK SMILES IDX 15 1 16 2 17 3 18 4 19 5 20 6 21 7 22 8 23 9 24 10 25 11
REMARK SMILES IDX 26 12 27 13 28 14 29 15 30 16 14 17 13 18 12 19 11 20 10 21
REMARK SMILES IDX 9 22 8 23 7 24 6 25 5 26 4 27 3 28 2 29 1 30
REMARK H PARENT
REMARK Flexibility Score: inf
ROOT
ATOM      1  C   UNL     1     171.680 175.651 182.892  1.00  0.00     0.000 C 
ENDROOT
BRANCH   1   2
ATOM      2  C   UNL     1     170.165 175.652 183.160  1.00  0.00     0.000 C 
BRANCH   2   3
ATOM      3  C   UNL     1     169.508 176.996 182.809  1.00  0.00     0.000 C 
BRANCH   3   4
ATOM      4  C   UNL     1     168.522 176.876 181.634  1.00  0.00     0.000 C 
BRANCH   4   5
ATOM      5  C   UNL     1     169.227 176.827 180.266  1.00  0.00     0.000 C 
BRANCH   5   6
ATOM      6  C   UNL     1     169.067 175.503 179.493  1.00  0.00     0.000 C 
BRANCH   6   7
ATOM      7  C   UNL     1     170.263 175.121 178.599  1.00  0.00     0.000 C 
BRANCH   7   8
ATOM      8  C   UNL     1     171.589 174.884 179.350  1.00  0.00     0.000 C 
BRANCH   8   9
ATOM      9  C   UNL     1     171.618 173.624 180.236  1.00  0.00     0.000 C 
BRANCH   9  10
ATOM     10  C   UNL     1     173.012 172.985 180.315  1.00  0.00     0.000 C 
BRANCH  10  11
ATOM     11  C   UNL     1     174.033 173.791 179.498  1.00  0.00     0.000 C 
BRANCH  11  12
ATOM     12  C   UNL     1     175.484 173.517 179.925  1.00  0.00     0.006 C 
BRANCH  12  13
ATOM     13  C   UNL     1     175.583 172.464 181.037  1.00  0.00     0.053 C 
BRANCH  13  14
ATOM     14  C   UNL     1     177.004 172.036 181.233  1.00  0.00     0.041 C 
ATOM     15  O   UNL     1     177.359 170.864 180.943  1.00  0.00    -0.550 OA
ATOM     16  O   UNL     1     177.937 172.931 181.744  1.00  0.00    -0.550 OA
ENDBRANCH  13  14
ENDBRANCH  12  13
ENDBRANCH  11  12
ENDBRANCH  10  11
ENDBRANCH   9  10
ENDBRANCH   8   9
ENDBRANCH   7   8
ENDBRANCH   6   7
ENDBRANCH   5   6
ENDBRANCH   4   5
ENDBRANCH   3   4
ENDBRANCH   2   3
ENDBRANCH   1   2
BRANCH   1  17
ATOM     17  C   UNL     1     172.187 176.986 182.311  1.00  0.00     0.000 C 
BRANCH  17  18
ATOM     18  C   UNL     1     173.721 177.157 182.284  1.00  0.00     0.000 C 
BRANCH  18  19
ATOM     19  C   UNL     1     174.523 175.881 182.593  1.00  0.00     0.000 C 
BRANCH  19  20
ATOM     20  C   UNL     1     175.907 176.182 183.188  1.00  0.00     0.000 C 
BRANCH  20  21
ATOM     21  C   UNL     1     176.991 176.305 182.105  1.00  0.00     0.000 C 
BRANCH  21  22
ATOM     22  C   UNL     1     177.342 177.773 181.794  1.00  0.00    -0.000 C 
BRANCH  22  23
ATOM     23  C   UNL     1     177.141 178.125 180.304  1.00  0.00    -0.000 C 
BRANCH  23  24
ATOM     24  C   UNL     1     176.579 176.964 179.461  1.00  0.00    -0.000 C 
BRANCH  24  25
ATOM     25  C   UNL     1     175.166 177.242 178.934  1.00  0.00    -0.000 C 
BRANCH  25  26
ATOM     26  C   UNL     1     174.937 176.569 177.572  1.00  0.00    -0.000 C 
BRANCH  26  27
ATOM     27  C   UNL     1     173.579 176.937 176.951  1.00  0.00    -0.000 C 
BRANCH  27  28
ATOM     28  C   UNL     1     173.355 176.270 175.582  1.00  0.00    -0.000 C 
BRANCH  28  29
ATOM     29  C   UNL     1     172.128 175.345 175.571  1.00  0.00    -0.003 C 
ATOM     30  C   UNL     1     172.478 173.889 175.874  1.00  0.00     0.004 C 
ENDBRANCH  28  29
ENDBRANCH  27  28
ENDBRANCH  26  27
ENDBRANCH  25  26
ENDBRANCH  24  25
ENDBRANCH  23  24
ENDBRANCH  22  23
ENDBRANCH  21  22
ENDBRANCH  20  21
ENDBRANCH  19  20
ENDBRANCH  18  19
ENDBRANCH  17  18
ENDBRANCH   1  17
TORSDOF 26
ENDMDL
