MODEL 1
REMARK VINA RESULT:    -4.486      0.000      0.000
REMARK INTER + INTRA:          -8.874
REMARK INTER:                  -7.633
REMARK INTRA:                  -1.241
REMARK UNBOUND:                -1.241
REMARK SMILES CCCCCCCCCCCCCC(=O)[O-]
REMARK SMILES IDX 8 1 9 2 10 3 11 4 12 5 13 6 14 7 15 8 16 9 7 10 6 11 5 12
REMARK SMILES IDX 4 13 3 14 2 15 1 16
REMARK H PARENT
REMARK Flexibility Score: inf
ROOT
ATOM      1  C   UNL     1      31.057   9.100  49.069  1.00  0.00     0.000 C 
ENDROOT
BRANCH   1   2
ATOM      2  C   UNL     1      30.510   7.827  48.406  1.00  0.00     0.000 C 
BRANCH   2   3
ATOM      3  C   UNL     1      31.494   6.649  48.484  1.00  0.00     0.000 C 
BRANCH   3   4
ATOM      4  C   UNL     1      31.996   6.262  47.084  1.00  0.00     0.000 C 
BRANCH   4   5
ATOM      5  C   UNL     1      33.464   6.654  46.852  1.00  0.00     0.006 C 
BRANCH   5   6
ATOM      6  C   UNL     1      34.059   5.997  45.600  1.00  0.00     0.053 C 
BRANCH   6   7
ATOM      7  C   UNL     1      34.853   4.786  45.975  1.00  0.00     0.041 C 
ATOM      8  O   UNL     1      35.313   4.028  45.081  1.00  0.00    -0.550 OA
ATOM      9  O   UNL     1      35.043   4.465  47.314  1.00  0.00    -0.550 OA
ENDBRANCH   6   7
ENDBRANCH   5   6
ENDBRANCH   4   5
ENDBRANCH   3   4
ENDBRANCH   2   3
ENDBRANCH   1   2
BRANCH   1  10
ATOM     10  C   UNL     1      31.900   9.956  48.106  1.00  0.00     0.000 C 
BRANCH  10  11
ATOM     11  C   UNL     1      33.331  10.187  48.633  1.00  0.00    -0.000 C 
BRANCH  11  12
ATOM     12  C   UNL     1      34.427   9.882  47.597  1.00  0.00    -0.000 C 
BRANCH  12  13
ATOM     13  C   UNL     1      35.065  11.149  47.011  1.00  0.00    -0.000 C 
BRANCH  13  14
ATOM     14  C   UNL     1      35.492  10.926  45.554  1.00  0.00    -0.000 C 
BRANCH  14  15
ATOM     15  C   UNL     1      34.378  10.297  44.702  1.00  0.00    -0.003 C 
ATOM     16  C   UNL     1      34.848   9.062  43.935  1.00  0.00     0.004 C 
ENDBRANCH  14  15
ENDBRANCH  13  14
ENDBRANCH  12  13
ENDBRANCH  11  12
ENDBRANCH  10  11
ENDBRANCH   1  10
TORSDOF 12
ENDMDL
MODEL 2
REMARK VINA RESULT:    -4.315      2.522      4.402
REMARK INTER + INTRA:          -8.584
REMARK INTER:                  -7.341
REMARK INTRA:                  -1.243
REMARK UNBOUND:                -1.241
REMARK SMILES CCCCCCCCCCCCCC(=O)[O-]
REMARK SMILES IDX 8 1 9 2 10 3 11 4 12 5 13 6 14 7 15 8 16 9 7 10 6 11 5 12
REMARK SMILES IDX 4 13 3 14 2 15 1 16
REMARK H PARENT
REMARK Flexibility Score: inf
ROOT
ATOM      1  C   UNL     1      34.089   7.711  44.233  1.00  0.00     0.000 C 
ENDROOT
BRANCH   1   2
ATOM      2  C   UNL     1      33.854   7.409  45.721  1.00  0.00     0.000 C 
BRANCH   2   3
ATOM      3  C   UNL     1      34.187   5.955  46.090  1.00  0.00     0.000 C 
BRANCH   3   4
ATOM      4  C   UNL     1      33.565   5.577  47.444  1.00  0.00     0.000 C 
BRANCH   4   5
ATOM      5  C   UNL     1      32.285   6.371  47.750  1.00  0.00     0.006 C 
BRANCH   5   6
ATOM      6  C   UNL     1      31.058   5.467  47.930  1.00  0.00     0.053 C 
BRANCH   6   7
ATOM      7  C   UNL     1      29.825   6.294  48.120  1.00  0.00     0.041 C 
ATOM      8  O   UNL     1      29.918   7.496  48.483  1.00  0.00    -0.550 OA
ATOM      9  O   UNL     1      28.571   5.722  47.945  1.00  0.00    -0.550 OA
ENDBRANCH   6   7
ENDBRANCH   5   6
ENDBRANCH   4   5
ENDBRANCH   3   4
ENDBRANCH   2   3
ENDBRANCH   1   2
BRANCH   1  10
ATOM     10  C   UNL     1      34.837   9.038  44.008  1.00  0.00     0.000 C 
BRANCH  10  11
ATOM     11  C   UNL     1      34.411  10.124  45.017  1.00  0.00    -0.000 C 
BRANCH  11  12
ATOM     12  C   UNL     1      35.591  10.926  45.593  1.00  0.00    -0.000 C 
BRANCH  12  13
ATOM     13  C   UNL     1      35.376  11.337  47.057  1.00  0.00    -0.000 C 
BRANCH  13  14
ATOM     14  C   UNL     1      34.721  10.202  47.856  1.00  0.00    -0.000 C 
BRANCH  14  15
ATOM     15  C   UNL     1      33.456  10.658  48.600  1.00  0.00    -0.003 C 
ATOM     16  C   UNL     1      32.184  10.008  48.058  1.00  0.00     0.004 C 
ENDBRANCH  14  15
ENDBRANCH  13  14
ENDBRANCH  12  13
ENDBRANCH  11  12
ENDBRANCH  10  11
ENDBRANCH   1  10
TORSDOF 12
ENDMDL
MODEL 3
REMARK VINA RESULT:    -4.301      2.359      4.767
REMARK INTER + INTRA:          -8.560
REMARK INTER:                  -7.374
REMARK INTRA:                  -1.187
REMARK UNBOUND:                -1.241
REMARK SMILES CCCCCCCCCCCCCC(=O)[O-]
REMARK SMILES IDX 8 1 9 2 10 3 11 4 12 5 13 6 14 7 15 8 16 9 7 10 6 11 5 12
REMARK SMILES IDX 4 13 3 14 2 15 1 16
REMARK H PARENT
REMARK Flexibility Score: inf
ROOT
ATOM      1  C   UNL     1      31.558   8.542  48.917  1.00  0.00     0.000 C 
ENDROOT
BRANCH   1   2
ATOM      2  C   UNL     1      31.582  10.002  48.440  1.00  0.00     0.000 C 
BRANCH   2   3
ATOM      3  C   UNL     1      32.945  10.675  48.662  1.00  0.00     0.000 C 
BRANCH   3   4
ATOM      4  C   UNL     1      34.090   9.758  48.205  1.00  0.00     0.000 C 
BRANCH   4   5
ATOM      5  C   UNL     1      34.602  10.105  46.798  1.00  0.00     0.006 C 
BRANCH   5   6
ATOM      6  C   UNL     1      34.140   9.098  45.737  1.00  0.00     0.053 C 
BRANCH   6   7
ATOM      7  C   UNL     1      34.455   9.606  44.365  1.00  0.00     0.041 C 
ATOM      8  O   UNL     1      35.310   9.019  43.652  1.00  0.00    -0.550 OA
ATOM      9  O   UNL     1      33.839  10.759  43.892  1.00  0.00    -0.550 OA
ENDBRANCH   6   7
ENDBRANCH   5   6
ENDBRANCH   4   5
ENDBRANCH   3   4
ENDBRANCH   2   3
ENDBRANCH   1   2
BRANCH   1  10
ATOM     10  C   UNL     1      30.173   7.887  48.759  1.00  0.00     0.000 C 
BRANCH  10  11
ATOM     11  C   UNL     1      30.269   6.450  48.206  1.00  0.00    -0.000 C 
BRANCH  11  12
ATOM     12  C   UNL     1      31.438   6.242  47.227  1.00  0.00    -0.000 C 
BRANCH  12  13
ATOM     13  C   UNL     1      32.477   5.236  47.742  1.00  0.00    -0.000 C 
BRANCH  13  14
ATOM     14  C   UNL     1      33.896   5.815  47.647  1.00  0.00    -0.000 C 
BRANCH  14  15
ATOM     15  C   UNL     1      34.956   4.737  47.372  1.00  0.00    -0.003 C 
ATOM     16  C   UNL     1      35.134   4.451  45.881  1.00  0.00     0.004 C 
ENDBRANCH  14  15
ENDBRANCH  13  14
ENDBRANCH  12  13
ENDBRANCH  11  12
ENDBRANCH  10  11
ENDBRANCH   1  10
TORSDOF 12
ENDMDL
MODEL 4
REMARK VINA RESULT:    -4.089      3.712      6.823
REMARK INTER + INTRA:          -8.199
REMARK INTER:                  -7.518
REMARK INTRA:                  -0.681
REMARK UNBOUND:                -1.241
REMARK SMILES CCCCCCCCCCCCCC(=O)[O-]
REMARK SMILES IDX 8 1 9 2 10 3 11 4 12 5 13 6 14 7 15 8 16 9 7 10 6 11 5 12
REMARK SMILES IDX 4 13 3 14 2 15 1 16
REMARK H PARENT
REMARK Flexibility Score: inf
ROOT
ATOM      1  C   UNL     1      33.618   7.588  44.262  1.00  0.00     0.000 C 
ENDROOT
BRANCH   1   2
ATOM      2  C   UNL     1      34.709   8.623  43.947  1.00  0.00     0.000 C 
BRANCH   2   3
ATOM      3  C   UNL     1      34.292  10.054  44.319  1.00  0.00     0.000 C 
BRANCH   3   4
ATOM      4  C   UNL     1      34.737  10.401  45.749  1.00  0.00     0.000 C 
BRANCH   4   5
ATOM      5  C   UNL     1      36.036  11.221  45.783  1.00  0.00     0.006 C 
BRANCH   5   6
ATOM      6  C   UNL     1      35.793  12.697  46.122  1.00  0.00     0.053 C 
BRANCH   6   7
ATOM      7  C   UNL     1      37.096  13.407  46.321  1.00  0.00     0.041 C 
ATOM      8  O   UNL     1      37.300  14.521  45.772  1.00  0.00    -0.550 OA
ATOM      9  O   UNL     1      38.104  12.814  47.071  1.00  0.00    -0.550 OA
ENDBRANCH   6   7
ENDBRANCH   5   6
ENDBRANCH   4   5
ENDBRANCH   3   4
ENDBRANCH   2   3
ENDBRANCH   1   2
BRANCH   1  10
ATOM     10  C   UNL     1      34.067   6.551  45.308  1.00  0.00     0.000 C 
BRANCH  10  11
ATOM     11  C   UNL     1      33.568   6.901  46.725  1.00  0.00    -0.000 C 
BRANCH  11  12
ATOM     12  C   UNL     1      33.299   5.668  47.605  1.00  0.00    -0.000 C 
BRANCH  12  13
ATOM     13  C   UNL     1      31.802   5.385  47.796  1.00  0.00    -0.000 C 
BRANCH  13  14
ATOM     14  C   UNL     1      30.980   6.676  47.683  1.00  0.00    -0.000 C 
BRANCH  14  15
ATOM     15  C   UNL     1      29.732   6.661  48.579  1.00  0.00    -0.003 C 
ATOM     16  C   UNL     1      28.640   5.729  48.057  1.00  0.00     0.004 C 
ENDBRANCH  14  15
ENDBRANCH  13  14
ENDBRANCH  12  13
ENDBRANCH  11  12
ENDBRANCH  10  11
ENDBRANCH   1  10
TORSDOF 12
ENDMDL
MODEL 5
REMARK VINA RESULT:    -4.080     17.513     18.367
REMARK INTER + INTRA:          -8.183
REMARK INTER:                  -6.711
REMARK INTRA:                  -1.472
REMARK UNBOUND:                -1.241
REMARK SMILES CCCCCCCCCCCCCC(=O)[O-]
REMARK SMILES IDX 8 1 9 2 10 3 11 4 12 5 13 6 14 7 15 8 16 9 7 10 6 11 5 12
REMARK SMILES IDX 4 13 3 14 2 15 1 16
REMARK H PARENT
REMARK Flexibility Score: inf
ROOT
ATOM      1  C   UNL     1      19.617   9.218  35.893  1.00  0.00     0.000 C 
ENDROOT
BRANCH   1   2
ATOM      2  C   UNL     1      19.702   8.142  36.986  1.00  0.00     0.000 C 
BRANCH   2   3
ATOM      3  C   UNL     1      19.425   6.729  36.450  1.00  0.00     0.000 C 
BRANCH   3   4
ATOM      4  C   UNL     1      18.090   6.684  35.689  1.00  0.00     0.000 C 
BRANCH   4   5
ATOM      5  C   UNL     1      18.196   5.934  34.352  1.00  0.00     0.006 C 
BRANCH   5   6
ATOM      6  C   UNL     1      18.547   6.862  33.181  1.00  0.00     0.053 C 
BRANCH   6   7
ATOM      7  C   UNL     1      19.814   6.414  32.523  1.00  0.00     0.041 C 
ATOM      8  O   UNL     1      19.874   6.310  31.270  1.00  0.00    -0.550 OA
ATOM      9  O   UNL     1      20.913   6.060  33.297  1.00  0.00    -0.550 OA
ENDBRANCH   6   7
ENDBRANCH   5   6
ENDBRANCH   4   5
ENDBRANCH   3   4
ENDBRANCH   2   3
ENDBRANCH   1   2
BRANCH   1  10
ATOM     10  C   UNL     1      20.904   9.316  35.055  1.00  0.00     0.000 C 
BRANCH  10  11
ATOM     11  C   UNL     1      22.040  10.033  35.815  1.00  0.00    -0.000 C 
BRANCH  11  12
ATOM     12  C   UNL     1      22.411  11.403  35.220  1.00  0.00    -0.000 C 
BRANCH  12  13
ATOM     13  C   UNL     1      21.634  11.726  33.935  1.00  0.00    -0.000 C 
BRANCH  13  14
ATOM     14  C   UNL     1      20.961  13.103  34.032  1.00  0.00    -0.000 C 
BRANCH  14  15
ATOM     15  C   UNL     1      20.476  13.424  35.455  1.00  0.00    -0.003 C 
ATOM     16  C   UNL     1      19.068  12.899  35.731  1.00  0.00     0.004 C 
ENDBRANCH  14  15
ENDBRANCH  13  14
ENDBRANCH  12  13
ENDBRANCH  11  12
ENDBRANCH  10  11
ENDBRANCH   1  10
TORSDOF 12
ENDMDL
MODEL 6
REMARK VINA RESULT:    -4.003     17.526     18.385
REMARK INTER + INTRA:          -8.052
REMARK INTER:                  -6.316
REMARK INTRA:                  -1.736
REMARK UNBOUND:                -1.241
REMARK SMILES CCCCCCCCCCCCCC(=O)[O-]
REMARK SMILES IDX 8 1 9 2 10 3 11 4 12 5 13 6 14 7 15 8 16 9 7 10 6 11 5 12
REMARK SMILES IDX 4 13 3 14 2 15 1 16
REMARK H PARENT
REMARK Flexibility Score: inf
ROOT
ATOM      1  C   UNL     1      22.121  10.361  35.221  1.00  0.00     0.000 C 
ENDROOT
BRANCH   1   2
ATOM      2  C   UNL     1      20.770   9.769  35.651  1.00  0.00     0.000 C 
BRANCH   2   3
ATOM      3  C   UNL     1      19.870   9.420  34.456  1.00  0.00     0.000 C 
BRANCH   3   4
ATOM      4  C   UNL     1      20.400   8.182  33.715  1.00  0.00     0.000 C 
BRANCH   4   5
ATOM      5  C   UNL     1      20.273   6.895  34.544  1.00  0.00     0.006 C 
BRANCH   5   6
ATOM      6  C   UNL     1      18.829   6.612  34.978  1.00  0.00     0.053 C 
BRANCH   6   7
ATOM      7  C   UNL     1      18.781   6.257  36.431  1.00  0.00     0.041 C 
ATOM      8  O   UNL     1      18.247   5.179  36.803  1.00  0.00    -0.550 OA
ATOM      9  O   UNL     1      19.283   7.140  37.380  1.00  0.00    -0.550 OA
ENDBRANCH   6   7
ENDBRANCH   5   6
ENDBRANCH   4   5
ENDBRANCH   3   4
ENDBRANCH   2   3
ENDBRANCH   1   2
BRANCH   1  10
ATOM     10  C   UNL     1      22.243  11.861  35.545  1.00  0.00     0.000 C 
BRANCH  10  11
ATOM     11  C   UNL     1      20.879  12.494  35.891  1.00  0.00    -0.000 C 
BRANCH  11  12
ATOM     12  C   UNL     1      20.374  13.488  34.830  1.00  0.00    -0.000 C 
BRANCH  12  13
ATOM     13  C   UNL     1      19.093  13.014  34.129  1.00  0.00    -0.000 C 
BRANCH  13  14
ATOM     14  C   UNL     1      19.378  12.620  32.673  1.00  0.00    -0.000 C 
BRANCH  14  15
ATOM     15  C   UNL     1      20.801  12.993  32.228  1.00  0.00    -0.003 C 
ATOM     16  C   UNL     1      21.634  11.775  31.829  1.00  0.00     0.004 C 
ENDBRANCH  14  15
ENDBRANCH  13  14
ENDBRANCH  12  13
ENDBRANCH  11  12
ENDBRANCH  10  11
ENDBRANCH   1  10
TORSDOF 12
ENDMDL
MODEL 7
REMARK VINA RESULT:    -3.930     17.863     19.207
REMARK INTER + INTRA:          -7.928
REMARK INTER:                  -6.282
REMARK INTRA:                  -1.646
REMARK UNBOUND:                -1.241
REMARK SMILES CCCCCCCCCCCCCC(=O)[O-]
REMARK SMILES IDX 8 1 9 2 10 3 11 4 12 5 13 6 14 7 15 8 16 9 7 10 6 11 5 12
REMARK SMILES IDX 4 13 3 14 2 15 1 16
REMARK H PARENT
REMARK Flexibility Score: inf
ROOT
ATOM      1  C   UNL     1      22.240  11.414  35.059  1.00  0.00     0.000 C 
ENDROOT
BRANCH   1   2
ATOM      2  C   UNL     1      21.349  12.533  35.617  1.00  0.00     0.000 C 
BRANCH   2   3
ATOM      3  C   UNL     1      20.826  13.476  34.523  1.00  0.00     0.000 C 
BRANCH   3   4
ATOM      4  C   UNL     1      19.478  12.984  33.973  1.00  0.00     0.000 C 
BRANCH   4   5
ATOM      5  C   UNL     1      19.521  12.704  32.463  1.00  0.00     0.006 C 
BRANCH   5   6
ATOM      6  C   UNL     1      19.748  11.221  32.143  1.00  0.00     0.053 C 
BRANCH   6   7
ATOM      7  C   UNL     1      21.021  11.041  31.379  1.00  0.00     0.041 C 
ATOM      8  O   UNL     1      21.970  11.856  31.527  1.00  0.00    -0.550 OA
ATOM      9  O   UNL     1      21.144  10.001  30.465  1.00  0.00    -0.550 OA
ENDBRANCH   6   7
ENDBRANCH   5   6
ENDBRANCH   4   5
ENDBRANCH   3   4
ENDBRANCH   2   3
ENDBRANCH   1   2
BRANCH   1  10
ATOM     10  C   UNL     1      21.768  10.011  35.483  1.00  0.00     0.000 C 
BRANCH  10  11
ATOM     11  C   UNL     1      20.282   9.998  35.899  1.00  0.00    -0.000 C 
BRANCH  11  12
ATOM     12  C   UNL     1      19.392   9.146  34.979  1.00  0.00    -0.000 C 
BRANCH  12  13
ATOM     13  C   UNL     1      20.187   8.111  34.169  1.00  0.00    -0.000 C 
BRANCH  13  14
ATOM     14  C   UNL     1      19.767   6.682  34.542  1.00  0.00    -0.000 C 
BRANCH  14  15
ATOM     15  C   UNL     1      18.729   6.648  35.674  1.00  0.00    -0.003 C 
ATOM     16  C   UNL     1      19.328   6.215  37.012  1.00  0.00     0.004 C 
ENDBRANCH  14  15
ENDBRANCH  13  14
ENDBRANCH  12  13
ENDBRANCH  11  12
ENDBRANCH  10  11
ENDBRANCH   1  10
TORSDOF 12
ENDMDL
MODEL 8
REMARK VINA RESULT:    -3.927      2.898      4.722
REMARK INTER + INTRA:          -7.924
REMARK INTER:                  -6.436
REMARK INTRA:                  -1.488
REMARK UNBOUND:                -1.241
REMARK SMILES CCCCCCCCCCCCCC(=O)[O-]
REMARK SMILES IDX 8 1 9 2 10 3 11 4 12 5 13 6 14 7 15 8 16 9 7 10 6 11 5 12
REMARK SMILES IDX 4 13 3 14 2 15 1 16
REMARK H PARENT
REMARK Flexibility Score: inf
ROOT
ATOM      1  C   UNL     1      31.282   6.598  47.601  1.00  0.00     0.000 C 
ENDROOT
BRANCH   1   2
ATOM      2  C   UNL     1      30.865   7.537  48.742  1.00  0.00     0.000 C 
BRANCH   2   3
ATOM      3  C   UNL     1      31.209   9.007  48.455  1.00  0.00     0.000 C 
BRANCH   3   4
ATOM      4  C   UNL     1      32.636   9.337  48.918  1.00  0.00     0.000 C 
BRANCH   4   5
ATOM      5  C   UNL     1      33.353  10.318  47.977  1.00  0.00     0.006 C 
BRANCH   5   6
ATOM      6  C   UNL     1      34.881  10.207  48.060  1.00  0.00     0.053 C 
BRANCH   6   7
ATOM      7  C   UNL     1      35.513  11.547  47.847  1.00  0.00     0.041 C 
ATOM      8  O   UNL     1      35.502  12.406  48.768  1.00  0.00    -0.550 OA
ATOM      9  O   UNL     1      36.070  11.865  46.615  1.00  0.00    -0.550 OA
ENDBRANCH   6   7
ENDBRANCH   5   6
ENDBRANCH   4   5
ENDBRANCH   3   4
ENDBRANCH   2   3
ENDBRANCH   1   2
BRANCH   1  10
ATOM     10  C   UNL     1      32.436   5.658  47.996  1.00  0.00     0.000 C 
BRANCH  10  11
ATOM     11  C   UNL     1      33.814   6.233  47.606  1.00  0.00    -0.000 C 
BRANCH  11  12
ATOM     12  C   UNL     1      34.408   5.600  46.336  1.00  0.00    -0.000 C 
BRANCH  12  13
ATOM     13  C   UNL     1      34.000   6.340  45.054  1.00  0.00    -0.000 C 
BRANCH  13  14
ATOM     14  C   UNL     1      34.002   7.859  45.271  1.00  0.00    -0.000 C 
BRANCH  14  15
ATOM     15  C   UNL     1      34.379   8.637  44.001  1.00  0.00    -0.003 C 
ATOM     16  C   UNL     1      34.291  10.151  44.187  1.00  0.00     0.004 C 
ENDBRANCH  14  15
ENDBRANCH  13  14
ENDBRANCH  12  13
ENDBRANCH  11  12
ENDBRANCH  10  11
ENDBRANCH   1  10
TORSDOF 12
ENDMDL
MODEL 9
REMARK VINA RESULT:    -3.862     18.092     19.449
REMARK INTER + INTRA:          -7.812
REMARK INTER:                  -6.218
REMARK INTRA:                  -1.594
REMARK UNBOUND:                -1.241
REMARK SMILES CCCCCCCCCCCCCC(=O)[O-]
REMARK SMILES IDX 8 1 9 2 10 3 11 4 12 5 13 6 14 7 15 8 16 9 7 10 6 11 5 12
REMARK SMILES IDX 4 13 3 14 2 15 1 16
REMARK H PARENT
REMARK Flexibility Score: inf
ROOT
ATOM      1  C   UNL     1      21.366  10.360  35.626  1.00  0.00     0.000 C 
ENDROOT
BRANCH   1   2
ATOM      2  C   UNL     1      21.989  11.761  35.538  1.00  0.00     0.000 C 
BRANCH   2   3
ATOM      3  C   UNL     1      20.939  12.881  35.598  1.00  0.00     0.000 C 
BRANCH   3   4
ATOM      4  C   UNL     1      20.994  13.751  34.333  1.00  0.00     0.000 C 
BRANCH   4   5
ATOM      5  C   UNL     1      20.511  13.006  33.079  1.00  0.00     0.006 C 
BRANCH   5   6
ATOM      6  C   UNL     1      21.621  12.823  32.036  1.00  0.00     0.053 C 
BRANCH   6   7
ATOM      7  C   UNL     1      21.571  13.925  31.024  1.00  0.00     0.041 C 
ATOM      8  O   UNL     1      22.140  15.024  31.256  1.00  0.00    -0.550 OA
ATOM      9  O   UNL     1      20.855  13.755  29.845  1.00  0.00    -0.550 OA
ENDBRANCH   6   7
ENDBRANCH   5   6
ENDBRANCH   4   5
ENDBRANCH   3   4
ENDBRANCH   2   3
ENDBRANCH   1   2
BRANCH   1  10
ATOM     10  C   UNL     1      19.835  10.399  35.783  1.00  0.00     0.000 C 
BRANCH  10  11
ATOM     11  C   UNL     1      19.107   9.935  34.504  1.00  0.00    -0.000 C 
BRANCH  11  12
ATOM     12  C   UNL     1      19.987   9.090  33.566  1.00  0.00    -0.000 C 
BRANCH  12  13
ATOM     13  C   UNL     1      19.498   7.642  33.431  1.00  0.00    -0.000 C 
BRANCH  13  14
ATOM     14  C   UNL     1      20.508   6.662  34.044  1.00  0.00    -0.000 C 
BRANCH  14  15
ATOM     15  C   UNL     1      20.522   6.711  35.580  1.00  0.00    -0.003 C 
ATOM     16  C   UNL     1      19.126   6.585  36.188  1.00  0.00     0.004 C 
ENDBRANCH  14  15
ENDBRANCH  13  14
ENDBRANCH  12  13
ENDBRANCH  11  12
ENDBRANCH  10  11
ENDBRANCH   1  10
TORSDOF 12
ENDMDL
