MODEL 1
REMARK VINA RESULT:    -4.900      0.000      0.000
REMARK INTER + INTRA:          -7.699
REMARK INTER:                  -7.192
REMARK INTRA:                  -0.507
REMARK UNBOUND:                -0.507
REMARK SMILES O=C([O-])CCCCCCCC(=O)[O-]
REMARK SMILES IDX 7 1 6 2 5 3 4 4 2 5 1 6 3 7 8 8 9 9 10 10 11 11 12 12 13 13
REMARK H PARENT
REMARK Flexibility Score: inf
ROOT
ATOM      1  C   UNL     1      27.071  11.125  34.707  1.00  0.00     0.000 C 
ENDROOT
BRANCH   1   2
ATOM      2  C   UNL     1      25.981  11.846  35.515  1.00  0.00     0.000 C 
BRANCH   2   3
ATOM      3  C   UNL     1      24.565  11.331  35.198  1.00  0.00     0.006 C 
BRANCH   3   4
ATOM      4  C   UNL     1      23.462  12.395  35.319  1.00  0.00     0.053 C 
BRANCH   4   5
ATOM      5  C   UNL     1      22.130  11.788  35.636  1.00  0.00     0.041 C 
ATOM      6  O   UNL     1      21.093  12.502  35.641  1.00  0.00    -0.550 OA
ATOM      7  O   UNL     1      22.030  10.427  35.895  1.00  0.00    -0.550 OA
ENDBRANCH   4   5
ENDBRANCH   3   4
ENDBRANCH   2   3
ENDBRANCH   1   2
BRANCH   1   8
ATOM      8  C   UNL     1      28.068  12.130  34.111  1.00  0.00     0.000 C 
BRANCH   8   9
ATOM      9  C   UNL     1      27.376  13.267  33.345  1.00  0.00     0.006 C 
BRANCH   9  10
ATOM     10  C   UNL     1      26.830  12.817  31.983  1.00  0.00     0.053 C 
BRANCH  10  11
ATOM     11  C   UNL     1      27.918  12.198  31.163  1.00  0.00     0.041 C 
ATOM     12  O   UNL     1      28.913  12.885  30.809  1.00  0.00    -0.550 OA
ATOM     13  O   UNL     1      27.858  10.851  30.832  1.00  0.00    -0.550 OA
ENDBRANCH  10  11
ENDBRANCH   9  10
ENDBRANCH   8   9
ENDBRANCH   1   8
TORSDOF 8
ENDMDL
MODEL 2
REMARK VINA RESULT:    -4.866      0.673      6.037
REMARK INTER + INTRA:          -7.649
REMARK INTER:                  -7.221
REMARK INTRA:                  -0.427
REMARK UNBOUND:                -0.507
REMARK SMILES O=C([O-])CCCCCCCC(=O)[O-]
REMARK SMILES IDX 7 1 6 2 5 3 4 4 2 5 1 6 3 7 8 8 9 9 10 10 11 11 12 12 13 13
REMARK H PARENT
REMARK Flexibility Score: inf
ROOT
ATOM      1  C   UNL     1      27.442  11.712  35.133  1.00  0.00     0.000 C 
ENDROOT
BRANCH   1   2
ATOM      2  C   UNL     1      28.151  12.287  33.898  1.00  0.00     0.000 C 
BRANCH   2   3
ATOM      3  C   UNL     1      27.290  13.314  33.140  1.00  0.00     0.006 C 
BRANCH   3   4
ATOM      4  C   UNL     1      26.863  12.868  31.733  1.00  0.00     0.053 C 
BRANCH   4   5
ATOM      5  C   UNL     1      27.997  12.252  30.971  1.00  0.00     0.041 C 
ATOM      6  O   UNL     1      28.994  12.948  30.645  1.00  0.00    -0.550 OA
ATOM      7  O   UNL     1      27.965  10.900  30.651  1.00  0.00    -0.550 OA
ENDBRANCH   4   5
ENDBRANCH   3   4
ENDBRANCH   2   3
ENDBRANCH   1   2
BRANCH   1   8
ATOM      8  C   UNL     1      26.066  11.141  34.761  1.00  0.00     0.000 C 
BRANCH   8   9
ATOM      9  C   UNL     1      25.043  11.271  35.899  1.00  0.00     0.006 C 
BRANCH   9  10
ATOM     10  C   UNL     1      24.162  12.520  35.763  1.00  0.00     0.053 C 
BRANCH  10  11
ATOM     11  C   UNL     1      22.740  12.131  35.509  1.00  0.00     0.041 C 
ATOM     12  O   UNL     1      22.299  11.030  35.932  1.00  0.00    -0.550 OA
ATOM     13  O   UNL     1      21.888  13.005  34.847  1.00  0.00    -0.550 OA
ENDBRANCH  10  11
ENDBRANCH   9  10
ENDBRANCH   8   9
ENDBRANCH   1   8
TORSDOF 8
ENDMDL
MODEL 3
REMARK VINA RESULT:    -4.825      1.237      6.005
REMARK INTER + INTRA:          -7.588
REMARK INTER:                  -7.169
REMARK INTRA:                  -0.419
REMARK UNBOUND:                -0.507
REMARK SMILES O=C([O-])CCCCCCCC(=O)[O-]
REMARK SMILES IDX 7 1 6 2 5 3 4 4 2 5 1 6 3 7 8 8 9 9 10 10 11 11 12 12 13 13
REMARK H PARENT
REMARK Flexibility Score: inf
ROOT
ATOM      1  C   UNL     1      25.864  11.514  34.389  1.00  0.00     0.000 C 
ENDROOT
BRANCH   1   2
ATOM      2  C   UNL     1      27.310  11.129  34.741  1.00  0.00     0.000 C 
BRANCH   2   3
ATOM      3  C   UNL     1      28.352  11.989  34.003  1.00  0.00     0.006 C 
BRANCH   3   4
ATOM      4  C   UNL     1      27.791  12.784  32.813  1.00  0.00     0.053 C 
BRANCH   4   5
ATOM      5  C   UNL     1      28.168  12.168  31.500  1.00  0.00     0.041 C 
ATOM      6  O   UNL     1      27.652  11.077  31.140  1.00  0.00    -0.550 OA
ATOM      7  O   UNL     1      29.066  12.816  30.661  1.00  0.00    -0.550 OA
ENDBRANCH   4   5
ENDBRANCH   3   4
ENDBRANCH   2   3
ENDBRANCH   1   2
BRANCH   1   8
ATOM      8  C   UNL     1      25.006  11.638  35.657  1.00  0.00     0.000 C 
BRANCH   8   9
ATOM      9  C   UNL     1      23.571  11.126  35.453  1.00  0.00     0.006 C 
BRANCH   9  10
ATOM     10  C   UNL     1      22.516  12.218  35.680  1.00  0.00     0.053 C 
BRANCH  10  11
ATOM     11  C   UNL     1      22.043  12.767  34.372  1.00  0.00     0.041 C 
ATOM     12  O   UNL     1      21.254  13.748  34.345  1.00  0.00    -0.550 OA
ATOM     13  O   UNL     1      22.513  12.228  33.182  1.00  0.00    -0.550 OA
ENDBRANCH  10  11
ENDBRANCH   9  10
ENDBRANCH   8   9
ENDBRANCH   1   8
TORSDOF 8
ENDMDL
MODEL 4
REMARK VINA RESULT:    -4.807      0.763      1.330
REMARK INTER + INTRA:          -7.562
REMARK INTER:                  -7.123
REMARK INTRA:                  -0.440
REMARK UNBOUND:                -0.507
REMARK SMILES O=C([O-])CCCCCCCC(=O)[O-]
REMARK SMILES IDX 7 1 6 2 5 3 4 4 2 5 1 6 3 7 8 8 9 9 10 10 11 11 12 12 13 13
REMARK H PARENT
REMARK Flexibility Score: inf
ROOT
ATOM      1  C   UNL     1      27.383  11.148  34.779  1.00  0.00     0.000 C 
ENDROOT
BRANCH   1   2
ATOM      2  C   UNL     1      26.227  11.947  35.401  1.00  0.00     0.000 C 
BRANCH   2   3
ATOM      3  C   UNL     1      24.940  11.115  35.551  1.00  0.00     0.006 C 
BRANCH   3   4
ATOM      4  C   UNL     1      23.642  11.925  35.415  1.00  0.00     0.053 C 
BRANCH   4   5
ATOM      5  C   UNL     1      22.474  11.057  35.057  1.00  0.00     0.041 C 
ATOM      6  O   UNL     1      21.897  10.373  35.943  1.00  0.00    -0.550 OA
ATOM      7  O   UNL     1      22.002  11.029  33.751  1.00  0.00    -0.550 OA
ENDBRANCH   4   5
ENDBRANCH   3   4
ENDBRANCH   2   3
ENDBRANCH   1   2
BRANCH   1   8
ATOM      8  C   UNL     1      28.318  12.068  33.980  1.00  0.00     0.000 C 
BRANCH   8   9
ATOM      9  C   UNL     1      27.556  13.118  33.158  1.00  0.00     0.006 C 
BRANCH   9  10
ATOM     10  C   UNL     1      26.951  12.537  31.872  1.00  0.00     0.053 C 
BRANCH  10  11
ATOM     11  C   UNL     1      28.026  11.975  30.997  1.00  0.00     0.041 C 
ATOM     12  O   UNL     1      27.951  10.787  30.584  1.00  0.00    -0.550 OA
ATOM     13  O   UNL     1      29.087  12.777  30.597  1.00  0.00    -0.550 OA
ENDBRANCH  10  11
ENDBRANCH   9  10
ENDBRANCH   8   9
ENDBRANCH   1   8
TORSDOF 8
ENDMDL
MODEL 5
REMARK VINA RESULT:    -4.767      1.499      5.676
REMARK INTER + INTRA:          -7.504
REMARK INTER:                  -6.984
REMARK INTRA:                  -0.519
REMARK UNBOUND:                -0.507
REMARK SMILES O=C([O-])CCCCCCCC(=O)[O-]
REMARK SMILES IDX 7 1 6 2 5 3 4 4 2 5 1 6 3 7 8 8 9 9 10 10 11 11 12 12 13 13
REMARK H PARENT
REMARK Flexibility Score: inf
ROOT
ATOM      1  C   UNL     1      25.827  12.644  35.530  1.00  0.00     0.000 C 
ENDROOT
BRANCH   1   2
ATOM      2  C   UNL     1      26.206  11.312  34.866  1.00  0.00     0.000 C 
BRANCH   2   3
ATOM      3  C   UNL     1      27.724  11.160  34.655  1.00  0.00     0.006 C 
BRANCH   3   4
ATOM      4  C   UNL     1      28.325  12.142  33.637  1.00  0.00     0.053 C 
BRANCH   4   5
ATOM      5  C   UNL     1      27.618  12.083  32.317  1.00  0.00     0.041 C 
ATOM      6  O   UNL     1      27.782  11.096  31.553  1.00  0.00    -0.550 OA
ATOM      7  O   UNL     1      26.752  13.105  31.947  1.00  0.00    -0.550 OA
ENDBRANCH   4   5
ENDBRANCH   3   4
ENDBRANCH   2   3
ENDBRANCH   1   2
BRANCH   1   8
ATOM      8  C   UNL     1      24.437  12.560  36.176  1.00  0.00     0.000 C 
BRANCH   8   9
ATOM      9  C   UNL     1      23.654  11.313  35.737  1.00  0.00     0.006 C 
BRANCH   9  10
ATOM     10  C   UNL     1      22.189  11.622  35.402  1.00  0.00     0.053 C 
BRANCH  10  11
ATOM     11  C   UNL     1      22.106  12.584  34.259  1.00  0.00     0.041 C 
ATOM     12  O   UNL     1      22.723  12.347  33.186  1.00  0.00    -0.550 OA
ATOM     13  O   UNL     1      21.310  13.716  34.361  1.00  0.00    -0.550 OA
ENDBRANCH  10  11
ENDBRANCH   9  10
ENDBRANCH   8   9
ENDBRANCH   1   8
TORSDOF 8
ENDMDL
MODEL 6
REMARK VINA RESULT:    -4.683      1.683      2.385
REMARK INTER + INTRA:          -7.380
REMARK INTER:                  -6.835
REMARK INTRA:                  -0.545
REMARK UNBOUND:                -0.507
REMARK SMILES O=C([O-])CCCCCCCC(=O)[O-]
REMARK SMILES IDX 7 1 6 2 5 3 4 4 2 5 1 6 3 7 8 8 9 9 10 10 11 11 12 12 13 13
REMARK H PARENT
REMARK Flexibility Score: inf
ROOT
ATOM      1  C   UNL     1      24.755  12.496  36.258  1.00  0.00     0.000 C 
ENDROOT
BRANCH   1   2
ATOM      2  C   UNL     1      24.330  11.082  35.831  1.00  0.00     0.000 C 
BRANCH   2   3
ATOM      3  C   UNL     1      22.833  10.986  35.488  1.00  0.00     0.006 C 
BRANCH   3   4
ATOM      4  C   UNL     1      22.105  12.339  35.442  1.00  0.00     0.053 C 
BRANCH   4   5
ATOM      5  C   UNL     1      21.881  12.809  34.037  1.00  0.00     0.041 C 
ATOM      6  O   UNL     1      22.504  12.273  33.083  1.00  0.00    -0.550 OA
ATOM      7  O   UNL     1      20.961  13.817  33.780  1.00  0.00    -0.550 OA
ENDBRANCH   4   5
ENDBRANCH   3   4
ENDBRANCH   2   3
ENDBRANCH   1   2
BRANCH   1   8
ATOM      8  C   UNL     1      25.912  13.007  35.387  1.00  0.00     0.000 C 
BRANCH   8   9
ATOM      9  C   UNL     1      25.952  12.341  34.004  1.00  0.00     0.006 C 
BRANCH   9  10
ATOM     10  C   UNL     1      26.709  13.180  32.965  1.00  0.00     0.053 C 
BRANCH  10  11
ATOM     11  C   UNL     1      28.033  12.556  32.654  1.00  0.00     0.041 C 
ATOM     12  O   UNL     1      28.640  11.887  33.532  1.00  0.00    -0.550 OA
ATOM     13  O   UNL     1      28.574  12.674  31.381  1.00  0.00    -0.550 OA
ENDBRANCH  10  11
ENDBRANCH   9  10
ENDBRANCH   8   9
ENDBRANCH   1   8
TORSDOF 8
ENDMDL
MODEL 7
REMARK VINA RESULT:    -4.661      2.308      3.400
REMARK INTER + INTRA:          -7.347
REMARK INTER:                  -6.957
REMARK INTRA:                  -0.390
REMARK UNBOUND:                -0.507
REMARK SMILES O=C([O-])CCCCCCCC(=O)[O-]
REMARK SMILES IDX 7 1 6 2 5 3 4 4 2 5 1 6 3 7 8 8 9 9 10 10 11 11 12 12 13 13
REMARK H PARENT
REMARK Flexibility Score: inf
ROOT
ATOM      1  C   UNL     1      24.060  11.514  34.680  1.00  0.00     0.000 C 
ENDROOT
BRANCH   1   2
ATOM      2  C   UNL     1      23.029  12.405  35.390  1.00  0.00     0.000 C 
BRANCH   2   3
ATOM      3  C   UNL     1      21.672  11.706  35.590  1.00  0.00     0.006 C 
BRANCH   3   4
ATOM      4  C   UNL     1      21.752  10.173  35.657  1.00  0.00     0.053 C 
BRANCH   4   5
ATOM      5  C   UNL     1      20.586   9.520  34.980  1.00  0.00     0.041 C 
ATOM      6  O   UNL     1      20.634   9.255  33.750  1.00  0.00    -0.550 OA
ATOM      7  O   UNL     1      19.459   9.175  35.715  1.00  0.00    -0.550 OA
ENDBRANCH   4   5
ENDBRANCH   3   4
ENDBRANCH   2   3
ENDBRANCH   1   2
BRANCH   1   8
ATOM      8  C   UNL     1      25.289  11.278  35.570  1.00  0.00     0.000 C 
BRANCH   8   9
ATOM      9  C   UNL     1      26.586  11.126  34.761  1.00  0.00     0.006 C 
BRANCH   9  10
ATOM     10  C   UNL     1      27.633  12.190  35.117  1.00  0.00     0.053 C 
BRANCH  10  11
ATOM     11  C   UNL     1      27.316  13.483  34.434  1.00  0.00     0.041 C 
ATOM     12  O   UNL     1      26.935  13.488  33.234  1.00  0.00    -0.550 OA
ATOM     13  O   UNL     1      27.395  14.677  35.137  1.00  0.00    -0.550 OA
ENDBRANCH  10  11
ENDBRANCH   9  10
ENDBRANCH   8   9
ENDBRANCH   1   8
TORSDOF 8
ENDMDL
MODEL 8
REMARK VINA RESULT:    -4.653      1.265      1.821
REMARK INTER + INTRA:          -7.337
REMARK INTER:                  -7.014
REMARK INTRA:                  -0.323
REMARK UNBOUND:                -0.507
REMARK SMILES O=C([O-])CCCCCCCC(=O)[O-]
REMARK SMILES IDX 7 1 6 2 5 3 4 4 2 5 1 6 3 7 8 8 9 9 10 10 11 11 12 12 13 13
REMARK H PARENT
REMARK Flexibility Score: inf
ROOT
ATOM      1  C   UNL     1      25.767  11.561  34.652  1.00  0.00     0.000 C 
ENDROOT
BRANCH   1   2
ATOM      2  C   UNL     1      24.713  11.180  35.703  1.00  0.00     0.000 C 
BRANCH   2   3
ATOM      3  C   UNL     1      23.555  12.192  35.782  1.00  0.00     0.006 C 
BRANCH   3   4
ATOM      4  C   UNL     1      22.176  11.607  35.442  1.00  0.00     0.053 C 
BRANCH   4   5
ATOM      5  C   UNL     1      21.132  12.673  35.305  1.00  0.00     0.041 C 
ATOM      6  O   UNL     1      20.106  12.652  36.034  1.00  0.00    -0.550 OA
ATOM      7  O   UNL     1      21.310  13.707  34.395  1.00  0.00    -0.550 OA
ENDBRANCH   4   5
ENDBRANCH   3   4
ENDBRANCH   2   3
ENDBRANCH   1   2
BRANCH   1   8
ATOM      8  C   UNL     1      26.644  12.719  35.150  1.00  0.00     0.000 C 
BRANCH   8   9
ATOM      9  C   UNL     1      27.452  13.378  34.021  1.00  0.00     0.006 C 
BRANCH   9  10
ATOM     10  C   UNL     1      28.226  12.358  33.175  1.00  0.00     0.053 C 
BRANCH  10  11
ATOM     11  C   UNL     1      27.960  12.577  31.719  1.00  0.00     0.041 C 
ATOM     12  O   UNL     1      26.779  12.561  31.282  1.00  0.00    -0.550 OA
ATOM     13  O   UNL     1      29.011  12.848  30.854  1.00  0.00    -0.550 OA
ENDBRANCH  10  11
ENDBRANCH   9  10
ENDBRANCH   8   9
ENDBRANCH   1   8
TORSDOF 8
ENDMDL
MODEL 9
REMARK VINA RESULT:    -4.539      1.956      6.905
REMARK INTER + INTRA:          -7.169
REMARK INTER:                  -6.850
REMARK INTRA:                  -0.319
REMARK UNBOUND:                -0.507
REMARK SMILES O=C([O-])CCCCCCCC(=O)[O-]
REMARK SMILES IDX 7 1 6 2 5 3 4 4 2 5 1 6 3 7 8 8 9 9 10 10 11 11 12 12 13 13
REMARK H PARENT
REMARK Flexibility Score: inf
ROOT
ATOM      1  C   UNL     1      23.789  12.061  34.595  1.00  0.00     0.000 C 
ENDROOT
BRANCH   1   2
ATOM      2  C   UNL     1      25.185  11.736  34.042  1.00  0.00     0.000 C 
BRANCH   2   3
ATOM      3  C   UNL     1      26.128  11.148  35.108  1.00  0.00     0.006 C 
BRANCH   3   4
ATOM      4  C   UNL     1      27.617  11.193  34.732  1.00  0.00     0.053 C 
BRANCH   4   5
ATOM      5  C   UNL     1      28.016  12.527  34.178  1.00  0.00     0.041 C 
ATOM      6  O   UNL     1      28.359  12.635  32.971  1.00  0.00    -0.550 OA
ATOM      7  O   UNL     1      27.978  13.655  34.987  1.00  0.00    -0.550 OA
ENDBRANCH   4   5
ENDBRANCH   3   4
ENDBRANCH   2   3
ENDBRANCH   1   2
BRANCH   1   8
ATOM      8  C   UNL     1      23.391  11.069  35.698  1.00  0.00     0.000 C 
BRANCH   8   9
ATOM      9  C   UNL     1      21.869  10.925  35.845  1.00  0.00     0.006 C 
BRANCH   9  10
ATOM     10  C   UNL     1      21.117  12.220  35.507  1.00  0.00     0.053 C 
BRANCH  10  11
ATOM     11  C   UNL     1      19.653  12.057  35.770  1.00  0.00     0.041 C 
ATOM     12  O   UNL     1      19.032  11.064  35.306  1.00  0.00    -0.550 OA
ATOM     13  O   UNL     1      18.985  12.975  36.569  1.00  0.00    -0.550 OA
ENDBRANCH  10  11
ENDBRANCH   9  10
ENDBRANCH   8   9
ENDBRANCH   1   8
TORSDOF 8
ENDMDL
