MODEL 1
REMARK VINA RESULT:    -5.220      0.000      0.000
REMARK INTER + INTRA:          -5.930
REMARK INTER:                  -5.678
REMARK INTRA:                  -0.252
REMARK UNBOUND:                -0.252
REMARK SMILES O=C([O-])c1ccccc1O
REMARK SMILES IDX 4 1 9 2 5 3 8 4 6 5 7 6 2 7 1 8 3 9 10 10
REMARK H PARENT 10 11
REMARK Flexibility Score: inf
ROOT
ATOM      1  C   UNL     1       1.180  58.944  23.723  1.00  0.00     0.039 A 
ATOM      2  C   UNL     1       2.464  59.364  23.285  1.00  0.00     0.124 A 
ATOM      3  C   UNL     1       0.622  57.776  23.172  1.00  0.00     0.014 A 
ATOM      4  C   UNL     1       3.173  58.578  22.367  1.00  0.00     0.047 A 
ATOM      5  C   UNL     1       1.335  57.015  22.242  1.00  0.00     0.001 A 
ATOM      6  C   UNL     1       2.612  57.411  21.847  1.00  0.00     0.004 A 
ENDROOT
BRANCH   1   7
ATOM      7  C   UNL     1       0.412  59.666  24.761  1.00  0.00     0.075 C 
ATOM      8  O   UNL     1      -0.237  59.040  25.639  1.00  0.00    -0.545 OA
ATOM      9  O   UNL     1       0.342  61.055  24.735  1.00  0.00    -0.545 OA
ENDBRANCH   1   7
BRANCH   2  10
ATOM     10  O   UNL     1       3.052  60.559  23.705  1.00  0.00    -0.507 OA
ATOM     11  H   UNL     1       2.598  61.460  23.635  1.00  0.00     0.293 HD
ENDBRANCH   2  10
TORSDOF 2
ENDMDL
MODEL 2
REMARK VINA RESULT:    -5.115      2.086      3.938
REMARK INTER + INTRA:          -5.816
REMARK INTER:                  -5.567
REMARK INTRA:                  -0.249
REMARK UNBOUND:                -0.252
REMARK SMILES O=C([O-])c1ccccc1O
REMARK SMILES IDX 4 1 9 2 5 3 8 4 6 5 7 6 2 7 1 8 3 9 10 10
REMARK H PARENT 10 11
REMARK Flexibility Score: inf
ROOT
ATOM      1  C   UNL     1       1.914  59.105  23.794  1.00  0.00     0.039 A 
ATOM      2  C   UNL     1       1.045  58.486  24.731  1.00  0.00     0.124 A 
ATOM      3  C   UNL     1       1.702  60.455  23.459  1.00  0.00     0.014 A 
ATOM      4  C   UNL     1       0.041  59.244  25.348  1.00  0.00     0.047 A 
ATOM      5  C   UNL     1       0.682  61.190  24.068  1.00  0.00     0.001 A 
ATOM      6  C   UNL     1      -0.141  60.587  25.018  1.00  0.00     0.004 A 
ENDROOT
BRANCH   1   7
ATOM      7  C   UNL     1       3.058  58.399  23.174  1.00  0.00     0.075 C 
ATOM      8  O   UNL     1       3.775  57.613  23.847  1.00  0.00    -0.545 OA
ATOM      9  O   UNL     1       3.396  58.652  21.850  1.00  0.00    -0.545 OA
ENDBRANCH   1   7
BRANCH   2  10
ATOM     10  O   UNL     1       1.122  57.129  25.051  1.00  0.00    -0.507 OA
ATOM     11  H   UNL     1       1.031  56.389  24.368  1.00  0.00     0.293 HD
ENDBRANCH   2  10
TORSDOF 2
ENDMDL
MODEL 3
REMARK VINA RESULT:    -4.975      2.055      3.936
REMARK INTER + INTRA:          -5.663
REMARK INTER:                  -5.439
REMARK INTRA:                  -0.224
REMARK UNBOUND:                -0.252
REMARK SMILES O=C([O-])c1ccccc1O
REMARK SMILES IDX 4 1 9 2 5 3 8 4 6 5 7 6 2 7 1 8 3 9 10 10
REMARK H PARENT 10 11
REMARK Flexibility Score: inf
ROOT
ATOM      1  C   UNL     1       1.676  58.680  23.888  1.00  0.00     0.039 A 
ATOM      2  C   UNL     1       0.496  58.802  24.666  1.00  0.00     0.124 A 
ATOM      3  C   UNL     1       2.257  59.841  23.345  1.00  0.00     0.014 A 
ATOM      4  C   UNL     1      -0.029  60.073  24.932  1.00  0.00     0.047 A 
ATOM      5  C   UNL     1       1.708  61.100  23.604  1.00  0.00     0.001 A 
ATOM      6  C   UNL     1       0.572  61.216  24.403  1.00  0.00     0.004 A 
ENDROOT
BRANCH   1   7
ATOM      7  C   UNL     1       2.345  57.382  23.644  1.00  0.00     0.075 C 
ATOM      8  O   UNL     1       3.562  57.219  23.923  1.00  0.00    -0.545 OA
ATOM      9  O   UNL     1       1.649  56.344  23.037  1.00  0.00    -0.545 OA
ENDBRANCH   1   7
BRANCH   2  10
ATOM     10  O   UNL     1      -0.200  57.697  25.162  1.00  0.00    -0.507 OA
ATOM     11  H   UNL     1      -1.115  57.419  24.832  1.00  0.00     0.293 HD
ENDBRANCH   2  10
TORSDOF 2
ENDMDL
MODEL 4
REMARK VINA RESULT:    -4.975      2.118      3.430
REMARK INTER + INTRA:          -5.663
REMARK INTER:                  -5.417
REMARK INTRA:                  -0.245
REMARK UNBOUND:                -0.252
REMARK SMILES O=C([O-])c1ccccc1O
REMARK SMILES IDX 4 1 9 2 5 3 8 4 6 5 7 6 2 7 1 8 3 9 10 10
REMARK H PARENT 10 11
REMARK Flexibility Score: inf
ROOT
ATOM      1  C   UNL     1       1.701  58.512  23.733  1.00  0.00     0.039 A 
ATOM      2  C   UNL     1       1.988  59.833  23.299  1.00  0.00     0.124 A 
ATOM      3  C   UNL     1       0.718  58.320  24.721  1.00  0.00     0.014 A 
ATOM      4  C   UNL     1       1.247  60.906  23.811  1.00  0.00     0.047 A 
ATOM      5  C   UNL     1       0.003  59.403  25.237  1.00  0.00     0.001 A 
ATOM      6  C   UNL     1       0.261  60.693  24.776  1.00  0.00     0.004 A 
ENDROOT
BRANCH   1   7
ATOM      7  C   UNL     1       2.372  57.319  23.168  1.00  0.00     0.075 C 
ATOM      8  O   UNL     1       2.874  56.443  23.919  1.00  0.00    -0.545 OA
ATOM      9  O   UNL     1       2.516  57.189  21.792  1.00  0.00    -0.545 OA
ENDBRANCH   1   7
BRANCH   2  10
ATOM     10  O   UNL     1       3.011  60.125  22.395  1.00  0.00    -0.507 OA
ATOM     11  H   UNL     1       3.886  60.558  22.662  1.00  0.00     0.293 HD
ENDBRANCH   2  10
TORSDOF 2
ENDMDL
MODEL 5
REMARK VINA RESULT:    -4.953      3.657      4.622
REMARK INTER + INTRA:          -5.639
REMARK INTER:                  -5.395
REMARK INTRA:                  -0.244
REMARK UNBOUND:                -0.252
REMARK SMILES O=C([O-])c1ccccc1O
REMARK SMILES IDX 4 1 9 2 5 3 8 4 6 5 7 6 2 7 1 8 3 9 10 10
REMARK H PARENT 10 11
REMARK Flexibility Score: inf
ROOT
ATOM      1  C   UNL     1       1.981  56.142  22.987  1.00  0.00     0.039 A 
ATOM      2  C   UNL     1       2.808  56.136  24.141  1.00  0.00     0.124 A 
ATOM      3  C   UNL     1       0.826  56.946  22.983  1.00  0.00     0.014 A 
ATOM      4  C   UNL     1       2.497  56.973  25.220  1.00  0.00     0.047 A 
ATOM      5  C   UNL     1       0.519  57.759  24.076  1.00  0.00     0.001 A 
ATOM      6  C   UNL     1       1.358  57.779  25.189  1.00  0.00     0.004 A 
ENDROOT
BRANCH   1   7
ATOM      7  C   UNL     1       2.297  55.361  21.770  1.00  0.00     0.075 C 
ATOM      8  O   UNL     1       2.247  55.891  20.630  1.00  0.00    -0.545 OA
ATOM      9  O   UNL     1       2.585  54.004  21.870  1.00  0.00    -0.545 OA
ENDBRANCH   1   7
BRANCH   2  10
ATOM     10  O   UNL     1       3.919  55.299  24.270  1.00  0.00    -0.507 OA
ATOM     11  H   UNL     1       4.448  54.949  23.483  1.00  0.00     0.293 HD
ENDBRANCH   2  10
TORSDOF 2
ENDMDL
MODEL 6
REMARK VINA RESULT:    -4.843      1.533      2.763
REMARK INTER + INTRA:          -5.519
REMARK INTER:                  -5.275
REMARK INTRA:                  -0.244
REMARK UNBOUND:                -0.252
REMARK SMILES O=C([O-])c1ccccc1O
REMARK SMILES IDX 4 1 9 2 5 3 8 4 6 5 7 6 2 7 1 8 3 9 10 10
REMARK H PARENT 10 11
REMARK Flexibility Score: inf
ROOT
ATOM      1  C   UNL     1       2.137  59.112  23.483  1.00  0.00     0.039 A 
ATOM      2  C   UNL     1       1.021  58.286  23.183  1.00  0.00     0.124 A 
ATOM      3  C   UNL     1       3.350  58.506  23.858  1.00  0.00     0.014 A 
ATOM      4  C   UNL     1       1.167  56.893  23.203  1.00  0.00     0.047 A 
ATOM      5  C   UNL     1       3.472  57.115  23.892  1.00  0.00     0.001 A 
ATOM      6  C   UNL     1       2.384  56.310  23.557  1.00  0.00     0.004 A 
ENDROOT
BRANCH   1   7
ATOM      7  C   UNL     1       2.089  60.588  23.389  1.00  0.00     0.075 C 
ATOM      8  O   UNL     1       2.995  61.228  22.794  1.00  0.00    -0.545 OA
ATOM      9  O   UNL     1       1.072  61.293  24.023  1.00  0.00    -0.545 OA
ENDBRANCH   1   7
BRANCH   2  10
ATOM     10  O   UNL     1      -0.245  58.801  22.897  1.00  0.00    -0.507 OA
ATOM     11  H   UNL     1      -0.558  59.714  23.200  1.00  0.00     0.293 HD
ENDBRANCH   2  10
TORSDOF 2
ENDMDL
MODEL 7
REMARK VINA RESULT:    -4.822      1.544      2.367
REMARK INTER + INTRA:          -5.497
REMARK INTER:                  -5.308
REMARK INTRA:                  -0.189
REMARK UNBOUND:                -0.252
REMARK SMILES O=C([O-])c1ccccc1O
REMARK SMILES IDX 4 1 9 2 5 3 8 4 6 5 7 6 2 7 1 8 3 9 10 10
REMARK H PARENT 10 11
REMARK Flexibility Score: inf
ROOT
ATOM      1  C   UNL     1       1.051  59.477  23.964  1.00  0.00     0.039 A 
ATOM      2  C   UNL     1       0.805  58.126  24.323  1.00  0.00     0.124 A 
ATOM      3  C   UNL     1       2.214  59.786  23.235  1.00  0.00     0.014 A 
ATOM      4  C   UNL     1       1.685  57.125  23.893  1.00  0.00     0.047 A 
ATOM      5  C   UNL     1       3.093  58.778  22.832  1.00  0.00     0.001 A 
ATOM      6  C   UNL     1       2.824  57.448  23.153  1.00  0.00     0.004 A 
ENDROOT
BRANCH   1   7
ATOM      7  C   UNL     1       0.118  60.578  24.296  1.00  0.00     0.075 C 
ATOM      8  O   UNL     1      -0.071  60.927  25.490  1.00  0.00    -0.545 OA
ATOM      9  O   UNL     1      -0.617  61.194  23.290  1.00  0.00    -0.545 OA
ENDBRANCH   1   7
BRANCH   2  10
ATOM     10  O   UNL     1      -0.271  57.741  25.125  1.00  0.00    -0.507 OA
ATOM     11  H   UNL     1      -1.219  57.655  24.784  1.00  0.00     0.293 HD
ENDBRANCH   2  10
TORSDOF 2
ENDMDL
MODEL 8
REMARK VINA RESULT:    -4.785      2.533      2.984
REMARK INTER + INTRA:          -5.456
REMARK INTER:                  -5.271
REMARK INTRA:                  -0.186
REMARK UNBOUND:                -0.252
REMARK SMILES O=C([O-])c1ccccc1O
REMARK SMILES IDX 4 1 9 2 5 3 8 4 6 5 7 6 2 7 1 8 3 9 10 10
REMARK H PARENT 10 11
REMARK Flexibility Score: inf
ROOT
ATOM      1  C   UNL     1       2.200  57.066  23.508  1.00  0.00     0.039 A 
ATOM      2  C   UNL     1       2.891  56.558  24.639  1.00  0.00     0.124 A 
ATOM      3  C   UNL     1       1.928  56.202  22.432  1.00  0.00     0.014 A 
ATOM      4  C   UNL     1       3.230  55.199  24.689  1.00  0.00     0.047 A 
ATOM      5  C   UNL     1       2.291  54.854  22.490  1.00  0.00     0.001 A 
ATOM      6  C   UNL     1       2.933  54.352  23.621  1.00  0.00     0.004 A 
ENDROOT
BRANCH   1   7
ATOM      7  C   UNL     1       1.722  58.465  23.423  1.00  0.00     0.075 C 
ATOM      8  O   UNL     1       0.496  58.724  23.314  1.00  0.00    -0.545 OA
ATOM      9  O   UNL     1       2.637  59.511  23.393  1.00  0.00    -0.545 OA
ENDBRANCH   1   7
BRANCH   2  10
ATOM     10  O   UNL     1       3.287  57.364  25.709  1.00  0.00    -0.507 OA
ATOM     11  H   UNL     1       3.642  56.998  26.582  1.00  0.00     0.293 HD
ENDBRANCH   2  10
TORSDOF 2
ENDMDL
MODEL 9
REMARK VINA RESULT:    -4.726      3.680      4.503
REMARK INTER + INTRA:          -5.393
REMARK INTER:                  -5.181
REMARK INTRA:                  -0.212
REMARK UNBOUND:                -0.252
REMARK SMILES O=C([O-])c1ccccc1O
REMARK SMILES IDX 4 1 9 2 5 3 8 4 6 5 7 6 2 7 1 8 3 9 10 10
REMARK H PARENT 10 11
REMARK Flexibility Score: inf
ROOT
ATOM      1  C   UNL     1       2.425  56.053  24.027  1.00  0.00     0.039 A 
ATOM      2  C   UNL     1       2.004  56.265  22.688  1.00  0.00     0.124 A 
ATOM      3  C   UNL     1       2.080  57.002  25.007  1.00  0.00     0.014 A 
ATOM      4  C   UNL     1       1.205  57.374  22.382  1.00  0.00     0.047 A 
ATOM      5  C   UNL     1       1.300  58.114  24.680  1.00  0.00     0.001 A 
ATOM      6  C   UNL     1       0.856  58.295  23.371  1.00  0.00     0.004 A 
ENDROOT
BRANCH   1   7
ATOM      7  C   UNL     1       3.187  54.855  24.448  1.00  0.00     0.075 C 
ATOM      8  O   UNL     1       3.527  53.978  23.612  1.00  0.00    -0.545 OA
ATOM      9  O   UNL     1       3.477  54.652  25.792  1.00  0.00    -0.545 OA
ENDBRANCH   1   7
BRANCH   2  10
ATOM     10  O   UNL     1       2.380  55.427  21.636  1.00  0.00    -0.507 OA
ATOM     11  H   UNL     1       1.765  55.179  20.873  1.00  0.00     0.293 HD
ENDBRANCH   2  10
TORSDOF 2
ENDMDL
