MODEL 1
REMARK VINA RESULT:    -5.316      0.000      0.000
REMARK INTER + INTRA:          -9.619
REMARK INTER:                  -8.268
REMARK INTRA:                  -1.351
REMARK UNBOUND:                -1.351
REMARK SMILES C[C@@]12C[C@@]3(O)O[C@@H](O1)[C@]1(COC(=O)c4ccccc4)[C@H]3C[C@@]12O[C@H]1O[C@H](CO)[C@@H](O)[C@H](O)[C@@H]1O
REMARK SMILES IDX 1 1 2 2 3 3 4 4 20 5 21 6 22 7 9 8 7 9 8 10 6 11 23 12 24 13
REMARK SMILES IDX 33 14 25 15 31 16 26 17 29 18 34 19 32 21 27 23 28 24 30 26
REMARK SMILES IDX 5 28 10 30 11 31 12 32 13 33 14 34 15 35 19 36 16 37 18 38
REMARK SMILES IDX 17 39
REMARK H PARENT 34 20 32 22 28 25 30 27 5 29
REMARK Flexibility Score: inf
ROOT
ATOM      1  C   UNL     1       7.533  -4.253  34.601  1.00  0.00     0.046 C 
ATOM      2  C   UNL     1       6.022  -4.442  34.494  1.00  0.00     0.104 C 
ATOM      3  C   UNL     1       5.380  -3.409  33.496  1.00  0.00     0.104 C 
ATOM      4  C   UNL     1       3.843  -3.706  33.606  1.00  0.00     0.175 C 
ATOM      5  C   UNL     1       3.400  -3.766  35.104  1.00  0.00     0.070 C 
ATOM      6  C   UNL     1       4.413  -3.106  36.057  1.00  0.00     0.050 C 
ATOM      7  C   UNL     1       5.271  -4.393  35.878  1.00  0.00     0.115 C 
ATOM      8  C   UNL     1       4.001  -5.122  35.450  1.00  0.00     0.096 C 
ATOM      9  C   UNL     1       4.308  -5.811  34.134  1.00  0.00     0.267 C 
ATOM     10  O   UNL     1       5.714  -5.720  33.971  1.00  0.00    -0.342 OA
ATOM     11  O   UNL     1       3.672  -5.027  33.136  1.00  0.00    -0.320 OA
ENDROOT
BRANCH   7  12
ATOM     12  O   UNL     1       5.966  -5.062  36.934  1.00  0.00    -0.339 OA
BRANCH  12  13
ATOM     13  C   UNL     1       6.096  -4.344  38.153  1.00  0.00     0.282 C 
ATOM     14  C   UNL     1       7.305  -3.378  38.152  1.00  0.00     0.202 C 
ATOM     15  O   UNL     1       6.182  -5.253  39.239  1.00  0.00    -0.341 OA
ATOM     16  C   UNL     1       8.633  -4.165  38.192  1.00  0.00     0.179 C 
ATOM     17  C   UNL     1       7.331  -6.083  39.153  1.00  0.00     0.178 C 
ATOM     18  C   UNL     1       8.612  -5.237  39.297  1.00  0.00     0.177 C 
BRANCH  14  19
ATOM     19  O   UNL     1       7.204  -2.537  39.274  1.00  0.00    -0.385 OA
ATOM     20  H   UNL     1       6.745  -1.707  38.978  1.00  0.00     0.211 HD
ENDBRANCH  14  19
BRANCH  16  21
ATOM     21  O   UNL     1       9.736  -3.301  38.326  1.00  0.00    -0.387 OA
ATOM     22  H   UNL     1       9.616  -2.780  39.162  1.00  0.00     0.211 HD
ENDBRANCH  16  21
BRANCH  17  23
ATOM     23  C   UNL     1       7.249  -7.142  40.263  1.00  0.00     0.191 C 
BRANCH  23  24
ATOM     24  O   UNL     1       7.746  -6.627  41.470  1.00  0.00    -0.394 OA
ATOM     25  H   UNL     1       7.802  -5.642  41.360  1.00  0.00     0.210 HD
ENDBRANCH  23  24
ENDBRANCH  17  23
BRANCH  18  26
ATOM     26  O   UNL     1       9.742  -6.065  39.171  1.00  0.00    -0.387 OA
ATOM     27  H   UNL     1      10.519  -5.544  39.503  1.00  0.00     0.211 HD
ENDBRANCH  18  26
ENDBRANCH  12  13
ENDBRANCH   7  12
BRANCH   4  28
ATOM     28  O   UNL     1       3.071  -2.810  32.854  1.00  0.00    -0.365 OA
ATOM     29  H   UNL     1       2.857  -2.048  33.451  1.00  0.00     0.214 HD
ENDBRANCH   4  28
BRANCH   8  30
ATOM     30  C   UNL     1       3.245  -5.938  36.512  1.00  0.00     0.249 C 
BRANCH  30  31
ATOM     31  O   UNL     1       3.517  -7.323  36.332  1.00  0.00    -0.461 OA
BRANCH  31  32
ATOM     32  C   UNL     1       2.797  -8.330  36.983  1.00  0.00     0.338 C 
ATOM     33  O   UNL     1       2.236  -9.241  36.313  1.00  0.00    -0.246 OA
BRANCH  32  34
ATOM     34  C   UNL     1       2.695  -8.320  38.458  1.00  0.00     0.060 A 
ATOM     35  C   UNL     1       3.852  -8.345  39.259  1.00  0.00     0.015 A 
ATOM     36  C   UNL     1       1.434  -8.299  39.084  1.00  0.00     0.015 A 
ATOM     37  C   UNL     1       3.746  -8.350  40.655  1.00  0.00     0.001 A 
ATOM     38  C   UNL     1       1.334  -8.308  40.479  1.00  0.00     0.001 A 
ATOM     39  C   UNL     1       2.490  -8.334  41.264  1.00  0.00     0.000 A 
ENDBRANCH  32  34
ENDBRANCH  31  32
ENDBRANCH  30  31
ENDBRANCH   8  30
TORSDOF 12
ENDMDL
MODEL 2
REMARK VINA RESULT:    -5.314      2.443      7.427
REMARK INTER + INTRA:          -9.616
REMARK INTER:                  -8.057
REMARK INTRA:                  -1.559
REMARK UNBOUND:                -1.351
REMARK SMILES C[C@@]12C[C@@]3(O)O[C@@H](O1)[C@]1(COC(=O)c4ccccc4)[C@H]3C[C@@]12O[C@H]1O[C@H](CO)[C@@H](O)[C@H](O)[C@@H]1O
REMARK SMILES IDX 1 1 2 2 3 3 4 4 20 5 21 6 22 7 9 8 7 9 8 10 6 11 23 12 24 13
REMARK SMILES IDX 33 14 25 15 31 16 26 17 29 18 34 19 32 21 27 23 28 24 30 26
REMARK SMILES IDX 5 28 10 30 11 31 12 32 13 33 14 34 15 35 19 36 16 37 18 38
REMARK SMILES IDX 17 39
REMARK H PARENT 34 20 32 22 28 25 30 27 5 29
REMARK Flexibility Score: inf
ROOT
ATOM      1  C   UNL     1       8.123  -7.101  37.080  1.00  0.00     0.046 C 
ATOM      2  C   UNL     1       7.708  -5.637  37.206  1.00  0.00     0.104 C 
ATOM      3  C   UNL     1       8.316  -4.973  38.495  1.00  0.00     0.104 C 
ATOM      4  C   UNL     1       7.700  -3.530  38.485  1.00  0.00     0.175 C 
ATOM      5  C   UNL     1       6.154  -3.595  38.261  1.00  0.00     0.070 C 
ATOM      6  C   UNL     1       5.563  -4.987  38.545  1.00  0.00     0.050 C 
ATOM      7  C   UNL     1       6.150  -5.408  37.165  1.00  0.00     0.115 C 
ATOM      8  C   UNL     1       6.168  -3.933  36.777  1.00  0.00     0.096 C 
ATOM      9  C   UNL     1       7.565  -3.624  36.272  1.00  0.00     0.267 C 
ATOM     10  O   UNL     1       8.204  -4.881  36.117  1.00  0.00    -0.342 OA
ATOM     11  O   UNL     1       8.198  -2.907  37.320  1.00  0.00    -0.320 OA
ENDROOT
BRANCH   7  12
ATOM     12  O   UNL     1       5.472  -6.226  36.207  1.00  0.00    -0.339 OA
BRANCH  12  13
ATOM     13  C   UNL     1       4.519  -7.142  36.728  1.00  0.00     0.282 C 
ATOM     14  C   UNL     1       4.501  -8.487  35.961  1.00  0.00     0.202 C 
ATOM     15  O   UNL     1       3.230  -6.546  36.725  1.00  0.00    -0.341 OA
ATOM     16  C   UNL     1       3.912  -8.301  34.546  1.00  0.00     0.179 C 
ATOM     17  C   UNL     1       2.789  -6.230  35.413  1.00  0.00     0.178 C 
ATOM     18  C   UNL     1       2.585  -7.520  34.593  1.00  0.00     0.177 C 
BRANCH  14  19
ATOM     19  O   UNL     1       3.729  -9.405  36.694  1.00  0.00    -0.385 OA
ATOM     20  H   UNL     1       3.442 -10.116  36.062  1.00  0.00     0.211 HD
ENDBRANCH  14  19
BRANCH  16  21
ATOM     21  O   UNL     1       3.765  -9.535  33.887  1.00  0.00    -0.387 OA
ATOM     22  H   UNL     1       4.665  -9.836  33.597  1.00  0.00     0.211 HD
ENDBRANCH  16  21
BRANCH  17  23
ATOM     23  C   UNL     1       1.477  -5.438  35.520  1.00  0.00     0.191 C 
BRANCH  23  24
ATOM     24  O   UNL     1       1.328  -4.585  34.417  1.00  0.00    -0.394 OA
ATOM     25  H   UNL     1       2.073  -4.791  33.793  1.00  0.00     0.210 HD
ENDBRANCH  23  24
ENDBRANCH  17  23
BRANCH  18  26
ATOM     26  O   UNL     1       2.186  -7.190  33.285  1.00  0.00    -0.387 OA
ATOM     27  H   UNL     1       1.568  -7.907  32.984  1.00  0.00     0.211 HD
ENDBRANCH  18  26
ENDBRANCH  12  13
ENDBRANCH   7  12
BRANCH   4  28
ATOM     28  O   UNL     1       8.046  -2.793  39.626  1.00  0.00    -0.365 OA
ATOM     29  H   UNL     1       7.228  -2.314  39.915  1.00  0.00     0.214 HD
ENDBRANCH   4  28
BRANCH   8  30
ATOM     30  C   UNL     1       4.987  -3.389  35.954  1.00  0.00     0.249 C 
BRANCH  30  31
ATOM     31  O   UNL     1       5.442  -3.005  34.662  1.00  0.00    -0.461 OA
BRANCH  31  32
ATOM     32  C   UNL     1       4.573  -2.680  33.616  1.00  0.00     0.338 C 
ATOM     33  O   UNL     1       3.537  -3.374  33.415  1.00  0.00    -0.246 OA
BRANCH  32  34
ATOM     34  C   UNL     1       4.874  -1.522  32.747  1.00  0.00     0.060 A 
ATOM     35  C   UNL     1       3.928  -1.059  31.812  1.00  0.00     0.015 A 
ATOM     36  C   UNL     1       6.120  -0.872  32.834  1.00  0.00     0.015 A 
ATOM     37  C   UNL     1       4.227   0.029  30.984  1.00  0.00     0.001 A 
ATOM     38  C   UNL     1       6.414   0.212  32.001  1.00  0.00     0.001 A 
ATOM     39  C   UNL     1       5.469   0.662  31.075  1.00  0.00     0.000 A 
ENDBRANCH  32  34
ENDBRANCH  31  32
ENDBRANCH  30  31
ENDBRANCH   8  30
TORSDOF 12
ENDMDL
MODEL 3
REMARK VINA RESULT:    -5.279      1.784      2.776
REMARK INTER + INTRA:          -9.561
REMARK INTER:                  -7.930
REMARK INTRA:                  -1.631
REMARK UNBOUND:                -1.351
REMARK SMILES C[C@@]12C[C@@]3(O)O[C@@H](O1)[C@]1(COC(=O)c4ccccc4)[C@H]3C[C@@]12O[C@H]1O[C@H](CO)[C@@H](O)[C@H](O)[C@@H]1O
REMARK SMILES IDX 1 1 2 2 3 3 4 4 20 5 21 6 22 7 9 8 7 9 8 10 6 11 23 12 24 13
REMARK SMILES IDX 33 14 25 15 31 16 26 17 29 18 34 19 32 21 27 23 28 24 30 26
REMARK SMILES IDX 5 28 10 30 11 31 12 32 13 33 14 34 15 35 19 36 16 37 18 38
REMARK SMILES IDX 17 39
REMARK H PARENT 34 20 32 22 28 25 30 27 5 29
REMARK Flexibility Score: inf
ROOT
ATOM      1  C   UNL     1       7.658  -2.783  34.513  1.00  0.00     0.046 C 
ATOM      2  C   UNL     1       6.300  -3.455  34.325  1.00  0.00     0.104 C 
ATOM      3  C   UNL     1       5.316  -2.548  33.498  1.00  0.00     0.104 C 
ATOM      4  C   UNL     1       3.977  -3.366  33.506  1.00  0.00     0.175 C 
ATOM      5  C   UNL     1       3.623  -3.828  34.956  1.00  0.00     0.070 C 
ATOM      6  C   UNL     1       4.376  -3.035  36.039  1.00  0.00     0.050 C 
ATOM      7  C   UNL     1       5.616  -3.902  35.673  1.00  0.00     0.115 C 
ATOM      8  C   UNL     1       4.660  -4.936  35.086  1.00  0.00     0.096 C 
ATOM      9  C   UNL     1       5.147  -5.244  33.682  1.00  0.00     0.267 C 
ATOM     10  O   UNL     1       6.432  -4.652  33.583  1.00  0.00    -0.342 OA
ATOM     11  O   UNL     1       4.254  -4.565  32.813  1.00  0.00    -0.320 OA
ENDROOT
BRANCH   7  12
ATOM     12  O   UNL     1       6.527  -4.464  36.622  1.00  0.00    -0.339 OA
BRANCH  12  13
ATOM     13  C   UNL     1       6.540  -3.864  37.909  1.00  0.00     0.282 C 
ATOM     14  C   UNL     1       7.966  -3.493  38.382  1.00  0.00     0.202 C 
ATOM     15  O   UNL     1       5.910  -4.724  38.846  1.00  0.00    -0.341 OA
ATOM     16  C   UNL     1       8.784  -4.764  38.698  1.00  0.00     0.179 C 
ATOM     17  C   UNL     1       6.597  -5.958  38.986  1.00  0.00     0.178 C 
ATOM     18  C   UNL     1       7.992  -5.727  39.601  1.00  0.00     0.177 C 
BRANCH  14  19
ATOM     19  O   UNL     1       7.859  -2.685  39.527  1.00  0.00    -0.385 OA
ATOM     20  H   UNL     1       7.194  -3.113  40.127  1.00  0.00     0.211 HD
ENDBRANCH  14  19
BRANCH  16  21
ATOM     21  O   UNL     1      10.036  -4.441  39.255  1.00  0.00    -0.387 OA
ATOM     22  H   UNL     1      10.686  -4.343  38.512  1.00  0.00     0.211 HD
ENDBRANCH  16  21
BRANCH  17  23
ATOM     23  C   UNL     1       5.755  -6.884  39.877  1.00  0.00     0.191 C 
BRANCH  23  24
ATOM     24  O   UNL     1       5.854  -6.494  41.221  1.00  0.00    -0.394 OA
ATOM     25  H   UNL     1       6.718  -6.015  41.318  1.00  0.00     0.210 HD
ENDBRANCH  23  24
ENDBRANCH  17  23
BRANCH  18  26
ATOM     26  O   UNL     1       8.676  -6.952  39.698  1.00  0.00    -0.387 OA
ATOM     27  H   UNL     1       8.490  -7.452  38.860  1.00  0.00     0.211 HD
ENDBRANCH  18  26
ENDBRANCH  12  13
ENDBRANCH   7  12
BRANCH   4  28
ATOM     28  O   UNL     1       2.925  -2.673  32.892  1.00  0.00    -0.365 OA
ATOM     29  H   UNL     1       2.109  -2.864  33.423  1.00  0.00     0.214 HD
ENDBRANCH   4  28
BRANCH   8  30
ATOM     30  C   UNL     1       4.259  -6.129  35.969  1.00  0.00     0.249 C 
BRANCH  30  31
ATOM     31  O   UNL     1       4.439  -7.341  35.244  1.00  0.00    -0.461 OA
BRANCH  31  32
ATOM     32  C   UNL     1       3.393  -8.231  34.979  1.00  0.00     0.338 C 
ATOM     33  O   UNL     1       3.616  -9.472  34.926  1.00  0.00    -0.246 OA
BRANCH  32  34
ATOM     34  C   UNL     1       2.026  -7.710  34.761  1.00  0.00     0.060 A 
ATOM     35  C   UNL     1       0.986  -8.022  35.658  1.00  0.00     0.015 A 
ATOM     36  C   UNL     1       1.743  -6.903  33.643  1.00  0.00     0.015 A 
ATOM     37  C   UNL     1      -0.308  -7.536  35.435  1.00  0.00     0.001 A 
ATOM     38  C   UNL     1       0.447  -6.424  33.425  1.00  0.00     0.001 A 
ATOM     39  C   UNL     1      -0.578  -6.741  34.319  1.00  0.00     0.000 A 
ENDBRANCH  32  34
ENDBRANCH  31  32
ENDBRANCH  30  31
ENDBRANCH   8  30
TORSDOF 12
ENDMDL
MODEL 4
REMARK VINA RESULT:    -5.129      4.316      8.399
REMARK INTER + INTRA:          -9.327
REMARK INTER:                  -7.684
REMARK INTRA:                  -1.643
REMARK UNBOUND:                -1.351
REMARK SMILES C[C@@]12C[C@@]3(O)O[C@@H](O1)[C@]1(COC(=O)c4ccccc4)[C@H]3C[C@@]12O[C@H]1O[C@H](CO)[C@@H](O)[C@H](O)[C@@H]1O
REMARK SMILES IDX 1 1 2 2 3 3 4 4 20 5 21 6 22 7 9 8 7 9 8 10 6 11 23 12 24 13
REMARK SMILES IDX 33 14 25 15 31 16 26 17 29 18 34 19 32 21 27 23 28 24 30 26
REMARK SMILES IDX 5 28 10 30 11 31 12 32 13 33 14 34 15 35 19 36 16 37 18 38
REMARK SMILES IDX 17 39
REMARK H PARENT 34 20 32 22 28 25 30 27 5 29
REMARK Flexibility Score: inf
ROOT
ATOM      1  C   UNL     1       0.220  -6.388  34.320  1.00  0.00     0.046 C 
ATOM      2  C   UNL     1       1.004  -7.222  35.332  1.00  0.00     0.104 C 
ATOM      3  C   UNL     1       2.253  -7.909  34.669  1.00  0.00     0.104 C 
ATOM      4  C   UNL     1       2.849  -8.776  35.833  1.00  0.00     0.175 C 
ATOM      5  C   UNL     1       1.728  -9.624  36.517  1.00  0.00     0.070 C 
ATOM      6  C   UNL     1       0.463  -9.755  35.652  1.00  0.00     0.050 C 
ATOM      7  C   UNL     1       0.134  -8.296  36.086  1.00  0.00     0.115 C 
ATOM      8  C   UNL     1       1.051  -8.498  37.288  1.00  0.00     0.096 C 
ATOM      9  C   UNL     1       2.024  -7.334  37.304  1.00  0.00     0.267 C 
ATOM     10  O   UNL     1       1.521  -6.401  36.361  1.00  0.00    -0.342 OA
ATOM     11  O   UNL     1       3.254  -7.859  36.828  1.00  0.00    -0.320 OA
ENDROOT
BRANCH   7  12
ATOM     12  O   UNL     1      -1.167  -7.829  36.454  1.00  0.00    -0.339 OA
BRANCH  12  13
ATOM     13  C   UNL     1      -2.266  -8.579  35.957  1.00  0.00     0.282 C 
ATOM     14  C   UNL     1      -2.880  -7.965  34.676  1.00  0.00     0.202 C 
ATOM     15  O   UNL     1      -3.253  -8.714  36.970  1.00  0.00    -0.341 OA
ATOM     16  C   UNL     1      -3.614  -6.646  35.000  1.00  0.00     0.179 C 
ATOM     17  C   UNL     1      -3.786  -7.461  37.367  1.00  0.00     0.178 C 
ATOM     18  C   UNL     1      -4.563  -6.816  36.201  1.00  0.00     0.177 C 
BRANCH  14  19
ATOM     19  O   UNL     1      -3.775  -8.896  34.120  1.00  0.00    -0.385 OA
ATOM     20  H   UNL     1      -4.263  -8.434  33.390  1.00  0.00     0.211 HD
ENDBRANCH  14  19
BRANCH  16  21
ATOM     21  O   UNL     1      -4.289  -6.145  33.871  1.00  0.00    -0.387 OA
ATOM     22  H   UNL     1      -4.624  -6.919  33.348  1.00  0.00     0.211 HD
ENDBRANCH  16  21
BRANCH  17  23
ATOM     23  C   UNL     1      -4.707  -7.687  38.576  1.00  0.00     0.191 C 
BRANCH  23  24
ATOM     24  O   UNL     1      -4.937  -6.478  39.250  1.00  0.00    -0.394 OA
ATOM     25  H   UNL     1      -4.289  -6.442  40.002  1.00  0.00     0.210 HD
ENDBRANCH  23  24
ENDBRANCH  17  23
BRANCH  18  26
ATOM     26  O   UNL     1      -5.052  -5.558  36.596  1.00  0.00    -0.387 OA
ATOM     27  H   UNL     1      -4.496  -5.261  37.363  1.00  0.00     0.211 HD
ENDBRANCH  18  26
ENDBRANCH  12  13
ENDBRANCH   7  12
BRANCH   4  28
ATOM     28  O   UNL     1       3.934  -9.560  35.414  1.00  0.00    -0.365 OA
ATOM     29  H   UNL     1       4.594  -8.939  35.009  1.00  0.00     0.214 HD
ENDBRANCH   4  28
BRANCH   8  30
ATOM     30  C   UNL     1       0.409  -8.896  38.628  1.00  0.00     0.249 C 
BRANCH  30  31
ATOM     31  O   UNL     1       1.068  -8.219  39.692  1.00  0.00    -0.461 OA
BRANCH  31  32
ATOM     32  C   UNL     1       1.944  -8.861  40.574  1.00  0.00     0.338 C 
ATOM     33  O   UNL     1       1.506  -9.368  41.644  1.00  0.00    -0.246 OA
BRANCH  32  34
ATOM     34  C   UNL     1       3.383  -8.941  40.246  1.00  0.00     0.060 A 
ATOM     35  C   UNL     1       4.262  -7.903  40.608  1.00  0.00     0.015 A 
ATOM     36  C   UNL     1       3.894 -10.055  39.552  1.00  0.00     0.015 A 
ATOM     37  C   UNL     1       5.621  -7.980  40.280  1.00  0.00     0.001 A 
ATOM     38  C   UNL     1       5.252 -10.125  39.225  1.00  0.00     0.001 A 
ATOM     39  C   UNL     1       6.115  -9.088  39.588  1.00  0.00     0.000 A 
ENDBRANCH  32  34
ENDBRANCH  31  32
ENDBRANCH  30  31
ENDBRANCH   8  30
TORSDOF 12
ENDMDL
MODEL 5
REMARK VINA RESULT:    -5.025      3.032      6.997
REMARK INTER + INTRA:          -9.166
REMARK INTER:                  -7.855
REMARK INTRA:                  -1.311
REMARK UNBOUND:                -1.351
REMARK SMILES C[C@@]12C[C@@]3(O)O[C@@H](O1)[C@]1(COC(=O)c4ccccc4)[C@H]3C[C@@]12O[C@H]1O[C@H](CO)[C@@H](O)[C@H](O)[C@@H]1O
REMARK SMILES IDX 1 1 2 2 3 3 4 4 20 5 21 6 22 7 9 8 7 9 8 10 6 11 23 12 24 13
REMARK SMILES IDX 33 14 25 15 31 16 26 17 29 18 34 19 32 21 27 23 28 24 30 26
REMARK SMILES IDX 5 28 10 30 11 31 12 32 13 33 14 34 15 35 19 36 16 37 18 38
REMARK SMILES IDX 17 39
REMARK H PARENT 34 20 32 22 28 25 30 27 5 29
REMARK Flexibility Score: inf
ROOT
ATOM      1  C   UNL     1       5.638  -3.354  38.614  1.00  0.00     0.046 C 
ATOM      2  C   UNL     1       5.798  -4.090  37.286  1.00  0.00     0.104 C 
ATOM      3  C   UNL     1       5.227  -5.553  37.363  1.00  0.00     0.104 C 
ATOM      4  C   UNL     1       5.573  -6.152  35.955  1.00  0.00     0.175 C 
ATOM      5  C   UNL     1       7.072  -5.887  35.598  1.00  0.00     0.070 C 
ATOM      6  C   UNL     1       7.927  -5.529  36.825  1.00  0.00     0.050 C 
ATOM      7  C   UNL     1       7.277  -4.116  36.744  1.00  0.00     0.115 C 
ATOM      8  C   UNL     1       6.956  -4.402  35.280  1.00  0.00     0.096 C 
ATOM      9  C   UNL     1       5.479  -4.112  35.086  1.00  0.00     0.267 C 
ATOM     10  O   UNL     1       5.060  -3.445  36.265  1.00  0.00    -0.342 OA
ATOM     11  O   UNL     1       4.847  -5.381  35.020  1.00  0.00    -0.320 OA
ENDROOT
BRANCH   7  12
ATOM     12  O   UNL     1       7.980  -2.883  36.927  1.00  0.00    -0.339 OA
BRANCH  12  13
ATOM     13  C   UNL     1       9.337  -2.990  37.333  1.00  0.00     0.282 C 
ATOM     14  C   UNL     1       9.513  -2.877  38.867  1.00  0.00     0.202 C 
ATOM     15  O   UNL     1      10.116  -2.009  36.666  1.00  0.00    -0.341 OA
ATOM     16  C   UNL     1       9.229  -1.436  39.344  1.00  0.00     0.179 C 
ATOM     17  C   UNL     1       9.714  -0.689  36.998  1.00  0.00     0.178 C 
ATOM     18  C   UNL     1       9.989  -0.405  38.489  1.00  0.00     0.177 C 
BRANCH  14  19
ATOM     19  O   UNL     1      10.829  -3.247  39.192  1.00  0.00    -0.385 OA
ATOM     20  H   UNL     1      10.869  -4.239  39.167  1.00  0.00     0.211 HD
ENDBRANCH  14  19
BRANCH  16  21
ATOM     21  O   UNL     1       9.513  -1.285  40.714  1.00  0.00    -0.387 OA
ATOM     22  H   UNL     1       9.539  -0.314  40.916  1.00  0.00     0.211 HD
ENDBRANCH  16  21
BRANCH  17  23
ATOM     23  C   UNL     1      10.487   0.293  36.105  1.00  0.00     0.191 C 
BRANCH  23  24
ATOM     24  O   UNL     1       9.600   1.044  35.319  1.00  0.00    -0.394 OA
ATOM     25  H   UNL     1       9.113   1.650  35.937  1.00  0.00     0.210 HD
ENDBRANCH  23  24
ENDBRANCH  17  23
BRANCH  18  26
ATOM     26  O   UNL     1       9.550   0.891  38.813  1.00  0.00    -0.387 OA
ATOM     27  H   UNL     1      10.206   1.524  38.419  1.00  0.00     0.211 HD
ENDBRANCH  18  26
ENDBRANCH  12  13
ENDBRANCH   7  12
BRANCH   4  28
ATOM     28  O   UNL     1       5.229  -7.507  35.852  1.00  0.00    -0.365 OA
ATOM     29  H   UNL     1       4.296  -7.589  36.180  1.00  0.00     0.214 HD
ENDBRANCH   4  28
BRANCH   8  30
ATOM     30  C   UNL     1       7.924  -3.868  34.211  1.00  0.00     0.249 C 
BRANCH  30  31
ATOM     31  O   UNL     1       7.193  -3.163  33.214  1.00  0.00    -0.461 OA
BRANCH  31  32
ATOM     32  C   UNL     1       7.242  -1.771  33.078  1.00  0.00     0.338 C 
ATOM     33  O   UNL     1       8.192  -1.118  33.591  1.00  0.00    -0.246 OA
BRANCH  32  34
ATOM     34  C   UNL     1       6.174  -1.072  32.331  1.00  0.00     0.060 A 
ATOM     35  C   UNL     1       6.477  -0.320  31.179  1.00  0.00     0.015 A 
ATOM     36  C   UNL     1       4.839  -1.137  32.770  1.00  0.00     0.015 A 
ATOM     37  C   UNL     1       5.463   0.351  30.486  1.00  0.00     0.001 A 
ATOM     38  C   UNL     1       3.830  -0.460  32.076  1.00  0.00     0.001 A 
ATOM     39  C   UNL     1       4.142   0.284  30.935  1.00  0.00     0.000 A 
ENDBRANCH  32  34
ENDBRANCH  31  32
ENDBRANCH  30  31
ENDBRANCH   8  30
TORSDOF 12
ENDMDL
MODEL 6
REMARK VINA RESULT:    -5.014      2.968      5.900
REMARK INTER + INTRA:          -9.150
REMARK INTER:                  -7.402
REMARK INTRA:                  -1.747
REMARK UNBOUND:                -1.351
REMARK SMILES C[C@@]12C[C@@]3(O)O[C@@H](O1)[C@]1(COC(=O)c4ccccc4)[C@H]3C[C@@]12O[C@H]1O[C@H](CO)[C@@H](O)[C@H](O)[C@@H]1O
REMARK SMILES IDX 1 1 2 2 3 3 4 4 20 5 21 6 22 7 9 8 7 9 8 10 6 11 23 12 24 13
REMARK SMILES IDX 33 14 25 15 31 16 26 17 29 18 34 19 32 21 27 23 28 24 30 26
REMARK SMILES IDX 5 28 10 30 11 31 12 32 13 33 14 34 15 35 19 36 16 37 18 38
REMARK SMILES IDX 17 39
REMARK H PARENT 34 20 32 22 28 25 30 27 5 29
REMARK Flexibility Score: inf
ROOT
ATOM      1  C   UNL     1       8.257  -3.056  36.382  1.00  0.00     0.046 C 
ATOM      2  C   UNL     1       7.031  -3.939  36.156  1.00  0.00     0.104 C 
ATOM      3  C   UNL     1       7.300  -5.424  36.598  1.00  0.00     0.104 C 
ATOM      4  C   UNL     1       5.976  -6.166  36.199  1.00  0.00     0.175 C 
ATOM      5  C   UNL     1       5.574  -5.820  34.729  1.00  0.00     0.070 C 
ATOM      6  C   UNL     1       6.737  -5.236  33.909  1.00  0.00     0.050 C 
ATOM      7  C   UNL     1       6.483  -3.907  34.680  1.00  0.00     0.115 C 
ATOM      8  C   UNL     1       5.071  -4.404  34.973  1.00  0.00     0.096 C 
ATOM      9  C   UNL     1       4.855  -4.270  36.469  1.00  0.00     0.267 C 
ATOM     10  O   UNL     1       5.944  -3.496  36.946  1.00  0.00    -0.342 OA
ATOM     11  O   UNL     1       4.958  -5.587  36.988  1.00  0.00    -0.320 OA
ENDROOT
BRANCH   7  12
ATOM     12  O   UNL     1       6.501  -2.605  34.087  1.00  0.00    -0.339 OA
BRANCH  12  13
ATOM     13  C   UNL     1       7.186  -2.489  32.848  1.00  0.00     0.282 C 
ATOM     14  C   UNL     1       8.579  -1.830  32.995  1.00  0.00     0.202 C 
ATOM     15  O   UNL     1       6.386  -1.770  31.922  1.00  0.00    -0.341 OA
ATOM     16  C   UNL     1       8.439  -0.330  33.335  1.00  0.00     0.179 C 
ATOM     17  C   UNL     1       6.134  -0.441  32.351  1.00  0.00     0.178 C 
ATOM     18  C   UNL     1       7.446   0.367  32.387  1.00  0.00     0.177 C 
BRANCH  14  19
ATOM     19  O   UNL     1       9.277  -1.991  31.785  1.00  0.00    -0.385 OA
ATOM     20  H   UNL     1       9.076  -1.198  31.223  1.00  0.00     0.211 HD
ENDBRANCH  14  19
BRANCH  16  21
ATOM     21  O   UNL     1       9.691   0.312  33.340  1.00  0.00    -0.387 OA
ATOM     22  H   UNL     1       9.539   1.278  33.513  1.00  0.00     0.211 HD
ENDBRANCH  16  21
BRANCH  17  23
ATOM     23  C   UNL     1       5.126   0.197  31.383  1.00  0.00     0.191 C 
BRANCH  23  24
ATOM     24  O   UNL     1       5.796   0.864  30.347  1.00  0.00    -0.394 OA
ATOM     25  H   UNL     1       5.222   0.790  29.540  1.00  0.00     0.210 HD
ENDBRANCH  23  24
ENDBRANCH  17  23
BRANCH  18  26
ATOM     26  O   UNL     1       7.187   1.670  32.851  1.00  0.00    -0.387 OA
ATOM     27  H   UNL     1       6.237   1.867  32.638  1.00  0.00     0.211 HD
ENDBRANCH  18  26
ENDBRANCH  12  13
ENDBRANCH   7  12
BRANCH   4  28
ATOM     28  O   UNL     1       6.050  -7.547  36.425  1.00  0.00    -0.365 OA
ATOM     29  H   UNL     1       7.012  -7.788  36.409  1.00  0.00     0.214 HD
ENDBRANCH   4  28
BRANCH   8  30
ATOM     30  C   UNL     1       3.933  -3.929  34.054  1.00  0.00     0.249 C 
BRANCH  30  31
ATOM     31  O   UNL     1       2.681  -4.128  34.701  1.00  0.00    -0.461 OA
BRANCH  31  32
ATOM     32  C   UNL     1       1.885  -5.258  34.486  1.00  0.00     0.338 C 
ATOM     33  O   UNL     1       1.079  -5.288  33.515  1.00  0.00    -0.246 OA
BRANCH  32  34
ATOM     34  C   UNL     1       1.993  -6.414  35.402  1.00  0.00     0.060 A 
ATOM     35  C   UNL     1       2.485  -7.651  34.944  1.00  0.00     0.015 A 
ATOM     36  C   UNL     1       1.591  -6.296  36.746  1.00  0.00     0.015 A 
ATOM     37  C   UNL     1       2.570  -8.744  35.814  1.00  0.00     0.001 A 
ATOM     38  C   UNL     1       1.675  -7.393  37.610  1.00  0.00     0.001 A 
ATOM     39  C   UNL     1       2.163  -8.616  37.144  1.00  0.00     0.000 A 
ENDBRANCH  32  34
ENDBRANCH  31  32
ENDBRANCH  30  31
ENDBRANCH   8  30
TORSDOF 12
ENDMDL
MODEL 7
REMARK VINA RESULT:    -4.983      2.612      6.085
REMARK INTER + INTRA:          -9.101
REMARK INTER:                  -7.164
REMARK INTRA:                  -1.937
REMARK UNBOUND:                -1.351
REMARK SMILES C[C@@]12C[C@@]3(O)O[C@@H](O1)[C@]1(COC(=O)c4ccccc4)[C@H]3C[C@@]12O[C@H]1O[C@H](CO)[C@@H](O)[C@H](O)[C@@H]1O
REMARK SMILES IDX 1 1 2 2 3 3 4 4 20 5 21 6 22 7 9 8 7 9 8 10 6 11 23 12 24 13
REMARK SMILES IDX 33 14 25 15 31 16 26 17 29 18 34 19 32 21 27 23 28 24 30 26
REMARK SMILES IDX 5 28 10 30 11 31 12 32 13 33 14 34 15 35 19 36 16 37 18 38
REMARK SMILES IDX 17 39
REMARK H PARENT 34 20 32 22 28 25 30 27 5 29
REMARK Flexibility Score: inf
ROOT
ATOM      1  C   UNL     1       2.884  -6.042  36.484  1.00  0.00     0.046 C 
ATOM      2  C   UNL     1       3.572  -6.484  35.194  1.00  0.00     0.104 C 
ATOM      3  C   UNL     1       3.012  -7.862  34.683  1.00  0.00     0.104 C 
ATOM      4  C   UNL     1       3.904  -8.172  33.430  1.00  0.00     0.175 C 
ATOM      5  C   UNL     1       5.418  -7.992  33.773  1.00  0.00     0.070 C 
ATOM      6  C   UNL     1       5.695  -8.000  35.287  1.00  0.00     0.050 C 
ATOM      7  C   UNL     1       5.143  -6.544  35.296  1.00  0.00     0.115 C 
ATOM      8  C   UNL     1       5.450  -6.470  33.803  1.00  0.00     0.096 C 
ATOM      9  C   UNL     1       4.185  -5.994  33.113  1.00  0.00     0.267 C 
ATOM     10  O   UNL     1       3.322  -5.560  34.152  1.00  0.00    -0.342 OA
ATOM     11  O   UNL     1       3.630  -7.146  32.499  1.00  0.00    -0.320 OA
ENDROOT
BRANCH   7  12
ATOM     12  O   UNL     1       5.715  -5.460  36.034  1.00  0.00    -0.339 OA
BRANCH  12  13
ATOM     13  C   UNL     1       6.316  -5.796  37.276  1.00  0.00     0.282 C 
ATOM     14  C   UNL     1       5.874  -4.860  38.427  1.00  0.00     0.202 C 
ATOM     15  O   UNL     1       7.729  -5.793  37.142  1.00  0.00    -0.341 OA
ATOM     16  C   UNL     1       6.472  -3.449  38.243  1.00  0.00     0.179 C 
ATOM     17  C   UNL     1       8.232  -4.510  36.802  1.00  0.00     0.178 C 
ATOM     18  C   UNL     1       7.984  -3.516  37.955  1.00  0.00     0.177 C 
BRANCH  14  19
ATOM     19  O   UNL     1       6.306  -5.417  39.644  1.00  0.00    -0.385 OA
ATOM     20  H   UNL     1       6.935  -6.153  39.423  1.00  0.00     0.211 HD
ENDBRANCH  14  19
BRANCH  16  21
ATOM     21  O   UNL     1       6.190  -2.625  39.348  1.00  0.00    -0.387 OA
ATOM     22  H   UNL     1       5.210  -2.473  39.374  1.00  0.00     0.211 HD
ENDBRANCH  16  21
BRANCH  17  23
ATOM     23  C   UNL     1       9.734  -4.639  36.508  1.00  0.00     0.191 C 
BRANCH  23  24
ATOM     24  O   UNL     1      10.149  -3.632  35.624  1.00  0.00    -0.394 OA
ATOM     25  H   UNL     1       9.872  -3.917  34.715  1.00  0.00     0.210 HD
ENDBRANCH  23  24
ENDBRANCH  17  23
BRANCH  18  26
ATOM     26  O   UNL     1       8.451  -2.241  37.589  1.00  0.00    -0.387 OA
ATOM     27  H   UNL     1       7.881  -1.931  36.838  1.00  0.00     0.211 HD
ENDBRANCH  18  26
ENDBRANCH  12  13
ENDBRANCH   7  12
BRANCH   4  28
ATOM     28  O   UNL     1       3.625  -9.429  32.875  1.00  0.00    -0.365 OA
ATOM     29  H   UNL     1       3.735  -9.338  31.893  1.00  0.00     0.214 HD
ENDBRANCH   4  28
BRANCH   8  30
ATOM     30  C   UNL     1       6.775  -5.819  33.370  1.00  0.00     0.249 C 
BRANCH  30  31
ATOM     31  O   UNL     1       6.504  -4.646  32.611  1.00  0.00    -0.461 OA
BRANCH  31  32
ATOM     32  C   UNL     1       6.902  -3.369  33.020  1.00  0.00     0.338 C 
ATOM     33  O   UNL     1       8.001  -3.209  33.620  1.00  0.00    -0.246 OA
BRANCH  32  34
ATOM     34  C   UNL     1       6.028  -2.208  32.745  1.00  0.00     0.060 A 
ATOM     35  C   UNL     1       4.628  -2.353  32.712  1.00  0.00     0.015 A 
ATOM     36  C   UNL     1       6.587  -0.939  32.499  1.00  0.00     0.015 A 
ATOM     37  C   UNL     1       3.809  -1.252  32.436  1.00  0.00     0.001 A 
ATOM     38  C   UNL     1       5.763   0.157  32.220  1.00  0.00     0.001 A 
ATOM     39  C   UNL     1       4.375  -0.000  32.188  1.00  0.00     0.000 A 
ENDBRANCH  32  34
ENDBRANCH  31  32
ENDBRANCH  30  31
ENDBRANCH   8  30
TORSDOF 12
ENDMDL
MODEL 8
REMARK VINA RESULT:    -4.952      3.266      7.235
REMARK INTER + INTRA:          -9.052
REMARK INTER:                  -7.699
REMARK INTRA:                  -1.354
REMARK UNBOUND:                -1.351
REMARK SMILES C[C@@]12C[C@@]3(O)O[C@@H](O1)[C@]1(COC(=O)c4ccccc4)[C@H]3C[C@@]12O[C@H]1O[C@H](CO)[C@@H](O)[C@H](O)[C@@H]1O
REMARK SMILES IDX 1 1 2 2 3 3 4 4 20 5 21 6 22 7 9 8 7 9 8 10 6 11 23 12 24 13
REMARK SMILES IDX 33 14 25 15 31 16 26 17 29 18 34 19 32 21 27 23 28 24 30 26
REMARK SMILES IDX 5 28 10 30 11 31 12 32 13 33 14 34 15 35 19 36 16 37 18 38
REMARK SMILES IDX 17 39
REMARK H PARENT 34 20 32 22 28 25 30 27 5 29
REMARK Flexibility Score: inf
ROOT
ATOM      1  C   UNL     1       5.164  -3.739  37.060  1.00  0.00     0.046 C 
ATOM      2  C   UNL     1       4.746  -4.049  35.625  1.00  0.00     0.104 C 
ATOM      3  C   UNL     1       3.921  -5.385  35.538  1.00  0.00     0.104 C 
ATOM      4  C   UNL     1       3.682  -5.564  33.998  1.00  0.00     0.175 C 
ATOM      5  C   UNL     1       5.019  -5.388  33.210  1.00  0.00     0.070 C 
ATOM      6  C   UNL     1       6.266  -5.528  34.101  1.00  0.00     0.050 C 
ATOM      7  C   UNL     1       5.946  -4.089  34.604  1.00  0.00     0.115 C 
ATOM      8  C   UNL     1       5.138  -3.874  33.328  1.00  0.00     0.096 C 
ATOM      9  C   UNL     1       3.774  -3.361  33.747  1.00  0.00     0.267 C 
ATOM     10  O   UNL     1       3.891  -3.039  35.124  1.00  0.00    -0.342 OA
ATOM     11  O   UNL     1       2.891  -4.463  33.601  1.00  0.00    -0.320 OA
ENDROOT
BRANCH   7  12
ATOM     12  O   UNL     1       6.922  -3.066  34.822  1.00  0.00    -0.339 OA
BRANCH  12  13
ATOM     13  C   UNL     1       8.273  -3.497  34.905  1.00  0.00     0.282 C 
ATOM     14  C   UNL     1       8.676  -3.931  36.335  1.00  0.00     0.202 C 
ATOM     15  O   UNL     1       9.133  -2.471  34.432  1.00  0.00    -0.341 OA
ATOM     16  C   UNL     1       8.753  -2.708  37.275  1.00  0.00     0.179 C 
ATOM     17  C   UNL     1       9.051  -1.296  35.223  1.00  0.00     0.178 C 
ATOM     18  C   UNL     1       9.579  -1.571  36.646  1.00  0.00     0.177 C 
BRANCH  14  19
ATOM     19  O   UNL     1       9.924  -4.574  36.270  1.00  0.00    -0.385 OA
ATOM     20  H   UNL     1      10.565  -4.025  36.793  1.00  0.00     0.211 HD
ENDBRANCH  14  19
BRANCH  16  21
ATOM     21  O   UNL     1       9.246  -3.068  38.543  1.00  0.00    -0.387 OA
ATOM     22  H   UNL     1       8.470  -3.217  39.143  1.00  0.00     0.211 HD
ENDBRANCH  16  21
BRANCH  17  23
ATOM     23  C   UNL     1       9.874  -0.193  34.540  1.00  0.00     0.191 C 
BRANCH  23  24
ATOM     24  O   UNL     1       9.407   1.074  34.920  1.00  0.00    -0.394 OA
ATOM     25  H   UNL     1      10.157   1.710  34.779  1.00  0.00     0.210 HD
ENDBRANCH  23  24
ENDBRANCH  17  23
BRANCH  18  26
ATOM     26  O   UNL     1       9.455  -0.410  37.429  1.00  0.00    -0.387 OA
ATOM     27  H   UNL     1       8.741  -0.588  38.096  1.00  0.00     0.211 HD
ENDBRANCH  18  26
ENDBRANCH  12  13
ENDBRANCH   7  12
BRANCH   4  28
ATOM     28  O   UNL     1       3.035  -6.770  33.695  1.00  0.00    -0.365 OA
ATOM     29  H   UNL     1       3.676  -7.312  33.166  1.00  0.00     0.214 HD
ENDBRANCH   4  28
BRANCH   8  30
ATOM     30  C   UNL     1       5.826  -3.162  32.151  1.00  0.00     0.249 C 
BRANCH  30  31
ATOM     31  O   UNL     1       4.848  -2.762  31.197  1.00  0.00    -0.461 OA
BRANCH  31  32
ATOM     32  C   UNL     1       4.765  -1.459  30.695  1.00  0.00     0.338 C 
ATOM     33  O   UNL     1       3.805  -1.131  29.944  1.00  0.00    -0.246 OA
BRANCH  32  34
ATOM     34  C   UNL     1       5.808  -0.472  31.046  1.00  0.00     0.060 A 
ATOM     35  C   UNL     1       6.942  -0.302  30.229  1.00  0.00     0.015 A 
ATOM     36  C   UNL     1       5.687   0.305  32.214  1.00  0.00     0.015 A 
ATOM     37  C   UNL     1       7.931   0.625  30.577  1.00  0.00     0.001 A 
ATOM     38  C   UNL     1       6.682   1.227  32.558  1.00  0.00     0.001 A 
ATOM     39  C   UNL     1       7.803   1.386  31.741  1.00  0.00     0.000 A 
ENDBRANCH  32  34
ENDBRANCH  31  32
ENDBRANCH  30  31
ENDBRANCH   8  30
TORSDOF 12
ENDMDL
MODEL 9
REMARK VINA RESULT:    -4.948      3.139      7.179
REMARK INTER + INTRA:          -9.046
REMARK INTER:                  -7.632
REMARK INTRA:                  -1.414
REMARK UNBOUND:                -1.351
REMARK SMILES C[C@@]12C[C@@]3(O)O[C@@H](O1)[C@]1(COC(=O)c4ccccc4)[C@H]3C[C@@]12O[C@H]1O[C@H](CO)[C@@H](O)[C@H](O)[C@@H]1O
REMARK SMILES IDX 1 1 2 2 3 3 4 4 20 5 21 6 22 7 9 8 7 9 8 10 6 11 23 12 24 13
REMARK SMILES IDX 33 14 25 15 31 16 26 17 29 18 34 19 32 21 27 23 28 24 30 26
REMARK SMILES IDX 5 28 10 30 11 31 12 32 13 33 14 34 15 35 19 36 16 37 18 38
REMARK SMILES IDX 17 39
REMARK H PARENT 34 20 32 22 28 25 30 27 5 29
REMARK Flexibility Score: inf
ROOT
ATOM      1  C   UNL     1       5.859  -3.465  38.827  1.00  0.00     0.046 C 
ATOM      2  C   UNL     1       5.737  -4.076  37.433  1.00  0.00     0.104 C 
ATOM      3  C   UNL     1       5.116  -5.519  37.486  1.00  0.00     0.104 C 
ATOM      4  C   UNL     1       5.169  -5.992  35.991  1.00  0.00     0.175 C 
ATOM      5  C   UNL     1       6.589  -5.745  35.386  1.00  0.00     0.070 C 
ATOM      6  C   UNL     1       7.671  -5.536  36.460  1.00  0.00     0.050 C 
ATOM      7  C   UNL     1       7.089  -4.100  36.625  1.00  0.00     0.115 C 
ATOM      8  C   UNL     1       6.493  -4.234  35.227  1.00  0.00     0.096 C 
ATOM      9  C   UNL     1       5.022  -3.876  35.337  1.00  0.00     0.267 C 
ATOM     10  O   UNL     1       4.860  -3.312  36.628  1.00  0.00    -0.342 OA
ATOM     11  O   UNL     1       4.325  -5.111  35.278  1.00  0.00    -0.320 OA
ENDROOT
BRANCH   7  12
ATOM     12  O   UNL     1       7.876  -2.916  36.781  1.00  0.00    -0.339 OA
BRANCH  12  13
ATOM     13  C   UNL     1       9.231  -3.109  37.162  1.00  0.00     0.282 C 
ATOM     14  C   UNL     1       9.419  -3.168  38.697  1.00  0.00     0.202 C 
ATOM     15  O   UNL     1      10.038  -2.086  36.598  1.00  0.00    -0.341 OA
ATOM     16  C   UNL     1       9.185  -1.779  39.329  1.00  0.00     0.179 C 
ATOM     17  C   UNL     1       9.681  -0.798  37.074  1.00  0.00     0.178 C 
ATOM     18  C   UNL     1       9.973  -0.686  38.584  1.00  0.00     0.177 C 
BRANCH  14  19
ATOM     19  O   UNL     1      10.724  -3.613  38.968  1.00  0.00    -0.385 OA
ATOM     20  H   UNL     1      10.651  -4.355  39.624  1.00  0.00     0.211 HD
ENDBRANCH  14  19
BRANCH  16  21
ATOM     21  O   UNL     1       9.482  -1.787  40.705  1.00  0.00    -0.387 OA
ATOM     22  H   UNL     1       8.977  -1.047  41.131  1.00  0.00     0.211 HD
ENDBRANCH  16  21
BRANCH  17  23
ATOM     23  C   UNL     1      10.480   0.250  36.285  1.00  0.00     0.191 C 
BRANCH  23  24
ATOM     24  O   UNL     1       9.817   1.487  36.300  1.00  0.00    -0.394 OA
ATOM     25  H   UNL     1       8.922   1.327  36.699  1.00  0.00     0.210 HD
ENDBRANCH  23  24
ENDBRANCH  17  23
BRANCH  18  26
ATOM     26  O   UNL     1       9.578   0.581  39.050  1.00  0.00    -0.387 OA
ATOM     27  H   UNL     1       8.714   0.456  39.524  1.00  0.00     0.211 HD
ENDBRANCH  18  26
ENDBRANCH  12  13
ENDBRANCH   7  12
BRANCH   4  28
ATOM     28  O   UNL     1       4.742  -7.318  35.835  1.00  0.00    -0.365 OA
ATOM     29  H   UNL     1       5.546  -7.890  35.941  1.00  0.00     0.214 HD
ENDBRANCH   4  28
BRANCH   8  30
ATOM     30  C   UNL     1       7.276  -3.633  34.048  1.00  0.00     0.249 C 
BRANCH  30  31
ATOM     31  O   UNL     1       6.391  -2.893  33.214  1.00  0.00    -0.461 OA
BRANCH  31  32
ATOM     32  C   UNL     1       6.834  -2.103  32.148  1.00  0.00     0.338 C 
ATOM     33  O   UNL     1       6.836  -2.568  30.974  1.00  0.00    -0.246 OA
BRANCH  32  34
ATOM     34  C   UNL     1       7.300  -0.723  32.404  1.00  0.00     0.060 A 
ATOM     35  C   UNL     1       6.414   0.366  32.302  1.00  0.00     0.015 A 
ATOM     36  C   UNL     1       8.645  -0.478  32.741  1.00  0.00     0.015 A 
ATOM     37  C   UNL     1       6.867   1.670  32.531  1.00  0.00     0.001 A 
ATOM     38  C   UNL     1       9.092   0.828  32.966  1.00  0.00     0.001 A 
ATOM     39  C   UNL     1       8.204   1.902  32.860  1.00  0.00     0.000 A 
ENDBRANCH  32  34
ENDBRANCH  31  32
ENDBRANCH  30  31
ENDBRANCH   8  30
TORSDOF 12
ENDMDL
