MODEL 1
REMARK VINA RESULT:    -3.499      0.000      0.000
REMARK INTER + INTRA:          -9.031
REMARK INTER:                  -6.567
REMARK INTRA:                  -2.463
REMARK UNBOUND:                -2.463
REMARK SMILES CCCCCC=CCC=CCCCCCCCC(=O)OC
REMARK SMILES IDX 11 1 10 2 9 3 8 4 7 5 6 6 5 7 4 8 3 9 2 10 1 11 12 12 13 13
REMARK SMILES IDX 14 14 15 15 16 16 17 17 18 18 19 19 20 20 21 21
REMARK H PARENT
REMARK Flexibility Score: inf
ROOT
ATOM      1  C   UNL     1      -6.107  22.043   6.512  1.00  0.00     0.027 C 
ENDROOT
BRANCH   1   2
ATOM      2  C   UNL     1      -6.387  22.081   7.989  1.00  0.00    -0.031 C 
ATOM      3  C   UNL     1      -7.383  22.822   8.496  1.00  0.00    -0.027 C 
BRANCH   3   4
ATOM      4  C   UNL     1      -7.654  22.868   9.973  1.00  0.00     0.054 C 
BRANCH   4   5
ATOM      5  C   UNL     1      -6.738  21.916  10.702  1.00  0.00    -0.027 C 
ATOM      6  C   UNL     1      -6.799  21.636  12.017  1.00  0.00    -0.031 C 
BRANCH   6   7
ATOM      7  C   UNL     1      -7.760  22.271  12.989  1.00  0.00     0.027 C 
BRANCH   7   8
ATOM      8  C   UNL     1      -8.471  21.208  13.836  1.00  0.00     0.004 C 
BRANCH   8   9
ATOM      9  C   UNL     1      -9.151  20.161  12.948  1.00  0.00     0.000 C 
BRANCH   9  10
ATOM     10  C   UNL     1     -10.419  20.730  12.299  1.00  0.00    -0.003 C 
ATOM     11  C   UNL     1     -10.378  20.577  10.782  1.00  0.00     0.004 C 
ENDBRANCH   9  10
ENDBRANCH   8   9
ENDBRANCH   7   8
ENDBRANCH   6   7
ENDBRANCH   4   5
ENDBRANCH   3   4
ENDBRANCH   1   2
BRANCH   1  12
ATOM     12  C   UNL     1      -5.138  23.161   6.103  1.00  0.00     0.004 C 
BRANCH  12  13
ATOM     13  C   UNL     1      -3.690  22.890   6.545  1.00  0.00     0.000 C 
BRANCH  13  14
ATOM     14  C   UNL     1      -3.199  23.834   7.664  1.00  0.00     0.000 C 
BRANCH  14  15
ATOM     15  C   UNL     1      -4.168  25.007   7.897  1.00  0.00     0.001 C 
BRANCH  15  16
ATOM     16  C   UNL     1      -4.625  25.110   9.360  1.00  0.00     0.012 C 
BRANCH  16  17
ATOM     17  C   UNL     1      -3.908  24.102  10.269  1.00  0.00     0.123 C 
BRANCH  17  18
ATOM     18  C   UNL     1      -3.066  24.819  11.276  1.00  0.00     0.305 C 
ATOM     19  O   UNL     1      -3.617  25.505  12.180  1.00  0.00    -0.252 OA
BRANCH  18  20
ATOM     20  O   UNL     1      -1.676  24.681  11.233  1.00  0.00    -0.469 OA
ATOM     21  C   UNL     1      -0.891  24.463  12.399  1.00  0.00     0.282 C 
ENDBRANCH  18  20
ENDBRANCH  17  18
ENDBRANCH  16  17
ENDBRANCH  15  16
ENDBRANCH  14  15
ENDBRANCH  13  14
ENDBRANCH  12  13
ENDBRANCH   1  12
TORSDOF 15
ENDMDL
MODEL 2
REMARK VINA RESULT:    -3.457      0.998      2.371
REMARK INTER + INTRA:          -8.951
REMARK INTER:                  -6.417
REMARK INTRA:                  -2.534
REMARK UNBOUND:                -2.463
REMARK SMILES CCCCCC=CCC=CCCCCCCCC(=O)OC
REMARK SMILES IDX 11 1 10 2 9 3 8 4 7 5 6 6 5 7 4 8 3 9 2 10 1 11 12 12 13 13
REMARK SMILES IDX 14 14 15 15 16 16 17 17 18 18 19 19 20 20 21 21
REMARK H PARENT
REMARK Flexibility Score: inf
ROOT
ATOM      1  C   UNL     1      -7.479  23.412   8.831  1.00  0.00     0.027 C 
ENDROOT
BRANCH   1   2
ATOM      2  C   UNL     1      -7.432  22.945  10.259  1.00  0.00    -0.031 C 
ATOM      3  C   UNL     1      -6.473  22.114  10.695  1.00  0.00    -0.027 C 
BRANCH   3   4
ATOM      4  C   UNL     1      -6.435  21.639  12.118  1.00  0.00     0.054 C 
BRANCH   4   5
ATOM      5  C   UNL     1      -7.416  22.421  12.957  1.00  0.00    -0.027 C 
ATOM      6  C   UNL     1      -8.455  21.892  13.629  1.00  0.00    -0.031 C 
BRANCH   6   7
ATOM      7  C   UNL     1      -8.842  20.436  13.611  1.00  0.00     0.027 C 
BRANCH   7   8
ATOM      8  C   UNL     1      -9.749  20.121  12.415  1.00  0.00     0.004 C 
BRANCH   8   9
ATOM      9  C   UNL     1     -10.834  21.191  12.251  1.00  0.00     0.000 C 
BRANCH   9  10
ATOM     10  C   UNL     1     -10.846  21.748  10.823  1.00  0.00    -0.003 C 
ATOM     11  C   UNL     1     -10.418  20.686   9.814  1.00  0.00     0.004 C 
ENDBRANCH   9  10
ENDBRANCH   8   9
ENDBRANCH   7   8
ENDBRANCH   6   7
ENDBRANCH   4   5
ENDBRANCH   3   4
ENDBRANCH   1   2
BRANCH   1  12
ATOM     12  C   UNL     1      -7.454  22.225   7.858  1.00  0.00     0.004 C 
BRANCH  12  13
ATOM     13  C   UNL     1      -6.153  22.149   7.040  1.00  0.00     0.000 C 
BRANCH  13  14
ATOM     14  C   UNL     1      -5.367  23.478   7.005  1.00  0.00     0.000 C 
BRANCH  14  15
ATOM     15  C   UNL     1      -3.880  23.278   7.347  1.00  0.00     0.001 C 
BRANCH  15  16
ATOM     16  C   UNL     1      -3.369  24.307   8.368  1.00  0.00     0.012 C 
BRANCH  16  17
ATOM     17  C   UNL     1      -3.410  23.775   9.806  1.00  0.00     0.123 C 
BRANCH  17  18
ATOM     18  C   UNL     1      -2.928  24.821  10.761  1.00  0.00     0.305 C 
ATOM     19  O   UNL     1      -1.847  25.429  10.531  1.00  0.00    -0.252 OA
BRANCH  18  20
ATOM     20  O   UNL     1      -3.706  25.145  11.876  1.00  0.00    -0.469 OA
ATOM     21  C   UNL     1      -5.042  25.621  11.765  1.00  0.00     0.282 C 
ENDBRANCH  18  20
ENDBRANCH  17  18
ENDBRANCH  16  17
ENDBRANCH  15  16
ENDBRANCH  14  15
ENDBRANCH  13  14
ENDBRANCH  12  13
ENDBRANCH   1  12
TORSDOF 15
ENDMDL
MODEL 3
REMARK VINA RESULT:    -3.323      1.817      3.678
REMARK INTER + INTRA:          -8.701
REMARK INTER:                  -6.345
REMARK INTRA:                  -2.356
REMARK UNBOUND:                -2.463
REMARK SMILES CCCCCC=CCC=CCCCCCCCC(=O)OC
REMARK SMILES IDX 11 1 10 2 9 3 8 4 7 5 6 6 5 7 4 8 3 9 2 10 1 11 12 12 13 13
REMARK SMILES IDX 14 14 15 15 16 16 17 17 18 18 19 19 20 20 21 21
REMARK H PARENT
REMARK Flexibility Score: inf
ROOT
ATOM      1  C   UNL     1      -6.370  22.160  11.309  1.00  0.00     0.027 C 
ENDROOT
BRANCH   1   2
ATOM      2  C   UNL     1      -6.980  21.444  12.482  1.00  0.00    -0.031 C 
ATOM      3  C   UNL     1      -8.271  21.082  12.490  1.00  0.00    -0.027 C 
BRANCH   3   4
ATOM      4  C   UNL     1      -8.881  20.378  13.668  1.00  0.00     0.054 C 
BRANCH   4   5
ATOM      5  C   UNL     1     -10.261  20.922  13.945  1.00  0.00    -0.027 C 
ATOM      6  C   UNL     1     -10.549  21.884  14.842  1.00  0.00    -0.031 C 
BRANCH   6   7
ATOM      7  C   UNL     1      -9.545  22.540  15.754  1.00  0.00     0.027 C 
BRANCH   7   8
ATOM      8  C   UNL     1      -9.282  23.990  15.335  1.00  0.00     0.004 C 
BRANCH   8   9
ATOM      9  C   UNL     1      -7.912  24.128  14.660  1.00  0.00     0.000 C 
BRANCH   9  10
ATOM     10  C   UNL     1      -8.002  25.003  13.405  1.00  0.00    -0.003 C 
ATOM     11  C   UNL     1      -9.182  24.592  12.530  1.00  0.00     0.004 C 
ENDBRANCH   9  10
ENDBRANCH   8   9
ENDBRANCH   7   8
ENDBRANCH   6   7
ENDBRANCH   4   5
ENDBRANCH   3   4
ENDBRANCH   1   2
BRANCH   1  12
ATOM     12  C   UNL     1      -7.357  22.241  10.136  1.00  0.00     0.004 C 
BRANCH  12  13
ATOM     13  C   UNL     1      -6.659  22.435   8.778  1.00  0.00     0.000 C 
BRANCH  13  14
ATOM     14  C   UNL     1      -5.852  23.748   8.681  1.00  0.00     0.000 C 
BRANCH  14  15
ATOM     15  C   UNL     1      -4.580  23.584   7.830  1.00  0.00     0.001 C 
BRANCH  15  16
ATOM     16  C   UNL     1      -3.326  24.117   8.540  1.00  0.00     0.012 C 
BRANCH  16  17
ATOM     17  C   UNL     1      -3.327  23.807  10.042  1.00  0.00     0.123 C 
BRANCH  17  18
ATOM     18  C   UNL     1      -2.925  25.018  10.823  1.00  0.00     0.305 C 
ATOM     19  O   UNL     1      -3.370  25.188  11.991  1.00  0.00    -0.252 OA
BRANCH  18  20
ATOM     20  O   UNL     1      -2.021  25.927  10.265  1.00  0.00    -0.469 OA
ATOM     21  C   UNL     1      -1.952  27.287  10.675  1.00  0.00     0.282 C 
ENDBRANCH  18  20
ENDBRANCH  17  18
ENDBRANCH  16  17
ENDBRANCH  15  16
ENDBRANCH  14  15
ENDBRANCH  13  14
ENDBRANCH  12  13
ENDBRANCH   1  12
TORSDOF 15
ENDMDL
MODEL 4
REMARK VINA RESULT:    -3.274      1.495      3.019
REMARK INTER + INTRA:          -8.609
REMARK INTER:                  -6.383
REMARK INTRA:                  -2.227
REMARK UNBOUND:                -2.463
REMARK SMILES CCCCCC=CCC=CCCCCCCCC(=O)OC
REMARK SMILES IDX 11 1 10 2 9 3 8 4 7 5 6 6 5 7 4 8 3 9 2 10 1 11 12 12 13 13
REMARK SMILES IDX 14 14 15 15 16 16 17 17 18 18 19 19 20 20 21 21
REMARK H PARENT
REMARK Flexibility Score: inf
ROOT
ATOM      1  C   UNL     1      -7.896  22.727   9.130  1.00  0.00     0.027 C 
ENDROOT
BRANCH   1   2
ATOM      2  C   UNL     1      -7.916  22.137  10.513  1.00  0.00    -0.031 C 
ATOM      3  C   UNL     1      -6.811  22.083  11.271  1.00  0.00    -0.027 C 
BRANCH   3   4
ATOM      4  C   UNL     1      -6.830  21.483  12.646  1.00  0.00     0.054 C 
BRANCH   4   5
ATOM      5  C   UNL     1      -8.089  20.674  12.846  1.00  0.00    -0.027 C 
ATOM      6  C   UNL     1      -8.971  20.849  13.848  1.00  0.00    -0.031 C 
BRANCH   6   7
ATOM      7  C   UNL     1      -8.820  21.847  14.966  1.00  0.00     0.027 C 
BRANCH   7   8
ATOM      8  C   UNL     1      -9.985  22.844  14.978  1.00  0.00     0.004 C 
BRANCH   8   9
ATOM      9  C   UNL     1      -9.480  24.283  14.824  1.00  0.00     0.000 C 
BRANCH   9  10
ATOM     10  C   UNL     1      -8.888  24.511  13.429  1.00  0.00    -0.003 C 
ATOM     11  C   UNL     1      -7.461  25.045  13.516  1.00  0.00     0.004 C 
ENDBRANCH   9  10
ENDBRANCH   8   9
ENDBRANCH   7   8
ENDBRANCH   6   7
ENDBRANCH   4   5
ENDBRANCH   3   4
ENDBRANCH   1   2
BRANCH   1  12
ATOM     12  C   UNL     1      -6.836  22.047   8.253  1.00  0.00     0.004 C 
BRANCH  12  13
ATOM     13  C   UNL     1      -6.454  22.882   7.019  1.00  0.00     0.000 C 
BRANCH  13  14
ATOM     14  C   UNL     1      -4.981  23.342   7.017  1.00  0.00     0.000 C 
BRANCH  14  15
ATOM     15  C   UNL     1      -4.685  24.339   8.152  1.00  0.00     0.001 C 
BRANCH  15  16
ATOM     16  C   UNL     1      -3.383  24.011   8.898  1.00  0.00     0.012 C 
BRANCH  16  17
ATOM     17  C   UNL     1      -3.617  23.730  10.388  1.00  0.00     0.123 C 
BRANCH  17  18
ATOM     18  C   UNL     1      -2.801  24.662  11.227  1.00  0.00     0.305 C 
ATOM     19  O   UNL     1      -1.554  24.737  11.049  1.00  0.00    -0.252 OA
BRANCH  18  20
ATOM     20  O   UNL     1      -3.437  25.475  12.168  1.00  0.00    -0.469 OA
ATOM     21  C   UNL     1      -4.210  26.612  11.801  1.00  0.00     0.282 C 
ENDBRANCH  18  20
ENDBRANCH  17  18
ENDBRANCH  16  17
ENDBRANCH  15  16
ENDBRANCH  14  15
ENDBRANCH  13  14
ENDBRANCH  12  13
ENDBRANCH   1  12
TORSDOF 15
ENDMDL
MODEL 5
REMARK VINA RESULT:    -3.245      2.171      3.830
REMARK INTER + INTRA:          -8.553
REMARK INTER:                  -5.931
REMARK INTRA:                  -2.622
REMARK UNBOUND:                -2.463
REMARK SMILES CCCCCC=CCC=CCCCCCCCC(=O)OC
REMARK SMILES IDX 11 1 10 2 9 3 8 4 7 5 6 6 5 7 4 8 3 9 2 10 1 11 12 12 13 13
REMARK SMILES IDX 14 14 15 15 16 16 17 17 18 18 19 19 20 20 21 21
REMARK H PARENT
REMARK Flexibility Score: inf
ROOT
ATOM      1  C   UNL     1     -10.032  22.967   9.832  1.00  0.00     0.027 C 
ENDROOT
BRANCH   1   2
ATOM      2  C   UNL     1     -10.098  22.192  11.119  1.00  0.00    -0.031 C 
ATOM      3  C   UNL     1      -9.947  20.859  11.145  1.00  0.00    -0.027 C 
BRANCH   3   4
ATOM      4  C   UNL     1     -10.025  20.087  12.430  1.00  0.00     0.054 C 
BRANCH   4   5
ATOM      5  C   UNL     1      -8.788  20.328  13.261  1.00  0.00    -0.027 C 
ATOM      6  C   UNL     1      -8.717  21.157  14.320  1.00  0.00    -0.031 C 
BRANCH   6   7
ATOM      7  C   UNL     1      -9.847  22.021  14.817  1.00  0.00     0.027 C 
BRANCH   7   8
ATOM      8  C   UNL     1      -9.454  23.503  14.807  1.00  0.00     0.004 C 
BRANCH   8   9
ATOM      9  C   UNL     1      -7.960  23.674  14.508  1.00  0.00     0.000 C 
BRANCH   9  10
ATOM     10  C   UNL     1      -7.690  25.007  13.801  1.00  0.00    -0.003 C 
ATOM     11  C   UNL     1      -8.562  25.158  12.557  1.00  0.00     0.004 C 
ENDBRANCH   9  10
ENDBRANCH   8   9
ENDBRANCH   7   8
ENDBRANCH   6   7
ENDBRANCH   4   5
ENDBRANCH   3   4
ENDBRANCH   1   2
BRANCH   1  12
ATOM     12  C   UNL     1      -8.829  22.531   8.984  1.00  0.00     0.004 C 
BRANCH  12  13
ATOM     13  C   UNL     1      -7.501  23.135   9.474  1.00  0.00     0.000 C 
BRANCH  13  14
ATOM     14  C   UNL     1      -6.593  22.119  10.201  1.00  0.00     0.000 C 
BRANCH  14  15
ATOM     15  C   UNL     1      -5.977  22.710  11.482  1.00  0.00     0.001 C 
BRANCH  15  16
ATOM     16  C   UNL     1      -5.121  23.955  11.202  1.00  0.00     0.012 C 
BRANCH  16  17
ATOM     17  C   UNL     1      -3.636  23.615  11.021  1.00  0.00     0.123 C 
BRANCH  17  18
ATOM     18  C   UNL     1      -2.794  24.835  11.230  1.00  0.00     0.305 C 
ATOM     19  O   UNL     1      -1.848  25.087  10.435  1.00  0.00    -0.252 OA
BRANCH  18  20
ATOM     20  O   UNL     1      -3.098  25.708  12.278  1.00  0.00    -0.469 OA
ATOM     21  C   UNL     1      -2.215  26.744  12.691  1.00  0.00     0.282 C 
ENDBRANCH  18  20
ENDBRANCH  17  18
ENDBRANCH  16  17
ENDBRANCH  15  16
ENDBRANCH  14  15
ENDBRANCH  13  14
ENDBRANCH  12  13
ENDBRANCH   1  12
TORSDOF 15
ENDMDL
MODEL 6
REMARK VINA RESULT:    -3.163      2.838      7.291
REMARK INTER + INTRA:          -8.401
REMARK INTER:                  -6.606
REMARK INTRA:                  -1.795
REMARK UNBOUND:                -2.463
REMARK SMILES CCCCCC=CCC=CCCCCCCCC(=O)OC
REMARK SMILES IDX 11 1 10 2 9 3 8 4 7 5 6 6 5 7 4 8 3 9 2 10 1 11 12 12 13 13
REMARK SMILES IDX 14 14 15 15 16 16 17 17 18 18 19 19 20 20 21 21
REMARK H PARENT
REMARK Flexibility Score: inf
ROOT
ATOM      1  C   UNL     1      -6.845  21.588  12.557  1.00  0.00     0.027 C 
ENDROOT
BRANCH   1   2
ATOM      2  C   UNL     1      -6.305  22.342  11.374  1.00  0.00    -0.031 C 
ATOM      3  C   UNL     1      -6.772  22.133  10.134  1.00  0.00    -0.027 C 
BRANCH   3   4
ATOM      4  C   UNL     1      -6.223  22.879   8.953  1.00  0.00     0.054 C 
BRANCH   4   5
ATOM      5  C   UNL     1      -5.883  24.297   9.342  1.00  0.00    -0.027 C 
ATOM      6  C   UNL     1      -4.647  24.832   9.317  1.00  0.00    -0.031 C 
BRANCH   6   7
ATOM      7  C   UNL     1      -3.392  24.086   8.948  1.00  0.00     0.027 C 
BRANCH   7   8
ATOM      8  C   UNL     1      -3.037  24.299   7.472  1.00  0.00     0.004 C 
BRANCH   8   9
ATOM      9  C   UNL     1      -3.260  23.017   6.661  1.00  0.00     0.000 C 
BRANCH   9  10
ATOM     10  C   UNL     1      -4.513  23.131   5.786  1.00  0.00    -0.003 C 
ATOM     11  C   UNL     1      -4.795  24.584   5.414  1.00  0.00     0.004 C 
ENDBRANCH   9  10
ENDBRANCH   8   9
ENDBRANCH   7   8
ENDBRANCH   6   7
ENDBRANCH   4   5
ENDBRANCH   3   4
ENDBRANCH   1   2
BRANCH   1  12
ATOM     12  C   UNL     1      -8.300  21.159  12.323  1.00  0.00     0.004 C 
BRANCH  12  13
ATOM     13  C   UNL     1      -8.881  20.348  13.494  1.00  0.00     0.000 C 
BRANCH  13  14
ATOM     14  C   UNL     1      -9.053  21.171  14.789  1.00  0.00     0.000 C 
BRANCH  14  15
ATOM     15  C   UNL     1     -10.025  22.350  14.600  1.00  0.00     0.001 C 
BRANCH  15  16
ATOM     16  C   UNL     1      -9.514  23.643  15.253  1.00  0.00     0.012 C 
BRANCH  16  17
ATOM     17  C   UNL     1      -7.995  23.627  15.472  1.00  0.00     0.123 C 
BRANCH  17  18
ATOM     18  C   UNL     1      -7.621  24.554  16.585  1.00  0.00     0.305 C 
ATOM     19  O   UNL     1      -6.755  25.450  16.391  1.00  0.00    -0.252 OA
BRANCH  18  20
ATOM     20  O   UNL     1      -8.271  24.446  17.817  1.00  0.00    -0.469 OA
ATOM     21  C   UNL     1      -7.699  23.766  18.928  1.00  0.00     0.282 C 
ENDBRANCH  18  20
ENDBRANCH  17  18
ENDBRANCH  16  17
ENDBRANCH  15  16
ENDBRANCH  14  15
ENDBRANCH  13  14
ENDBRANCH  12  13
ENDBRANCH   1  12
TORSDOF 15
ENDMDL
MODEL 7
REMARK VINA RESULT:    -3.155      3.350      7.531
REMARK INTER + INTRA:          -8.386
REMARK INTER:                  -6.526
REMARK INTRA:                  -1.860
REMARK UNBOUND:                -2.463
REMARK SMILES CCCCCC=CCC=CCCCCCCCC(=O)OC
REMARK SMILES IDX 11 1 10 2 9 3 8 4 7 5 6 6 5 7 4 8 3 9 2 10 1 11 12 12 13 13
REMARK SMILES IDX 14 14 15 15 16 16 17 17 18 18 19 19 20 20 21 21
REMARK H PARENT
REMARK Flexibility Score: inf
ROOT
ATOM      1  C   UNL     1      -8.784  20.288  13.441  1.00  0.00     0.027 C 
ENDROOT
BRANCH   1   2
ATOM      2  C   UNL     1      -8.126  21.166  12.414  1.00  0.00    -0.031 C 
ATOM      3  C   UNL     1      -6.884  21.642  12.588  1.00  0.00    -0.027 C 
BRANCH   3   4
ATOM      4  C   UNL     1      -6.232  22.528  11.565  1.00  0.00     0.054 C 
BRANCH   4   5
ATOM      5  C   UNL     1      -6.600  22.077  10.173  1.00  0.00    -0.027 C 
ATOM      6  C   UNL     1      -6.426  22.803   9.052  1.00  0.00    -0.031 C 
BRANCH   6   7
ATOM      7  C   UNL     1      -5.882  24.208   9.011  1.00  0.00     0.027 C 
BRANCH   7   8
ATOM      8  C   UNL     1      -4.497  24.245   8.354  1.00  0.00     0.004 C 
BRANCH   8   9
ATOM      9  C   UNL     1      -3.401  23.875   9.361  1.00  0.00     0.000 C 
BRANCH   9  10
ATOM     10  C   UNL     1      -3.399  24.842  10.550  1.00  0.00    -0.003 C 
ATOM     11  C   UNL     1      -2.425  24.382  11.632  1.00  0.00     0.004 C 
ENDBRANCH   9  10
ENDBRANCH   8   9
ENDBRANCH   7   8
ENDBRANCH   6   7
ENDBRANCH   4   5
ENDBRANCH   3   4
ENDBRANCH   1   2
BRANCH   1  12
ATOM     12  C   UNL     1     -10.154  20.847  13.851  1.00  0.00     0.004 C 
BRANCH  12  13
ATOM     13  C   UNL     1     -10.104  21.656  15.159  1.00  0.00     0.000 C 
BRANCH  13  14
ATOM     14  C   UNL     1     -10.334  23.169  14.957  1.00  0.00     0.000 C 
BRANCH  14  15
ATOM     15  C   UNL     1      -9.010  23.952  14.904  1.00  0.00     0.001 C 
BRANCH  15  16
ATOM     16  C   UNL     1      -7.909  23.303  15.757  1.00  0.00     0.012 C 
BRANCH  16  17
ATOM     17  C   UNL     1      -7.997  23.710  17.234  1.00  0.00     0.123 C 
BRANCH  17  18
ATOM     18  C   UNL     1      -7.650  25.156  17.397  1.00  0.00     0.305 C 
ATOM     19  O   UNL     1      -6.576  25.602  16.908  1.00  0.00    -0.252 OA
BRANCH  18  20
ATOM     20  O   UNL     1      -8.544  26.008  18.050  1.00  0.00    -0.469 OA
ATOM     21  C   UNL     1      -8.141  27.244  18.628  1.00  0.00     0.282 C 
ENDBRANCH  18  20
ENDBRANCH  17  18
ENDBRANCH  16  17
ENDBRANCH  15  16
ENDBRANCH  14  15
ENDBRANCH  13  14
ENDBRANCH  12  13
ENDBRANCH   1  12
TORSDOF 15
ENDMDL
MODEL 8
REMARK VINA RESULT:    -3.105      1.997      4.380
REMARK INTER + INTRA:          -8.291
REMARK INTER:                  -6.114
REMARK INTRA:                  -2.177
REMARK UNBOUND:                -2.463
REMARK SMILES CCCCCC=CCC=CCCCCCCCC(=O)OC
REMARK SMILES IDX 11 1 10 2 9 3 8 4 7 5 6 6 5 7 4 8 3 9 2 10 1 11 12 12 13 13
REMARK SMILES IDX 14 14 15 15 16 16 17 17 18 18 19 19 20 20 21 21
REMARK H PARENT
REMARK Flexibility Score: inf
ROOT
ATOM      1  C   UNL     1      -6.626  21.716  12.193  1.00  0.00     0.027 C 
ENDROOT
BRANCH   1   2
ATOM      2  C   UNL     1      -8.069  21.334  12.376  1.00  0.00    -0.031 C 
ATOM      3  C   UNL     1      -8.466  20.556  13.394  1.00  0.00    -0.027 C 
BRANCH   3   4
ATOM      4  C   UNL     1      -9.906  20.166  13.568  1.00  0.00     0.054 C 
BRANCH   4   5
ATOM      5  C   UNL     1     -10.483  20.830  14.793  1.00  0.00    -0.027 C 
ATOM      6  C   UNL     1     -11.134  22.009  14.802  1.00  0.00    -0.031 C 
BRANCH   6   7
ATOM      7  C   UNL     1     -11.347  22.885  13.595  1.00  0.00     0.027 C 
BRANCH   7   8
ATOM      8  C   UNL     1     -10.256  23.958  13.493  1.00  0.00     0.004 C 
BRANCH   8   9
ATOM      9  C   UNL     1      -9.982  24.596  14.859  1.00  0.00     0.000 C 
BRANCH   9  10
ATOM     10  C   UNL     1      -8.477  24.768  15.094  1.00  0.00    -0.003 C 
ATOM     11  C   UNL     1      -7.837  23.459  15.548  1.00  0.00     0.004 C 
ENDBRANCH   9  10
ENDBRANCH   8   9
ENDBRANCH   7   8
ENDBRANCH   6   7
ENDBRANCH   4   5
ENDBRANCH   3   4
ENDBRANCH   1   2
BRANCH   1  12
ATOM     12  C   UNL     1      -6.402  22.404  10.839  1.00  0.00     0.004 C 
BRANCH  12  13
ATOM     13  C   UNL     1      -7.677  22.462   9.980  1.00  0.00     0.000 C 
BRANCH  13  14
ATOM     14  C   UNL     1      -7.426  22.948   8.536  1.00  0.00     0.000 C 
BRANCH  14  15
ATOM     15  C   UNL     1      -6.079  22.448   7.984  1.00  0.00     0.001 C 
BRANCH  15  16
ATOM     16  C   UNL     1      -5.268  23.567   7.311  1.00  0.00     0.012 C 
BRANCH  16  17
ATOM     17  C   UNL     1      -3.810  23.601   7.788  1.00  0.00     0.123 C 
BRANCH  17  18
ATOM     18  C   UNL     1      -3.677  24.483   8.989  1.00  0.00     0.305 C 
ATOM     19  O   UNL     1      -4.512  25.408   9.183  1.00  0.00    -0.252 OA
BRANCH  18  20
ATOM     20  O   UNL     1      -2.654  24.239   9.910  1.00  0.00    -0.469 OA
ATOM     21  C   UNL     1      -2.908  23.983  11.286  1.00  0.00     0.282 C 
ENDBRANCH  18  20
ENDBRANCH  17  18
ENDBRANCH  16  17
ENDBRANCH  15  16
ENDBRANCH  14  15
ENDBRANCH  13  14
ENDBRANCH  12  13
ENDBRANCH   1  12
TORSDOF 15
ENDMDL
MODEL 9
REMARK VINA RESULT:    -3.091      2.426      6.766
REMARK INTER + INTRA:          -8.265
REMARK INTER:                  -6.288
REMARK INTRA:                  -1.976
REMARK UNBOUND:                -2.463
REMARK SMILES CCCCCC=CCC=CCCCCCCCC(=O)OC
REMARK SMILES IDX 11 1 10 2 9 3 8 4 7 5 6 6 5 7 4 8 3 9 2 10 1 11 12 12 13 13
REMARK SMILES IDX 14 14 15 15 16 16 17 17 18 18 19 19 20 20 21 21
REMARK H PARENT
REMARK Flexibility Score: inf
ROOT
ATOM      1  C   UNL     1      -7.087  22.478  11.508  1.00  0.00     0.027 C 
ENDROOT
BRANCH   1   2
ATOM      2  C   UNL     1      -6.460  22.103  10.195  1.00  0.00    -0.031 C 
ATOM      3  C   UNL     1      -6.995  22.485   9.025  1.00  0.00    -0.027 C 
BRANCH   3   4
ATOM      4  C   UNL     1      -6.374  22.099   7.714  1.00  0.00     0.054 C 
BRANCH   4   5
ATOM      5  C   UNL     1      -5.981  23.332   6.938  1.00  0.00    -0.027 C 
ATOM      6  C   UNL     1      -4.784  23.944   7.011  1.00  0.00    -0.031 C 
BRANCH   6   7
ATOM      7  C   UNL     1      -3.657  23.528   7.920  1.00  0.00     0.027 C 
BRANCH   7   8
ATOM      8  C   UNL     1      -3.215  24.689   8.819  1.00  0.00     0.004 C 
BRANCH   8   9
ATOM      9  C   UNL     1      -4.336  25.095   9.782  1.00  0.00     0.000 C 
BRANCH   9  10
ATOM     10  C   UNL     1      -4.017  24.654  11.215  1.00  0.00    -0.003 C 
ATOM     11  C   UNL     1      -2.533  24.337  11.377  1.00  0.00     0.004 C 
ENDBRANCH   9  10
ENDBRANCH   8   9
ENDBRANCH   7   8
ENDBRANCH   6   7
ENDBRANCH   4   5
ENDBRANCH   3   4
ENDBRANCH   1   2
BRANCH   1  12
ATOM     12  C   UNL     1      -6.857  21.388  12.564  1.00  0.00     0.004 C 
BRANCH  12  13
ATOM     13  C   UNL     1      -8.156  20.678  12.984  1.00  0.00     0.000 C 
BRANCH  13  14
ATOM     14  C   UNL     1      -9.244  21.641  13.506  1.00  0.00     0.000 C 
BRANCH  14  15
ATOM     15  C   UNL     1      -9.442  21.520  15.027  1.00  0.00     0.001 C 
BRANCH  15  16
ATOM     16  C   UNL     1      -9.321  22.873  15.745  1.00  0.00     0.012 C 
BRANCH  16  17
ATOM     17  C   UNL     1      -7.875  23.382  15.796  1.00  0.00     0.123 C 
BRANCH  17  18
ATOM     18  C   UNL     1      -7.777  24.735  15.165  1.00  0.00     0.305 C 
ATOM     19  O   UNL     1      -8.430  24.986  14.115  1.00  0.00    -0.252 OA
BRANCH  18  20
ATOM     20  O   UNL     1      -6.998  25.723  15.775  1.00  0.00    -0.469 OA
ATOM     21  C   UNL     1      -6.938  25.887  17.187  1.00  0.00     0.282 C 
ENDBRANCH  18  20
ENDBRANCH  17  18
ENDBRANCH  16  17
ENDBRANCH  15  16
ENDBRANCH  14  15
ENDBRANCH  13  14
ENDBRANCH  12  13
ENDBRANCH   1  12
TORSDOF 15
ENDMDL
