MODEL 1
REMARK VINA RESULT:    -4.482      0.000      0.000
REMARK INTER + INTRA:          -4.839
REMARK INTER:                  -4.744
REMARK INTRA:                  -0.095
REMARK UNBOUND:                -0.095
REMARK SMILES C=C(C)[C@H]1CC=C(C)C(=O)C1
REMARK SMILES IDX 8 1 7 2 6 3 5 4 4 5 11 6 9 7 10 8 2 9 1 10 3 11
REMARK H PARENT
REMARK Flexibility Score: inf
ROOT
ATOM      1  C   UNL     1      -1.904  28.548  50.222  1.00  0.00     0.048 C 
ATOM      2  C   UNL     1      -1.268  28.042  51.487  1.00  0.00    -0.012 C 
ATOM      3  C   UNL     1      -1.433  26.761  51.862  1.00  0.00    -0.019 C 
ATOM      4  C   UNL     1      -0.883  26.231  53.160  1.00  0.00     0.036 C 
ATOM      5  C   UNL     1       0.403  26.976  53.565  1.00  0.00     0.025 C 
ATOM      6  C   UNL     1       0.150  28.495  53.615  1.00  0.00     0.089 C 
ATOM      7  C   UNL     1      -0.478  28.971  52.334  1.00  0.00     0.158 C 
ATOM      8  O   UNL     1      -0.365  30.183  52.008  1.00  0.00    -0.295 OA
ENDROOT
BRANCH   5   9
ATOM      9  C   UNL     1       0.952  26.460  54.888  1.00  0.00    -0.077 C 
ATOM     10  C   UNL     1       2.072  26.990  55.404  1.00  0.00     0.008 C 
ATOM     11  C   UNL     1       0.263  25.354  55.648  1.00  0.00     0.039 C 
ENDBRANCH   5   9
TORSDOF 1
ENDMDL
MODEL 2
REMARK VINA RESULT:    -4.404      0.112      1.049
REMARK INTER + INTRA:          -4.756
REMARK INTER:                  -4.658
REMARK INTRA:                  -0.098
REMARK UNBOUND:                -0.095
REMARK SMILES C=C(C)[C@H]1CC=C(C)C(=O)C1
REMARK SMILES IDX 8 1 7 2 6 3 5 4 4 5 11 6 9 7 10 8 2 9 1 10 3 11
REMARK H PARENT
REMARK Flexibility Score: inf
ROOT
ATOM      1  C   UNL     1      -2.021  28.598  50.231  1.00  0.00     0.048 C 
ATOM      2  C   UNL     1      -1.365  28.075  51.479  1.00  0.00    -0.012 C 
ATOM      3  C   UNL     1      -1.513  26.785  51.829  1.00  0.00    -0.019 C 
ATOM      4  C   UNL     1      -0.942  26.235  53.110  1.00  0.00     0.036 C 
ATOM      5  C   UNL     1       0.342  26.984  53.514  1.00  0.00     0.025 C 
ATOM      6  C   UNL     1       0.075  28.499  53.597  1.00  0.00     0.089 C 
ATOM      7  C   UNL     1      -0.574  28.994  52.334  1.00  0.00     0.158 C 
ATOM      8  O   UNL     1      -0.476  30.213  52.030  1.00  0.00    -0.295 OA
ENDROOT
BRANCH   5   9
ATOM      9  C   UNL     1       0.913  26.447  54.820  1.00  0.00    -0.077 C 
ATOM     10  C   UNL     1       0.297  25.440  55.459  1.00  0.00     0.008 C 
ATOM     11  C   UNL     1       2.171  27.022  55.423  1.00  0.00     0.039 C 
ENDBRANCH   5   9
TORSDOF 1
ENDMDL
MODEL 3
REMARK VINA RESULT:    -4.347      1.532      2.142
REMARK INTER + INTRA:          -4.696
REMARK INTER:                  -4.598
REMARK INTRA:                  -0.098
REMARK UNBOUND:                -0.095
REMARK SMILES C=C(C)[C@H]1CC=C(C)C(=O)C1
REMARK SMILES IDX 8 1 7 2 6 3 5 4 4 5 11 6 9 7 10 8 2 9 1 10 3 11
REMARK H PARENT
REMARK Flexibility Score: inf
ROOT
ATOM      1  C   UNL     1      -2.230  28.570  50.604  1.00  0.00     0.048 C 
ATOM      2  C   UNL     1      -1.408  28.073  51.760  1.00  0.00    -0.012 C 
ATOM      3  C   UNL     1      -0.697  28.938  52.505  1.00  0.00    -0.019 C 
ATOM      4  C   UNL     1       0.203  28.479  53.622  1.00  0.00     0.036 C 
ATOM      5  C   UNL     1      -0.329  27.186  54.270  1.00  0.00     0.025 C 
ATOM      6  C   UNL     1      -0.536  26.096  53.201  1.00  0.00     0.089 C 
ATOM      7  C   UNL     1      -1.367  26.620  52.062  1.00  0.00     0.158 C 
ATOM      8  O   UNL     1      -1.995  25.805  51.334  1.00  0.00    -0.295 OA
ENDROOT
BRANCH   5   9
ATOM      9  C   UNL     1       0.587  26.704  55.386  1.00  0.00    -0.077 C 
ATOM     10  C   UNL     1       1.910  26.915  55.309  1.00  0.00     0.008 C 
ATOM     11  C   UNL     1       0.041  25.987  56.597  1.00  0.00     0.039 C 
ENDBRANCH   5   9
TORSDOF 1
ENDMDL
MODEL 4
REMARK VINA RESULT:    -4.179      1.369      1.382
REMARK INTER + INTRA:          -4.519
REMARK INTER:                  -4.432
REMARK INTRA:                  -0.087
REMARK UNBOUND:                -0.095
REMARK SMILES C=C(C)[C@H]1CC=C(C)C(=O)C1
REMARK SMILES IDX 8 1 7 2 6 3 5 4 4 5 11 6 9 7 10 8 2 9 1 10 3 11
REMARK H PARENT
REMARK Flexibility Score: inf
ROOT
ATOM      1  C   UNL     1      -3.455  28.138  51.006  1.00  0.00     0.048 C 
ATOM      2  C   UNL     1      -2.362  27.820  51.988  1.00  0.00    -0.012 C 
ATOM      3  C   UNL     1      -1.651  26.684  51.865  1.00  0.00    -0.019 C 
ATOM      4  C   UNL     1      -0.603  26.285  52.870  1.00  0.00     0.036 C 
ATOM      5  C   UNL     1       0.058  27.523  53.506  1.00  0.00     0.025 C 
ATOM      6  C   UNL     1      -1.012  28.448  54.116  1.00  0.00     0.089 C 
ATOM      7  C   UNL     1      -2.087  28.754  53.108  1.00  0.00     0.158 C 
ATOM      8  O   UNL     1      -2.785  29.793  53.251  1.00  0.00    -0.295 OA
ENDROOT
BRANCH   5   9
ATOM      9  C   UNL     1       1.104  27.127  54.539  1.00  0.00    -0.077 C 
ATOM     10  C   UNL     1       2.394  27.446  54.346  1.00  0.00     0.008 C 
ATOM     11  C   UNL     1       0.727  26.376  55.792  1.00  0.00     0.039 C 
ENDBRANCH   5   9
TORSDOF 1
ENDMDL
MODEL 5
REMARK VINA RESULT:    -3.991      2.092      4.516
REMARK INTER + INTRA:          -4.319
REMARK INTER:                  -4.223
REMARK INTRA:                  -0.096
REMARK UNBOUND:                -0.095
REMARK SMILES C=C(C)[C@H]1CC=C(C)C(=O)C1
REMARK SMILES IDX 8 1 7 2 6 3 5 4 4 5 11 6 9 7 10 8 2 9 1 10 3 11
REMARK H PARENT
REMARK Flexibility Score: inf
ROOT
ATOM      1  C   UNL     1      -0.216  26.110  56.934  1.00  0.00     0.048 C 
ATOM      2  C   UNL     1      -0.299  26.960  55.696  1.00  0.00    -0.012 C 
ATOM      3  C   UNL     1       0.730  26.997  54.831  1.00  0.00    -0.019 C 
ATOM      4  C   UNL     1       0.725  27.894  53.621  1.00  0.00     0.036 C 
ATOM      5  C   UNL     1      -0.707  28.117  53.099  1.00  0.00     0.025 C 
ATOM      6  C   UNL     1      -1.611  28.651  54.226  1.00  0.00     0.089 C 
ATOM      7  C   UNL     1      -1.513  27.777  55.446  1.00  0.00     0.158 C 
ATOM      8  O   UNL     1      -2.456  27.780  56.281  1.00  0.00    -0.295 OA
ENDROOT
BRANCH   5   9
ATOM      9  C   UNL     1      -0.721  29.040  51.889  1.00  0.00    -0.077 C 
ATOM     10  C   UNL     1      -0.074  30.215  51.931  1.00  0.00     0.008 C 
ATOM     11  C   UNL     1      -1.452  28.666  50.623  1.00  0.00     0.039 C 
ENDBRANCH   5   9
TORSDOF 1
ENDMDL
MODEL 6
REMARK VINA RESULT:    -3.973      1.410      4.747
REMARK INTER + INTRA:          -4.300
REMARK INTER:                  -4.210
REMARK INTRA:                  -0.090
REMARK UNBOUND:                -0.095
REMARK SMILES C=C(C)[C@H]1CC=C(C)C(=O)C1
REMARK SMILES IDX 8 1 7 2 6 3 5 4 4 5 11 6 9 7 10 8 2 9 1 10 3 11
REMARK H PARENT
REMARK Flexibility Score: inf
ROOT
ATOM      1  C   UNL     1       0.149  26.029  54.106  1.00  0.00     0.048 C 
ATOM      2  C   UNL     1      -0.550  26.795  53.016  1.00  0.00    -0.012 C 
ATOM      3  C   UNL     1      -1.352  26.155  52.148  1.00  0.00    -0.019 C 
ATOM      4  C   UNL     1      -2.008  26.866  50.993  1.00  0.00     0.036 C 
ATOM      5  C   UNL     1      -2.292  28.341  51.336  1.00  0.00     0.025 C 
ATOM      6  C   UNL     1      -1.001  29.043  51.796  1.00  0.00     0.089 C 
ATOM      7  C   UNL     1      -0.330  28.258  52.890  1.00  0.00     0.158 C 
ATOM      8  O   UNL     1       0.460  28.849  53.674  1.00  0.00    -0.295 OA
ENDROOT
BRANCH   5   9
ATOM      9  C   UNL     1      -2.937  29.071  50.166  1.00  0.00    -0.077 C 
ATOM     10  C   UNL     1      -4.229  28.860  49.871  1.00  0.00     0.008 C 
ATOM     11  C   UNL     1      -2.152  30.041  49.317  1.00  0.00     0.039 C 
ENDBRANCH   5   9
TORSDOF 1
ENDMDL
MODEL 7
REMARK VINA RESULT:    -3.918      7.906      8.867
REMARK INTER + INTRA:          -4.242
REMARK INTER:                  -4.147
REMARK INTRA:                  -0.096
REMARK UNBOUND:                -0.095
REMARK SMILES C=C(C)[C@H]1CC=C(C)C(=O)C1
REMARK SMILES IDX 8 1 7 2 6 3 5 4 4 5 11 6 9 7 10 8 2 9 1 10 3 11
REMARK H PARENT
REMARK Flexibility Score: inf
ROOT
ATOM      1  C   UNL     1      -2.808  29.890  58.090  1.00  0.00     0.048 C 
ATOM      2  C   UNL     1      -2.201  30.840  59.086  1.00  0.00    -0.012 C 
ATOM      3  C   UNL     1      -2.260  30.568  60.402  1.00  0.00    -0.019 C 
ATOM      4  C   UNL     1      -1.738  31.527  61.440  1.00  0.00     0.036 C 
ATOM      5  C   UNL     1      -0.558  32.352  60.892  1.00  0.00     0.025 C 
ATOM      6  C   UNL     1      -0.962  33.066  59.589  1.00  0.00     0.089 C 
ATOM      7  C   UNL     1      -1.558  32.090  58.611  1.00  0.00     0.158 C 
ATOM      8  O   UNL     1      -1.546  32.368  57.382  1.00  0.00    -0.295 OA
ENDROOT
BRANCH   5   9
ATOM      9  C   UNL     1      -0.039  33.339  61.929  1.00  0.00    -0.077 C 
ATOM     10  C   UNL     1      -0.013  32.998  63.227  1.00  0.00     0.008 C 
ATOM     11  C   UNL     1       0.455  34.708  61.533  1.00  0.00     0.039 C 
ENDBRANCH   5   9
TORSDOF 1
ENDMDL
MODEL 8
REMARK VINA RESULT:    -3.697      1.806      4.277
REMARK INTER + INTRA:          -4.008
REMARK INTER:                  -3.910
REMARK INTRA:                  -0.099
REMARK UNBOUND:                -0.095
REMARK SMILES C=C(C)[C@H]1CC=C(C)C(=O)C1
REMARK SMILES IDX 8 1 7 2 6 3 5 4 4 5 11 6 9 7 10 8 2 9 1 10 3 11
REMARK H PARENT
REMARK Flexibility Score: inf
ROOT
ATOM      1  C   UNL     1       1.216  27.726  53.955  1.00  0.00     0.048 C 
ATOM      2  C   UNL     1      -0.097  27.601  53.233  1.00  0.00    -0.012 C 
ATOM      3  C   UNL     1      -0.630  26.387  53.004  1.00  0.00    -0.019 C 
ATOM      4  C   UNL     1      -1.901  26.208  52.217  1.00  0.00     0.036 C 
ATOM      5  C   UNL     1      -2.835  27.422  52.384  1.00  0.00     0.025 C 
ATOM      6  C   UNL     1      -2.097  28.722  52.013  1.00  0.00     0.089 C 
ATOM      7  C   UNL     1      -0.792  28.822  52.755  1.00  0.00     0.158 C 
ATOM      8  O   UNL     1      -0.269  29.956  52.927  1.00  0.00    -0.295 OA
ENDROOT
BRANCH   5   9
ATOM      9  C   UNL     1      -4.113  27.258  51.574  1.00  0.00    -0.077 C 
ATOM     10  C   UNL     1      -4.491  28.215  50.711  1.00  0.00     0.008 C 
ATOM     11  C   UNL     1      -4.980  26.030  51.713  1.00  0.00     0.039 C 
ENDBRANCH   5   9
TORSDOF 1
ENDMDL
MODEL 9
REMARK VINA RESULT:    -3.671      2.334      4.019
REMARK INTER + INTRA:          -3.981
REMARK INTER:                  -3.892
REMARK INTRA:                  -0.089
REMARK UNBOUND:                -0.095
REMARK SMILES C=C(C)[C@H]1CC=C(C)C(=O)C1
REMARK SMILES IDX 8 1 7 2 6 3 5 4 4 5 11 6 9 7 10 8 2 9 1 10 3 11
REMARK H PARENT
REMARK Flexibility Score: inf
ROOT
ATOM      1  C   UNL     1      -1.731  25.506  51.272  1.00  0.00     0.048 C 
ATOM      2  C   UNL     1      -1.663  26.897  51.839  1.00  0.00    -0.012 C 
ATOM      3  C   UNL     1      -2.395  27.886  51.295  1.00  0.00    -0.019 C 
ATOM      4  C   UNL     1      -2.299  29.309  51.777  1.00  0.00     0.036 C 
ATOM      5  C   UNL     1      -1.951  29.367  53.276  1.00  0.00     0.025 C 
ATOM      6  C   UNL     1      -0.666  28.567  53.560  1.00  0.00     0.089 C 
ATOM      7  C   UNL     1      -0.767  27.179  52.988  1.00  0.00     0.158 C 
ATOM      8  O   UNL     1      -0.045  26.264  53.466  1.00  0.00    -0.295 OA
ENDROOT
BRANCH   5   9
ATOM      9  C   UNL     1      -1.831  30.804  53.766  1.00  0.00    -0.077 C 
ATOM     10  C   UNL     1      -2.290  31.141  54.981  1.00  0.00     0.008 C 
ATOM     11  C   UNL     1      -1.200  31.875  52.912  1.00  0.00     0.039 C 
ENDBRANCH   5   9
TORSDOF 1
ENDMDL
