MODEL 1
REMARK VINA RESULT:     1.232      0.000      0.000
REMARK INTER + INTRA:           0.888
REMARK INTER:                   2.241
REMARK INTRA:                  -1.353
REMARK UNBOUND:                -1.353
REMARK SMILES CCCCCCCCCCCCCCCC(=O)[O-]
REMARK SMILES IDX 9 1 10 2 11 3 12 4 13 5 14 6 15 7 16 8 17 9 18 10 8 11 7 12
REMARK SMILES IDX 6 13 5 14 4 15 3 16 2 17 1 18
REMARK H PARENT
REMARK Flexibility Score: inf
ROOT
ATOM      1  C   UNL     1      18.028   1.259  25.286  1.00  0.00     0.000 C 
ENDROOT
BRANCH   1   2
ATOM      2  C   UNL     1      17.276   2.556  24.948  1.00  0.00     0.000 C 
BRANCH   2   3
ATOM      3  C   UNL     1      16.630   3.210  26.180  1.00  0.00     0.000 C 
BRANCH   3   4
ATOM      4  C   UNL     1      15.156   3.596  25.922  1.00  0.00     0.000 C 
BRANCH   4   5
ATOM      5  C   UNL     1      14.263   2.391  25.571  1.00  0.00     0.000 C 
BRANCH   5   6
ATOM      6  C   UNL     1      13.308   2.637  24.384  1.00  0.00     0.006 C 
BRANCH   6   7
ATOM      7  C   UNL     1      13.932   3.467  23.250  1.00  0.00     0.053 C 
BRANCH   7   8
ATOM      8  C   UNL     1      13.027   4.562  22.779  1.00  0.00     0.041 C 
ATOM      9  O   UNL     1      11.903   4.286  22.281  1.00  0.00    -0.550 OA
ATOM     10  O   UNL     1      13.421   5.889  22.896  1.00  0.00    -0.550 OA
ENDBRANCH   7   8
ENDBRANCH   6   7
ENDBRANCH   5   6
ENDBRANCH   4   5
ENDBRANCH   3   4
ENDBRANCH   2   3
ENDBRANCH   1   2
BRANCH   1  11
ATOM     11  C   UNL     1      19.553   1.414  25.186  1.00  0.00     0.000 C 
BRANCH  11  12
ATOM     12  C   UNL     1      20.204   1.340  26.575  1.00  0.00    -0.000 C 
BRANCH  12  13
ATOM     13  C   UNL     1      19.233   0.852  27.661  1.00  0.00    -0.000 C 
BRANCH  13  14
ATOM     14  C   UNL     1      19.522   1.470  29.040  1.00  0.00    -0.000 C 
BRANCH  14  15
ATOM     15  C   UNL     1      19.099   2.953  29.114  1.00  0.00    -0.000 C 
BRANCH  15  16
ATOM     16  C   UNL     1      19.153   3.541  30.537  1.00  0.00    -0.000 C 
BRANCH  16  17
ATOM     17  C   UNL     1      17.854   4.225  30.997  1.00  0.00    -0.003 C 
ATOM     18  C   UNL     1      16.926   4.576  29.834  1.00  0.00     0.004 C 
ENDBRANCH  16  17
ENDBRANCH  15  16
ENDBRANCH  14  15
ENDBRANCH  13  14
ENDBRANCH  12  13
ENDBRANCH  11  12
ENDBRANCH   1  11
TORSDOF 14
ENDMDL
MODEL 2
REMARK VINA RESULT:     1.532      3.346      7.149
REMARK INTER + INTRA:           1.433
REMARK INTER:                   2.439
REMARK INTRA:                  -1.005
REMARK UNBOUND:                -1.353
REMARK SMILES CCCCCCCCCCCCCCCC(=O)[O-]
REMARK SMILES IDX 9 1 10 2 11 3 12 4 13 5 14 6 15 7 16 8 17 9 18 10 8 11 7 12
REMARK SMILES IDX 6 13 5 14 4 15 3 16 2 17 1 18
REMARK H PARENT
REMARK Flexibility Score: inf
ROOT
ATOM      1  C   UNL     1      17.655   1.251  25.206  1.00  0.00     0.000 C 
ENDROOT
BRANCH   1   2
ATOM      2  C   UNL     1      19.023   0.887  24.608  1.00  0.00     0.000 C 
BRANCH   2   3
ATOM      3  C   UNL     1      20.156   0.918  25.648  1.00  0.00     0.000 C 
BRANCH   3   4
ATOM      4  C   UNL     1      19.796   1.800  26.866  1.00  0.00     0.000 C 
BRANCH   4   5
ATOM      5  C   UNL     1      19.544   0.989  28.151  1.00  0.00     0.000 C 
BRANCH   5   6
ATOM      6  C   UNL     1      19.522   1.837  29.439  1.00  0.00     0.006 C 
BRANCH   6   7
ATOM      7  C   UNL     1      18.764   3.166  29.292  1.00  0.00     0.053 C 
BRANCH   7   8
ATOM      8  C   UNL     1      18.579   3.866  30.602  1.00  0.00     0.041 C 
ATOM      9  O   UNL     1      19.506   3.873  31.455  1.00  0.00    -0.550 OA
ATOM     10  O   UNL     1      17.383   4.517  30.881  1.00  0.00    -0.550 OA
ENDBRANCH   7   8
ENDBRANCH   6   7
ENDBRANCH   5   6
ENDBRANCH   4   5
ENDBRANCH   3   4
ENDBRANCH   2   3
ENDBRANCH   1   2
BRANCH   1  11
ATOM     11  C   UNL     1      17.256   2.708  24.930  1.00  0.00     0.000 C 
BRANCH  11  12
ATOM     12  C   UNL     1      16.446   3.286  26.100  1.00  0.00    -0.000 C 
BRANCH  12  13
ATOM     13  C   UNL     1      14.986   3.581  25.723  1.00  0.00    -0.000 C 
BRANCH  13  14
ATOM     14  C   UNL     1      14.158   2.303  25.498  1.00  0.00    -0.000 C 
BRANCH  14  15
ATOM     15  C   UNL     1      13.155   2.454  24.335  1.00  0.00    -0.000 C 
BRANCH  15  16
ATOM     16  C   UNL     1      13.679   3.325  23.177  1.00  0.00    -0.000 C 
BRANCH  16  17
ATOM     17  C   UNL     1      12.749   4.482  22.775  1.00  0.00    -0.003 C 
ATOM     18  C   UNL     1      13.351   5.856  23.070  1.00  0.00     0.004 C 
ENDBRANCH  16  17
ENDBRANCH  15  16
ENDBRANCH  14  15
ENDBRANCH  13  14
ENDBRANCH  12  13
ENDBRANCH  11  12
ENDBRANCH   1  11
TORSDOF 14
ENDMDL
MODEL 3
REMARK VINA RESULT:     1.828      0.885      1.572
REMARK INTER + INTRA:           1.972
REMARK INTER:                   3.040
REMARK INTRA:                  -1.068
REMARK UNBOUND:                -1.353
REMARK SMILES CCCCCCCCCCCCCCCC(=O)[O-]
REMARK SMILES IDX 9 1 10 2 11 3 12 4 13 5 14 6 15 7 16 8 17 9 18 10 8 11 7 12
REMARK SMILES IDX 6 13 5 14 4 15 3 16 2 17 1 18
REMARK H PARENT
REMARK Flexibility Score: inf
ROOT
ATOM      1  C   UNL     1      17.258   2.625  24.890  1.00  0.00     0.000 C 
ENDROOT
BRANCH   1   2
ATOM      2  C   UNL     1      16.555   3.295  26.081  1.00  0.00     0.000 C 
BRANCH   2   3
ATOM      3  C   UNL     1      15.079   3.620  25.797  1.00  0.00     0.000 C 
BRANCH   3   4
ATOM      4  C   UNL     1      14.247   2.343  25.540  1.00  0.00     0.000 C 
BRANCH   4   5
ATOM      5  C   UNL     1      13.234   2.497  24.390  1.00  0.00     0.000 C 
BRANCH   5   6
ATOM      6  C   UNL     1      13.766   3.300  23.184  1.00  0.00     0.006 C 
BRANCH   6   7
ATOM      7  C   UNL     1      12.794   4.380  22.683  1.00  0.00     0.053 C 
BRANCH   7   8
ATOM      8  C   UNL     1      13.190   5.754  23.126  1.00  0.00     0.041 C 
ATOM      9  O   UNL     1      12.942   6.138  24.299  1.00  0.00    -0.550 OA
ATOM     10  O   UNL     1      13.839   6.610  22.244  1.00  0.00    -0.550 OA
ENDBRANCH   7   8
ENDBRANCH   6   7
ENDBRANCH   5   6
ENDBRANCH   4   5
ENDBRANCH   3   4
ENDBRANCH   2   3
ENDBRANCH   1   2
BRANCH   1  11
ATOM     11  C   UNL     1      17.955   1.312  25.275  1.00  0.00     0.000 C 
BRANCH  11  12
ATOM     12  C   UNL     1      19.479   1.436  25.130  1.00  0.00    -0.000 C 
BRANCH  12  13
ATOM     13  C   UNL     1      20.228   1.098  26.428  1.00  0.00    -0.000 C 
BRANCH  13  14
ATOM     14  C   UNL     1      19.303   1.062  27.658  1.00  0.00    -0.000 C 
BRANCH  14  15
ATOM     15  C   UNL     1      19.155   2.450  28.317  1.00  0.00    -0.000 C 
BRANCH  15  16
ATOM     16  C   UNL     1      19.412   2.443  29.835  1.00  0.00    -0.000 C 
BRANCH  16  17
ATOM     17  C   UNL     1      19.180   3.795  30.531  1.00  0.00    -0.003 C 
ATOM     18  C   UNL     1      17.706   4.200  30.560  1.00  0.00     0.004 C 
ENDBRANCH  16  17
ENDBRANCH  15  16
ENDBRANCH  14  15
ENDBRANCH  13  14
ENDBRANCH  12  13
ENDBRANCH  11  12
ENDBRANCH   1  11
TORSDOF 14
ENDMDL
MODEL 4
REMARK VINA RESULT:     1.846      0.828      1.237
REMARK INTER + INTRA:           2.004
REMARK INTER:                   2.960
REMARK INTRA:                  -0.956
REMARK UNBOUND:                -1.353
REMARK SMILES CCCCCCCCCCCCCCCC(=O)[O-]
REMARK SMILES IDX 9 1 10 2 11 3 12 4 13 5 14 6 15 7 16 8 17 9 18 10 8 11 7 12
REMARK SMILES IDX 6 13 5 14 4 15 3 16 2 17 1 18
REMARK H PARENT
REMARK Flexibility Score: inf
ROOT
ATOM      1  C   UNL     1      18.972   0.920  24.698  1.00  0.00     0.000 C 
ENDROOT
BRANCH   1   2
ATOM      2  C   UNL     1      17.628   1.306  25.334  1.00  0.00     0.000 C 
BRANCH   2   3
ATOM      3  C   UNL     1      17.152   2.707  24.918  1.00  0.00     0.000 C 
BRANCH   3   4
ATOM      4  C   UNL     1      16.560   3.493  26.110  1.00  0.00     0.000 C 
BRANCH   4   5
ATOM      5  C   UNL     1      15.019   3.509  26.124  1.00  0.00     0.000 C 
BRANCH   5   6
ATOM      6  C   UNL     1      14.369   2.297  25.425  1.00  0.00     0.006 C 
BRANCH   6   7
ATOM      7  C   UNL     1      13.134   2.657  24.585  1.00  0.00     0.053 C 
BRANCH   7   8
ATOM      8  C   UNL     1      13.487   3.424  23.349  1.00  0.00     0.041 C 
ATOM      9  O   UNL     1      14.181   2.887  22.446  1.00  0.00    -0.550 OA
ATOM     10  O   UNL     1      13.045   4.732  23.191  1.00  0.00    -0.550 OA
ENDBRANCH   7   8
ENDBRANCH   6   7
ENDBRANCH   5   6
ENDBRANCH   4   5
ENDBRANCH   3   4
ENDBRANCH   2   3
ENDBRANCH   1   2
BRANCH   1  11
ATOM     11  C   UNL     1      20.171   1.232  25.606  1.00  0.00     0.000 C 
BRANCH  11  12
ATOM     12  C   UNL     1      19.710   1.892  26.914  1.00  0.00    -0.000 C 
BRANCH  12  13
ATOM     13  C   UNL     1      19.616   0.897  28.081  1.00  0.00    -0.000 C 
BRANCH  13  14
ATOM     14  C   UNL     1      19.447   1.590  29.444  1.00  0.00    -0.000 C 
BRANCH  14  15
ATOM     15  C   UNL     1      19.045   3.074  29.297  1.00  0.00    -0.000 C 
BRANCH  15  16
ATOM     16  C   UNL     1      18.968   3.828  30.638  1.00  0.00    -0.000 C 
BRANCH  16  17
ATOM     17  C   UNL     1      17.575   4.384  30.981  1.00  0.00    -0.003 C 
ATOM     18  C   UNL     1      16.718   4.639  29.741  1.00  0.00     0.004 C 
ENDBRANCH  16  17
ENDBRANCH  15  16
ENDBRANCH  14  15
ENDBRANCH  13  14
ENDBRANCH  12  13
ENDBRANCH  11  12
ENDBRANCH   1  11
TORSDOF 14
ENDMDL
MODEL 5
REMARK VINA RESULT:     2.264      3.017      6.940
REMARK INTER + INTRA:           2.763
REMARK INTER:                   3.979
REMARK INTRA:                  -1.216
REMARK UNBOUND:                -1.353
REMARK SMILES CCCCCCCCCCCCCCCC(=O)[O-]
REMARK SMILES IDX 9 1 10 2 11 3 12 4 13 5 14 6 15 7 16 8 17 9 18 10 8 11 7 12
REMARK SMILES IDX 6 13 5 14 4 15 3 16 2 17 1 18
REMARK H PARENT
REMARK Flexibility Score: inf
ROOT
ATOM      1  C   UNL     1      18.401   1.483  24.622  1.00  0.00     0.000 C 
ENDROOT
BRANCH   1   2
ATOM      2  C   UNL     1      19.578   1.923  25.506  1.00  0.00     0.000 C 
BRANCH   2   3
ATOM      3  C   UNL     1      20.197   0.759  26.297  1.00  0.00     0.000 C 
BRANCH   3   4
ATOM      4  C   UNL     1      19.632   0.675  27.734  1.00  0.00     0.000 C 
BRANCH   4   5
ATOM      5  C   UNL     1      19.109   2.024  28.263  1.00  0.00     0.000 C 
BRANCH   5   6
ATOM      6  C   UNL     1      19.488   2.316  29.730  1.00  0.00     0.006 C 
BRANCH   6   7
ATOM      7  C   UNL     1      19.288   3.784  30.139  1.00  0.00     0.053 C 
BRANCH   7   8
ATOM      8  C   UNL     1      17.869   4.085  30.512  1.00  0.00     0.041 C 
ATOM      9  O   UNL     1      17.465   3.877  31.687  1.00  0.00    -0.550 OA
ATOM     10  O   UNL     1      16.994   4.600  29.565  1.00  0.00    -0.550 OA
ENDBRANCH   7   8
ENDBRANCH   6   7
ENDBRANCH   5   6
ENDBRANCH   4   5
ENDBRANCH   3   4
ENDBRANCH   2   3
ENDBRANCH   1   2
BRANCH   1  11
ATOM     11  C   UNL     1      17.040   1.675  25.308  1.00  0.00     0.000 C 
BRANCH  11  12
ATOM     12  C   UNL     1      16.829   3.142  25.709  1.00  0.00    -0.000 C 
BRANCH  12  13
ATOM     13  C   UNL     1      15.344   3.515  25.838  1.00  0.00    -0.000 C 
BRANCH  13  14
ATOM     14  C   UNL     1      14.408   2.308  25.653  1.00  0.00    -0.000 C 
BRANCH  14  15
ATOM     15  C   UNL     1      13.372   2.540  24.533  1.00  0.00    -0.000 C 
BRANCH  15  16
ATOM     16  C   UNL     1      13.903   3.394  23.367  1.00  0.00    -0.000 C 
BRANCH  16  17
ATOM     17  C   UNL     1      12.873   4.363  22.761  1.00  0.00    -0.003 C 
ATOM     18  C   UNL     1      13.267   5.830  22.933  1.00  0.00     0.004 C 
ENDBRANCH  16  17
ENDBRANCH  15  16
ENDBRANCH  14  15
ENDBRANCH  13  14
ENDBRANCH  12  13
ENDBRANCH  11  12
ENDBRANCH   1  11
TORSDOF 14
ENDMDL
MODEL 6
REMARK VINA RESULT:     4.191      3.280      6.929
REMARK INTER + INTRA:           6.268
REMARK INTER:                   7.454
REMARK INTRA:                  -1.186
REMARK UNBOUND:                -1.353
REMARK SMILES CCCCCCCCCCCCCCCC(=O)[O-]
REMARK SMILES IDX 9 1 10 2 11 3 12 4 13 5 14 6 15 7 16 8 17 9 18 10 8 11 7 12
REMARK SMILES IDX 6 13 5 14 4 15 3 16 2 17 1 18
REMARK H PARENT
REMARK Flexibility Score: inf
ROOT
ATOM      1  C   UNL     1      16.253   4.461  29.815  1.00  0.00     0.000 C 
ENDROOT
BRANCH   1   2
ATOM      2  C   UNL     1      17.614   4.341  30.519  1.00  0.00     0.000 C 
BRANCH   2   3
ATOM      3  C   UNL     1      18.741   3.909  29.568  1.00  0.00     0.000 C 
BRANCH   3   4
ATOM      4  C   UNL     1      19.272   2.496  29.907  1.00  0.00     0.000 C 
BRANCH   4   5
ATOM      5  C   UNL     1      19.479   1.610  28.664  1.00  0.00     0.000 C 
BRANCH   5   6
ATOM      6  C   UNL     1      18.889   2.196  27.365  1.00  0.00     0.006 C 
BRANCH   6   7
ATOM      7  C   UNL     1      19.051   1.279  26.142  1.00  0.00     0.053 C 
BRANCH   7   8
ATOM      8  C   UNL     1      20.468   1.208  25.665  1.00  0.00     0.041 C 
ATOM      9  O   UNL     1      21.070   2.255  25.309  1.00  0.00    -0.550 OA
ATOM     10  O   UNL     1      21.127  -0.014  25.618  1.00  0.00    -0.550 OA
ENDBRANCH   7   8
ENDBRANCH   6   7
ENDBRANCH   5   6
ENDBRANCH   4   5
ENDBRANCH   3   4
ENDBRANCH   2   3
ENDBRANCH   1   2
BRANCH   1  11
ATOM     11  C   UNL     1      16.372   5.008  28.385  1.00  0.00     0.000 C 
BRANCH  11  12
ATOM     12  C   UNL     1      15.592   4.130  27.395  1.00  0.00    -0.000 C 
BRANCH  12  13
ATOM     13  C   UNL     1      16.435   3.713  26.180  1.00  0.00    -0.000 C 
BRANCH  13  14
ATOM     14  C   UNL     1      15.773   2.599  25.349  1.00  0.00    -0.000 C 
BRANCH  14  15
ATOM     15  C   UNL     1      14.289   2.397  25.724  1.00  0.00    -0.000 C 
BRANCH  15  16
ATOM     16  C   UNL     1      13.317   2.661  24.560  1.00  0.00    -0.000 C 
BRANCH  16  17
ATOM     17  C   UNL     1      13.909   3.488  23.406  1.00  0.00    -0.003 C 
ATOM     18  C   UNL     1      12.912   4.491  22.824  1.00  0.00     0.004 C 
ENDBRANCH  16  17
ENDBRANCH  15  16
ENDBRANCH  14  15
ENDBRANCH  13  14
ENDBRANCH  12  13
ENDBRANCH  11  12
ENDBRANCH   1  11
TORSDOF 14
ENDMDL
MODEL 7
REMARK VINA RESULT:     4.227      1.145      4.027
REMARK INTER + INTRA:           6.334
REMARK INTER:                   7.412
REMARK INTRA:                  -1.078
REMARK UNBOUND:                -1.353
REMARK SMILES CCCCCCCCCCCCCCCC(=O)[O-]
REMARK SMILES IDX 9 1 10 2 11 3 12 4 13 5 14 6 15 7 16 8 17 9 18 10 8 11 7 12
REMARK SMILES IDX 6 13 5 14 4 15 3 16 2 17 1 18
REMARK H PARENT
REMARK Flexibility Score: inf
ROOT
ATOM      1  C   UNL     1      17.102   5.005  29.808  1.00  0.00     0.000 C 
ENDROOT
BRANCH   1   2
ATOM      2  C   UNL     1      15.762   4.648  29.145  1.00  0.00     0.000 C 
BRANCH   2   3
ATOM      3  C   UNL     1      15.750   4.936  27.634  1.00  0.00     0.000 C 
BRANCH   3   4
ATOM      4  C   UNL     1      16.300   3.745  26.816  1.00  0.00     0.000 C 
BRANCH   4   5
ATOM      5  C   UNL     1      15.534   3.505  25.501  1.00  0.00     0.000 C 
BRANCH   5   6
ATOM      6  C   UNL     1      14.509   2.354  25.569  1.00  0.00     0.006 C 
BRANCH   6   7
ATOM      7  C   UNL     1      13.232   2.614  24.754  1.00  0.00     0.053 C 
BRANCH   7   8
ATOM      8  C   UNL     1      13.506   3.357  23.484  1.00  0.00     0.041 C 
ATOM      9  O   UNL     1      14.111   2.790  22.536  1.00  0.00    -0.550 OA
ATOM     10  O   UNL     1      13.087   4.674  23.344  1.00  0.00    -0.550 OA
ENDBRANCH   7   8
ENDBRANCH   6   7
ENDBRANCH   5   6
ENDBRANCH   4   5
ENDBRANCH   3   4
ENDBRANCH   2   3
ENDBRANCH   1   2
BRANCH   1  11
ATOM     11  C   UNL     1      17.622   3.892  30.731  1.00  0.00     0.000 C 
BRANCH  11  12
ATOM     12  C   UNL     1      19.121   3.648  30.505  1.00  0.00    -0.000 C 
BRANCH  12  13
ATOM     13  C   UNL     1      19.398   2.386  29.673  1.00  0.00    -0.000 C 
BRANCH  13  14
ATOM     14  C   UNL     1      19.176   2.605  28.166  1.00  0.00    -0.000 C 
BRANCH  14  15
ATOM     15  C   UNL     1      19.024   1.274  27.399  1.00  0.00    -0.000 C 
BRANCH  15  16
ATOM     16  C   UNL     1      18.882   1.451  25.876  1.00  0.00    -0.000 C 
BRANCH  16  17
ATOM     17  C   UNL     1      20.048   0.877  25.053  1.00  0.00    -0.003 C 
ATOM     18  C   UNL     1      21.379   0.920  25.802  1.00  0.00     0.004 C 
ENDBRANCH  16  17
ENDBRANCH  15  16
ENDBRANCH  14  15
ENDBRANCH  13  14
ENDBRANCH  12  13
ENDBRANCH  11  12
ENDBRANCH   1  11
TORSDOF 14
ENDMDL
