MODEL 1
REMARK VINA RESULT:    -3.594      0.000      0.000
REMARK INTER + INTRA:         -10.070
REMARK INTER:                  -6.956
REMARK INTRA:                  -3.114
REMARK UNBOUND:                -3.114
REMARK SMILES CCCCCCCCCCCCCCCCCC(=O)[O-]
REMARK SMILES IDX 10 1 11 2 12 3 13 4 14 5 15 6 16 7 17 8 18 9 19 10 20 11
REMARK SMILES IDX 9 12 8 13 7 14 6 15 5 16 4 17 3 18 2 19 1 20
REMARK H PARENT
REMARK Flexibility Score: inf
ROOT
ATOM      1  C   UNL     1      -2.568   7.513  40.120  1.00  0.00     0.000 C 
ENDROOT
BRANCH   1   2
ATOM      2  C   UNL     1      -2.142   8.499  39.018  1.00  0.00     0.000 C 
BRANCH   2   3
ATOM      3  C   UNL     1      -0.871   9.280  39.388  1.00  0.00     0.000 C 
BRANCH   3   4
ATOM      4  C   UNL     1      -0.146   8.689  40.607  1.00  0.00     0.000 C 
BRANCH   4   5
ATOM      5  C   UNL     1       1.370   8.922  40.512  1.00  0.00     0.000 C 
BRANCH   5   6
ATOM      6  C   UNL     1       1.729  10.020  39.489  1.00  0.00     0.000 C 
BRANCH   6   7
ATOM      7  C   UNL     1       2.685   9.544  38.381  1.00  0.00     0.006 C 
BRANCH   7   8
ATOM      8  C   UNL     1       1.971   9.277  37.052  1.00  0.00     0.053 C 
BRANCH   8   9
ATOM      9  C   UNL     1       1.649   7.822  36.917  1.00  0.00     0.041 C 
ATOM     10  O   UNL     1       2.535   6.954  37.133  1.00  0.00    -0.550 OA
ATOM     11  O   UNL     1       0.359   7.421  36.595  1.00  0.00    -0.550 OA
ENDBRANCH   8   9
ENDBRANCH   7   8
ENDBRANCH   6   7
ENDBRANCH   5   6
ENDBRANCH   4   5
ENDBRANCH   3   4
ENDBRANCH   2   3
ENDBRANCH   1   2
BRANCH   1  12
ATOM     12  C   UNL     1      -2.985   6.143  39.557  1.00  0.00     0.000 C 
BRANCH  12  13
ATOM     13  C   UNL     1      -1.977   5.593  38.533  1.00  0.00    -0.000 C 
BRANCH  13  14
ATOM     14  C   UNL     1      -0.967   4.612  39.154  1.00  0.00    -0.000 C 
BRANCH  14  15
ATOM     15  C   UNL     1       0.431   5.196  39.435  1.00  0.00    -0.000 C 
BRANCH  15  16
ATOM     16  C   UNL     1       0.768   5.249  40.935  1.00  0.00    -0.000 C 
BRANCH  16  17
ATOM     17  C   UNL     1      -0.310   4.578  41.803  1.00  0.00    -0.000 C 
BRANCH  17  18
ATOM     18  C   UNL     1      -0.985   5.567  42.770  1.00  0.00    -0.000 C 
BRANCH  18  19
ATOM     19  C   UNL     1      -2.437   5.178  43.092  1.00  0.00    -0.003 C 
ATOM     20  C   UNL     1      -2.865   3.876  42.417  1.00  0.00     0.004 C 
ENDBRANCH  18  19
ENDBRANCH  17  18
ENDBRANCH  16  17
ENDBRANCH  15  16
ENDBRANCH  14  15
ENDBRANCH  13  14
ENDBRANCH  12  13
ENDBRANCH   1  12
TORSDOF 16
ENDMDL
MODEL 2
REMARK VINA RESULT:    -3.462      1.705      2.938
REMARK INTER + INTRA:          -9.813
REMARK INTER:                  -7.000
REMARK INTRA:                  -2.814
REMARK UNBOUND:                -3.114
REMARK SMILES CCCCCCCCCCCCCCCCCC(=O)[O-]
REMARK SMILES IDX 10 1 11 2 12 3 13 4 14 5 15 6 16 7 17 8 18 9 19 10 20 11
REMARK SMILES IDX 9 12 8 13 7 14 6 15 5 16 4 17 3 18 2 19 1 20
REMARK H PARENT
REMARK Flexibility Score: inf
ROOT
ATOM      1  C   UNL     1      -2.004   8.492  38.941  1.00  0.00     0.000 C 
ENDROOT
BRANCH   1   2
ATOM      2  C   UNL     1      -0.868   9.490  39.227  1.00  0.00     0.000 C 
BRANCH   2   3
ATOM      3  C   UNL     1       0.016   9.053  40.406  1.00  0.00     0.000 C 
BRANCH   3   4
ATOM      4  C   UNL     1       1.512   9.051  40.056  1.00  0.00     0.000 C 
BRANCH   4   5
ATOM      5  C   UNL     1       1.833  10.125  39.006  1.00  0.00     0.000 C 
BRANCH   5   6
ATOM      6  C   UNL     1       2.469   9.526  37.733  1.00  0.00     0.000 C 
BRANCH   6   7
ATOM      7  C   UNL     1       1.919  10.125  36.428  1.00  0.00     0.006 C 
BRANCH   7   8
ATOM      8  C   UNL     1       0.838   9.252  35.780  1.00  0.00     0.053 C 
BRANCH   8   9
ATOM      9  C   UNL     1       1.410   8.484  34.630  1.00  0.00     0.041 C 
ATOM     10  O   UNL     1       1.655   7.254  34.748  1.00  0.00    -0.550 OA
ATOM     11  O   UNL     1       1.634   9.115  33.414  1.00  0.00    -0.550 OA
ENDBRANCH   8   9
ENDBRANCH   7   8
ENDBRANCH   6   7
ENDBRANCH   5   6
ENDBRANCH   4   5
ENDBRANCH   3   4
ENDBRANCH   2   3
ENDBRANCH   1   2
BRANCH   1  12
ATOM     12  C   UNL     1      -2.196   7.475  40.080  1.00  0.00     0.000 C 
BRANCH  12  13
ATOM     13  C   UNL     1      -2.985   6.231  39.633  1.00  0.00    -0.000 C 
BRANCH  13  14
ATOM     14  C   UNL     1      -2.103   5.185  38.928  1.00  0.00    -0.000 C 
BRANCH  14  15
ATOM     15  C   UNL     1      -1.665   5.550  37.497  1.00  0.00    -0.000 C 
BRANCH  15  16
ATOM     16  C   UNL     1      -0.176   5.268  37.236  1.00  0.00    -0.000 C 
BRANCH  16  17
ATOM     17  C   UNL     1       0.747   6.255  37.970  1.00  0.00    -0.000 C 
BRANCH  17  18
ATOM     18  C   UNL     1       1.956   5.558  38.618  1.00  0.00    -0.000 C 
BRANCH  18  19
ATOM     19  C   UNL     1       1.563   4.711  39.838  1.00  0.00    -0.003 C 
ATOM     20  C   UNL     1       0.851   5.523  40.920  1.00  0.00     0.004 C 
ENDBRANCH  18  19
ENDBRANCH  17  18
ENDBRANCH  16  17
ENDBRANCH  15  16
ENDBRANCH  14  15
ENDBRANCH  13  14
ENDBRANCH  12  13
ENDBRANCH   1  12
TORSDOF 16
ENDMDL
MODEL 3
REMARK VINA RESULT:    -3.330      2.012      4.490
REMARK INTER + INTRA:          -9.559
REMARK INTER:                  -6.522
REMARK INTRA:                  -3.037
REMARK UNBOUND:                -3.114
REMARK SMILES CCCCCCCCCCCCCCCCCC(=O)[O-]
REMARK SMILES IDX 10 1 11 2 12 3 13 4 14 5 15 6 16 7 17 8 18 9 19 10 20 11
REMARK SMILES IDX 9 12 8 13 7 14 6 15 5 16 4 17 3 18 2 19 1 20
REMARK H PARENT
REMARK Flexibility Score: inf
ROOT
ATOM      1  C   UNL     1       2.016  10.087  38.992  1.00  0.00     0.000 C 
ENDROOT
BRANCH   1   2
ATOM      2  C   UNL     1       2.643   9.859  37.606  1.00  0.00     0.000 C 
BRANCH   2   3
ATOM      3  C   UNL     1       1.650  10.115  36.461  1.00  0.00     0.000 C 
BRANCH   3   4
ATOM      4  C   UNL     1       1.453   8.887  35.560  1.00  0.00     0.000 C 
BRANCH   4   5
ATOM      5  C   UNL     1       0.527   7.858  36.226  1.00  0.00     0.000 C 
BRANCH   5   6
ATOM      6  C   UNL     1       1.133   6.439  36.225  1.00  0.00     0.000 C 
BRANCH   6   7
ATOM      7  C   UNL     1       2.356   6.290  37.147  1.00  0.00     0.006 C 
BRANCH   7   8
ATOM      8  C   UNL     1       3.348   5.230  36.656  1.00  0.00     0.053 C 
BRANCH   8   9
ATOM      9  C   UNL     1       2.735   3.867  36.735  1.00  0.00     0.041 C 
ATOM     10  O   UNL     1       2.312   3.425  37.836  1.00  0.00    -0.550 OA
ATOM     11  O   UNL     1       2.590   3.102  35.586  1.00  0.00    -0.550 OA
ENDBRANCH   8   9
ENDBRANCH   7   8
ENDBRANCH   6   7
ENDBRANCH   5   6
ENDBRANCH   4   5
ENDBRANCH   3   4
ENDBRANCH   2   3
ENDBRANCH   1   2
BRANCH   1  12
ATOM     12  C   UNL     1       1.763   8.771  39.749  1.00  0.00     0.000 C 
BRANCH  12  13
ATOM     13  C   UNL     1       0.302   8.627  40.211  1.00  0.00    -0.000 C 
BRANCH  13  14
ATOM     14  C   UNL     1      -0.685   9.409  39.327  1.00  0.00    -0.000 C 
BRANCH  14  15
ATOM     15  C   UNL     1      -1.947   8.634  38.904  1.00  0.00    -0.000 C 
BRANCH  15  16
ATOM     16  C   UNL     1      -2.561   7.815  40.053  1.00  0.00    -0.000 C 
BRANCH  16  17
ATOM     17  C   UNL     1      -2.748   6.334  39.684  1.00  0.00    -0.000 C 
BRANCH  17  18
ATOM     18  C   UNL     1      -1.939   5.932  38.439  1.00  0.00    -0.000 C 
BRANCH  18  19
ATOM     19  C   UNL     1      -0.958   4.783  38.719  1.00  0.00    -0.003 C 
ATOM     20  C   UNL     1      -0.206   4.954  40.039  1.00  0.00     0.004 C 
ENDBRANCH  18  19
ENDBRANCH  17  18
ENDBRANCH  16  17
ENDBRANCH  15  16
ENDBRANCH  14  15
ENDBRANCH  13  14
ENDBRANCH  12  13
ENDBRANCH   1  12
TORSDOF 16
ENDMDL
MODEL 4
REMARK VINA RESULT:    -3.307      1.829      3.237
REMARK INTER + INTRA:          -9.514
REMARK INTER:                  -6.446
REMARK INTRA:                  -3.068
REMARK UNBOUND:                -3.114
REMARK SMILES CCCCCCCCCCCCCCCCCC(=O)[O-]
REMARK SMILES IDX 10 1 11 2 12 3 13 4 14 5 15 6 16 7 17 8 18 9 19 10 20 11
REMARK SMILES IDX 9 12 8 13 7 14 6 15 5 16 4 17 3 18 2 19 1 20
REMARK H PARENT
REMARK Flexibility Score: inf
ROOT
ATOM      1  C   UNL     1      -1.691   8.175  38.769  1.00  0.00     0.000 C 
ENDROOT
BRANCH   1   2
ATOM      2  C   UNL     1      -1.865   9.625  38.285  1.00  0.00     0.000 C 
BRANCH   2   3
ATOM      3  C   UNL     1      -0.655  10.124  37.478  1.00  0.00     0.000 C 
BRANCH   3   4
ATOM      4  C   UNL     1       0.540   9.162  37.545  1.00  0.00     0.000 C 
BRANCH   4   5
ATOM      5  C   UNL     1       1.238   9.055  36.181  1.00  0.00     0.000 C 
BRANCH   5   6
ATOM      6  C   UNL     1       1.492   7.589  35.768  1.00  0.00     0.000 C 
BRANCH   6   7
ATOM      7  C   UNL     1       0.881   6.561  36.736  1.00  0.00     0.006 C 
BRANCH   7   8
ATOM      8  C   UNL     1       1.514   5.171  36.607  1.00  0.00     0.053 C 
BRANCH   8   9
ATOM      9  C   UNL     1       2.999   5.260  36.766  1.00  0.00     0.041 C 
ATOM     10  O   UNL     1       3.499   5.611  37.867  1.00  0.00    -0.550 OA
ATOM     11  O   UNL     1       3.833   4.913  35.712  1.00  0.00    -0.550 OA
ENDBRANCH   8   9
ENDBRANCH   7   8
ENDBRANCH   6   7
ENDBRANCH   5   6
ENDBRANCH   4   5
ENDBRANCH   3   4
ENDBRANCH   2   3
ENDBRANCH   1   2
BRANCH   1  12
ATOM     12  C   UNL     1      -2.620   7.830  39.946  1.00  0.00     0.000 C 
BRANCH  12  13
ATOM     13  C   UNL     1      -2.747   6.313  40.174  1.00  0.00    -0.000 C 
BRANCH  13  14
ATOM     14  C   UNL     1      -2.282   5.485  38.963  1.00  0.00    -0.000 C 
BRANCH  14  15
ATOM     15  C   UNL     1      -1.139   4.492  39.244  1.00  0.00    -0.000 C 
BRANCH  15  16
ATOM     16  C   UNL     1      -0.441   4.747  40.590  1.00  0.00    -0.000 C 
BRANCH  16  17
ATOM     17  C   UNL     1       1.025   5.180  40.420  1.00  0.00    -0.000 C 
BRANCH  17  18
ATOM     18  C   UNL     1       1.175   6.706  40.286  1.00  0.00    -0.000 C 
BRANCH  18  19
ATOM     19  C   UNL     1       0.736   7.454  41.555  1.00  0.00    -0.003 C 
ATOM     20  C   UNL     1       0.805   8.973  41.402  1.00  0.00     0.004 C 
ENDBRANCH  18  19
ENDBRANCH  17  18
ENDBRANCH  16  17
ENDBRANCH  15  16
ENDBRANCH  14  15
ENDBRANCH  13  14
ENDBRANCH  12  13
ENDBRANCH   1  12
TORSDOF 16
ENDMDL
MODEL 5
REMARK VINA RESULT:    -3.274      1.840      3.902
REMARK INTER + INTRA:          -9.449
REMARK INTER:                  -6.786
REMARK INTRA:                  -2.663
REMARK UNBOUND:                -3.114
REMARK SMILES CCCCCCCCCCCCCCCCCC(=O)[O-]
REMARK SMILES IDX 10 1 11 2 12 3 13 4 14 5 15 6 16 7 17 8 18 9 19 10 20 11
REMARK SMILES IDX 9 12 8 13 7 14 6 15 5 16 4 17 3 18 2 19 1 20
REMARK H PARENT
REMARK Flexibility Score: inf
ROOT
ATOM      1  C   UNL     1      -1.173   9.286  36.374  1.00  0.00     0.000 C 
ENDROOT
BRANCH   1   2
ATOM      2  C   UNL     1      -0.202  10.125  35.524  1.00  0.00     0.000 C 
BRANCH   2   3
ATOM      3  C   UNL     1       1.271   9.834  35.855  1.00  0.00     0.000 C 
BRANCH   3   4
ATOM      4  C   UNL     1       1.588  10.007  37.348  1.00  0.00     0.000 C 
BRANCH   4   5
ATOM      5  C   UNL     1       2.482   8.866  37.857  1.00  0.00     0.000 C 
BRANCH   5   6
ATOM      6  C   UNL     1       1.874   7.476  37.572  1.00  0.00     0.000 C 
BRANCH   6   7
ATOM      7  C   UNL     1       2.283   6.402  38.594  1.00  0.00     0.006 C 
BRANCH   7   8
ATOM      8  C   UNL     1       1.081   5.688  39.223  1.00  0.00     0.053 C 
BRANCH   8   9
ATOM      9  C   UNL     1       0.507   4.694  38.263  1.00  0.00     0.041 C 
ATOM     10  O   UNL     1      -0.726   4.437  38.279  1.00  0.00    -0.550 OA
ATOM     11  O   UNL     1       1.325   4.083  37.322  1.00  0.00    -0.550 OA
ENDBRANCH   8   9
ENDBRANCH   7   8
ENDBRANCH   6   7
ENDBRANCH   5   6
ENDBRANCH   4   5
ENDBRANCH   3   4
ENDBRANCH   2   3
ENDBRANCH   1   2
BRANCH   1  12
ATOM     12  C   UNL     1      -1.853  10.112  37.480  1.00  0.00     0.000 C 
BRANCH  12  13
ATOM     13  C   UNL     1      -1.686   9.482  38.875  1.00  0.00    -0.000 C 
BRANCH  13  14
ATOM     14  C   UNL     1      -1.635   7.944  38.834  1.00  0.00    -0.000 C 
BRANCH  14  15
ATOM     15  C   UNL     1      -2.632   7.228  39.764  1.00  0.00    -0.000 C 
BRANCH  15  16
ATOM     16  C   UNL     1      -2.385   7.526  41.252  1.00  0.00    -0.000 C 
BRANCH  16  17
ATOM     17  C   UNL     1      -1.449   6.498  41.910  1.00  0.00    -0.000 C 
BRANCH  17  18
ATOM     18  C   UNL     1      -0.364   7.162  42.777  1.00  0.00    -0.000 C 
BRANCH  18  19
ATOM     19  C   UNL     1      -0.054   8.600  42.334  1.00  0.00    -0.003 C 
ATOM     20  C   UNL     1       1.148   8.685  41.393  1.00  0.00     0.004 C 
ENDBRANCH  18  19
ENDBRANCH  17  18
ENDBRANCH  16  17
ENDBRANCH  15  16
ENDBRANCH  14  15
ENDBRANCH  13  14
ENDBRANCH  12  13
ENDBRANCH   1  12
TORSDOF 16
ENDMDL
MODEL 6
REMARK VINA RESULT:    -3.231      1.585      3.649
REMARK INTER + INTRA:          -9.367
REMARK INTER:                  -6.790
REMARK INTRA:                  -2.577
REMARK UNBOUND:                -3.114
REMARK SMILES CCCCCCCCCCCCCCCCCC(=O)[O-]
REMARK SMILES IDX 10 1 11 2 12 3 13 4 14 5 15 6 16 7 17 8 18 9 19 10 20 11
REMARK SMILES IDX 9 12 8 13 7 14 6 15 5 16 4 17 3 18 2 19 1 20
REMARK H PARENT
REMARK Flexibility Score: inf
ROOT
ATOM      1  C   UNL     1      -1.808   5.999  38.502  1.00  0.00     0.000 C 
ENDROOT
BRANCH   1   2
ATOM      2  C   UNL     1      -0.967   7.284  38.607  1.00  0.00     0.000 C 
BRANCH   2   3
ATOM      3  C   UNL     1      -1.832   8.538  38.807  1.00  0.00     0.000 C 
BRANCH   3   4
ATOM      4  C   UNL     1      -1.498   9.655  37.806  1.00  0.00     0.000 C 
BRANCH   4   5
ATOM      5  C   UNL     1      -1.133   9.072  36.433  1.00  0.00     0.000 C 
BRANCH   5   6
ATOM      6  C   UNL     1       0.137   9.721  35.841  1.00  0.00     0.000 C 
BRANCH   6   7
ATOM      7  C   UNL     1       1.149   8.703  35.288  1.00  0.00     0.006 C 
BRANCH   7   8
ATOM      8  C   UNL     1       1.789   7.843  36.384  1.00  0.00     0.053 C 
BRANCH   8   9
ATOM      9  C   UNL     1       1.751   6.397  35.999  1.00  0.00     0.041 C 
ATOM     10  O   UNL     1       0.651   5.836  35.750  1.00  0.00    -0.550 OA
ATOM     11  O   UNL     1       2.932   5.680  35.872  1.00  0.00    -0.550 OA
ENDBRANCH   8   9
ENDBRANCH   7   8
ENDBRANCH   6   7
ENDBRANCH   5   6
ENDBRANCH   4   5
ENDBRANCH   3   4
ENDBRANCH   2   3
ENDBRANCH   1   2
BRANCH   1  12
ATOM     12  C   UNL     1      -2.942   5.950  39.541  1.00  0.00     0.000 C 
BRANCH  12  13
ATOM     13  C   UNL     1      -2.623   5.013  40.720  1.00  0.00    -0.000 C 
BRANCH  13  14
ATOM     14  C   UNL     1      -1.355   5.428  41.487  1.00  0.00    -0.000 C 
BRANCH  14  15
ATOM     15  C   UNL     1      -1.583   6.400  42.660  1.00  0.00    -0.000 C 
BRANCH  15  16
ATOM     16  C   UNL     1      -1.267   7.861  42.298  1.00  0.00    -0.000 C 
BRANCH  16  17
ATOM     17  C   UNL     1       0.167   8.264  42.678  1.00  0.00    -0.000 C 
BRANCH  17  18
ATOM     18  C   UNL     1       1.109   8.301  41.461  1.00  0.00    -0.000 C 
BRANCH  18  19
ATOM     19  C   UNL     1       1.102   9.665  40.753  1.00  0.00    -0.003 C 
ATOM     20  C   UNL     1       1.878   9.655  39.436  1.00  0.00     0.004 C 
ENDBRANCH  18  19
ENDBRANCH  17  18
ENDBRANCH  16  17
ENDBRANCH  15  16
ENDBRANCH  14  15
ENDBRANCH  13  14
ENDBRANCH  12  13
ENDBRANCH   1  12
TORSDOF 16
ENDMDL
MODEL 7
REMARK VINA RESULT:    -3.185      2.615      5.281
REMARK INTER + INTRA:          -9.278
REMARK INTER:                  -6.481
REMARK INTRA:                  -2.797
REMARK UNBOUND:                -3.114
REMARK SMILES CCCCCCCCCCCCCCCCCC(=O)[O-]
REMARK SMILES IDX 10 1 11 2 12 3 13 4 14 5 15 6 16 7 17 8 18 9 19 10 20 11
REMARK SMILES IDX 9 12 8 13 7 14 6 15 5 16 4 17 3 18 2 19 1 20
REMARK H PARENT
REMARK Flexibility Score: inf
ROOT
ATOM      1  C   UNL     1      -1.206   5.612  40.154  1.00  0.00     0.000 C 
ENDROOT
BRANCH   1   2
ATOM      2  C   UNL     1      -0.617   5.037  38.853  1.00  0.00     0.000 C 
BRANCH   2   3
ATOM      3  C   UNL     1      -1.688   4.807  37.774  1.00  0.00     0.000 C 
BRANCH   3   4
ATOM      4  C   UNL     1      -1.085   4.549  36.385  1.00  0.00     0.000 C 
BRANCH   4   5
ATOM      5  C   UNL     1       0.337   5.121  36.288  1.00  0.00     0.000 C 
BRANCH   5   6
ATOM      6  C   UNL     1       0.903   5.037  34.854  1.00  0.00     0.000 C 
BRANCH   6   7
ATOM      7  C   UNL     1       2.113   5.957  34.614  1.00  0.00     0.006 C 
BRANCH   7   8
ATOM      8  C   UNL     1       2.430   6.149  33.126  1.00  0.00     0.053 C 
BRANCH   8   9
ATOM      9  C   UNL     1       1.822   7.421  32.624  1.00  0.00     0.041 C 
ATOM     10  O   UNL     1       1.583   7.568  31.396  1.00  0.00    -0.550 OA
ATOM     11  O   UNL     1       1.479   8.428  33.516  1.00  0.00    -0.550 OA
ENDBRANCH   8   9
ENDBRANCH   7   8
ENDBRANCH   6   7
ENDBRANCH   5   6
ENDBRANCH   4   5
ENDBRANCH   3   4
ENDBRANCH   2   3
ENDBRANCH   1   2
BRANCH   1  12
ATOM     12  C   UNL     1      -0.404   6.813  40.684  1.00  0.00     0.000 C 
BRANCH  12  13
ATOM     13  C   UNL     1      -1.227   8.114  40.695  1.00  0.00    -0.000 C 
BRANCH  13  14
ATOM     14  C   UNL     1      -2.136   8.258  39.462  1.00  0.00    -0.000 C 
BRANCH  14  15
ATOM     15  C   UNL     1      -1.623   9.223  38.376  1.00  0.00    -0.000 C 
BRANCH  15  16
ATOM     16  C   UNL     1      -1.092   8.494  37.129  1.00  0.00    -0.000 C 
BRANCH  16  17
ATOM     17  C   UNL     1       0.406   8.749  36.893  1.00  0.00    -0.000 C 
BRANCH  17  18
ATOM     18  C   UNL     1       1.031   9.635  37.986  1.00  0.00    -0.000 C 
BRANCH  18  19
ATOM     19  C   UNL     1       2.214   8.954  38.691  1.00  0.00    -0.003 C 
ATOM     20  C   UNL     1       2.295   7.456  38.402  1.00  0.00     0.004 C 
ENDBRANCH  18  19
ENDBRANCH  17  18
ENDBRANCH  16  17
ENDBRANCH  15  16
ENDBRANCH  14  15
ENDBRANCH  13  14
ENDBRANCH  12  13
ENDBRANCH   1  12
TORSDOF 16
ENDMDL
MODEL 8
REMARK VINA RESULT:    -3.175      1.870      3.523
REMARK INTER + INTRA:          -9.258
REMARK INTER:                  -6.471
REMARK INTRA:                  -2.786
REMARK UNBOUND:                -3.114
REMARK SMILES CCCCCCCCCCCCCCCCCC(=O)[O-]
REMARK SMILES IDX 10 1 11 2 12 3 13 4 14 5 15 6 16 7 17 8 18 9 19 10 20 11
REMARK SMILES IDX 9 12 8 13 7 14 6 15 5 16 4 17 3 18 2 19 1 20
REMARK H PARENT
REMARK Flexibility Score: inf
ROOT
ATOM      1  C   UNL     1      -0.329   9.161  36.403  1.00  0.00     0.000 C 
ENDROOT
BRANCH   1   2
ATOM      2  C   UNL     1       1.006   9.860  36.088  1.00  0.00     0.000 C 
BRANCH   2   3
ATOM      3  C   UNL     1       2.167   9.319  36.939  1.00  0.00     0.000 C 
BRANCH   3   4
ATOM      4  C   UNL     1       2.032   9.683  38.426  1.00  0.00     0.000 C 
BRANCH   4   5
ATOM      5  C   UNL     1       1.850   8.424  39.286  1.00  0.00     0.000 C 
BRANCH   5   6
ATOM      6  C   UNL     1       2.214   7.135  38.519  1.00  0.00     0.000 C 
BRANCH   6   7
ATOM      7  C   UNL     1       1.066   6.113  38.451  1.00  0.00     0.006 C 
BRANCH   7   8
ATOM      8  C   UNL     1       0.640   5.788  37.015  1.00  0.00     0.053 C 
BRANCH   8   9
ATOM      9  C   UNL     1      -0.436   4.750  37.013  1.00  0.00     0.041 C 
ATOM     10  O   UNL     1      -0.348   3.747  36.256  1.00  0.00    -0.550 OA
ATOM     11  O   UNL     1      -1.516   4.865  37.877  1.00  0.00    -0.550 OA
ENDBRANCH   8   9
ENDBRANCH   7   8
ENDBRANCH   6   7
ENDBRANCH   5   6
ENDBRANCH   4   5
ENDBRANCH   3   4
ENDBRANCH   2   3
ENDBRANCH   1   2
BRANCH   1  12
ATOM     12  C   UNL     1      -1.376  10.125  36.987  1.00  0.00     0.000 C 
BRANCH  12  13
ATOM     13  C   UNL     1      -1.841   9.710  38.394  1.00  0.00    -0.000 C 
BRANCH  13  14
ATOM     14  C   UNL     1      -1.864   8.183  38.591  1.00  0.00    -0.000 C 
BRANCH  14  15
ATOM     15  C   UNL     1      -2.312   7.706  39.985  1.00  0.00    -0.000 C 
BRANCH  15  16
ATOM     16  C   UNL     1      -1.179   7.747  41.025  1.00  0.00    -0.000 C 
BRANCH  16  17
ATOM     17  C   UNL     1      -0.941   6.381  41.689  1.00  0.00    -0.000 C 
BRANCH  17  18
ATOM     18  C   UNL     1      -2.253   5.626  41.968  1.00  0.00    -0.000 C 
BRANCH  18  19
ATOM     19  C   UNL     1      -2.290   4.243  41.299  1.00  0.00    -0.003 C 
ATOM     20  C   UNL     1      -0.897   3.670  41.043  1.00  0.00     0.004 C 
ENDBRANCH  18  19
ENDBRANCH  17  18
ENDBRANCH  16  17
ENDBRANCH  15  16
ENDBRANCH  14  15
ENDBRANCH  13  14
ENDBRANCH  12  13
ENDBRANCH   1  12
TORSDOF 16
ENDMDL
MODEL 9
REMARK VINA RESULT:    -3.082      2.037      3.812
REMARK INTER + INTRA:          -9.078
REMARK INTER:                  -6.304
REMARK INTRA:                  -2.774
REMARK UNBOUND:                -3.114
REMARK SMILES CCCCCCCCCCCCCCCCCC(=O)[O-]
REMARK SMILES IDX 10 1 11 2 12 3 13 4 14 5 15 6 16 7 17 8 18 9 19 10 20 11
REMARK SMILES IDX 9 12 8 13 7 14 6 15 5 16 4 17 3 18 2 19 1 20
REMARK H PARENT
REMARK Flexibility Score: inf
ROOT
ATOM      1  C   UNL     1      -2.243   8.129  39.865  1.00  0.00     0.000 C 
ENDROOT
BRANCH   1   2
ATOM      2  C   UNL     1      -2.701   6.714  39.469  1.00  0.00     0.000 C 
BRANCH   2   3
ATOM      3  C   UNL     1      -1.522   5.790  39.121  1.00  0.00     0.000 C 
BRANCH   3   4
ATOM      4  C   UNL     1      -1.348   5.596  37.607  1.00  0.00     0.000 C 
BRANCH   4   5
ATOM      5  C   UNL     1       0.098   5.208  37.265  1.00  0.00     0.000 C 
BRANCH   5   6
ATOM      6  C   UNL     1       0.701   6.111  36.167  1.00  0.00     0.000 C 
BRANCH   6   7
ATOM      7  C   UNL     1       2.225   5.963  36.015  1.00  0.00     0.006 C 
BRANCH   7   8
ATOM      8  C   UNL     1       2.966   6.011  37.356  1.00  0.00     0.053 C 
BRANCH   8   9
ATOM      9  C   UNL     1       4.012   4.943  37.411  1.00  0.00     0.041 C 
ATOM     10  O   UNL     1       4.332   4.315  36.367  1.00  0.00    -0.550 OA
ATOM     11  O   UNL     1       4.666   4.670  38.605  1.00  0.00    -0.550 OA
ENDBRANCH   8   9
ENDBRANCH   7   8
ENDBRANCH   6   7
ENDBRANCH   5   6
ENDBRANCH   4   5
ENDBRANCH   3   4
ENDBRANCH   2   3
ENDBRANCH   1   2
BRANCH   1  12
ATOM     12  C   UNL     1      -1.876   8.993  38.646  1.00  0.00     0.000 C 
BRANCH  12  13
ATOM     13  C   UNL     1      -0.549   9.750  38.837  1.00  0.00    -0.000 C 
BRANCH  13  14
ATOM     14  C   UNL     1       0.685   8.882  38.532  1.00  0.00    -0.000 C 
BRANCH  14  15
ATOM     15  C   UNL     1       1.487   8.423  39.764  1.00  0.00    -0.000 C 
BRANCH  15  16
ATOM     16  C   UNL     1       1.116   9.194  41.042  1.00  0.00    -0.000 C 
BRANCH  16  17
ATOM     17  C   UNL     1       0.948   8.269  42.259  1.00  0.00    -0.000 C 
BRANCH  17  18
ATOM     18  C   UNL     1       0.726   6.801  41.854  1.00  0.00    -0.000 C 
BRANCH  18  19
ATOM     19  C   UNL     1      -0.076   6.015  42.903  1.00  0.00    -0.003 C 
ATOM     20  C   UNL     1      -1.484   6.572  43.113  1.00  0.00     0.004 C 
ENDBRANCH  18  19
ENDBRANCH  17  18
ENDBRANCH  16  17
ENDBRANCH  15  16
ENDBRANCH  14  15
ENDBRANCH  13  14
ENDBRANCH  12  13
ENDBRANCH   1  12
TORSDOF 16
ENDMDL
