MODEL 1
REMARK VINA RESULT:    -3.601      0.000      0.000
REMARK INTER + INTRA:          -5.453
REMARK INTER:                  -4.865
REMARK INTRA:                  -0.588
REMARK UNBOUND:                -0.588
REMARK SMILES CC(=O)CCC=C(C)CCC=C(C)C
REMARK SMILES IDX 7 1 6 2 8 3 9 4 10 5 11 6 13 7 12 8 14 9 5 10 4 11 2 12 3 13
REMARK SMILES IDX 1 14
REMARK H PARENT
REMARK Flexibility Score: inf
ROOT
ATOM      1  C   UNL     1      27.926  12.957  24.829  1.00  0.00    -0.077 C 
ATOM      2  C   UNL     1      28.084  13.416  23.566  1.00  0.00    -0.028 C 
ATOM      3  C   UNL     1      26.534  12.621  25.296  1.00  0.00     0.039 C 
ENDROOT
BRANCH   1   4
ATOM      4  C   UNL     1      29.090  12.735  25.779  1.00  0.00     0.034 C 
BRANCH   4   5
ATOM      5  C   UNL     1      29.775  11.382  25.539  1.00  0.00     0.032 C 
BRANCH   5   6
ATOM      6  C   UNL     1      28.981  10.238  26.123  1.00  0.00    -0.028 C 
ATOM      7  C   UNL     1      27.504   8.276  26.125  1.00  0.00     0.039 C 
ATOM      8  C   UNL     1      28.193   9.407  25.406  1.00  0.00    -0.080 C 
ATOM      9  C   UNL     1      27.973   9.592  23.923  1.00  0.00     0.039 C 
ENDBRANCH   5   6
ENDBRANCH   4   5
ENDBRANCH   1   4
BRANCH   2  10
ATOM     10  C   UNL     1      29.396  13.853  22.965  1.00  0.00     0.035 C 
BRANCH  10  11
ATOM     11  C   UNL     1      29.446  13.514  21.471  1.00  0.00     0.079 C 
BRANCH  11  12
ATOM     12  C   UNL     1      29.861  12.082  21.263  1.00  0.00     0.130 C 
ATOM     13  O   UNL     1      30.109  11.382  22.232  1.00  0.00    -0.300 OA
ATOM     14  C   UNL     1      29.989  11.496  19.888  1.00  0.00     0.087 C 
ENDBRANCH  11  12
ENDBRANCH  10  11
ENDBRANCH   2  10
TORSDOF 6
ENDMDL
MODEL 2
REMARK VINA RESULT:    -3.392      1.916      4.375
REMARK INTER + INTRA:          -5.170
REMARK INTER:                  -4.823
REMARK INTRA:                  -0.347
REMARK UNBOUND:                -0.588
REMARK SMILES CC(=O)CCC=C(C)CCC=C(C)C
REMARK SMILES IDX 7 1 6 2 8 3 9 4 10 5 11 6 13 7 12 8 14 9 5 10 4 11 2 12 3 13
REMARK SMILES IDX 1 14
REMARK H PARENT
REMARK Flexibility Score: inf
ROOT
ATOM      1  C   UNL     1      28.519  12.447  25.925  1.00  0.00    -0.077 C 
ATOM      2  C   UNL     1      28.636  11.110  26.091  1.00  0.00    -0.028 C 
ATOM      3  C   UNL     1      27.138  13.049  25.932  1.00  0.00     0.039 C 
ENDROOT
BRANCH   1   4
ATOM      4  C   UNL     1      29.716  13.368  25.768  1.00  0.00     0.034 C 
BRANCH   4   5
ATOM      5  C   UNL     1      30.125  13.529  24.296  1.00  0.00     0.032 C 
BRANCH   5   6
ATOM      6  C   UNL     1      28.932  13.473  23.372  1.00  0.00    -0.028 C 
ATOM      7  C   UNL     1      27.510  12.622  21.559  1.00  0.00     0.039 C 
ATOM      8  C   UNL     1      28.784  12.587  22.364  1.00  0.00    -0.080 C 
ATOM      9  C   UNL     1      29.858  11.584  22.014  1.00  0.00     0.039 C 
ENDBRANCH   5   6
ENDBRANCH   4   5
ENDBRANCH   1   4
BRANCH   2  10
ATOM     10  C   UNL     1      29.935  10.345  26.051  1.00  0.00     0.035 C 
BRANCH  10  11
ATOM     11  C   UNL     1      29.675   8.838  25.954  1.00  0.00     0.079 C 
BRANCH  11  12
ATOM     12  C   UNL     1      28.296   8.570  25.412  1.00  0.00     0.130 C 
ATOM     13  O   UNL     1      27.504   7.923  26.080  1.00  0.00    -0.300 OA
ATOM     14  C   UNL     1      27.874   9.070  24.062  1.00  0.00     0.087 C 
ENDBRANCH  11  12
ENDBRANCH  10  11
ENDBRANCH   2  10
TORSDOF 6
ENDMDL
MODEL 3
REMARK VINA RESULT:    -3.198      1.608      4.382
REMARK INTER + INTRA:          -4.907
REMARK INTER:                  -4.000
REMARK INTRA:                  -0.908
REMARK UNBOUND:                -0.588
REMARK SMILES CC(=O)CCC=C(C)CCC=C(C)C
REMARK SMILES IDX 7 1 6 2 8 3 9 4 10 5 11 6 13 7 12 8 14 9 5 10 4 11 2 12 3 13
REMARK SMILES IDX 1 14
REMARK H PARENT
REMARK Flexibility Score: inf
ROOT
ATOM      1  C   UNL     1      30.093  11.791  22.599  1.00  0.00    -0.077 C 
ATOM      2  C   UNL     1      30.089  10.870  23.589  1.00  0.00    -0.028 C 
ATOM      3  C   UNL     1      30.117  11.306  21.173  1.00  0.00     0.039 C 
ENDROOT
BRANCH   1   4
ATOM      4  C   UNL     1      30.039  13.287  22.861  1.00  0.00     0.034 C 
BRANCH   4   5
ATOM      5  C   UNL     1      28.622  13.849  22.678  1.00  0.00     0.032 C 
BRANCH   5   6
ATOM      6  C   UNL     1      27.814  13.762  23.952  1.00  0.00    -0.028 C 
ATOM      7  C   UNL     1      26.275  12.780  25.594  1.00  0.00     0.039 C 
ATOM      8  C   UNL     1      26.973  12.751  24.258  1.00  0.00    -0.080 C 
ATOM      9  C   UNL     1      26.701  11.615  23.300  1.00  0.00     0.039 C 
ENDBRANCH   5   6
ENDBRANCH   4   5
ENDBRANCH   1   4
BRANCH   2  10
ATOM     10  C   UNL     1      30.125  11.187  25.063  1.00  0.00     0.035 C 
BRANCH  10  11
ATOM     11  C   UNL     1      28.989  10.469  25.799  1.00  0.00     0.079 C 
BRANCH  11  12
ATOM     12  C   UNL     1      28.953   9.009  25.430  1.00  0.00     0.130 C 
ATOM     13  O   UNL     1      29.998   8.379  25.371  1.00  0.00    -0.300 OA
ATOM     14  C   UNL     1      27.662   8.311  25.122  1.00  0.00     0.087 C 
ENDBRANCH  11  12
ENDBRANCH  10  11
ENDBRANCH   2  10
TORSDOF 6
ENDMDL
MODEL 4
REMARK VINA RESULT:    -3.171      1.981      5.030
REMARK INTER + INTRA:          -4.872
REMARK INTER:                  -3.981
REMARK INTRA:                  -0.891
REMARK UNBOUND:                -0.588
REMARK SMILES CC(=O)CCC=C(C)CCC=C(C)C
REMARK SMILES IDX 7 1 6 2 8 3 9 4 10 5 11 6 13 7 12 8 14 9 5 10 4 11 2 12 3 13
REMARK SMILES IDX 1 14
REMARK H PARENT
REMARK Flexibility Score: inf
ROOT
ATOM      1  C   UNL     1      27.595  11.418  23.320  1.00  0.00    -0.077 C 
ATOM      2  C   UNL     1      27.309  11.485  24.640  1.00  0.00    -0.028 C 
ATOM      3  C   UNL     1      26.594  11.979  22.344  1.00  0.00     0.039 C 
ENDROOT
BRANCH   1   4
ATOM      4  C   UNL     1      28.891  10.834  22.783  1.00  0.00     0.034 C 
BRANCH   4   5
ATOM      5  C   UNL     1      30.071  11.801  22.963  1.00  0.00     0.032 C 
BRANCH   5   6
ATOM      6  C   UNL     1      29.834  13.115  22.258  1.00  0.00    -0.028 C 
ATOM      7  C   UNL     1      29.678  15.553  22.006  1.00  0.00     0.039 C 
ATOM      8  C   UNL     1      29.886  14.325  22.855  1.00  0.00    -0.080 C 
ATOM      9  C   UNL     1      30.125  14.478  24.339  1.00  0.00     0.039 C 
ENDBRANCH   5   6
ENDBRANCH   4   5
ENDBRANCH   1   4
BRANCH   2  10
ATOM     10  C   UNL     1      28.172  10.919  25.740  1.00  0.00     0.035 C 
BRANCH  10  11
ATOM     11  C   UNL     1      27.740   9.490  26.086  1.00  0.00     0.079 C 
BRANCH  11  12
ATOM     12  C   UNL     1      28.524   8.486  25.283  1.00  0.00     0.130 C 
ATOM     13  O   UNL     1      28.017   7.983  24.292  1.00  0.00    -0.300 OA
ATOM     14  C   UNL     1      29.913   8.080  25.679  1.00  0.00     0.087 C 
ENDBRANCH  11  12
ENDBRANCH  10  11
ENDBRANCH   2  10
TORSDOF 6
ENDMDL
MODEL 5
REMARK VINA RESULT:    -2.898      1.961      5.116
REMARK INTER + INTRA:          -4.503
REMARK INTER:                  -4.081
REMARK INTRA:                  -0.422
REMARK UNBOUND:                -0.588
REMARK SMILES CC(=O)CCC=C(C)CCC=C(C)C
REMARK SMILES IDX 7 1 6 2 8 3 9 4 10 5 11 6 13 7 12 8 14 9 5 10 4 11 2 12 3 13
REMARK SMILES IDX 1 14
REMARK H PARENT
REMARK Flexibility Score: inf
ROOT
ATOM      1  C   UNL     1      28.055  11.975  23.970  1.00  0.00    -0.077 C 
ATOM      2  C   UNL     1      28.695  10.785  23.921  1.00  0.00    -0.028 C 
ATOM      3  C   UNL     1      26.817  12.155  23.130  1.00  0.00     0.039 C 
ENDROOT
BRANCH   1   4
ATOM      4  C   UNL     1      28.508  13.121  24.858  1.00  0.00     0.034 C 
BRANCH   4   5
ATOM      5  C   UNL     1      29.963  13.522  24.577  1.00  0.00     0.032 C 
BRANCH   5   6
ATOM      6  C   UNL     1      30.051  14.719  23.661  1.00  0.00    -0.028 C 
ATOM      7  C   UNL     1      30.125  15.940  21.531  1.00  0.00     0.039 C 
ATOM      8  C   UNL     1      30.091  14.651  22.313  1.00  0.00    -0.080 C 
ATOM      9  C   UNL     1      30.123  13.333  21.577  1.00  0.00     0.039 C 
ENDBRANCH   5   6
ENDBRANCH   4   5
ENDBRANCH   1   4
BRANCH   2  10
ATOM     10  C   UNL     1      29.975  10.462  24.651  1.00  0.00     0.035 C 
BRANCH  10  11
ATOM     11  C   UNL     1      29.679   9.984  26.077  1.00  0.00     0.079 C 
BRANCH  11  12
ATOM     12  C   UNL     1      29.202   8.556  26.072  1.00  0.00     0.130 C 
ATOM     13  O   UNL     1      30.019   7.650  26.121  1.00  0.00    -0.300 OA
ATOM     14  C   UNL     1      27.742   8.219  25.998  1.00  0.00     0.087 C 
ENDBRANCH  11  12
ENDBRANCH  10  11
ENDBRANCH   2  10
TORSDOF 6
ENDMDL
MODEL 6
REMARK VINA RESULT:    -2.634      1.780      4.288
REMARK INTER + INTRA:          -4.146
REMARK INTER:                  -3.793
REMARK INTRA:                  -0.353
REMARK UNBOUND:                -0.588
REMARK SMILES CC(=O)CCC=C(C)CCC=C(C)C
REMARK SMILES IDX 7 1 6 2 8 3 9 4 10 5 11 6 13 7 12 8 14 9 5 10 4 11 2 12 3 13
REMARK SMILES IDX 1 14
REMARK H PARENT
REMARK Flexibility Score: inf
ROOT
ATOM      1  C   UNL     1      27.134  12.420  25.391  1.00  0.00    -0.077 C 
ATOM      2  C   UNL     1      28.324  12.780  25.925  1.00  0.00    -0.028 C 
ATOM      3  C   UNL     1      25.888  13.092  25.908  1.00  0.00     0.039 C 
ENDROOT
BRANCH   1   4
ATOM      4  C   UNL     1      27.004  11.397  24.276  1.00  0.00     0.034 C 
BRANCH   4   5
ATOM      5  C   UNL     1      27.152  12.041  22.890  1.00  0.00     0.032 C 
BRANCH   5   6
ATOM      6  C   UNL     1      27.838  13.384  22.964  1.00  0.00    -0.028 C 
ATOM      7  C   UNL     1      29.458  15.134  22.378  1.00  0.00     0.039 C 
ATOM      8  C   UNL     1      28.917  13.735  22.231  1.00  0.00    -0.080 C 
ATOM      9  C   UNL     1      29.600  12.767  21.294  1.00  0.00     0.039 C 
ENDBRANCH   5   6
ENDBRANCH   4   5
ENDBRANCH   1   4
BRANCH   2  10
ATOM     10  C   UNL     1      29.653  12.166  25.564  1.00  0.00     0.035 C 
BRANCH  10  11
ATOM     11  C   UNL     1      29.762  10.744  26.125  1.00  0.00     0.079 C 
BRANCH  11  12
ATOM     12  C   UNL     1      29.967   9.747  25.015  1.00  0.00     0.130 C 
ATOM     13  O   UNL     1      30.016   8.556  25.279  1.00  0.00    -0.300 OA
ATOM     14  C   UNL     1      30.125  10.185  23.589  1.00  0.00     0.087 C 
ENDBRANCH  11  12
ENDBRANCH  10  11
ENDBRANCH   2  10
TORSDOF 6
ENDMDL
