MODEL 1
REMARK VINA RESULT:    -3.717      0.000      0.000
REMARK INTER + INTRA:          -5.214
REMARK INTER:                  -4.803
REMARK INTRA:                  -0.411
REMARK UNBOUND:                -0.411
REMARK SMILES CCO[C@@H]1O[C@@H](CO)[C@@H](O)[C@@H](O)[C@@H]1O
REMARK SMILES IDX 4 1 13 2 11 3 9 4 6 5 5 6 3 7 2 8 1 9 14 10 12 12 7 14 8 15
REMARK SMILES IDX 10 17
REMARK H PARENT 14 11 12 13 8 16 10 18
REMARK Flexibility Score: inf
ROOT
ATOM      1  C   UNL     1       7.876  34.783  33.532  1.00  0.00     0.281 C 
ATOM      2  C   UNL     1       9.282  34.157  33.639  1.00  0.00     0.202 C 
ATOM      3  C   UNL     1       9.212  32.789  34.346  1.00  0.00     0.179 C 
ATOM      4  C   UNL     1       8.145  31.908  33.676  1.00  0.00     0.177 C 
ATOM      5  C   UNL     1       6.813  32.689  33.625  1.00  0.00     0.178 C 
ATOM      6  O   UNL     1       6.964  33.896  32.893  1.00  0.00    -0.341 OA
ENDROOT
BRANCH   1   7
ATOM      7  O   UNL     1       7.411  35.166  34.818  1.00  0.00    -0.350 OA
BRANCH   7   8
ATOM      8  C   UNL     1       6.643  36.353  34.751  1.00  0.00     0.160 C 
ATOM      9  C   UNL     1       7.266  37.325  33.755  1.00  0.00     0.035 C 
ENDBRANCH   7   8
ENDBRANCH   1   7
BRANCH   2  10
ATOM     10  O   UNL     1      10.124  35.030  34.349  1.00  0.00    -0.385 OA
ATOM     11  H   UNL     1      10.802  35.366  33.706  1.00  0.00     0.211 HD
ENDBRANCH   2  10
BRANCH   3  12
ATOM     12  O   UNL     1      10.459  32.144  34.288  1.00  0.00    -0.387 OA
ATOM     13  H   UNL     1      10.286  31.201  34.030  1.00  0.00     0.211 HD
ENDBRANCH   3  12
BRANCH   5  14
ATOM     14  C   UNL     1       5.680  31.857  33.006  1.00  0.00     0.191 C 
BRANCH  14  15
ATOM     15  O   UNL     1       5.466  32.215  31.665  1.00  0.00    -0.394 OA
ATOM     16  H   UNL     1       4.517  32.013  31.455  1.00  0.00     0.210 HD
ENDBRANCH  14  15
ENDBRANCH   5  14
BRANCH   4  17
ATOM     17  O   UNL     1       8.553  31.563  32.374  1.00  0.00    -0.387 OA
ATOM     18  H   UNL     1       7.907  31.981  31.747  1.00  0.00     0.211 HD
ENDBRANCH   4  17
TORSDOF 7
ENDMDL
MODEL 2
REMARK VINA RESULT:    -3.575      1.848      3.921
REMARK INTER + INTRA:          -5.031
REMARK INTER:                  -4.641
REMARK INTRA:                  -0.389
REMARK UNBOUND:                -0.411
REMARK SMILES CCO[C@@H]1O[C@@H](CO)[C@@H](O)[C@@H](O)[C@@H]1O
REMARK SMILES IDX 4 1 13 2 11 3 9 4 6 5 5 6 3 7 2 8 1 9 14 10 12 12 7 14 8 15
REMARK SMILES IDX 10 17
REMARK H PARENT 14 11 12 13 8 16 10 18
REMARK Flexibility Score: inf
ROOT
ATOM      1  C   UNL     1       6.179  32.689  34.898  1.00  0.00     0.281 C 
ATOM      2  C   UNL     1       7.243  31.627  34.556  1.00  0.00     0.202 C 
ATOM      3  C   UNL     1       7.928  31.961  33.215  1.00  0.00     0.179 C 
ATOM      4  C   UNL     1       8.425  33.415  33.230  1.00  0.00     0.177 C 
ATOM      5  C   UNL     1       7.250  34.341  33.615  1.00  0.00     0.178 C 
ATOM      6  O   UNL     1       6.736  33.999  34.893  1.00  0.00    -0.341 OA
ENDROOT
BRANCH   1   7
ATOM      7  O   UNL     1       5.082  32.591  34.002  1.00  0.00    -0.350 OA
BRANCH   7   8
ATOM      8  C   UNL     1       3.856  32.495  34.703  1.00  0.00     0.160 C 
ATOM      9  C   UNL     1       2.875  31.620  33.931  1.00  0.00     0.035 C 
ENDBRANCH   7   8
ENDBRANCH   1   7
BRANCH   2  10
ATOM     10  O   UNL     1       6.632  30.364  34.490  1.00  0.00    -0.385 OA
ATOM     11  H   UNL     1       5.657  30.506  34.608  1.00  0.00     0.211 HD
ENDBRANCH   2  10
BRANCH   3  12
ATOM     12  O   UNL     1       9.011  31.095  32.991  1.00  0.00    -0.387 OA
ATOM     13  H   UNL     1       8.707  30.181  33.233  1.00  0.00     0.211 HD
ENDBRANCH   3  12
BRANCH   5  14
ATOM     14  C   UNL     1       7.656  35.822  33.609  1.00  0.00     0.191 C 
BRANCH  14  15
ATOM     15  O   UNL     1       8.857  36.014  32.907  1.00  0.00    -0.394 OA
ATOM     16  H   UNL     1       8.816  35.443  32.096  1.00  0.00     0.210 HD
ENDBRANCH  14  15
ENDBRANCH   5  14
BRANCH   4  17
ATOM     17  O   UNL     1       9.474  33.557  34.157  1.00  0.00    -0.387 OA
ATOM     18  H   UNL     1       9.719  34.519  34.174  1.00  0.00     0.211 HD
ENDBRANCH   4  17
TORSDOF 7
ENDMDL
MODEL 3
REMARK VINA RESULT:    -3.479      1.531      3.955
REMARK INTER + INTRA:          -4.906
REMARK INTER:                  -4.466
REMARK INTRA:                  -0.440
REMARK UNBOUND:                -0.411
REMARK SMILES CCO[C@@H]1O[C@@H](CO)[C@@H](O)[C@@H](O)[C@@H]1O
REMARK SMILES IDX 4 1 13 2 11 3 9 4 6 5 5 6 3 7 2 8 1 9 14 10 12 12 7 14 8 15
REMARK SMILES IDX 10 17
REMARK H PARENT 14 11 12 13 8 16 10 18
REMARK Flexibility Score: inf
ROOT
ATOM      1  C   UNL     1       7.166  32.071  34.368  1.00  0.00     0.281 C 
ATOM      2  C   UNL     1       8.552  32.304  33.733  1.00  0.00     0.202 C 
ATOM      3  C   UNL     1       8.550  33.595  32.890  1.00  0.00     0.179 C 
ATOM      4  C   UNL     1       8.001  34.763  33.726  1.00  0.00     0.177 C 
ATOM      5  C   UNL     1       6.629  34.358  34.309  1.00  0.00     0.178 C 
ATOM      6  O   UNL     1       6.749  33.202  35.125  1.00  0.00    -0.341 OA
ENDROOT
BRANCH   1   7
ATOM      7  O   UNL     1       6.216  31.739  33.366  1.00  0.00    -0.350 OA
BRANCH   7   8
ATOM      8  C   UNL     1       5.238  30.847  33.865  1.00  0.00     0.160 C 
ATOM      9  C   UNL     1       3.856  31.485  33.788  1.00  0.00     0.035 C 
ENDBRANCH   7   8
ENDBRANCH   1   7
BRANCH   2  10
ATOM     10  O   UNL     1       8.885  31.200  32.930  1.00  0.00    -0.385 OA
ATOM     11  H   UNL     1       9.463  30.607  33.477  1.00  0.00     0.211 HD
ENDBRANCH   2  10
BRANCH   3  12
ATOM     12  O   UNL     1       9.851  33.898  32.457  1.00  0.00    -0.387 OA
ATOM     13  H   UNL     1       9.974  34.877  32.570  1.00  0.00     0.211 HD
ENDBRANCH   3  12
BRANCH   5  14
ATOM     14  C   UNL     1       5.990  35.492  35.125  1.00  0.00     0.191 C 
BRANCH  14  15
ATOM     15  O   UNL     1       6.530  36.738  34.766  1.00  0.00    -0.394 OA
ATOM     16  H   UNL     1       7.448  36.778  35.140  1.00  0.00     0.210 HD
ENDBRANCH  14  15
ENDBRANCH   5  14
BRANCH   4  17
ATOM     17  O   UNL     1       8.895  35.074  34.767  1.00  0.00    -0.387 OA
ATOM     18  H   UNL     1       8.771  36.036  34.978  1.00  0.00     0.211 HD
ENDBRANCH   4  17
TORSDOF 7
ENDMDL
MODEL 4
REMARK VINA RESULT:    -3.194      9.759     11.805
REMARK INTER + INTRA:          -4.539
REMARK INTER:                  -4.152
REMARK INTRA:                  -0.387
REMARK UNBOUND:                -0.411
REMARK SMILES CCO[C@@H]1O[C@@H](CO)[C@@H](O)[C@@H](O)[C@@H]1O
REMARK SMILES IDX 4 1 13 2 11 3 9 4 6 5 5 6 3 7 2 8 1 9 14 10 12 12 7 14 8 15
REMARK SMILES IDX 10 17
REMARK H PARENT 14 11 12 13 8 16 10 18
REMARK Flexibility Score: inf
ROOT
ATOM      1  C   UNL     1      17.731  37.201  32.403  1.00  0.00     0.281 C 
ATOM      2  C   UNL     1      18.586  38.230  33.169  1.00  0.00     0.202 C 
ATOM      3  C   UNL     1      19.675  37.518  33.997  1.00  0.00     0.179 C 
ATOM      4  C   UNL     1      20.457  36.542  33.103  1.00  0.00     0.177 C 
ATOM      5  C   UNL     1      19.456  35.605  32.392  1.00  0.00     0.178 C 
ATOM      6  O   UNL     1      18.542  36.350  31.601  1.00  0.00    -0.341 OA
ENDROOT
BRANCH   1   7
ATOM      7  O   UNL     1      16.935  36.452  33.310  1.00  0.00    -0.350 OA
BRANCH   7   8
ATOM      8  C   UNL     1      15.629  36.254  32.801  1.00  0.00     0.160 C 
ATOM      9  C   UNL     1      14.685  35.839  33.923  1.00  0.00     0.035 C 
ENDBRANCH   7   8
ENDBRANCH   1   7
BRANCH   2  10
ATOM     10  O   UNL     1      17.755  38.990  34.009  1.00  0.00    -0.385 OA
ATOM     11  H   UNL     1      17.381  38.369  34.686  1.00  0.00     0.211 HD
ENDBRANCH   2  10
BRANCH   3  12
ATOM     12  O   UNL     1      20.559  38.458  34.553  1.00  0.00    -0.387 OA
ATOM     13  H   UNL     1      21.426  37.994  34.691  1.00  0.00     0.211 HD
ENDBRANCH   3  12
BRANCH   5  14
ATOM     14  C   UNL     1      20.163  34.566  31.509  1.00  0.00     0.191 C 
BRANCH  14  15
ATOM     15  O   UNL     1      21.503  34.401  31.899  1.00  0.00    -0.394 OA
ATOM     16  H   UNL     1      22.068  34.721  31.148  1.00  0.00     0.210 HD
ENDBRANCH  14  15
ENDBRANCH   5  14
BRANCH   4  17
ATOM     17  O   UNL     1      21.209  37.256  32.152  1.00  0.00    -0.387 OA
ATOM     18  H   UNL     1      21.299  38.184  32.491  1.00  0.00     0.211 HD
ENDBRANCH   4  17
TORSDOF 7
ENDMDL
MODEL 5
REMARK VINA RESULT:    -3.100      9.082     10.691
REMARK INTER + INTRA:          -4.417
REMARK INTER:                  -4.183
REMARK INTRA:                  -0.233
REMARK UNBOUND:                -0.411
REMARK SMILES CCO[C@@H]1O[C@@H](CO)[C@@H](O)[C@@H](O)[C@@H]1O
REMARK SMILES IDX 4 1 13 2 11 3 9 4 6 5 5 6 3 7 2 8 1 9 14 10 12 12 7 14 8 15
REMARK SMILES IDX 10 17
REMARK H PARENT 14 11 12 13 8 16 10 18
REMARK Flexibility Score: inf
ROOT
ATOM      1  C   UNL     1      16.867  36.316  32.690  1.00  0.00     0.281 C 
ATOM      2  C   UNL     1      16.007  36.884  33.837  1.00  0.00     0.202 C 
ATOM      3  C   UNL     1      16.297  38.385  34.040  1.00  0.00     0.179 C 
ATOM      4  C   UNL     1      16.181  39.125  32.697  1.00  0.00     0.177 C 
ATOM      5  C   UNL     1      17.078  38.417  31.658  1.00  0.00     0.178 C 
ATOM      6  O   UNL     1      16.686  37.063  31.491  1.00  0.00    -0.341 OA
ENDROOT
BRANCH   1   7
ATOM      7  O   UNL     1      18.234  36.279  33.074  1.00  0.00    -0.350 OA
BRANCH   7   8
ATOM      8  C   UNL     1      19.031  35.679  32.070  1.00  0.00     0.160 C 
ATOM      9  C   UNL     1      20.501  35.717  32.473  1.00  0.00     0.035 C 
ENDBRANCH   7   8
ENDBRANCH   1   7
BRANCH   2  10
ATOM     10  O   UNL     1      16.280  36.172  35.017  1.00  0.00    -0.385 OA
ATOM     11  H   UNL     1      17.267  36.089  35.084  1.00  0.00     0.211 HD
ENDBRANCH   2  10
BRANCH   3  12
ATOM     12  O   UNL     1      15.393  38.938  34.962  1.00  0.00    -0.387 OA
ATOM     13  H   UNL     1      14.940  38.179  35.414  1.00  0.00     0.211 HD
ENDBRANCH   3  12
BRANCH   5  14
ATOM     14  C   UNL     1      17.052  39.125  30.295  1.00  0.00     0.191 C 
BRANCH  14  15
ATOM     15  O   UNL     1      15.997  38.649  29.499  1.00  0.00    -0.394 OA
ATOM     16  H   UNL     1      15.183  38.641  30.066  1.00  0.00     0.210 HD
ENDBRANCH  14  15
ENDBRANCH   5  14
BRANCH   4  17
ATOM     17  O   UNL     1      14.844  39.124  32.260  1.00  0.00    -0.387 OA
ATOM     18  H   UNL     1      14.806  39.684  31.442  1.00  0.00     0.211 HD
ENDBRANCH   4  17
TORSDOF 7
ENDMDL
MODEL 6
REMARK VINA RESULT:    -2.921      3.449      4.640
REMARK INTER + INTRA:          -4.185
REMARK INTER:                  -3.907
REMARK INTRA:                  -0.278
REMARK UNBOUND:                -0.411
REMARK SMILES CCO[C@@H]1O[C@@H](CO)[C@@H](O)[C@@H](O)[C@@H]1O
REMARK SMILES IDX 4 1 13 2 11 3 9 4 6 5 5 6 3 7 2 8 1 9 14 10 12 12 7 14 8 15
REMARK SMILES IDX 10 17
REMARK H PARENT 14 11 12 13 8 16 10 18
REMARK Flexibility Score: inf
ROOT
ATOM      1  C   UNL     1      11.057  35.214  33.791  1.00  0.00     0.281 C 
ATOM      2  C   UNL     1      12.418  35.770  33.324  1.00  0.00     0.202 C 
ATOM      3  C   UNL     1      13.547  35.288  34.257  1.00  0.00     0.179 C 
ATOM      4  C   UNL     1      13.477  33.761  34.417  1.00  0.00     0.177 C 
ATOM      5  C   UNL     1      12.049  33.371  34.860  1.00  0.00     0.178 C 
ATOM      6  O   UNL     1      11.090  33.795  33.903  1.00  0.00    -0.341 OA
ENDROOT
BRANCH   1   7
ATOM      7  O   UNL     1      10.674  35.820  35.017  1.00  0.00    -0.350 OA
BRANCH   7   8
ATOM      8  C   UNL     1       9.274  36.025  35.069  1.00  0.00     0.160 C 
ATOM      9  C   UNL     1       8.748  36.415  33.693  1.00  0.00     0.035 C 
ENDBRANCH   7   8
ENDBRANCH   1   7
BRANCH   2  10
ATOM     10  O   UNL     1      12.364  37.173  33.310  1.00  0.00    -0.385 OA
ATOM     11  H   UNL     1      11.493  37.434  33.707  1.00  0.00     0.211 HD
ENDBRANCH   2  10
BRANCH   3  12
ATOM     12  O   UNL     1      14.800  35.649  33.734  1.00  0.00    -0.387 OA
ATOM     13  H   UNL     1      15.305  36.087  34.469  1.00  0.00     0.211 HD
ENDBRANCH   3  12
BRANCH   5  14
ATOM     14  C   UNL     1      11.908  31.858  35.086  1.00  0.00     0.191 C 
BRANCH  14  15
ATOM     15  O   UNL     1      10.685  31.385  34.583  1.00  0.00    -0.394 OA
ATOM     16  H   UNL     1      10.893  30.658  33.940  1.00  0.00     0.210 HD
ENDBRANCH  14  15
ENDBRANCH   5  14
BRANCH   4  17
ATOM     17  O   UNL     1      13.793  33.133  33.199  1.00  0.00    -0.387 OA
ATOM     18  H   UNL     1      12.934  32.878  32.772  1.00  0.00     0.211 HD
ENDBRANCH   4  17
TORSDOF 7
ENDMDL
MODEL 7
REMARK VINA RESULT:    -2.918      1.558      3.367
REMARK INTER + INTRA:          -4.181
REMARK INTER:                  -3.791
REMARK INTRA:                  -0.390
REMARK UNBOUND:                -0.411
REMARK SMILES CCO[C@@H]1O[C@@H](CO)[C@@H](O)[C@@H](O)[C@@H]1O
REMARK SMILES IDX 4 1 13 2 11 3 9 4 6 5 5 6 3 7 2 8 1 9 14 10 12 12 7 14 8 15
REMARK SMILES IDX 10 17
REMARK H PARENT 14 11 12 13 8 16 10 18
REMARK Flexibility Score: inf
ROOT
ATOM      1  C   UNL     1       7.493  35.168  34.955  1.00  0.00     0.281 C 
ATOM      2  C   UNL     1       6.990  33.749  34.624  1.00  0.00     0.202 C 
ATOM      3  C   UNL     1       7.342  33.376  33.169  1.00  0.00     0.179 C 
ATOM      4  C   UNL     1       8.837  33.625  32.913  1.00  0.00     0.177 C 
ATOM      5  C   UNL     1       9.179  35.075  33.320  1.00  0.00     0.178 C 
ATOM      6  O   UNL     1       8.887  35.297  34.691  1.00  0.00    -0.341 OA
ENDROOT
BRANCH   1   7
ATOM      7  O   UNL     1       6.740  36.135  34.238  1.00  0.00    -0.350 OA
BRANCH   7   8
ATOM      8  C   UNL     1       6.704  37.370  34.929  1.00  0.00     0.160 C 
ATOM      9  C   UNL     1       6.922  38.524  33.956  1.00  0.00     0.035 C 
ENDBRANCH   7   8
ENDBRANCH   1   7
BRANCH   2  10
ATOM     10  O   UNL     1       5.600  33.693  34.818  1.00  0.00    -0.385 OA
ATOM     11  H   UNL     1       5.361  32.736  34.931  1.00  0.00     0.211 HD
ENDBRANCH   2  10
BRANCH   3  12
ATOM     12  O   UNL     1       7.040  32.027  32.924  1.00  0.00    -0.387 OA
ATOM     13  H   UNL     1       6.051  31.954  32.880  1.00  0.00     0.211 HD
ENDBRANCH   3  12
BRANCH   5  14
ATOM     14  C   UNL     1      10.652  35.419  33.052  1.00  0.00     0.191 C 
BRANCH  14  15
ATOM     15  O   UNL     1      11.111  34.793  31.881  1.00  0.00    -0.394 OA
ATOM     16  H   UNL     1      11.429  35.509  31.272  1.00  0.00     0.210 HD
ENDBRANCH  14  15
ENDBRANCH   5  14
BRANCH   4  17
ATOM     17  O   UNL     1       9.612  32.719  33.660  1.00  0.00    -0.387 OA
ATOM     18  H   UNL     1      10.529  32.739  33.280  1.00  0.00     0.211 HD
ENDBRANCH   4  17
TORSDOF 7
ENDMDL
MODEL 8
REMARK VINA RESULT:    -2.903      3.582      5.351
REMARK INTER + INTRA:          -4.162
REMARK INTER:                  -3.706
REMARK INTRA:                  -0.456
REMARK UNBOUND:                -0.411
REMARK SMILES CCO[C@@H]1O[C@@H](CO)[C@@H](O)[C@@H](O)[C@@H]1O
REMARK SMILES IDX 4 1 13 2 11 3 9 4 6 5 5 6 3 7 2 8 1 9 14 10 12 12 7 14 8 15
REMARK SMILES IDX 10 17
REMARK H PARENT 14 11 12 13 8 16 10 18
REMARK Flexibility Score: inf
ROOT
ATOM      1  C   UNL     1      13.246  35.413  33.828  1.00  0.00     0.281 C 
ATOM      2  C   UNL     1      12.828  33.932  33.931  1.00  0.00     0.202 C 
ATOM      3  C   UNL     1      11.412  33.810  34.528  1.00  0.00     0.179 C 
ATOM      4  C   UNL     1      10.440  34.720  33.758  1.00  0.00     0.177 C 
ATOM      5  C   UNL     1      11.017  36.152  33.725  1.00  0.00     0.178 C 
ATOM      6  O   UNL     1      12.289  36.170  33.094  1.00  0.00    -0.341 OA
ENDROOT
BRANCH   1   7
ATOM      7  O   UNL     1      13.450  35.957  35.124  1.00  0.00    -0.350 OA
BRANCH   7   8
ATOM      8  C   UNL     1      14.468  36.940  35.111  1.00  0.00     0.160 C 
ATOM      9  C   UNL     1      15.684  36.428  34.347  1.00  0.00     0.035 C 
ENDBRANCH   7   8
ENDBRANCH   1   7
BRANCH   2  10
ATOM     10  O   UNL     1      13.755  33.245  34.732  1.00  0.00    -0.385 OA
ATOM     11  H   UNL     1      14.037  33.869  35.451  1.00  0.00     0.211 HD
ENDBRANCH   2  10
BRANCH   3  12
ATOM     12  O   UNL     1      10.966  32.480  34.459  1.00  0.00    -0.387 OA
ATOM     13  H   UNL     1      11.421  32.061  33.682  1.00  0.00     0.211 HD
ENDBRANCH   3  12
BRANCH   5  14
ATOM     14  C   UNL     1      10.080  37.136  33.008  1.00  0.00     0.191 C 
BRANCH  14  15
ATOM     15  O   UNL     1       8.819  36.560  32.785  1.00  0.00    -0.394 OA
ATOM     16  H   UNL     1       8.150  37.291  32.834  1.00  0.00     0.210 HD
ENDBRANCH  14  15
ENDBRANCH   5  14
BRANCH   4  17
ATOM     17  O   UNL     1      10.266  34.239  32.447  1.00  0.00    -0.387 OA
ATOM     18  H   UNL     1       9.453  34.677  32.083  1.00  0.00     0.211 HD
ENDBRANCH   4  17
TORSDOF 7
ENDMDL
MODEL 9
REMARK VINA RESULT:    -2.888     10.199     11.994
REMARK INTER + INTRA:          -4.142
REMARK INTER:                  -3.691
REMARK INTRA:                  -0.452
REMARK UNBOUND:                -0.411
REMARK SMILES CCO[C@@H]1O[C@@H](CO)[C@@H](O)[C@@H](O)[C@@H]1O
REMARK SMILES IDX 4 1 13 2 11 3 9 4 6 5 5 6 3 7 2 8 1 9 14 10 12 12 7 14 8 15
REMARK SMILES IDX 10 17
REMARK H PARENT 14 11 12 13 8 16 10 18
REMARK Flexibility Score: inf
ROOT
ATOM      1  C   UNL     1      19.903  38.057  33.038  1.00  0.00     0.281 C 
ATOM      2  C   UNL     1      20.268  36.811  32.206  1.00  0.00     0.202 C 
ATOM      3  C   UNL     1      19.252  35.678  32.456  1.00  0.00     0.179 C 
ATOM      4  C   UNL     1      17.821  36.207  32.262  1.00  0.00     0.177 C 
ATOM      5  C   UNL     1      17.631  37.464  33.140  1.00  0.00     0.178 C 
ATOM      6  O   UNL     1      18.565  38.473  32.786  1.00  0.00    -0.341 OA
ENDROOT
BRANCH   1   7
ATOM      7  O   UNL     1      20.113  37.804  34.419  1.00  0.00    -0.350 OA
BRANCH   7   8
ATOM      8  C   UNL     1      20.640  38.943  35.073  1.00  0.00     0.160 C 
ATOM      9  C   UNL     1      22.160  38.958  34.959  1.00  0.00     0.035 C 
ENDBRANCH   7   8
ENDBRANCH   1   7
BRANCH   2  10
ATOM     10  O   UNL     1      21.563  36.388  32.549  1.00  0.00    -0.385 OA
ATOM     11  H   UNL     1      21.935  37.068  33.169  1.00  0.00     0.211 HD
ENDBRANCH   2  10
BRANCH   3  12
ATOM     12  O   UNL     1      19.482  34.611  31.571  1.00  0.00    -0.387 OA
ATOM     13  H   UNL     1      18.628  34.111  31.491  1.00  0.00     0.211 HD
ENDBRANCH   3  12
BRANCH   5  14
ATOM     14  C   UNL     1      16.207  38.030  33.037  1.00  0.00     0.191 C 
BRANCH  14  15
ATOM     15  O   UNL     1      15.287  37.025  32.693  1.00  0.00    -0.394 OA
ATOM     16  H   UNL     1      15.588  36.189  33.136  1.00  0.00     0.210 HD
ENDBRANCH  14  15
ENDBRANCH   5  14
BRANCH   4  17
ATOM     17  O   UNL     1      17.603  36.525  30.910  1.00  0.00    -0.387 OA
ATOM     18  H   UNL     1      17.404  37.497  30.868  1.00  0.00     0.211 HD
ENDBRANCH   4  17
TORSDOF 7
ENDMDL
