MODEL 1
REMARK VINA RESULT:    -1.958      0.000      0.000
REMARK INTER + INTRA:          -3.187
REMARK INTER:                  -2.988
REMARK INTRA:                  -0.199
REMARK UNBOUND:                -0.199
REMARK SMILES CC1=CCC[C@@H](C)C(=O)C[C@@H](C(C)C)C(=O)C1
REMARK SMILES IDX 8 1 9 2 6 3 7 4 5 5 4 6 3 7 2 8 1 9 10 11 11 12 15 13 16 14
REMARK SMILES IDX 17 15 12 17 13 18 14 19
REMARK H PARENT
REMARK Flexibility Score: 70.00
ROOT
ATOM      1  C   UNL     1     106.964  85.139  53.931  1.00  0.00     0.136 C 
ATOM      2  O   UNL     1     107.425  84.815  52.846  1.00  0.00    -0.299 OA
ENDROOT
BRANCH   1   3
ATOM      3  C   UNL     1     106.199  86.446  54.079  1.00  0.00     0.053 C 
ATOM      4  C   UNL     1     105.248  86.675  52.892  1.00  0.00     0.016 C 
BRANCH   3   5
ATOM      5  C   UNL     1     107.167  87.650  54.259  1.00  0.00     0.015 C 
BRANCH   5   6
ATOM      6  C   UNL     1     107.195  88.212  55.698  1.00  0.00     0.028 C 
BRANCH   6   7
ATOM      7  C   UNL     1     108.531  88.013  56.375  1.00  0.00    -0.028 C 
ATOM      8  C   UNL     1     108.786  87.252  57.467  1.00  0.00    -0.070 CG0
ATOM      9  C   UNL     1     110.190  87.275  58.020  1.00  0.00     0.039 C 
ATOM     10  G   UNL     1     107.754  86.386  58.165  1.00  0.00     0.000 G0
ENDBRANCH   6   7
ENDBRANCH   5   6
ENDBRANCH   3   5
ENDBRANCH   1   3
BRANCH   1  11
ATOM     11  C   UNL     1     107.224  84.251  55.125  1.00  0.00     0.087 C 
BRANCH  11  12
ATOM     12  C   UNL     1     106.576  84.797  56.432  1.00  0.00     0.066 C 
BRANCH  12  13
ATOM     13  C   UNL     1     107.629  85.022  57.509  1.00  0.00     0.140 C 
ATOM     14  O   UNL     1     108.393  84.122  57.831  1.00  0.00    -0.299 OA
BRANCH  13  15
ATOM     15  C   UNL     1     107.763  86.364  58.192  1.00  0.00     0.106 CG0
ATOM     16  G   UNL     1     108.772  87.243  57.476  1.00  0.00     0.000 G0
ENDBRANCH  13  15
ENDBRANCH  12  13
BRANCH  12  17
ATOM     17  C   UNL     1     105.356  83.955  56.935  1.00  0.00    -0.006 C 
ATOM     18  C   UNL     1     105.385  82.533  56.354  1.00  0.00     0.008 C 
ATOM     19  C   UNL     1     105.205  83.890  58.470  1.00  0.00     0.008 C 
ENDBRANCH  12  17
ENDBRANCH  11  12
ENDBRANCH   1  11
TORSDOF 1
ENDMDL
MODEL 2
REMARK VINA RESULT:    -1.718     13.250     15.567
REMARK INTER + INTRA:          -2.820
REMARK INTER:                  -2.458
REMARK INTRA:                  -0.363
REMARK UNBOUND:                -0.199
REMARK SMILES CC1=CCC[C@@H](C)C(=O)C[C@@H](C(C)C)C(=O)C1
REMARK SMILES IDX 8 1 9 2 6 3 7 4 5 5 4 6 3 7 2 8 1 9 10 11 11 12 15 13 16 14
REMARK SMILES IDX 17 15 12 17 13 18 14 19
REMARK H PARENT
REMARK Flexibility Score: 70.00
ROOT
ATOM      1  C   UNL     1     121.856  85.171  53.808  1.00  0.00     0.136 C 
ATOM      2  O   UNL     1     121.861  84.280  52.971  1.00  0.00    -0.299 OA
ENDROOT
BRANCH   1   3
ATOM      3  C   UNL     1     122.897  86.278  53.755  1.00  0.00     0.053 C 
ATOM      4  C   UNL     1     122.843  87.036  52.418  1.00  0.00     0.016 C 
BRANCH   3   5
ATOM      5  C   UNL     1     124.325  85.724  54.024  1.00  0.00     0.015 C 
BRANCH   5   6
ATOM      6  C   UNL     1     124.818  85.958  55.470  1.00  0.00     0.028 C 
BRANCH   6   7
ATOM      7  C   UNL     1     124.950  84.674  56.255  1.00  0.00    -0.028 C 
ATOM      8  C   UNL     1     124.241  84.315  57.353  1.00  0.00    -0.070 CG0
ATOM      9  C   UNL     1     124.608  83.014  58.024  1.00  0.00     0.039 C 
ATOM     10  G   UNL     1     123.111  85.134  57.947  1.00  0.00     0.000 G0
ENDBRANCH   6   7
ENDBRANCH   5   6
ENDBRANCH   3   5
ENDBRANCH   1   3
BRANCH   1  11
ATOM     11  C   UNL     1     120.838  85.113  54.923  1.00  0.00     0.087 C 
BRANCH  11  12
ATOM     12  C   UNL     1     121.305  85.870  56.202  1.00  0.00     0.066 C 
BRANCH  12  13
ATOM     13  C   UNL     1     121.795  84.894  57.264  1.00  0.00     0.140 C 
ATOM     14  O   UNL     1     121.136  83.904  57.551  1.00  0.00    -0.299 OA
BRANCH  13  15
ATOM     15  C   UNL     1     123.110  85.119  57.975  1.00  0.00     0.106 CG0
ATOM     16  G   UNL     1     124.224  84.317  57.329  1.00  0.00     0.000 G0
ENDBRANCH  13  15
ENDBRANCH  12  13
BRANCH  12  17
ATOM     17  C   UNL     1     120.259  86.897  56.750  1.00  0.00    -0.006 C 
ATOM     18  C   UNL     1     120.922  87.923  57.681  1.00  0.00     0.008 C 
ATOM     19  C   UNL     1     119.441  87.627  55.663  1.00  0.00     0.008 C 
ENDBRANCH  12  17
ENDBRANCH  11  12
ENDBRANCH   1  11
TORSDOF 1
ENDMDL
MODEL 3
REMARK VINA RESULT:    -1.615      1.842      3.786
REMARK INTER + INTRA:          -2.663
REMARK INTER:                  -2.412
REMARK INTRA:                  -0.251
REMARK UNBOUND:                -0.199
REMARK SMILES CC1=CCC[C@@H](C)C(=O)C[C@@H](C(C)C)C(=O)C1
REMARK SMILES IDX 8 1 9 2 6 3 7 4 5 5 4 6 3 7 2 8 1 9 10 11 11 12 15 13 16 14
REMARK SMILES IDX 17 15 12 17 13 18 14 19
REMARK H PARENT
REMARK Flexibility Score: 70.00
ROOT
ATOM      1  C   UNL     1     109.982  86.705  55.041  1.00  0.00     0.136 C 
ATOM      2  O   UNL     1     111.010  86.087  55.279  1.00  0.00    -0.299 OA
ENDROOT
BRANCH   1   3
ATOM      3  C   UNL     1     109.758  88.082  55.647  1.00  0.00     0.053 C 
ATOM      4  C   UNL     1     110.742  89.115  55.071  1.00  0.00     0.016 C 
BRANCH   3   5
ATOM      5  C   UNL     1     109.843  88.037  57.199  1.00  0.00     0.015 C 
BRANCH   5   6
ATOM      6  C   UNL     1     108.555  87.516  57.875  1.00  0.00     0.028 C 
BRANCH   6   7
ATOM      7  C   UNL     1     108.713  86.120  58.431  1.00  0.00    -0.028 C 
ATOM      8  C   UNL     1     107.941  85.040  58.155  1.00  0.00    -0.070 CG0
ATOM      9  C   UNL     1     108.239  83.763  58.901  1.00  0.00     0.039 C 
ATOM     10  G   UNL     1     106.803  85.037  57.153  1.00  0.00     0.000 G0
ENDBRANCH   6   7
ENDBRANCH   5   6
ENDBRANCH   3   5
ENDBRANCH   1   3
BRANCH   1  11
ATOM     11  C   UNL     1     108.921  86.048  54.190  1.00  0.00     0.087 C 
BRANCH  11  12
ATOM     12  C   UNL     1     107.510  86.091  54.851  1.00  0.00     0.066 C 
BRANCH  12  13
ATOM     13  C   UNL     1     107.286  84.871  55.736  1.00  0.00     0.140 C 
ATOM     14  O   UNL     1     107.516  83.746  55.315  1.00  0.00    -0.299 OA
BRANCH  13  15
ATOM     15  C   UNL     1     106.791  85.027  57.155  1.00  0.00     0.106 CG0
ATOM     16  G   UNL     1     107.946  85.047  58.138  1.00  0.00     0.000 G0
ENDBRANCH  13  15
ENDBRANCH  12  13
BRANCH  12  17
ATOM     17  C   UNL     1     106.342  86.335  53.838  1.00  0.00    -0.006 C 
ATOM     18  C   UNL     1     106.408  87.752  53.246  1.00  0.00     0.008 C 
ATOM     19  C   UNL     1     106.246  85.296  52.700  1.00  0.00     0.008 C 
ENDBRANCH  12  17
ENDBRANCH  11  12
ENDBRANCH   1  11
TORSDOF 1
ENDMDL
MODEL 4
REMARK VINA RESULT:    -1.592      1.980      4.793
REMARK INTER + INTRA:          -2.628
REMARK INTER:                  -2.128
REMARK INTRA:                  -0.501
REMARK UNBOUND:                -0.199
REMARK SMILES CC1=CCC[C@@H](C)C(=O)C[C@@H](C(C)C)C(=O)C1
REMARK SMILES IDX 8 1 9 2 6 3 7 4 5 5 4 6 3 7 2 8 1 9 10 11 11 12 15 13 16 14
REMARK SMILES IDX 17 15 12 17 13 18 14 19
REMARK H PARENT
REMARK Flexibility Score: 70.00
ROOT
ATOM      1  C   UNL     1     109.434  85.625  56.262  1.00  0.00     0.136 C 
ATOM      2  O   UNL     1     110.455  85.131  56.722  1.00  0.00    -0.299 OA
ENDROOT
BRANCH   1   3
ATOM      3  C   UNL     1     108.515  86.449  57.150  1.00  0.00     0.053 C 
ATOM      4  C   UNL     1     109.148  87.806  57.506  1.00  0.00     0.016 C 
BRANCH   3   5
ATOM      5  C   UNL     1     108.117  85.666  58.433  1.00  0.00     0.015 C 
BRANCH   5   6
ATOM      6  C   UNL     1     106.731  84.989  58.340  1.00  0.00     0.028 C 
BRANCH   6   7
ATOM      7  C   UNL     1     106.807  83.577  57.806  1.00  0.00    -0.028 C 
ATOM      8  C   UNL     1     106.365  83.136  56.603  1.00  0.00    -0.070 CG0
ATOM      9  C   UNL     1     106.472  81.658  56.322  1.00  0.00     0.039 C 
ATOM     10  G   UNL     1     105.770  84.030  55.531  1.00  0.00     0.000 G0
ENDBRANCH   6   7
ENDBRANCH   5   6
ENDBRANCH   3   5
ENDBRANCH   1   3
BRANCH   1  11
ATOM     11  C   UNL     1     109.079  85.345  54.821  1.00  0.00     0.087 C 
BRANCH  11  12
ATOM     12  C   UNL     1     107.584  85.645  54.502  1.00  0.00     0.066 C 
BRANCH  12  13
ATOM     13  C   UNL     1     106.772  84.357  54.439  1.00  0.00     0.140 C 
ATOM     14  O   UNL     1     106.941  83.560  53.526  1.00  0.00    -0.299 OA
BRANCH  13  15
ATOM     15  C   UNL     1     105.755  84.029  55.508  1.00  0.00     0.106 CG0
ATOM     16  G   UNL     1     106.359  83.148  56.585  1.00  0.00     0.000 G0
ENDBRANCH  13  15
ENDBRANCH  12  13
BRANCH  12  17
ATOM     17  C   UNL     1     107.373  86.564  53.254  1.00  0.00    -0.006 C 
ATOM     18  C   UNL     1     106.140  87.464  53.429  1.00  0.00     0.008 C 
ATOM     19  C   UNL     1     108.597  87.422  52.870  1.00  0.00     0.008 C 
ENDBRANCH  12  17
ENDBRANCH  11  12
ENDBRANCH   1  11
TORSDOF 1
ENDMDL
MODEL 5
REMARK VINA RESULT:    -1.507     12.311     14.650
REMARK INTER + INTRA:          -2.498
REMARK INTER:                  -2.158
REMARK INTRA:                  -0.341
REMARK UNBOUND:                -0.199
REMARK SMILES CC1=CCC[C@@H](C)C(=O)C[C@@H](C(C)C)C(=O)C1
REMARK SMILES IDX 8 1 9 2 6 3 7 4 5 5 4 6 3 7 2 8 1 9 10 11 11 12 15 13 16 14
REMARK SMILES IDX 17 15 12 17 13 18 14 19
REMARK H PARENT
REMARK Flexibility Score: 70.00
ROOT
ATOM      1  C   UNL     1     119.189  84.567  56.815  1.00  0.00     0.136 C 
ATOM      2  O   UNL     1     118.296  83.867  57.271  1.00  0.00    -0.299 OA
ENDROOT
BRANCH   1   3
ATOM      3  C   UNL     1     119.675  84.357  55.388  1.00  0.00     0.053 C 
ATOM      4  C   UNL     1     118.574  84.692  54.367  1.00  0.00     0.016 C 
BRANCH   3   5
ATOM      5  C   UNL     1     120.207  82.911  55.180  1.00  0.00     0.015 C 
BRANCH   5   6
ATOM      6  C   UNL     1     121.734  82.840  54.958  1.00  0.00     0.028 C 
BRANCH   6   7
ATOM      7  C   UNL     1     122.491  82.498  56.221  1.00  0.00    -0.028 C 
ATOM      8  C   UNL     1     123.212  83.347  56.994  1.00  0.00    -0.070 CG0
ATOM      9  C   UNL     1     123.956  82.759  58.167  1.00  0.00     0.039 C 
ATOM     10  G   UNL     1     123.317  84.841  56.753  1.00  0.00     0.000 G0
ENDBRANCH   6   7
ENDBRANCH   5   6
ENDBRANCH   3   5
ENDBRANCH   1   3
BRANCH   1  11
ATOM     11  C   UNL     1     119.837  85.594  57.713  1.00  0.00     0.087 C 
BRANCH  11  12
ATOM     12  C   UNL     1     121.107  86.234  57.077  1.00  0.00     0.066 C 
BRANCH  12  13
ATOM     13  C   UNL     1     122.375  85.617  57.653  1.00  0.00     0.140 C 
ATOM     14  O   UNL     1     122.629  85.718  58.845  1.00  0.00    -0.299 OA
BRANCH  13  15
ATOM     15  C   UNL     1     123.335  84.855  56.769  1.00  0.00     0.106 CG0
ATOM     16  G   UNL     1     123.212  83.359  56.989  1.00  0.00     0.000 G0
ENDBRANCH  13  15
ENDBRANCH  12  13
BRANCH  12  17
ATOM     17  C   UNL     1     121.115  87.798  57.113  1.00  0.00    -0.006 C 
ATOM     18  C   UNL     1     121.602  88.382  55.778  1.00  0.00     0.008 C 
ATOM     19  C   UNL     1     119.769  88.442  57.507  1.00  0.00     0.008 C 
ENDBRANCH  12  17
ENDBRANCH  11  12
ENDBRANCH   1  11
TORSDOF 1
ENDMDL
MODEL 6
REMARK VINA RESULT:    -1.463      2.513      3.931
REMARK INTER + INTRA:          -2.432
REMARK INTER:                  -2.152
REMARK INTRA:                  -0.280
REMARK UNBOUND:                -0.199
REMARK SMILES CC1=CCC[C@@H](C)C(=O)C[C@@H](C(C)C)C(=O)C1
REMARK SMILES IDX 8 1 9 2 6 3 7 4 5 5 4 6 3 7 2 8 1 9 10 11 11 12 15 13 16 14
REMARK SMILES IDX 17 15 12 17 13 18 14 19
REMARK H PARENT
REMARK Flexibility Score: 70.00
ROOT
ATOM      1  C   UNL     1     110.477  86.098  54.182  1.00  0.00     0.136 C 
ATOM      2  O   UNL     1     111.232  85.146  54.315  1.00  0.00    -0.299 OA
ENDROOT
BRANCH   1   3
ATOM      3  C   UNL     1     110.990  87.410  53.608  1.00  0.00     0.053 C 
ATOM      4  C   UNL     1     111.417  87.249  52.138  1.00  0.00     0.016 C 
BRANCH   3   5
ATOM      5  C   UNL     1     112.152  87.986  54.466  1.00  0.00     0.015 C 
BRANCH   5   6
ATOM      6  C   UNL     1     111.686  88.603  55.803  1.00  0.00     0.028 C 
BRANCH   6   7
ATOM      7  C   UNL     1     111.933  87.693  56.983  1.00  0.00    -0.028 C 
ATOM      8  C   UNL     1     111.038  87.329  57.934  1.00  0.00    -0.070 CG0
ATOM      9  C   UNL     1     111.538  86.474  59.071  1.00  0.00     0.039 C 
ATOM     10  G   UNL     1     109.575  87.730  57.927  1.00  0.00     0.000 G0
ENDBRANCH   6   7
ENDBRANCH   5   6
ENDBRANCH   3   5
ENDBRANCH   1   3
BRANCH   1  11
ATOM     11  C   UNL     1     109.049  85.963  54.657  1.00  0.00     0.087 C 
BRANCH  11  12
ATOM     12  C   UNL     1     108.597  87.159  55.547  1.00  0.00     0.066 C 
BRANCH  12  13
ATOM     13  C   UNL     1     108.755  86.827  57.026  1.00  0.00     0.140 C 
ATOM     14  O   UNL     1     108.230  85.828  57.499  1.00  0.00    -0.299 OA
BRANCH  13  15
ATOM     15  C   UNL     1     109.573  87.715  57.935  1.00  0.00     0.106 CG0
ATOM     16  G   UNL     1     111.034  87.308  57.925  1.00  0.00     0.000 G0
ENDBRANCH  13  15
ENDBRANCH  12  13
BRANCH  12  17
ATOM     17  C   UNL     1     107.177  87.713  55.192  1.00  0.00    -0.006 C 
ATOM     18  C   UNL     1     107.276  88.962  54.302  1.00  0.00     0.008 C 
ATOM     19  C   UNL     1     106.225  86.684  54.546  1.00  0.00     0.008 C 
ENDBRANCH  12  17
ENDBRANCH  11  12
ENDBRANCH   1  11
TORSDOF 1
ENDMDL
MODEL 7
REMARK VINA RESULT:    -1.357      9.849     12.395
REMARK INTER + INTRA:          -2.271
REMARK INTER:                  -1.795
REMARK INTRA:                  -0.475
REMARK UNBOUND:                -0.199
REMARK SMILES CC1=CCC[C@@H](C)C(=O)C[C@@H](C(C)C)C(=O)C1
REMARK SMILES IDX 8 1 9 2 6 3 7 4 5 5 4 6 3 7 2 8 1 9 10 11 11 12 15 13 16 14
REMARK SMILES IDX 17 15 12 17 13 18 14 19
REMARK H PARENT
REMARK Flexibility Score: 70.00
ROOT
ATOM      1  C   UNL     1     118.853  85.291  55.194  1.00  0.00     0.136 C 
ATOM      2  O   UNL     1     117.995  85.488  54.345  1.00  0.00    -0.299 OA
ENDROOT
BRANCH   1   3
ATOM      3  C   UNL     1     118.969  83.931  55.865  1.00  0.00     0.053 C 
ATOM      4  C   UNL     1     119.578  82.887  54.913  1.00  0.00     0.016 C 
BRANCH   3   5
ATOM      5  C   UNL     1     117.595  83.452  56.414  1.00  0.00     0.015 C 
BRANCH   5   6
ATOM      6  C   UNL     1     117.341  83.854  57.884  1.00  0.00     0.028 C 
BRANCH   6   7
ATOM      7  C   UNL     1     116.592  85.160  58.009  1.00  0.00    -0.028 C 
ATOM      8  C   UNL     1     117.056  86.318  58.542  1.00  0.00    -0.070 CG0
ATOM      9  C   UNL     1     116.092  87.475  58.639  1.00  0.00     0.039 C 
ATOM     10  G   UNL     1     118.472  86.519  59.047  1.00  0.00     0.000 G0
ENDBRANCH   6   7
ENDBRANCH   5   6
ENDBRANCH   3   5
ENDBRANCH   1   3
BRANCH   1  11
ATOM     11  C   UNL     1     119.744  86.440  55.604  1.00  0.00     0.087 C 
BRANCH  11  12
ATOM     12  C   UNL     1     120.223  86.330  57.083  1.00  0.00     0.066 C 
BRANCH  12  13
ATOM     13  C   UNL     1     119.356  87.183  58.001  1.00  0.00     0.140 C 
ATOM     14  O   UNL     1     119.351  88.401  57.897  1.00  0.00    -0.299 OA
BRANCH  13  15
ATOM     15  C   UNL     1     118.474  86.541  59.047  1.00  0.00     0.106 CG0
ATOM     16  G   UNL     1     117.067  86.331  58.521  1.00  0.00     0.000 G0
ENDBRANCH  13  15
ENDBRANCH  12  13
BRANCH  12  17
ATOM     17  C   UNL     1     121.755  86.587  57.274  1.00  0.00    -0.006 C 
ATOM     18  C   UNL     1     122.482  85.306  57.712  1.00  0.00     0.008 C 
ATOM     19  C   UNL     1     122.465  87.199  56.048  1.00  0.00     0.008 C 
ENDBRANCH  12  17
ENDBRANCH  11  12
ENDBRANCH   1  11
TORSDOF 1
ENDMDL
MODEL 8
REMARK VINA RESULT:    -1.340     13.010     14.560
REMARK INTER + INTRA:          -2.243
REMARK INTER:                  -1.918
REMARK INTRA:                  -0.325
REMARK UNBOUND:                -0.199
REMARK SMILES CC1=CCC[C@@H](C)C(=O)C[C@@H](C(C)C)C(=O)C1
REMARK SMILES IDX 8 1 9 2 6 3 7 4 5 5 4 6 3 7 2 8 1 9 10 11 11 12 15 13 16 14
REMARK SMILES IDX 17 15 12 17 13 18 14 19
REMARK H PARENT
REMARK Flexibility Score: 70.00
ROOT
ATOM      1  C   UNL     1     122.665  85.318  54.126  1.00  0.00     0.136 C 
ATOM      2  O   UNL     1     123.427  84.742  53.363  1.00  0.00    -0.299 OA
ENDROOT
BRANCH   1   3
ATOM      3  C   UNL     1     121.368  85.918  53.606  1.00  0.00     0.053 C 
ATOM      4  C   UNL     1     120.713  85.009  52.553  1.00  0.00     0.016 C 
BRANCH   3   5
ATOM      5  C   UNL     1     121.593  87.351  53.044  1.00  0.00     0.015 C 
BRANCH   5   6
ATOM      6  C   UNL     1     121.796  88.421  54.140  1.00  0.00     0.028 C 
BRANCH   6   7
ATOM      7  C   UNL     1     120.630  88.503  55.097  1.00  0.00    -0.028 C 
ATOM      8  C   UNL     1     120.635  88.193  56.416  1.00  0.00    -0.070 CG0
ATOM      9  C   UNL     1     119.322  88.272  57.155  1.00  0.00     0.039 C 
ATOM     10  G   UNL     1     121.869  87.771  57.190  1.00  0.00     0.000 G0
ENDBRANCH   6   7
ENDBRANCH   5   6
ENDBRANCH   3   5
ENDBRANCH   1   3
BRANCH   1  11
ATOM     11  C   UNL     1     123.069  85.475  55.573  1.00  0.00     0.087 C 
BRANCH  11  12
ATOM     12  C   UNL     1     121.899  85.179  56.559  1.00  0.00     0.066 C 
BRANCH  12  13
ATOM     13  C   UNL     1     121.760  86.294  57.588  1.00  0.00     0.140 C 
ATOM     14  O   UNL     1     121.563  86.033  58.766  1.00  0.00    -0.299 OA
BRANCH  13  15
ATOM     15  C   UNL     1     121.875  87.744  57.177  1.00  0.00     0.106 CG0
ATOM     16  G   UNL     1     120.646  88.194  56.410  1.00  0.00     0.000 G0
ENDBRANCH  13  15
ENDBRANCH  12  13
BRANCH  12  17
ATOM     17  C   UNL     1     121.957  83.754  57.204  1.00  0.00    -0.006 C 
ATOM     18  C   UNL     1     120.666  82.968  56.929  1.00  0.00     0.008 C 
ATOM     19  C   UNL     1     123.182  82.909  56.794  1.00  0.00     0.008 C 
ENDBRANCH  12  17
ENDBRANCH  11  12
ENDBRANCH   1  11
TORSDOF 1
ENDMDL
MODEL 9
REMARK VINA RESULT:    -1.273     12.455     14.840
REMARK INTER + INTRA:          -2.141
REMARK INTER:                  -1.671
REMARK INTRA:                  -0.470
REMARK UNBOUND:                -0.199
REMARK SMILES CC1=CCC[C@@H](C)C(=O)C[C@@H](C(C)C)C(=O)C1
REMARK SMILES IDX 8 1 9 2 6 3 7 4 5 5 4 6 3 7 2 8 1 9 10 11 11 12 15 13 16 14
REMARK SMILES IDX 17 15 12 17 13 18 14 19
REMARK H PARENT
REMARK Flexibility Score: 70.00
ROOT
ATOM      1  C   UNL     1     122.530  84.467  53.927  1.00  0.00     0.136 C 
ATOM      2  O   UNL     1     122.275  84.938  52.828  1.00  0.00    -0.299 OA
ENDROOT
BRANCH   1   3
ATOM      3  C   UNL     1     122.211  83.011  54.231  1.00  0.00     0.053 C 
ATOM      4  C   UNL     1     123.101  82.060  53.412  1.00  0.00     0.016 C 
BRANCH   3   5
ATOM      5  C   UNL     1     120.704  82.703  53.999  1.00  0.00     0.015 C 
BRANCH   5   6
ATOM      6  C   UNL     1     119.809  83.048  55.210  1.00  0.00     0.028 C 
BRANCH   6   7
ATOM      7  C   UNL     1     119.192  84.423  55.105  1.00  0.00    -0.028 C 
ATOM      8  C   UNL     1     119.318  85.442  55.990  1.00  0.00    -0.070 CG0
ATOM      9  C   UNL     1     118.536  86.703  55.716  1.00  0.00     0.039 C 
ATOM     10  G   UNL     1     120.188  85.394  57.232  1.00  0.00     0.000 G0
ENDBRANCH   6   7
ENDBRANCH   5   6
ENDBRANCH   3   5
ENDBRANCH   1   3
BRANCH   1  11
ATOM     11  C   UNL     1     123.107  85.375  54.988  1.00  0.00     0.087 C 
BRANCH  11  12
ATOM     12  C   UNL     1     122.675  84.964  56.429  1.00  0.00     0.066 C 
BRANCH  12  13
ATOM     13  C   UNL     1     121.591  85.894  56.957  1.00  0.00     0.140 C 
ATOM     14  O   UNL     1     121.827  87.079  57.152  1.00  0.00    -0.299 OA
BRANCH  13  15
ATOM     15  C   UNL     1     120.198  85.378  57.238  1.00  0.00     0.106 CG0
ATOM     16  G   UNL     1     119.331  85.441  55.995  1.00  0.00     0.000 G0
ENDBRANCH  13  15
ENDBRANCH  12  13
BRANCH  12  17
ATOM     17  C   UNL     1     123.870  84.789  57.423  1.00  0.00    -0.006 C 
ATOM     18  C   UNL     1     123.378  84.342  58.809  1.00  0.00     0.008 C 
ATOM     19  C   UNL     1     124.985  83.840  56.933  1.00  0.00     0.008 C 
ENDBRANCH  12  17
ENDBRANCH  11  12
ENDBRANCH   1  11
TORSDOF 1
ENDMDL
