MODEL 1
REMARK VINA RESULT:    14.761      0.000      0.000
REMARK INTER + INTRA:          41.327
REMARK INTER:                  28.136
REMARK INTRA:                  13.191
REMARK UNBOUND:                13.191
REMARK SMILES C[C@H]1O[C@@H](O[C@@H]2[C@@H](O)[C@@H](OCCc3ccc(O)c(O)c3)O[C@@H](CO)[C@@H]2OC(=O)C=Cc2ccc(O)c(O)c2)[C@@H](O)[C@@H](O)[C@H]1O
REMARK SMILES IDX 6 1 7 2 9 3 21 4 22 5 25 6 5 7 4 8 1 9 2 10 43 11 3 12 41 13
REMARK SMILES IDX 39 14 44 15 42 17 40 19 8 21 26 23 27 24 28 25 29 26 30 27
REMARK SMILES IDX 31 28 38 29 32 30 36 31 33 32 34 33 37 34 35 36 10 38 11 39
REMARK SMILES IDX 12 40 13 41 20 42 14 43 18 44 15 45 16 46 19 47 17 49 23 51
REMARK SMILES IDX 24 52
REMARK H PARENT 44 16 42 18 40 20 8 22 37 35 35 37 19 48 17 50 24 53
REMARK Flexibility Score: inf
ROOT
ATOM      1  C   UNL     1      74.517  39.350  21.966  1.00  0.00     0.199 C 
ATOM      2  C   UNL     1      73.784  39.683  23.260  1.00  0.00     0.203 C 
ATOM      3  C   UNL     1      74.734  39.849  24.443  1.00  0.00     0.282 C 
ATOM      4  O   UNL     1      75.382  41.084  24.248  1.00  0.00    -0.340 OA
ATOM      5  C   UNL     1      76.290  41.118  23.116  1.00  0.00     0.190 C 
ATOM      6  C   UNL     1      75.872  40.201  21.865  1.00  0.00     0.240 C 
ENDROOT
BRANCH   1   7
ATOM      7  O   UNL     1      73.631  39.616  20.908  1.00  0.00    -0.340 OA
BRANCH   7   8
ATOM      8  C   UNL     1      72.912  40.831  21.047  1.00  0.00     0.282 C 
ATOM      9  C   UNL     1      69.999  40.994  23.466  1.00  0.00     0.041 C 
ATOM     10  C   UNL     1      70.728  41.123  22.081  1.00  0.00     0.150 C 
ATOM     11  C   UNL     1      70.006  40.386  20.945  1.00  0.00     0.174 C 
ATOM     12  O   UNL     1      72.130  40.807  22.249  1.00  0.00    -0.344 OA
ATOM     13  C   UNL     1      70.935  40.017  19.783  1.00  0.00     0.179 C 
ATOM     14  C   UNL     1      72.092  41.040  19.760  1.00  0.00     0.202 C 
BRANCH  11  15
ATOM     15  O   UNL     1      69.299  39.274  21.422  1.00  0.00    -0.388 OA
ATOM     16  H   UNL     1      68.399  39.548  21.728  1.00  0.00     0.211 HD
ENDBRANCH  11  15
BRANCH  13  17
ATOM     17  O   UNL     1      71.421  38.688  20.002  1.00  0.00    -0.387 OA
ATOM     18  H   UNL     1      70.809  38.313  20.692  1.00  0.00     0.211 HD
ENDBRANCH  13  17
BRANCH  14  19
ATOM     19  O   UNL     1      72.826  40.971  18.552  1.00  0.00    -0.385 OA
ATOM     20  H   UNL     1      72.894  39.980  18.308  1.00  0.00     0.211 HD
ENDBRANCH  14  19
ENDBRANCH   7   8
ENDBRANCH   1   7
BRANCH   2  21
ATOM     21  O   UNL     1      72.692  38.843  23.548  1.00  0.00    -0.385 OA
ATOM     22  H   UNL     1      73.013  37.892  23.571  1.00  0.00     0.211 HD
ENDBRANCH   2  21
BRANCH   6  23
ATOM     23  O   UNL     1      75.946  41.013  20.675  1.00  0.00    -0.453 OA
BRANCH  23  24
ATOM     24  C   UNL     1      76.142  40.438  19.440  1.00  0.00     0.331 C 
ATOM     25  O   UNL     1      77.141  40.764  18.778  1.00  0.00    -0.247 OA
BRANCH  24  26
ATOM     26  C   UNL     1      75.303  39.332  18.953  1.00  0.00     0.094 C 
ATOM     27  C   UNL     1      74.913  38.318  19.742  1.00  0.00     0.016 C 
BRANCH  27  28
ATOM     28  C   UNL     1      74.035  37.309  19.144  1.00  0.00    -0.021 A 
ATOM     29  C   UNL     1      74.548  36.094  18.607  1.00  0.00     0.058 A 
ATOM     30  C   UNL     1      72.624  37.445  19.202  1.00  0.00     0.012 A 
ATOM     31  C   UNL     1      73.699  35.053  18.232  1.00  0.00     0.157 A 
ATOM     32  C   UNL     1      71.783  36.421  18.805  1.00  0.00     0.051 A 
ATOM     33  C   UNL     1      72.311  35.240  18.293  1.00  0.00     0.157 A 
BRANCH  31  34
ATOM     34  O   UNL     1      74.208  33.817  17.876  1.00  0.00    -0.504 OA
ATOM     35  H   UNL     1      74.328  33.041  18.544  1.00  0.00     0.293 HD
ENDBRANCH  31  34
BRANCH  33  36
ATOM     36  O   UNL     1      71.431  34.242  17.884  1.00  0.00    -0.504 OA
ATOM     37  H   UNL     1      70.464  34.165  18.202  1.00  0.00     0.293 HD
ENDBRANCH  33  36
ENDBRANCH  27  28
ENDBRANCH  24  26
ENDBRANCH  23  24
ENDBRANCH   6  23
BRANCH   3  38
ATOM     38  O   UNL     1      75.611  38.739  24.420  1.00  0.00    -0.350 OA
BRANCH  38  39
ATOM     39  C   UNL     1      76.561  38.791  25.491  1.00  0.00     0.168 C 
BRANCH  39  40
ATOM     40  C   UNL     1      76.007  38.001  26.692  1.00  0.00     0.064 C 
BRANCH  40  41
ATOM     41  C   UNL     1      75.801  38.847  27.903  1.00  0.00    -0.042 A 
ATOM     42  C   UNL     1      74.637  39.616  28.043  1.00  0.00     0.054 A 
ATOM     43  C   UNL     1      76.798  38.921  28.906  1.00  0.00     0.008 A 
ATOM     44  C   UNL     1      74.430  40.404  29.186  1.00  0.00     0.157 A 
ATOM     45  C   UNL     1      76.561  39.687  30.067  1.00  0.00     0.050 A 
ATOM     46  C   UNL     1      75.360  40.390  30.227  1.00  0.00     0.157 A 
BRANCH  44  47
ATOM     47  O   UNL     1      73.242  41.123  29.236  1.00  0.00    -0.504 OA
ATOM     48  H   UNL     1      72.512  40.920  29.909  1.00  0.00     0.293 HD
ENDBRANCH  44  47
BRANCH  46  49
ATOM     49  O   UNL     1      75.043  41.034  31.426  1.00  0.00    -0.504 OA
ATOM     50  H   UNL     1      74.150  41.492  31.563  1.00  0.00     0.293 HD
ENDBRANCH  46  49
ENDBRANCH  40  41
ENDBRANCH  39  40
ENDBRANCH  38  39
ENDBRANCH   3  38
BRANCH   5  51
ATOM     51  C   UNL     1      77.716  40.882  23.585  1.00  0.00     0.192 C 
BRANCH  51  52
ATOM     52  O   UNL     1      77.793  39.741  24.445  1.00  0.00    -0.394 OA
ATOM     53  H   UNL     1      76.891  39.554  24.847  1.00  0.00     0.210 HD
ENDBRANCH  51  52
ENDBRANCH   5  51
TORSDOF 20
ENDMDL
