MODEL 1
REMARK VINA RESULT:    -4.516      0.000      0.000
REMARK INTER + INTRA:          -4.516
REMARK INTER:                  -4.516
REMARK INTRA:                   0.000
REMARK UNBOUND:                 0.000
REMARK SMILES CC(C)=C1CC[C@H](C)CC1=O
REMARK SMILES IDX 8 1 7 2 6 3 5 4 4 5 2 6 1 7 3 8 10 9 11 10 9 11
REMARK H PARENT
REMARK Flexibility Score: inf
ROOT
ATOM      1  C   UNL     1      61.536 -16.330  -1.323  1.00  0.00     0.008 C 
ATOM      2  C   UNL     1      61.379 -17.746  -1.902  1.00  0.00    -0.006 C 
ATOM      3  C   UNL     1      61.647 -18.839  -0.852  1.00  0.00     0.008 C 
ATOM      4  C   UNL     1      60.594 -18.869   0.267  1.00  0.00     0.039 C 
ATOM      5  C   UNL     1      59.166 -18.870  -0.262  1.00  0.00    -0.006 C 
ATOM      6  C   UNL     1      58.156 -19.474   0.432  1.00  0.00    -0.070 C 
ATOM      7  C   UNL     1      58.413 -20.151   1.759  1.00  0.00     0.039 C 
ATOM      8  C   UNL     1      56.745 -19.531  -0.105  1.00  0.00     0.039 C 
ATOM      9  C   UNL     1      58.920 -18.077  -1.502  1.00  0.00     0.159 C 
ATOM     10  O   UNL     1      57.820 -17.493  -1.698  1.00  0.00    -0.295 OA
ATOM     11  C   UNL     1      59.997 -17.950  -2.541  1.00  0.00     0.084 C 
ENDROOT
TORSDOF 0
ENDMDL
MODEL 2
REMARK VINA RESULT:    -3.978      2.857      5.223
REMARK INTER + INTRA:          -3.978
REMARK INTER:                  -3.978
REMARK INTRA:                   0.000
REMARK UNBOUND:                 0.000
REMARK SMILES CC(C)=C1CC[C@H](C)CC1=O
REMARK SMILES IDX 8 1 7 2 6 3 5 4 4 5 2 6 1 7 3 8 10 9 11 10 9 11
REMARK H PARENT
REMARK Flexibility Score: inf
ROOT
ATOM      1  C   UNL     1      55.773 -18.740   2.157  1.00  0.00     0.008 C 
ATOM      2  C   UNL     1      56.278 -20.191   2.106  1.00  0.00    -0.006 C 
ATOM      3  C   UNL     1      56.991 -20.514   0.780  1.00  0.00     0.008 C 
ATOM      4  C   UNL     1      58.309 -19.745   0.603  1.00  0.00     0.039 C 
ATOM      5  C   UNL     1      59.219 -19.837   1.821  1.00  0.00    -0.006 C 
ATOM      6  C   UNL     1      60.577 -19.780   1.694  1.00  0.00    -0.070 C 
ATOM      7  C   UNL     1      61.232 -19.607   0.342  1.00  0.00     0.039 C 
ATOM      8  C   UNL     1      61.495 -19.925   2.886  1.00  0.00     0.039 C 
ATOM      9  C   UNL     1      58.542 -19.868   3.151  1.00  0.00     0.159 C 
ATOM     10  O   UNL     1      59.073 -19.347   4.169  1.00  0.00    -0.295 OA
ATOM     11  C   UNL     1      57.195 -20.517   3.295  1.00  0.00     0.084 C 
ENDROOT
TORSDOF 0
ENDMDL
MODEL 3
REMARK VINA RESULT:    -3.925      1.713      4.300
REMARK INTER + INTRA:          -3.925
REMARK INTER:                  -3.925
REMARK INTRA:                   0.000
REMARK UNBOUND:                 0.000
REMARK SMILES CC(C)=C1CC[C@H](C)CC1=O
REMARK SMILES IDX 8 1 7 2 6 3 5 4 4 5 2 6 1 7 3 8 10 9 11 10 9 11
REMARK H PARENT
REMARK Flexibility Score: inf
ROOT
ATOM      1  C   UNL     1      56.097 -18.032   0.903  1.00  0.00     0.008 C 
ATOM      2  C   UNL     1      56.450 -19.174  -0.063  1.00  0.00    -0.006 C 
ATOM      3  C   UNL     1      57.085 -18.660  -1.367  1.00  0.00     0.008 C 
ATOM      4  C   UNL     1      58.470 -18.029  -1.153  1.00  0.00     0.039 C 
ATOM      5  C   UNL     1      59.401 -18.905  -0.326  1.00  0.00    -0.006 C 
ATOM      6  C   UNL     1      60.754 -18.868  -0.509  1.00  0.00    -0.070 C 
ATOM      7  C   UNL     1      61.382 -17.944  -1.528  1.00  0.00     0.039 C 
ATOM      8  C   UNL     1      61.687 -19.771   0.264  1.00  0.00     0.039 C 
ATOM      9  C   UNL     1      58.765 -19.703   0.763  1.00  0.00     0.159 C 
ATOM     10  O   UNL     1      59.376 -19.950   1.837  1.00  0.00    -0.295 OA
ATOM     11  C   UNL     1      57.364 -20.217   0.599  1.00  0.00     0.084 C 
ENDROOT
TORSDOF 0
ENDMDL
MODEL 4
REMARK VINA RESULT:    -3.907      3.384      4.713
REMARK INTER + INTRA:          -3.907
REMARK INTER:                  -3.907
REMARK INTRA:                   0.000
REMARK UNBOUND:                 0.000
REMARK SMILES CC(C)=C1CC[C@H](C)CC1=O
REMARK SMILES IDX 8 1 7 2 6 3 5 4 4 5 2 6 1 7 3 8 10 9 11 10 9 11
REMARK H PARENT
REMARK Flexibility Score: inf
ROOT
ATOM      1  C   UNL     1      61.583 -18.368   4.762  1.00  0.00     0.008 C 
ATOM      2  C   UNL     1      61.475 -19.870   4.452  1.00  0.00    -0.006 C 
ATOM      3  C   UNL     1      60.226 -20.509   5.086  1.00  0.00     0.008 C 
ATOM      4  C   UNL     1      58.913 -19.996   4.475  1.00  0.00     0.039 C 
ATOM      5  C   UNL     1      58.911 -20.036   2.953  1.00  0.00    -0.006 C 
ATOM      6  C   UNL     1      57.752 -20.215   2.253  1.00  0.00    -0.070 C 
ATOM      7  C   UNL     1      56.424 -20.366   2.960  1.00  0.00     0.039 C 
ATOM      8  C   UNL     1      57.741 -20.312   0.745  1.00  0.00     0.039 C 
ATOM      9  C   UNL     1      60.212 -19.747   2.282  1.00  0.00     0.159 C 
ATOM     10  O   UNL     1      60.259 -19.161   1.167  1.00  0.00    -0.295 OA
ATOM     11  C   UNL     1      61.502 -20.143   2.941  1.00  0.00     0.084 C 
ENDROOT
TORSDOF 0
ENDMDL
MODEL 5
REMARK VINA RESULT:    -3.842      6.014      7.108
REMARK INTER + INTRA:          -3.842
REMARK INTER:                  -3.842
REMARK INTRA:                   0.000
REMARK UNBOUND:                 0.000
REMARK SMILES CC(C)=C1CC[C@H](C)CC1=O
REMARK SMILES IDX 8 1 7 2 6 3 5 4 4 5 2 6 1 7 3 8 10 9 11 10 9 11
REMARK H PARENT
REMARK Flexibility Score: inf
ROOT
ATOM      1  C   UNL     1      58.431 -12.815  -6.953  1.00  0.00     0.008 C 
ATOM      2  C   UNL     1      57.498 -13.837  -7.623  1.00  0.00    -0.006 C 
ATOM      3  C   UNL     1      57.852 -15.286  -7.246  1.00  0.00     0.008 C 
ATOM      4  C   UNL     1      57.601 -15.600  -5.762  1.00  0.00     0.039 C 
ATOM      5  C   UNL     1      56.219 -15.168  -5.290  1.00  0.00    -0.006 C 
ATOM      6  C   UNL     1      55.575 -15.836  -4.288  1.00  0.00    -0.070 C 
ATOM      7  C   UNL     1      56.214 -17.019  -3.597  1.00  0.00     0.039 C 
ATOM      8  C   UNL     1      54.181 -15.454  -3.845  1.00  0.00     0.039 C 
ATOM      9  C   UNL     1      55.675 -13.917  -5.894  1.00  0.00     0.159 C 
ATOM     10  O   UNL     1      54.931 -13.141  -5.236  1.00  0.00    -0.295 OA
ATOM     11  C   UNL     1      56.021 -13.552  -7.309  1.00  0.00     0.084 C 
ENDROOT
TORSDOF 0
ENDMDL
MODEL 6
REMARK VINA RESULT:    -3.794      1.656      4.413
REMARK INTER + INTRA:          -3.794
REMARK INTER:                  -3.794
REMARK INTRA:                   0.000
REMARK UNBOUND:                 0.000
REMARK SMILES CC(C)=C1CC[C@H](C)CC1=O
REMARK SMILES IDX 8 1 7 2 6 3 5 4 4 5 2 6 1 7 3 8 10 9 11 10 9 11
REMARK H PARENT
REMARK Flexibility Score: inf
ROOT
ATOM      1  C   UNL     1      57.246 -18.961   2.730  1.00  0.00     0.008 C 
ATOM      2  C   UNL     1      58.097 -20.050   2.055  1.00  0.00    -0.006 C 
ATOM      3  C   UNL     1      57.662 -20.314   0.603  1.00  0.00     0.008 C 
ATOM      4  C   UNL     1      57.929 -19.124  -0.331  1.00  0.00     0.039 C 
ATOM      5  C   UNL     1      59.346 -18.579  -0.209  1.00  0.00    -0.006 C 
ATOM      6  C   UNL     1      59.971 -17.993  -1.273  1.00  0.00    -0.070 C 
ATOM      7  C   UNL     1      59.277 -17.848  -2.608  1.00  0.00     0.039 C 
ATOM      8  C   UNL     1      61.396 -17.499  -1.184  1.00  0.00     0.039 C 
ATOM      9  C   UNL     1      59.953 -18.613   1.154  1.00  0.00     0.159 C 
ATOM     10  O   UNL     1      60.759 -17.723   1.534  1.00  0.00    -0.295 OA
ATOM     11  C   UNL     1      59.596 -19.716   2.109  1.00  0.00     0.084 C 
ENDROOT
TORSDOF 0
ENDMDL
MODEL 7
REMARK VINA RESULT:    -3.792      3.525      5.109
REMARK INTER + INTRA:          -3.792
REMARK INTER:                  -3.792
REMARK INTRA:                   0.000
REMARK UNBOUND:                 0.000
REMARK SMILES CC(C)=C1CC[C@H](C)CC1=O
REMARK SMILES IDX 8 1 7 2 6 3 5 4 4 5 2 6 1 7 3 8 10 9 11 10 9 11
REMARK H PARENT
REMARK Flexibility Score: inf
ROOT
ATOM      1  C   UNL     1      56.641 -18.447   0.987  1.00  0.00     0.008 C 
ATOM      2  C   UNL     1      57.054 -19.927   1.045  1.00  0.00    -0.006 C 
ATOM      3  C   UNL     1      58.534 -20.135   0.678  1.00  0.00     0.008 C 
ATOM      4  C   UNL     1      59.500 -19.528   1.708  1.00  0.00     0.039 C 
ATOM      5  C   UNL     1      59.166 -19.923   3.140  1.00  0.00    -0.006 C 
ATOM      6  C   UNL     1      60.143 -20.027   4.090  1.00  0.00    -0.070 C 
ATOM      7  C   UNL     1      61.590 -19.738   3.762  1.00  0.00     0.039 C 
ATOM      8  C   UNL     1      59.836 -20.472   5.501  1.00  0.00     0.039 C 
ATOM      9  C   UNL     1      57.717 -20.068   3.466  1.00  0.00     0.159 C 
ATOM     10  O   UNL     1      57.271 -19.782   4.610  1.00  0.00    -0.295 OA
ATOM     11  C   UNL     1      56.755 -20.548   2.418  1.00  0.00     0.084 C 
ENDROOT
TORSDOF 0
ENDMDL
MODEL 8
REMARK VINA RESULT:    -3.765      4.263      6.610
REMARK INTER + INTRA:          -3.765
REMARK INTER:                  -3.765
REMARK INTRA:                   0.000
REMARK UNBOUND:                 0.000
REMARK SMILES CC(C)=C1CC[C@H](C)CC1=O
REMARK SMILES IDX 8 1 7 2 6 3 5 4 4 5 2 6 1 7 3 8 10 9 11 10 9 11
REMARK H PARENT
REMARK Flexibility Score: inf
ROOT
ATOM      1  C   UNL     1      53.704 -17.869  -1.086  1.00  0.00     0.008 C 
ATOM      2  C   UNL     1      54.000 -18.620  -2.394  1.00  0.00    -0.006 C 
ATOM      3  C   UNL     1      53.477 -17.866  -3.630  1.00  0.00     0.008 C 
ATOM      4  C   UNL     1      54.216 -16.543  -3.886  1.00  0.00     0.039 C 
ATOM      5  C   UNL     1      55.731 -16.695  -3.861  1.00  0.00    -0.006 C 
ATOM      6  C   UNL     1      56.534 -15.884  -4.611  1.00  0.00    -0.070 C 
ATOM      7  C   UNL     1      55.953 -14.794  -5.483  1.00  0.00     0.039 C 
ATOM      8  C   UNL     1      58.035 -16.057  -4.640  1.00  0.00     0.039 C 
ATOM      9  C   UNL     1      56.281 -17.684  -2.889  1.00  0.00     0.159 C 
ATOM     10  O   UNL     1      57.395 -17.502  -2.328  1.00  0.00    -0.295 OA
ATOM     11  C   UNL     1      55.499 -18.921  -2.550  1.00  0.00     0.084 C 
ENDROOT
TORSDOF 0
ENDMDL
MODEL 9
REMARK VINA RESULT:    -3.763      1.597      2.738
REMARK INTER + INTRA:          -3.763
REMARK INTER:                  -3.763
REMARK INTRA:                   0.000
REMARK UNBOUND:                 0.000
REMARK SMILES CC(C)=C1CC[C@H](C)CC1=O
REMARK SMILES IDX 8 1 7 2 6 3 5 4 4 5 2 6 1 7 3 8 10 9 11 10 9 11
REMARK H PARENT
REMARK Flexibility Score: inf
ROOT
ATOM      1  C   UNL     1      61.938 -18.998  -1.243  1.00  0.00     0.008 C 
ATOM      2  C   UNL     1      61.205 -17.823  -0.575  1.00  0.00    -0.006 C 
ATOM      3  C   UNL     1      60.349 -17.026  -1.576  1.00  0.00     0.008 C 
ATOM      4  C   UNL     1      59.160 -17.830  -2.125  1.00  0.00     0.039 C 
ATOM      5  C   UNL     1      58.346 -18.508  -1.032  1.00  0.00    -0.006 C 
ATOM      6  C   UNL     1      57.008 -18.735  -1.186  1.00  0.00    -0.070 C 
ATOM      7  C   UNL     1      56.286 -18.338  -2.453  1.00  0.00     0.039 C 
ATOM      8  C   UNL     1      56.175 -19.356  -0.088  1.00  0.00     0.039 C 
ATOM      9  C   UNL     1      59.110 -19.011   0.147  1.00  0.00     0.159 C 
ATOM     10  O   UNL     1      58.750 -20.048   0.767  1.00  0.00    -0.295 OA
ATOM     11  C   UNL     1      60.343 -18.288   0.608  1.00  0.00     0.084 C 
ENDROOT
TORSDOF 0
ENDMDL
