MODEL 1
REMARK VINA RESULT:     9.237      0.000      0.000
REMARK INTER + INTRA:          15.741
REMARK INTER:                  13.017
REMARK INTRA:                   2.724
REMARK UNBOUND:                 2.724
REMARK SMILES COc1c(O[C@H]2O[C@H](C(=O)[O-])[C@H](O)[C@H](O)[C@@H]2O)cc(O)c2c(=O)cc(-c3ccccc3)oc12
REMARK SMILES IDX 5 1 6 2 8 3 12 4 7 5 14 6 16 7 9 8 10 9 11 10 13 11 15 13
REMARK SMILES IDX 17 15 4 17 3 18 18 19 33 20 19 21 21 22 32 23 22 24 25 25
REMARK SMILES IDX 24 26 23 27 2 28 1 29 20 30 26 32 27 33 31 34 28 35 30 36
REMARK SMILES IDX 29 37
REMARK H PARENT 13 12 15 14 17 16 20 31
REMARK Flexibility Score: inf
ROOT
ATOM      1  O   UNL     1      26.436  37.267  25.933  1.00  0.00    -0.458 OA
ENDROOT
BRANCH   1   2
ATOM      2  C   UNL     1      27.060  36.441  24.941  1.00  0.00     0.339 C 
ATOM      3  C   UNL     1      28.975  36.079  26.262  1.00  0.00     0.199 C 
ATOM      4  C   UNL     1      28.661  34.582  26.467  1.00  0.00     0.180 C 
ATOM      5  O   UNL     1      28.477  36.541  25.016  1.00  0.00    -0.328 OA
ATOM      6  C   UNL     1      27.137  34.395  26.410  1.00  0.00     0.181 C 
ATOM      7  C   UNL     1      26.573  34.985  25.096  1.00  0.00     0.214 C 
BRANCH   3   8
ATOM      8  C   UNL     1      30.464  36.320  26.324  1.00  0.00     0.073 C 
ATOM      9  O   UNL     1      31.119  36.009  27.353  1.00  0.00    -0.547 OA
ATOM     10  O   UNL     1      31.112  36.941  25.260  1.00  0.00    -0.547 OA
ENDBRANCH   3   8
BRANCH   4  11
ATOM     11  O   UNL     1      29.285  33.815  25.467  1.00  0.00    -0.387 OA
ATOM     12  H   UNL     1      29.395  32.898  25.827  1.00  0.00     0.211 HD
ENDBRANCH   4  11
BRANCH   6  13
ATOM     13  O   UNL     1      26.813  33.036  26.596  1.00  0.00    -0.387 OA
ATOM     14  H   UNL     1      27.620  32.490  26.407  1.00  0.00     0.211 HD
ENDBRANCH   6  13
BRANCH   7  15
ATOM     15  O   UNL     1      26.984  34.235  23.978  1.00  0.00    -0.384 OA
ATOM     16  H   UNL     1      27.892  33.890  24.182  1.00  0.00     0.211 HD
ENDBRANCH   7  15
ENDBRANCH   1   2
BRANCH   1  17
ATOM     17  C   UNL     1      27.019  37.639  27.155  1.00  0.00     0.172 A 
ATOM     18  C   UNL     1      28.119  38.495  27.122  1.00  0.00     0.205 A 
ATOM     19  C   UNL     1      26.538  37.174  28.387  1.00  0.00     0.097 A 
ATOM     20  C   UNL     1      28.792  38.831  28.305  1.00  0.00     0.188 A 
ATOM     21  C   UNL     1      27.154  37.550  29.589  1.00  0.00     0.134 A 
ATOM     22  C   UNL     1      28.332  38.347  29.559  1.00  0.00     0.111 A 
ATOM     23  O   UNL     1      29.876  39.594  28.231  1.00  0.00    -0.452 OA
ATOM     24  C   UNL     1      29.100  38.677  30.699  1.00  0.00     0.197 A 
ATOM     25  C   UNL     1      30.617  39.922  29.285  1.00  0.00     0.138 A 
ATOM     26  C   UNL     1      30.236  39.474  30.560  1.00  0.00     0.100 A 
ATOM     27  O   UNL     1      28.800  38.251  31.844  1.00  0.00    -0.289 OA
BRANCH  18  28
ATOM     28  O   UNL     1      28.537  39.017  25.892  1.00  0.00    -0.490 OA
ATOM     29  C   UNL     1      27.793  40.026  25.221  1.00  0.00     0.278 C 
ENDBRANCH  18  28
BRANCH  21  30
ATOM     30  O   UNL     1      26.542  37.126  30.772  1.00  0.00    -0.507 OA
ATOM     31  H   UNL     1      26.789  37.486  31.684  1.00  0.00     0.293 HD
ENDBRANCH  21  30
BRANCH  25  32
ATOM     32  C   UNL     1      31.828  40.756  29.072  1.00  0.00     0.017 A 
ATOM     33  C   UNL     1      32.146  41.840  29.919  1.00  0.00     0.012 A 
ATOM     34  C   UNL     1      32.720  40.432  28.033  1.00  0.00     0.012 A 
ATOM     35  C   UNL     1      33.315  42.580  29.717  1.00  0.00     0.001 A 
ATOM     36  C   UNL     1      33.885  41.178  27.836  1.00  0.00     0.001 A 
ATOM     37  C   UNL     1      34.182  42.254  28.672  1.00  0.00     0.000 A 
ENDBRANCH  25  32
ENDBRANCH   1  17
TORSDOF 9
ENDMDL
MODEL 2
REMARK VINA RESULT:    10.399      1.841      4.278
REMARK INTER + INTRA:          17.379
REMARK INTER:                  15.557
REMARK INTRA:                   1.821
REMARK UNBOUND:                 2.724
REMARK SMILES COc1c(O[C@H]2O[C@H](C(=O)[O-])[C@H](O)[C@H](O)[C@@H]2O)cc(O)c2c(=O)cc(-c3ccccc3)oc12
REMARK SMILES IDX 5 1 6 2 8 3 12 4 7 5 14 6 16 7 9 8 10 9 11 10 13 11 15 13
REMARK SMILES IDX 17 15 4 17 3 18 18 19 33 20 19 21 21 22 32 23 22 24 25 25
REMARK SMILES IDX 24 26 23 27 2 28 1 29 20 30 26 32 27 33 31 34 28 35 30 36
REMARK SMILES IDX 29 37
REMARK H PARENT 13 12 15 14 17 16 20 31
REMARK Flexibility Score: inf
ROOT
ATOM      1  O   UNL     1      30.303  35.098  26.821  1.00  0.00    -0.458 OA
ENDROOT
BRANCH   1   2
ATOM      2  C   UNL     1      29.058  34.652  27.375  1.00  0.00     0.339 C 
ATOM      3  C   UNL     1      28.242  36.845  27.638  1.00  0.00     0.199 C 
ATOM      4  C   UNL     1      27.154  36.666  26.558  1.00  0.00     0.180 C 
ATOM      5  O   UNL     1      28.532  35.614  28.281  1.00  0.00    -0.328 OA
ATOM      6  C   UNL     1      27.658  35.643  25.529  1.00  0.00     0.181 C 
ATOM      7  C   UNL     1      28.069  34.330  26.235  1.00  0.00     0.214 C 
BRANCH   3   8
ATOM      8  C   UNL     1      27.802  37.855  28.670  1.00  0.00     0.073 C 
ATOM      9  O   UNL     1      27.995  39.085  28.483  1.00  0.00    -0.547 OA
ATOM     10  O   UNL     1      27.228  37.425  29.863  1.00  0.00    -0.547 OA
ENDBRANCH   3   8
BRANCH   4  11
ATOM     11  O   UNL     1      25.957  36.220  27.146  1.00  0.00    -0.387 OA
ATOM     12  H   UNL     1      25.560  36.991  27.625  1.00  0.00     0.211 HD
ENDBRANCH   4  11
BRANCH   6  13
ATOM     13  O   UNL     1      26.687  35.456  24.524  1.00  0.00    -0.387 OA
ATOM     14  H   UNL     1      27.053  34.835  23.841  1.00  0.00     0.211 HD
ENDBRANCH   6  13
BRANCH   7  15
ATOM     15  O   UNL     1      26.950  33.659  26.765  1.00  0.00    -0.384 OA
ATOM     16  H   UNL     1      26.945  33.838  27.743  1.00  0.00     0.211 HD
ENDBRANCH   7  15
ENDBRANCH   1   2
BRANCH   1  17
ATOM     17  C   UNL     1      30.569  36.406  26.385  1.00  0.00     0.172 A 
ATOM     18  C   UNL     1      31.234  37.265  27.259  1.00  0.00     0.205 A 
ATOM     19  C   UNL     1      30.182  36.866  25.119  1.00  0.00     0.097 A 
ATOM     20  C   UNL     1      31.449  38.606  26.907  1.00  0.00     0.188 A 
ATOM     21  C   UNL     1      30.446  38.184  24.720  1.00  0.00     0.134 A 
ATOM     22  C   UNL     1      31.040  39.094  25.638  1.00  0.00     0.111 A 
ATOM     23  O   UNL     1      32.026  39.414  27.789  1.00  0.00    -0.452 OA
ATOM     24  C   UNL     1      31.235  40.471  25.383  1.00  0.00     0.197 A 
ATOM     25  C   UNL     1      32.224  40.711  27.577  1.00  0.00     0.138 A 
ATOM     26  C   UNL     1      31.836  41.275  26.351  1.00  0.00     0.100 A 
ATOM     27  O   UNL     1      30.857  41.003  24.308  1.00  0.00    -0.289 OA
BRANCH  18  28
ATOM     28  O   UNL     1      31.687  36.769  28.486  1.00  0.00    -0.490 OA
ATOM     29  C   UNL     1      32.702  35.774  28.557  1.00  0.00     0.278 C 
ENDBRANCH  18  28
BRANCH  21  30
ATOM     30  O   UNL     1      30.121  38.523  23.404  1.00  0.00    -0.507 OA
ATOM     31  H   UNL     1      29.180  38.478  23.035  1.00  0.00     0.293 HD
ENDBRANCH  21  30
BRANCH  25  32
ATOM     32  C   UNL     1      32.850  41.521  28.654  1.00  0.00     0.017 A 
ATOM     33  C   UNL     1      34.173  41.286  29.091  1.00  0.00     0.012 A 
ATOM     34  C   UNL     1      32.136  42.591  29.223  1.00  0.00     0.012 A 
ATOM     35  C   UNL     1      34.748  42.092  30.077  1.00  0.00     0.001 A 
ATOM     36  C   UNL     1      32.717  43.391  30.211  1.00  0.00     0.001 A 
ATOM     37  C   UNL     1      34.019  43.141  30.642  1.00  0.00     0.000 A 
ENDBRANCH  25  32
ENDBRANCH   1  17
TORSDOF 9
ENDMDL
MODEL 3
REMARK VINA RESULT:    10.980      2.631      5.751
REMARK INTER + INTRA:          18.198
REMARK INTER:                  15.383
REMARK INTRA:                   2.815
REMARK UNBOUND:                 2.724
REMARK SMILES COc1c(O[C@H]2O[C@H](C(=O)[O-])[C@H](O)[C@H](O)[C@@H]2O)cc(O)c2c(=O)cc(-c3ccccc3)oc12
REMARK SMILES IDX 5 1 6 2 8 3 12 4 7 5 14 6 16 7 9 8 10 9 11 10 13 11 15 13
REMARK SMILES IDX 17 15 4 17 3 18 18 19 33 20 19 21 21 22 32 23 22 24 25 25
REMARK SMILES IDX 24 26 23 27 2 28 1 29 20 30 26 32 27 33 31 34 28 35 30 36
REMARK SMILES IDX 29 37
REMARK H PARENT 13 12 15 14 17 16 20 31
REMARK Flexibility Score: inf
ROOT
ATOM      1  O   UNL     1      26.350  37.143  27.866  1.00  0.00    -0.458 OA
ENDROOT
BRANCH   1   2
ATOM      2  C   UNL     1      27.033  36.662  29.031  1.00  0.00     0.339 C 
ATOM      3  C   UNL     1      28.967  37.925  28.576  1.00  0.00     0.199 C 
ATOM      4  C   UNL     1      28.761  38.848  29.796  1.00  0.00     0.180 C 
ATOM      5  O   UNL     1      28.439  36.631  28.818  1.00  0.00    -0.328 OA
ATOM      6  C   UNL     1      27.254  38.941  30.082  1.00  0.00     0.181 C 
ATOM      7  C   UNL     1      26.651  37.527  30.250  1.00  0.00     0.214 C 
BRANCH   3   8
ATOM      8  C   UNL     1      30.435  37.810  28.242  1.00  0.00     0.073 C 
ATOM      9  O   UNL     1      31.153  38.841  28.154  1.00  0.00    -0.547 OA
ATOM     10  O   UNL     1      30.991  36.563  27.974  1.00  0.00    -0.547 OA
ENDBRANCH   3   8
BRANCH   4  11
ATOM     11  O   UNL     1      29.440  38.331  30.914  1.00  0.00    -0.387 OA
ATOM     12  H   UNL     1      29.043  37.445  31.115  1.00  0.00     0.211 HD
ENDBRANCH   4  11
BRANCH   6  13
ATOM     13  O   UNL     1      27.028  39.780  31.192  1.00  0.00    -0.387 OA
ATOM     14  H   UNL     1      26.651  40.640  30.869  1.00  0.00     0.211 HD
ENDBRANCH   6  13
BRANCH   7  15
ATOM     15  O   UNL     1      27.116  36.906  31.425  1.00  0.00    -0.384 OA
ATOM     16  H   UNL     1      27.237  35.943  31.212  1.00  0.00     0.211 HD
ENDBRANCH   7  15
ENDBRANCH   1   2
BRANCH   1  17
ATOM     17  C   UNL     1      26.917  37.971  26.883  1.00  0.00     0.172 A 
ATOM     18  C   UNL     1      27.970  37.461  26.125  1.00  0.00     0.205 A 
ATOM     19  C   UNL     1      26.465  39.278  26.654  1.00  0.00     0.097 A 
ATOM     20  C   UNL     1      28.628  38.272  25.190  1.00  0.00     0.188 A 
ATOM     21  C   UNL     1      27.064  40.086  25.677  1.00  0.00     0.134 A 
ATOM     22  C   UNL     1      28.198  39.607  24.964  1.00  0.00     0.111 A 
ATOM     23  O   UNL     1      29.670  37.776  24.533  1.00  0.00    -0.452 OA
ATOM     24  C   UNL     1      28.952  40.381  24.052  1.00  0.00     0.197 A 
ATOM     25  C   UNL     1      30.395  38.479  23.669  1.00  0.00     0.138 A 
ATOM     26  C   UNL     1      30.044  39.811  23.398  1.00  0.00     0.100 A 
ATOM     27  O   UNL     1      28.679  41.589  23.828  1.00  0.00    -0.289 OA
BRANCH  18  28
ATOM     28  O   UNL     1      28.355  36.127  26.308  1.00  0.00    -0.490 OA
ATOM     29  C   UNL     1      27.650  35.058  25.690  1.00  0.00     0.278 C 
ENDBRANCH  18  28
BRANCH  21  30
ATOM     30  O   UNL     1      26.481  41.334  25.444  1.00  0.00    -0.507 OA
ATOM     31  H   UNL     1      26.703  41.911  24.644  1.00  0.00     0.293 HD
ENDBRANCH  21  30
BRANCH  25  32
ATOM     32  C   UNL     1      31.560  37.823  23.019  1.00  0.00     0.017 A 
ATOM     33  C   UNL     1      31.898  38.071  21.670  1.00  0.00     0.012 A 
ATOM     34  C   UNL     1      32.389  36.974  23.774  1.00  0.00     0.012 A 
ATOM     35  C   UNL     1      33.025  37.471  21.100  1.00  0.00     0.001 A 
ATOM     36  C   UNL     1      33.512  36.375  23.196  1.00  0.00     0.001 A 
ATOM     37  C   UNL     1      33.828  36.618  21.859  1.00  0.00     0.000 A 
ENDBRANCH  25  32
ENDBRANCH   1  17
TORSDOF 9
ENDMDL
MODEL 4
REMARK VINA RESULT:    11.007      2.715      5.638
REMARK INTER + INTRA:          18.236
REMARK INTER:                  15.222
REMARK INTRA:                   3.014
REMARK UNBOUND:                 2.724
REMARK SMILES COc1c(O[C@H]2O[C@H](C(=O)[O-])[C@H](O)[C@H](O)[C@@H]2O)cc(O)c2c(=O)cc(-c3ccccc3)oc12
REMARK SMILES IDX 5 1 6 2 8 3 12 4 7 5 14 6 16 7 9 8 10 9 11 10 13 11 15 13
REMARK SMILES IDX 17 15 4 17 3 18 18 19 33 20 19 21 21 22 32 23 22 24 25 25
REMARK SMILES IDX 24 26 23 27 2 28 1 29 20 30 26 32 27 33 31 34 28 35 30 36
REMARK SMILES IDX 29 37
REMARK H PARENT 13 12 15 14 17 16 20 31
REMARK Flexibility Score: inf
ROOT
ATOM      1  O   UNL     1      26.414  38.855  26.896  1.00  0.00    -0.458 OA
ENDROOT
BRANCH   1   2
ATOM      2  C   UNL     1      27.088  40.092  26.625  1.00  0.00     0.339 C 
ATOM      3  C   UNL     1      28.951  39.016  25.668  1.00  0.00     0.199 C 
ATOM      4  C   UNL     1      28.645  39.550  24.253  1.00  0.00     0.180 C 
ATOM      5  O   UNL     1      28.500  39.920  26.665  1.00  0.00    -0.328 OA
ATOM      6  C   UNL     1      27.127  39.751  24.129  1.00  0.00     0.181 C 
ATOM      7  C   UNL     1      26.611  40.657  25.271  1.00  0.00     0.214 C 
BRANCH   3   8
ATOM      8  C   UNL     1      30.433  38.786  25.838  1.00  0.00     0.073 C 
ATOM      9  O   UNL     1      31.026  37.908  25.157  1.00  0.00    -0.547 OA
ATOM     10  O   UNL     1      31.143  39.509  26.792  1.00  0.00    -0.547 OA
ENDBRANCH   3   8
BRANCH   4  11
ATOM     11  O   UNL     1      29.318  40.766  24.037  1.00  0.00    -0.387 OA
ATOM     12  H   UNL     1      30.194  40.547  23.626  1.00  0.00     0.211 HD
ENDBRANCH   4  11
BRANCH   6  13
ATOM     13  O   UNL     1      26.811  40.238  22.845  1.00  0.00    -0.387 OA
ATOM     14  H   UNL     1      27.579  40.770  22.510  1.00  0.00     0.211 HD
ENDBRANCH   6  13
BRANCH   7  15
ATOM     15  O   UNL     1      27.076  41.979  25.129  1.00  0.00    -0.384 OA
ATOM     16  H   UNL     1      27.766  42.117  25.831  1.00  0.00     0.211 HD
ENDBRANCH   7  15
ENDBRANCH   1   2
BRANCH   1  17
ATOM     17  C   UNL     1      26.943  37.578  26.649  1.00  0.00     0.172 A 
ATOM     18  C   UNL     1      28.063  37.181  27.378  1.00  0.00     0.205 A 
ATOM     19  C   UNL     1      26.389  36.710  25.698  1.00  0.00     0.097 A 
ATOM     20  C   UNL     1      28.682  35.952  27.111  1.00  0.00     0.188 A 
ATOM     21  C   UNL     1      26.952  35.448  25.461  1.00  0.00     0.134 A 
ATOM     22  C   UNL     1      28.148  35.072  26.133  1.00  0.00     0.111 A 
ATOM     23  O   UNL     1      29.787  35.633  27.776  1.00  0.00    -0.452 OA
ATOM     24  C   UNL     1      28.864  33.880  25.877  1.00  0.00     0.197 A 
ATOM     25  C   UNL     1      30.480  34.520  27.559  1.00  0.00     0.138 A 
ATOM     26  C   UNL     1      30.025  33.602  26.599  1.00  0.00     0.100 A 
ATOM     27  O   UNL     1      28.497  33.065  24.992  1.00  0.00    -0.289 OA
BRANCH  18  28
ATOM     28  O   UNL     1      28.556  38.024  28.381  1.00  0.00    -0.490 OA
ATOM     29  C   UNL     1      27.933  38.103  29.657  1.00  0.00     0.278 C 
ENDBRANCH  18  28
BRANCH  21  30
ATOM     30  O   UNL     1      26.271  34.609  24.575  1.00  0.00    -0.507 OA
ATOM     31  H   UNL     1      25.993  34.893  23.645  1.00  0.00     0.293 HD
ENDBRANCH  21  30
BRANCH  25  32
ATOM     32  C   UNL     1      31.720  34.289  28.345  1.00  0.00     0.017 A 
ATOM     33  C   UNL     1      32.036  33.022  28.884  1.00  0.00     0.012 A 
ATOM     34  C   UNL     1      32.639  35.340  28.517  1.00  0.00     0.012 A 
ATOM     35  C   UNL     1      33.231  32.827  29.583  1.00  0.00     0.001 A 
ATOM     36  C   UNL     1      33.829  35.138  29.220  1.00  0.00     0.001 A 
ATOM     37  C   UNL     1      34.125  33.885  29.757  1.00  0.00     0.000 A 
ENDBRANCH  25  32
ENDBRANCH   1  17
TORSDOF 9
ENDMDL
MODEL 5
REMARK VINA RESULT:    11.302      3.010      5.423
REMARK INTER + INTRA:          18.652
REMARK INTER:                  16.788
REMARK INTRA:                   1.864
REMARK UNBOUND:                 2.724
REMARK SMILES COc1c(O[C@H]2O[C@H](C(=O)[O-])[C@H](O)[C@H](O)[C@@H]2O)cc(O)c2c(=O)cc(-c3ccccc3)oc12
REMARK SMILES IDX 5 1 6 2 8 3 12 4 7 5 14 6 16 7 9 8 10 9 11 10 13 11 15 13
REMARK SMILES IDX 17 15 4 17 3 18 18 19 33 20 19 21 21 22 32 23 22 24 25 25
REMARK SMILES IDX 24 26 23 27 2 28 1 29 20 30 26 32 27 33 31 34 28 35 30 36
REMARK SMILES IDX 29 37
REMARK H PARENT 13 12 15 14 17 16 20 31
REMARK Flexibility Score: inf
ROOT
ATOM      1  O   UNL     1      30.248  39.045  24.620  1.00  0.00    -0.458 OA
ENDROOT
BRANCH   1   2
ATOM      2  C   UNL     1      28.984  38.785  23.996  1.00  0.00     0.339 C 
ATOM      3  C   UNL     1      28.140  37.657  25.883  1.00  0.00     0.199 C 
ATOM      4  C   UNL     1      27.101  38.757  26.187  1.00  0.00     0.180 C 
ATOM      5  O   UNL     1      28.411  37.581  24.492  1.00  0.00    -0.328 OA
ATOM      6  C   UNL     1      27.657  40.100  25.687  1.00  0.00     0.181 C 
ATOM      7  C   UNL     1      28.048  39.996  24.195  1.00  0.00     0.214 C 
BRANCH   3   8
ATOM      8  C   UNL     1      27.647  36.316  26.368  1.00  0.00     0.073 C 
ATOM      9  O   UNL     1      27.765  35.992  27.579  1.00  0.00    -0.547 OA
ATOM     10  O   UNL     1      27.107  35.405  25.465  1.00  0.00    -0.547 OA
ENDBRANCH   3   8
BRANCH   4  11
ATOM     11  O   UNL     1      25.883  38.465  25.548  1.00  0.00    -0.387 OA
ATOM     12  H   UNL     1      25.964  37.553  25.166  1.00  0.00     0.211 HD
ENDBRANCH   4  11
BRANCH   6  13
ATOM     13  O   UNL     1      26.732  41.130  25.951  1.00  0.00    -0.387 OA
ATOM     14  H   UNL     1      25.850  40.720  26.151  1.00  0.00     0.211 HD
ENDBRANCH   6  13
BRANCH   7  15
ATOM     15  O   UNL     1      26.913  39.846  23.375  1.00  0.00    -0.384 OA
ATOM     16  H   UNL     1      26.964  38.936  22.978  1.00  0.00     0.211 HD
ENDBRANCH   7  15
ENDBRANCH   1   2
BRANCH   1  17
ATOM     17  C   UNL     1      30.557  38.768  25.961  1.00  0.00     0.172 A 
ATOM     18  C   UNL     1      31.200  37.564  26.250  1.00  0.00     0.205 A 
ATOM     19  C   UNL     1      30.234  39.650  27.002  1.00  0.00     0.097 A 
ATOM     20  C   UNL     1      31.455  37.199  27.579  1.00  0.00     0.188 A 
ATOM     21  C   UNL     1      30.540  39.336  28.334  1.00  0.00     0.134 A 
ATOM     22  C   UNL     1      31.111  38.071  28.646  1.00  0.00     0.111 A 
ATOM     23  O   UNL     1      32.008  36.016  27.823  1.00  0.00    -0.452 OA
ATOM     24  C   UNL     1      31.342  37.604  29.961  1.00  0.00     0.197 A 
ATOM     25  C   UNL     1      32.239  35.552  29.047  1.00  0.00     0.138 A 
ATOM     26  C   UNL     1      31.916  36.348  30.158  1.00  0.00     0.100 A 
ATOM     27  O   UNL     1      31.021  38.284  30.969  1.00  0.00    -0.289 OA
BRANCH  18  28
ATOM     28  O   UNL     1      31.590  36.732  25.195  1.00  0.00    -0.490 OA
ATOM     29  C   UNL     1      32.394  37.215  24.126  1.00  0.00     0.278 C 
ENDBRANCH  18  28
BRANCH  21  30
ATOM     30  O   UNL     1      30.279  40.319  29.291  1.00  0.00    -0.507 OA
ATOM     31  H   UNL     1      29.351  40.525  29.636  1.00  0.00     0.293 HD
ENDBRANCH  21  30
BRANCH  25  32
ATOM     32  C   UNL     1      32.834  34.198  29.194  1.00  0.00     0.017 A 
ATOM     33  C   UNL     1      32.135  33.141  29.818  1.00  0.00     0.012 A 
ATOM     34  C   UNL     1      34.104  33.934  28.650  1.00  0.00     0.012 A 
ATOM     35  C   UNL     1      32.705  31.867  29.903  1.00  0.00     0.001 A 
ATOM     36  C   UNL     1      34.668  32.659  28.742  1.00  0.00     0.001 A 
ATOM     37  C   UNL     1      33.974  31.627  29.372  1.00  0.00     0.000 A 
ENDBRANCH  25  32
ENDBRANCH   1  17
TORSDOF 9
ENDMDL
