MODEL 1
REMARK VINA RESULT:    -3.429      0.000      0.000
REMARK INTER + INTRA:          -3.530
REMARK INTER:                  -3.530
REMARK INTRA:                   0.000
REMARK UNBOUND:                 0.000
REMARK SMILES CC1(C)[C@H]2CC[C@]1(C)[C@H](O)C2
REMARK SMILES IDX 1 1 2 2 4 3 5 4 6 5 7 6 9 7 11 8 8 9 3 10 10 11
REMARK H PARENT 10 12
REMARK Flexibility Score: inf
ROOT
ATOM      1  C   UNL     1     142.019 150.842 138.143  1.00  0.00     0.012 C 
ATOM      2  C   UNL     1     142.472 149.395 138.514  1.00  0.00    -0.025 C 
ATOM      3  C   UNL     1     143.046 149.268 139.935  1.00  0.00    -0.002 C 
ATOM      4  C   UNL     1     141.841 149.624 140.839  1.00  0.00     0.005 C 
ATOM      5  C   UNL     1     140.647 149.031 140.066  1.00  0.00     0.010 C 
ATOM      6  C   UNL     1     141.330 148.398 138.821  1.00  0.00    -0.001 C 
ATOM      7  C   UNL     1     142.100 147.131 139.301  1.00  0.00     0.121 C 
ATOM      8  C   UNL     1     143.274 147.745 140.099  1.00  0.00     0.036 C 
ATOM      9  C   UNL     1     140.356 148.120 137.668  1.00  0.00     0.015 C 
ATOM     10  C   UNL     1     143.468 148.960 137.394  1.00  0.00     0.012 C 
ENDROOT
BRANCH   7  11
ATOM     11  O   UNL     1     141.304 146.299 140.106  1.00  0.00    -0.393 OA
ATOM     12  H   UNL     1     140.935 146.874 140.826  1.00  0.00     0.210 HD
ENDBRANCH   7  11
TORSDOF 1
ENDMDL
MODEL 2
REMARK VINA RESULT:    -3.422      9.998     11.459
REMARK INTER + INTRA:          -3.522
REMARK INTER:                  -3.522
REMARK INTRA:                   0.000
REMARK UNBOUND:                 0.000
REMARK SMILES CC1(C)[C@H]2CC[C@]1(C)[C@H](O)C2
REMARK SMILES IDX 1 1 2 2 4 3 5 4 6 5 7 6 9 7 11 8 8 9 3 10 10 11
REMARK H PARENT 10 12
REMARK Flexibility Score: inf
ROOT
ATOM      1  C   UNL     1     150.846 139.505 138.115  1.00  0.00     0.012 C 
ATOM      2  C   UNL     1     149.402 139.062 138.510  1.00  0.00    -0.025 C 
ATOM      3  C   UNL     1     149.295 138.493 139.935  1.00  0.00    -0.002 C 
ATOM      4  C   UNL     1     149.671 139.699 140.829  1.00  0.00     0.005 C 
ATOM      5  C   UNL     1     149.072 140.893 140.061  1.00  0.00     0.010 C 
ATOM      6  C   UNL     1     148.416 140.209 138.829  1.00  0.00    -0.001 C 
ATOM      7  C   UNL     1     147.153 139.447 139.331  1.00  0.00     0.121 C 
ATOM      8  C   UNL     1     147.773 138.273 140.124  1.00  0.00     0.036 C 
ATOM      9  C   UNL     1     148.126 141.180 137.677  1.00  0.00     0.015 C 
ATOM     10  C   UNL     1     148.946 138.064 137.400  1.00  0.00     0.012 C 
ENDROOT
BRANCH   7  11
ATOM     11  O   UNL     1     146.337 140.251 140.145  1.00  0.00    -0.393 OA
ATOM     12  H   UNL     1     145.528 140.463 139.611  1.00  0.00     0.210 HD
ENDBRANCH   7  11
TORSDOF 1
ENDMDL
MODEL 3
REMARK VINA RESULT:    -3.401      7.047      8.629
REMARK INTER + INTRA:          -3.501
REMARK INTER:                  -3.501
REMARK INTRA:                   0.000
REMARK UNBOUND:                 0.000
REMARK SMILES CC1(C)[C@H]2CC[C@]1(C)[C@H](O)C2
REMARK SMILES IDX 1 1 2 2 4 3 5 4 6 5 7 6 9 7 11 8 8 9 3 10 10 11
REMARK H PARENT 10 12
REMARK Flexibility Score: inf
ROOT
ATOM      1  C   UNL     1     139.716 139.375 143.097  1.00  0.00     0.012 C 
ATOM      2  C   UNL     1     139.563 140.248 141.812  1.00  0.00    -0.025 C 
ATOM      3  C   UNL     1     138.379 141.229 141.866  1.00  0.00    -0.002 C 
ATOM      4  C   UNL     1     138.755 142.178 143.029  1.00  0.00     0.005 C 
ATOM      5  C   UNL     1     140.286 142.290 142.897  1.00  0.00     0.010 C 
ATOM      6  C   UNL     1     140.586 141.397 141.661  1.00  0.00    -0.001 C 
ATOM      7  C   UNL     1     140.070 142.152 140.399  1.00  0.00     0.121 C 
ATOM      8  C   UNL     1     138.536 142.057 140.565  1.00  0.00     0.036 C 
ATOM      9  C   UNL     1     142.057 140.973 141.559  1.00  0.00     0.015 C 
ATOM     10  C   UNL     1     139.490 139.242 140.621  1.00  0.00     0.012 C 
ENDROOT
BRANCH   7  11
ATOM     11  O   UNL     1     140.507 143.488 140.364  1.00  0.00    -0.393 OA
ATOM     12  H   UNL     1     139.723 144.033 140.092  1.00  0.00     0.210 HD
ENDBRANCH   7  11
TORSDOF 1
ENDMDL
MODEL 4
REMARK VINA RESULT:    -3.368      9.843     11.293
REMARK INTER + INTRA:          -3.466
REMARK INTER:                  -3.466
REMARK INTRA:                   0.000
REMARK UNBOUND:                 0.000
REMARK SMILES CC1(C)[C@H]2CC[C@]1(C)[C@H](O)C2
REMARK SMILES IDX 1 1 2 2 4 3 5 4 6 5 7 6 9 7 11 8 8 9 3 10 10 11
REMARK H PARENT 10 12
REMARK Flexibility Score: inf
ROOT
ATOM      1  C   UNL     1     131.032 141.886 137.776  1.00  0.00     0.012 C 
ATOM      2  C   UNL     1     132.442 142.369 138.242  1.00  0.00    -0.025 C 
ATOM      3  C   UNL     1     132.442 143.043 139.625  1.00  0.00    -0.002 C 
ATOM      4  C   UNL     1     132.006 141.903 140.576  1.00  0.00     0.005 C 
ATOM      5  C   UNL     1     132.662 140.660 139.945  1.00  0.00     0.010 C 
ATOM      6  C   UNL     1     133.405 141.256 138.716  1.00  0.00    -0.001 C 
ATOM      7  C   UNL     1     134.626 142.064 139.251  1.00  0.00     0.121 C 
ATOM      8  C   UNL     1     133.946 143.289 139.907  1.00  0.00     0.036 C 
ATOM      9  C   UNL     1     133.782 140.205 137.664  1.00  0.00     0.015 C 
ATOM     10  C   UNL     1     132.976 143.286 137.097  1.00  0.00     0.012 C 
ENDROOT
BRANCH   7  11
ATOM     11  O   UNL     1     135.382 141.330 140.180  1.00  0.00    -0.393 OA
ATOM     12  H   UNL     1     135.940 141.988 140.672  1.00  0.00     0.210 HD
ENDBRANCH   7  11
TORSDOF 1
ENDMDL
MODEL 5
REMARK VINA RESULT:    -3.363     14.260     15.934
REMARK INTER + INTRA:          -3.461
REMARK INTER:                  -3.461
REMARK INTRA:                   0.000
REMARK UNBOUND:                 0.000
REMARK SMILES CC1(C)[C@H]2CC[C@]1(C)[C@H](O)C2
REMARK SMILES IDX 1 1 2 2 4 3 5 4 6 5 7 6 9 7 11 8 8 9 3 10 10 11
REMARK H PARENT 10 12
REMARK Flexibility Score: inf
ROOT
ATOM      1  C   UNL     1     139.854 130.996 137.823  1.00  0.00     0.012 C 
ATOM      2  C   UNL     1     139.340 132.402 138.267  1.00  0.00    -0.025 C 
ATOM      3  C   UNL     1     138.706 132.418 139.668  1.00  0.00    -0.002 C 
ATOM      4  C   UNL     1     139.885 132.041 140.597  1.00  0.00     0.005 C 
ATOM      5  C   UNL     1     141.088 132.718 139.914  1.00  0.00     0.010 C 
ATOM      6  C   UNL     1     140.435 133.410 138.684  1.00  0.00    -0.001 C 
ATOM      7  C   UNL     1     139.605 134.620 139.211  1.00  0.00     0.121 C 
ATOM      8  C   UNL     1     138.421 133.920 139.919  1.00  0.00     0.036 C 
ATOM      9  C   UNL     1     141.444 133.792 137.593  1.00  0.00     0.015 C 
ATOM     10  C   UNL     1     138.375 132.877 137.136  1.00  0.00     0.012 C 
ENDROOT
BRANCH   7  11
ATOM     11  O   UNL     1     140.341 135.421 140.100  1.00  0.00    -0.393 OA
ATOM     12  H   UNL     1     140.674 134.817 140.814  1.00  0.00     0.210 HD
ENDBRANCH   7  11
TORSDOF 1
ENDMDL
MODEL 6
REMARK VINA RESULT:    -3.358      6.095      7.751
REMARK INTER + INTRA:          -3.456
REMARK INTER:                  -3.456
REMARK INTRA:                   0.000
REMARK UNBOUND:                 0.000
REMARK SMILES CC1(C)[C@H]2CC[C@]1(C)[C@H](O)C2
REMARK SMILES IDX 1 1 2 2 4 3 5 4 6 5 7 6 9 7 11 8 8 9 3 10 10 11
REMARK H PARENT 10 12
REMARK Flexibility Score: inf
ROOT
ATOM      1  C   UNL     1     139.421 141.731 143.107  1.00  0.00     0.012 C 
ATOM      2  C   UNL     1     140.207 141.999 141.785  1.00  0.00    -0.025 C 
ATOM      3  C   UNL     1     141.181 143.187 141.871  1.00  0.00    -0.002 C 
ATOM      4  C   UNL     1     142.207 142.729 142.936  1.00  0.00     0.005 C 
ATOM      5  C   UNL     1     142.320 141.214 142.673  1.00  0.00     0.010 C 
ATOM      6  C   UNL     1     141.350 141.005 141.476  1.00  0.00    -0.001 C 
ATOM      7  C   UNL     1     142.017 141.630 140.214  1.00  0.00     0.121 C 
ATOM      8  C   UNL     1     141.923 143.145 140.511  1.00  0.00     0.036 C 
ATOM      9  C   UNL     1     140.929 139.542 141.282  1.00  0.00     0.015 C 
ATOM     10  C   UNL     1     139.124 142.156 140.672  1.00  0.00     0.012 C 
ENDROOT
BRANCH   7  11
ATOM     11  O   UNL     1     143.350 141.214 140.058  1.00  0.00    -0.393 OA
ATOM     12  H   UNL     1     143.406 140.300 140.440  1.00  0.00     0.210 HD
ENDBRANCH   7  11
TORSDOF 1
ENDMDL
MODEL 7
REMARK VINA RESULT:    -3.314      7.287      8.943
REMARK INTER + INTRA:          -3.411
REMARK INTER:                  -3.411
REMARK INTRA:                   0.000
REMARK UNBOUND:                 0.000
REMARK SMILES CC1(C)[C@H]2CC[C@]1(C)[C@H](O)C2
REMARK SMILES IDX 1 1 2 2 4 3 5 4 6 5 7 6 9 7 11 8 8 9 3 10 10 11
REMARK H PARENT 10 12
REMARK Flexibility Score: inf
ROOT
ATOM      1  C   UNL     1     142.131 142.298 140.497  1.00  0.00     0.012 C 
ATOM      2  C   UNL     1     141.585 141.576 141.769  1.00  0.00    -0.025 C 
ATOM      3  C   UNL     1     140.067 141.331 141.741  1.00  0.00    -0.002 C 
ATOM      4  C   UNL     1     139.884 140.365 140.546  1.00  0.00     0.005 C 
ATOM      5  C   UNL     1     141.150 139.489 140.617  1.00  0.00     0.010 C 
ATOM      6  C   UNL     1     141.889 140.063 141.859  1.00  0.00    -0.001 C 
ATOM      7  C   UNL     1     141.090 139.627 143.125  1.00  0.00     0.121 C 
ATOM      8  C   UNL     1     139.812 140.491 143.018  1.00  0.00     0.036 C 
ATOM      9  C   UNL     1     143.374 139.682 141.914  1.00  0.00     0.015 C 
ATOM     10  C   UNL     1     142.059 142.437 142.982  1.00  0.00     0.012 C 
ENDROOT
BRANCH   7  11
ATOM     11  O   UNL     1     140.791 138.254 143.116  1.00  0.00    -0.393 OA
ATOM     12  H   UNL     1     140.445 138.047 142.209  1.00  0.00     0.210 HD
ENDBRANCH   7  11
TORSDOF 1
ENDMDL
MODEL 8
REMARK VINA RESULT:    -3.269      7.553      9.136
REMARK INTER + INTRA:          -3.364
REMARK INTER:                  -3.364
REMARK INTRA:                   0.000
REMARK UNBOUND:                 0.000
REMARK SMILES CC1(C)[C@H]2CC[C@]1(C)[C@H](O)C2
REMARK SMILES IDX 1 1 2 2 4 3 5 4 6 5 7 6 9 7 11 8 8 9 3 10 10 11
REMARK H PARENT 10 12
REMARK Flexibility Score: inf
ROOT
ATOM      1  C   UNL     1     142.499 139.538 140.612  1.00  0.00     0.012 C 
ATOM      2  C   UNL     1     141.719 140.082 141.850  1.00  0.00    -0.025 C 
ATOM      3  C   UNL     1     141.456 141.597 141.802  1.00  0.00    -0.002 C 
ATOM      4  C   UNL     1     140.537 141.760 140.567  1.00  0.00     0.005 C 
ATOM      5  C   UNL     1     139.675 140.482 140.611  1.00  0.00     0.010 C 
ATOM      6  C   UNL     1     140.207 139.759 141.881  1.00  0.00    -0.001 C 
ATOM      7  C   UNL     1     139.709 140.560 143.122  1.00  0.00     0.121 C 
ATOM      8  C   UNL     1     140.561 141.849 143.042  1.00  0.00     0.036 C 
ATOM      9  C   UNL     1     139.843 138.269 141.930  1.00  0.00     0.015 C 
ATOM     10  C   UNL     1     142.536 139.627 143.100  1.00  0.00     0.012 C 
ENDROOT
BRANCH   7  11
ATOM     11  O   UNL     1     138.334 140.841 143.055  1.00  0.00    -0.393 OA
ATOM     12  H   UNL     1     137.895 140.256 143.725  1.00  0.00     0.210 HD
ENDBRANCH   7  11
TORSDOF 1
ENDMDL
