MODEL 1
REMARK VINA RESULT:    -7.314      0.000      0.000
REMARK INTER + INTRA:          -1.726
REMARK INTER:                  -8.597
REMARK INTRA:                   6.871
REMARK UNBOUND:                 6.871
REMARK SMILES O=c1c(-c2ccc(O)cc2)coc2c([C@@H]3O[C@H](CO)[C@@H](O)[C@@H](O)[C@@H]3O)c(O)ccc12
REMARK SMILES IDX 3 1 11 2 12 3 13 4 30 5 2 6 1 7 29 8 28 9 26 10 14 11 4 12
REMARK SMILES IDX 5 13 6 14 7 15 10 16 9 17 8 18 15 20 24 21 16 22 22 23 17 24
REMARK SMILES IDX 20 25 25 26 23 28 18 30 19 31 21 33 27 35
REMARK H PARENT 8 19 25 27 23 29 19 32 21 34 27 36
REMARK Flexibility Score: inf
ROOT
ATOM      1  C   UNL     1       3.714   2.716 -25.483  1.00  0.00     0.065 A 
ATOM      2  C   UNL     1       2.633   1.920 -25.874  1.00  0.00     0.208 A 
ATOM      3  O   UNL     1       2.511   0.675 -25.423  1.00  0.00    -0.463 OA
ATOM      4  C   UNL     1       3.404   0.128 -24.608  1.00  0.00     0.147 A 
ATOM      5  C   UNL     1       4.483   0.864 -24.127  1.00  0.00     0.066 A 
ATOM      6  C   UNL     1       4.645   2.187 -24.573  1.00  0.00     0.200 A 
ATOM      7  O   UNL     1       5.644   2.866 -24.217  1.00  0.00    -0.288 OA
ATOM      8  C   UNL     1       5.404   0.206 -23.310  1.00  0.00     0.020 A 
ATOM      9  C   UNL     1       5.374  -1.204 -23.195  1.00  0.00     0.047 A 
ATOM     10  C   UNL     1       4.391  -2.066 -23.920  1.00  0.00     0.125 A 
ATOM     11  C   UNL     1       3.308  -1.205 -24.229  1.00  0.00     0.069 A 
ENDROOT
BRANCH   1  12
ATOM     12  C   UNL     1       3.938   4.021 -26.139  1.00  0.00    -0.011 A 
ATOM     13  C   UNL     1       4.625   4.073 -27.363  1.00  0.00     0.013 A 
ATOM     14  C   UNL     1       4.809   5.295 -28.021  1.00  0.00     0.047 A 
ATOM     15  C   UNL     1       4.300   6.477 -27.462  1.00  0.00     0.115 A 
ATOM     16  C   UNL     1       3.480   5.212 -25.554  1.00  0.00     0.013 A 
ATOM     17  C   UNL     1       3.658   6.435 -26.219  1.00  0.00     0.047 A 
BRANCH  15  18
ATOM     18  O   UNL     1       4.437   7.692 -28.124  1.00  0.00    -0.508 OA
ATOM     19  H   UNL     1       4.947   7.764 -28.993  1.00  0.00     0.293 HD
ENDBRANCH  15  18
ENDBRANCH   1  12
BRANCH  11  20
ATOM     20  C   UNL     1       3.164  -2.303 -24.976  1.00  0.00     0.188 C 
ATOM     21  C   UNL     1       2.560  -3.815 -23.558  1.00  0.00     0.179 C 
ATOM     22  O   UNL     1       2.092  -1.590 -26.201  1.00  0.00    -0.362 OA
ATOM     23  C   UNL     1       0.643  -3.481 -23.107  1.00  0.00     0.177 C 
ATOM     24  C   UNL     1       0.448  -1.272 -25.808  1.00  0.00     0.176 C 
ATOM     25  C   UNL     1      -0.424  -2.201 -24.271  1.00  0.00     0.177 C 
BRANCH  21  26
ATOM     26  O   UNL     1       3.340  -3.769 -22.401  1.00  0.00    -0.387 OA
ATOM     27  H   UNL     1       4.244  -3.520 -22.705  1.00  0.00     0.211 HD
ENDBRANCH  21  26
BRANCH  23  28
ATOM     28  O   UNL     1      -0.017  -4.720 -23.107  1.00  0.00    -0.387 OA
ATOM     29  H   UNL     1       0.144  -5.111 -24.004  1.00  0.00     0.211 HD
ENDBRANCH  23  28
BRANCH  24  30
ATOM     30  C   UNL     1       0.192   0.236 -25.777  1.00  0.00     0.191 C 
BRANCH  30  31
ATOM     31  O   UNL     1      -0.179   0.690 -27.053  1.00  0.00    -0.394 OA
ATOM     32  H   UNL     1       0.538   1.313 -27.354  1.00  0.00     0.210 HD
ENDBRANCH  30  31
ENDBRANCH  24  30
BRANCH  25  33
ATOM     33  O   UNL     1      -1.491  -2.931 -24.824  1.00  0.00    -0.388 OA
ATOM     34  H   UNL     1      -2.236  -2.282 -24.959  1.00  0.00     0.211 HD
ENDBRANCH  25  33
ENDBRANCH  11  20
BRANCH  10  35
ATOM     35  O   UNL     1       4.408  -3.955 -24.662  1.00  0.00    -0.507 OA
ATOM     36  H   UNL     1       3.930  -4.810 -24.993  1.00  0.00     0.293 HD
ENDBRANCH  10  35
TORSDOF 9
ENDMDL
MODEL 2
REMARK VINA RESULT:    -7.140      1.727      3.149
REMARK INTER + INTRA:          -1.521
REMARK INTER:                  -8.090
REMARK INTRA:                   6.569
REMARK UNBOUND:                 6.871
REMARK SMILES O=c1c(-c2ccc(O)cc2)coc2c([C@@H]3O[C@H](CO)[C@@H](O)[C@@H](O)[C@@H]3O)c(O)ccc12
REMARK SMILES IDX 3 1 11 2 12 3 13 4 30 5 2 6 1 7 29 8 28 9 26 10 14 11 4 12
REMARK SMILES IDX 5 13 6 14 7 15 10 16 9 17 8 18 15 20 24 21 16 22 22 23 17 24
REMARK SMILES IDX 20 25 25 26 23 28 18 30 19 31 21 33 27 35
REMARK H PARENT 8 19 25 27 23 29 19 32 21 34 27 36
REMARK Flexibility Score: inf
ROOT
ATOM      1  C   UNL     1       3.779   3.836 -24.911  1.00  0.00     0.065 A 
ATOM      2  C   UNL     1       2.802   2.863 -25.146  1.00  0.00     0.208 A 
ATOM      3  O   UNL     1       2.857   1.686 -24.529  1.00  0.00    -0.463 OA
ATOM      4  C   UNL     1       3.836   1.373 -23.691  1.00  0.00     0.147 A 
ATOM      5  C   UNL     1       4.822   2.298 -23.359  1.00  0.00     0.066 A 
ATOM      6  C   UNL     1       4.796   3.557 -23.982  1.00  0.00     0.200 A 
ATOM      7  O   UNL     1       5.706   4.400 -23.762  1.00  0.00    -0.288 OA
ATOM      8  C   UNL     1       5.843   1.879 -22.504  1.00  0.00     0.020 A 
ATOM      9  C   UNL     1       6.002   0.506 -22.204  1.00  0.00     0.047 A 
ATOM     10  C   UNL     1       5.121  -0.565 -22.765  1.00  0.00     0.125 A 
ATOM     11  C   UNL     1       3.927   0.102 -23.136  1.00  0.00     0.069 A 
ENDROOT
BRANCH   1  12
ATOM     12  C   UNL     1       3.811   5.057 -25.741  1.00  0.00    -0.011 A 
ATOM     13  C   UNL     1       3.228   6.240 -25.257  1.00  0.00     0.013 A 
ATOM     14  C   UNL     1       3.286   7.419 -26.010  1.00  0.00     0.047 A 
ATOM     15  C   UNL     1       3.935   7.426 -27.254  1.00  0.00     0.115 A 
ATOM     16  C   UNL     1       4.410   5.053 -27.011  1.00  0.00     0.013 A 
ATOM     17  C   UNL     1       4.475   6.237 -27.761  1.00  0.00     0.047 A 
BRANCH  15  18
ATOM     18  O   UNL     1       4.039   8.599 -27.995  1.00  0.00    -0.508 OA
ATOM     19  H   UNL     1       3.233   9.180 -28.177  1.00  0.00     0.293 HD
ENDBRANCH  15  18
ENDBRANCH   1  12
BRANCH  11  20
ATOM     20  C   UNL     1       3.909  -1.097 -23.725  1.00  0.00     0.188 C 
ATOM     21  C   UNL     1       1.818  -1.432 -24.148  1.00  0.00     0.179 C 
ATOM     22  O   UNL     1       5.139  -0.746 -24.960  1.00  0.00    -0.362 OA
ATOM     23  C   UNL     1       1.335  -0.295 -25.718  1.00  0.00     0.177 C 
ATOM     24  C   UNL     1       4.737   0.257 -26.298  1.00  0.00     0.176 C 
ATOM     25  C   UNL     1       2.829   0.540 -26.814  1.00  0.00     0.177 C 
BRANCH  21  26
ATOM     26  O   UNL     1       1.018  -1.102 -23.053  1.00  0.00    -0.387 OA
ATOM     27  H   UNL     1       1.384  -1.618 -22.298  1.00  0.00     0.211 HD
ENDBRANCH  21  26
BRANCH  23  28
ATOM     28  O   UNL     1       0.548  -1.073 -26.582  1.00  0.00    -0.387 OA
ATOM     29  H   UNL     1      -0.082  -0.441 -27.015  1.00  0.00     0.211 HD
ENDBRANCH  23  28
BRANCH  24  30
ATOM     30  C   UNL     1       5.505   1.577 -26.221  1.00  0.00     0.191 C 
BRANCH  30  31
ATOM     31  O   UNL     1       5.979   1.937 -27.493  1.00  0.00    -0.394 OA
ATOM     32  H   UNL     1       6.955   2.109 -27.396  1.00  0.00     0.210 HD
ENDBRANCH  30  31
ENDBRANCH  24  30
BRANCH  25  33
ATOM     33  O   UNL     1       2.713   0.045 -28.124  1.00  0.00    -0.388 OA
ATOM     34  H   UNL     1       3.185   0.697 -28.715  1.00  0.00     0.211 HD
ENDBRANCH  25  33
ENDBRANCH  11  20
BRANCH  10  35
ATOM     35  O   UNL     1       5.367  -2.519 -23.253  1.00  0.00    -0.507 OA
ATOM     36  H   UNL     1       5.845  -3.431 -23.158  1.00  0.00     0.293 HD
ENDBRANCH  10  35
TORSDOF 9
ENDMDL
MODEL 3
REMARK VINA RESULT:    -7.086      1.470      1.831
REMARK INTER + INTRA:          -1.458
REMARK INTER:                  -9.168
REMARK INTRA:                   7.710
REMARK UNBOUND:                 6.871
REMARK SMILES O=c1c(-c2ccc(O)cc2)coc2c([C@@H]3O[C@H](CO)[C@@H](O)[C@@H](O)[C@@H]3O)c(O)ccc12
REMARK SMILES IDX 3 1 11 2 12 3 13 4 30 5 2 6 1 7 29 8 28 9 26 10 14 11 4 12
REMARK SMILES IDX 5 13 6 14 7 15 10 16 9 17 8 18 15 20 24 21 16 22 22 23 17 24
REMARK SMILES IDX 20 25 25 26 23 28 18 30 19 31 21 33 27 35
REMARK H PARENT 8 19 25 27 23 29 19 32 21 34 27 36
REMARK Flexibility Score: inf
ROOT
ATOM      1  C   UNL     1       3.866   4.282 -25.341  1.00  0.00     0.065 A 
ATOM      2  C   UNL     1       3.127   3.249 -25.926  1.00  0.00     0.208 A 
ATOM      3  O   UNL     1       3.130   2.030 -25.395  1.00  0.00    -0.463 OA
ATOM      4  C   UNL     1       3.837   1.732 -24.312  1.00  0.00     0.147 A 
ATOM      5  C   UNL     1       4.560   2.711 -23.635  1.00  0.00     0.066 A 
ATOM      6  C   UNL     1       4.578   4.015 -24.159  1.00  0.00     0.200 A 
ATOM      7  O   UNL     1       5.272   4.915 -23.617  1.00  0.00    -0.288 OA
ATOM      8  C   UNL     1       5.315   2.311 -22.531  1.00  0.00     0.020 A 
ATOM      9  C   UNL     1       5.536   0.937 -22.278  1.00  0.00     0.047 A 
ATOM     10  C   UNL     1       4.999  -0.155 -23.149  1.00  0.00     0.125 A 
ATOM     11  C   UNL     1       3.903   0.430 -23.834  1.00  0.00     0.069 A 
ENDROOT
BRANCH   1  12
ATOM     12  C   UNL     1       4.005   5.573 -26.045  1.00  0.00    -0.011 A 
ATOM     13  C   UNL     1       4.232   5.586 -27.432  1.00  0.00     0.013 A 
ATOM     14  C   UNL     1       4.323   6.799 -28.124  1.00  0.00     0.047 A 
ATOM     15  C   UNL     1       4.182   8.012 -27.435  1.00  0.00     0.115 A 
ATOM     16  C   UNL     1       3.922   6.789 -25.350  1.00  0.00     0.013 A 
ATOM     17  C   UNL     1       4.005   8.005 -26.046  1.00  0.00     0.047 A 
BRANCH  15  18
ATOM     18  O   UNL     1       4.228   9.225 -28.115  1.00  0.00    -0.508 OA
ATOM     19  H   UNL     1       4.865   9.373 -28.886  1.00  0.00     0.293 HD
ENDBRANCH  15  18
ENDBRANCH   1  12
BRANCH  11  20
ATOM     20  C   UNL     1       4.206  -0.705 -24.469  1.00  0.00     0.188 C 
ATOM     21  C   UNL     1       3.307  -2.238 -23.242  1.00  0.00     0.179 C 
ATOM     22  O   UNL     1       3.605  -0.221 -26.071  1.00  0.00    -0.362 OA
ATOM     23  C   UNL     1       1.339  -2.197 -23.579  1.00  0.00     0.177 C 
ATOM     24  C   UNL     1       1.911  -0.154 -26.356  1.00  0.00     0.176 C 
ATOM     25  C   UNL     1       0.644  -1.150 -25.177  1.00  0.00     0.177 C 
BRANCH  21  26
ATOM     26  O   UNL     1       3.567  -2.023 -21.888  1.00  0.00    -0.387 OA
ATOM     27  H   UNL     1       4.317  -2.622 -21.667  1.00  0.00     0.211 HD
ENDBRANCH  21  26
BRANCH  23  28
ATOM     28  O   UNL     1       0.900  -3.524 -23.707  1.00  0.00    -0.387 OA
ATOM     29  H   UNL     1       1.442  -4.050 -23.064  1.00  0.00     0.211 HD
ENDBRANCH  23  28
BRANCH  24  30
ATOM     30  C   UNL     1       1.465   1.293 -26.571  1.00  0.00     0.191 C 
BRANCH  30  31
ATOM     31  O   UNL     1       1.127   1.502 -27.918  1.00  0.00    -0.394 OA
ATOM     32  H   UNL     1       0.215   1.902 -27.926  1.00  0.00     0.210 HD
ENDBRANCH  30  31
ENDBRANCH  24  30
BRANCH  25  33
ATOM     33  O   UNL     1      -0.019  -2.062 -26.017  1.00  0.00    -0.388 OA
ATOM     34  H   UNL     1       0.644  -2.774 -26.238  1.00  0.00     0.211 HD
ENDBRANCH  25  33
ENDBRANCH  11  20
BRANCH  10  35
ATOM     35  O   UNL     1       5.608  -2.024 -23.651  1.00  0.00    -0.507 OA
ATOM     36  H   UNL     1       6.265  -2.678 -24.109  1.00  0.00     0.293 HD
ENDBRANCH  10  35
TORSDOF 9
ENDMDL
MODEL 4
REMARK VINA RESULT:    -7.071      2.259      7.976
REMARK INTER + INTRA:          -1.440
REMARK INTER:                  -8.335
REMARK INTRA:                   6.894
REMARK UNBOUND:                 6.871
REMARK SMILES O=c1c(-c2ccc(O)cc2)coc2c([C@@H]3O[C@H](CO)[C@@H](O)[C@@H](O)[C@@H]3O)c(O)ccc12
REMARK SMILES IDX 3 1 11 2 12 3 13 4 30 5 2 6 1 7 29 8 28 9 26 10 14 11 4 12
REMARK SMILES IDX 5 13 6 14 7 15 10 16 9 17 8 18 15 20 24 21 16 22 22 23 17 24
REMARK SMILES IDX 20 25 25 26 23 28 18 30 19 31 21 33 27 35
REMARK H PARENT 8 19 25 27 23 29 19 32 21 34 27 36
REMARK Flexibility Score: inf
ROOT
ATOM      1  C   UNL     1       3.987   0.392 -23.968  1.00  0.00     0.065 A 
ATOM      2  C   UNL     1       3.147   1.183 -24.757  1.00  0.00     0.208 A 
ATOM      3  O   UNL     1       3.286   2.506 -24.779  1.00  0.00    -0.463 OA
ATOM      4  C   UNL     1       4.200   3.132 -24.050  1.00  0.00     0.147 A 
ATOM      5  C   UNL     1       5.112   2.421 -23.275  1.00  0.00     0.066 A 
ATOM      6  C   UNL     1       5.005   1.021 -23.230  1.00  0.00     0.200 A 
ATOM      7  O   UNL     1       5.766   0.343 -22.490  1.00  0.00    -0.288 OA
ATOM      8  C   UNL     1       6.015   3.153 -22.501  1.00  0.00     0.020 A 
ATOM      9  C   UNL     1       5.833   4.544 -22.320  1.00  0.00     0.047 A 
ATOM     10  C   UNL     1       4.695   5.309 -22.918  1.00  0.00     0.125 A 
ATOM     11  C   UNL     1       4.261   4.519 -24.014  1.00  0.00     0.069 A 
ENDROOT
BRANCH   1  12
ATOM     12  C   UNL     1       3.700  -1.048 -23.806  1.00  0.00    -0.011 A 
ATOM     13  C   UNL     1       2.820  -1.470 -22.795  1.00  0.00     0.013 A 
ATOM     14  C   UNL     1       2.501  -2.826 -22.654  1.00  0.00     0.047 A 
ATOM     15  C   UNL     1       3.055  -3.772 -23.529  1.00  0.00     0.115 A 
ATOM     16  C   UNL     1       4.297  -2.003 -24.643  1.00  0.00     0.013 A 
ATOM     17  C   UNL     1       3.970  -3.361 -24.506  1.00  0.00     0.047 A 
BRANCH  15  18
ATOM     18  O   UNL     1       2.715  -5.117 -23.429  1.00  0.00    -0.508 OA
ATOM     19  H   UNL     1       3.305  -5.840 -23.818  1.00  0.00     0.293 HD
ENDBRANCH  15  18
ENDBRANCH   1  12
BRANCH  11  20
ATOM     20  C   UNL     1       3.302   5.416 -23.768  1.00  0.00     0.188 C 
ATOM     21  C   UNL     1       4.166   7.285 -24.416  1.00  0.00     0.179 C 
ATOM     22  O   UNL     1       1.992   4.567 -24.620  1.00  0.00    -0.362 OA
ATOM     23  C   UNL     1       4.121   7.306 -26.413  1.00  0.00     0.177 C 
ATOM     24  C   UNL     1       1.966   4.556 -26.339  1.00  0.00     0.176 C 
ATOM     25  C   UNL     1       2.983   5.925 -27.377  1.00  0.00     0.177 C 
BRANCH  21  26
ATOM     26  O   UNL     1       5.480   7.422 -23.964  1.00  0.00    -0.387 OA
ATOM     27  H   UNL     1       5.907   8.051 -24.592  1.00  0.00     0.211 HD
ENDBRANCH  21  26
BRANCH  23  28
ATOM     28  O   UNL     1       3.692   8.580 -26.817  1.00  0.00    -0.387 OA
ATOM     29  H   UNL     1       2.701   8.552 -26.785  1.00  0.00     0.211 HD
ENDBRANCH  23  28
BRANCH  24  30
ATOM     30  C   UNL     1       2.222   3.142 -26.865  1.00  0.00     0.191 C 
BRANCH  30  31
ATOM     31  O   UNL     1       1.004   2.492 -27.119  1.00  0.00    -0.394 OA
ATOM     32  H   UNL     1       0.282   3.104 -26.807  1.00  0.00     0.210 HD
ENDBRANCH  30  31
ENDBRANCH  24  30
BRANCH  25  33
ATOM     33  O   UNL     1       2.021   6.626 -28.125  1.00  0.00    -0.388 OA
ATOM     34  H   UNL     1       1.205   6.052 -28.143  1.00  0.00     0.211 HD
ENDBRANCH  25  33
ENDBRANCH  11  20
BRANCH  10  35
ATOM     35  O   UNL     1       3.630   6.952 -22.387  1.00  0.00    -0.507 OA
ATOM     36  H   UNL     1       3.483   7.797 -21.811  1.00  0.00     0.293 HD
ENDBRANCH  10  35
TORSDOF 9
ENDMDL
MODEL 5
REMARK VINA RESULT:    -7.015      1.424      2.592
REMARK INTER + INTRA:          -1.374
REMARK INTER:                  -7.634
REMARK INTRA:                   6.260
REMARK UNBOUND:                 6.871
REMARK SMILES O=c1c(-c2ccc(O)cc2)coc2c([C@@H]3O[C@H](CO)[C@@H](O)[C@@H](O)[C@@H]3O)c(O)ccc12
REMARK SMILES IDX 3 1 11 2 12 3 13 4 30 5 2 6 1 7 29 8 28 9 26 10 14 11 4 12
REMARK SMILES IDX 5 13 6 14 7 15 10 16 9 17 8 18 15 20 24 21 16 22 22 23 17 24
REMARK SMILES IDX 20 25 25 26 23 28 18 30 19 31 21 33 27 35
REMARK H PARENT 8 19 25 27 23 29 19 32 21 34 27 36
REMARK Flexibility Score: inf
ROOT
ATOM      1  C   UNL     1       3.688   2.295 -25.102  1.00  0.00     0.065 A 
ATOM      2  C   UNL     1       2.455   1.636 -25.088  1.00  0.00     0.208 A 
ATOM      3  O   UNL     1       2.328   0.449 -24.501  1.00  0.00    -0.463 OA
ATOM      4  C   UNL     1       3.352  -0.168 -23.927  1.00  0.00     0.147 A 
ATOM      5  C   UNL     1       4.604   0.437 -23.849  1.00  0.00     0.066 A 
ATOM      6  C   UNL     1       4.779   1.695 -24.449  1.00  0.00     0.200 A 
ATOM      7  O   UNL     1       5.910   2.248 -24.462  1.00  0.00    -0.288 OA
ATOM      8  C   UNL     1       5.642  -0.295 -23.270  1.00  0.00     0.020 A 
ATOM      9  C   UNL     1       5.484  -1.677 -23.014  1.00  0.00     0.047 A 
ATOM     10  C   UNL     1       4.236  -2.435 -23.340  1.00  0.00     0.125 A 
ATOM     11  C   UNL     1       3.218  -1.450 -23.409  1.00  0.00     0.069 A 
ENDROOT
BRANCH   1  12
ATOM     12  C   UNL     1       3.857   3.515 -25.917  1.00  0.00    -0.011 A 
ATOM     13  C   UNL     1       3.157   4.683 -25.572  1.00  0.00     0.013 A 
ATOM     14  C   UNL     1       3.338   5.861 -26.307  1.00  0.00     0.047 A 
ATOM     15  C   UNL     1       4.227   5.882 -27.391  1.00  0.00     0.115 A 
ATOM     16  C   UNL     1       4.702   3.524 -27.038  1.00  0.00     0.013 A 
ATOM     17  C   UNL     1       4.889   4.708 -27.768  1.00  0.00     0.047 A 
BRANCH  15  18
ATOM     18  O   UNL     1       4.450   7.056 -28.104  1.00  0.00    -0.508 OA
ATOM     19  H   UNL     1       4.869   7.866 -27.668  1.00  0.00     0.293 HD
ENDBRANCH  15  18
ENDBRANCH   1  12
BRANCH  11  20
ATOM     20  C   UNL     1       2.733  -2.559 -23.973  1.00  0.00     0.188 C 
ATOM     21  C   UNL     1       0.603  -2.215 -24.039  1.00  0.00     0.179 C 
ATOM     22  O   UNL     1       3.795  -2.556 -25.399  1.00  0.00    -0.362 OA
ATOM     23  C   UNL     1       0.251  -0.922 -25.519  1.00  0.00     0.177 C 
ATOM     24  C   UNL     1       3.515  -1.424 -26.662  1.00  0.00     0.176 C 
ATOM     25  C   UNL     1       1.733  -0.544 -26.858  1.00  0.00     0.177 C 
BRANCH  21  26
ATOM     26  O   UNL     1       0.133  -1.699 -22.829  1.00  0.00    -0.387 OA
ATOM     27  H   UNL     1      -0.826  -1.526 -22.975  1.00  0.00     0.211 HD
ENDBRANCH  21  26
BRANCH  23  28
ATOM     28  O   UNL     1      -0.868  -1.382 -26.231  1.00  0.00    -0.387 OA
ATOM     29  H   UNL     1      -0.630  -1.300 -27.190  1.00  0.00     0.211 HD
ENDBRANCH  23  28
BRANCH  24  30
ATOM     30  C   UNL     1       4.658  -0.410 -26.730  1.00  0.00     0.191 C 
BRANCH  30  31
ATOM     31  O   UNL     1       5.894  -1.075 -26.777  1.00  0.00    -0.394 OA
ATOM     32  H   UNL     1       5.695  -2.050 -26.751  1.00  0.00     0.210 HD
ENDBRANCH  30  31
ENDBRANCH  24  30
BRANCH  25  33
ATOM     33  O   UNL     1       1.259  -0.925 -28.125  1.00  0.00    -0.388 OA
ATOM     34  H   UNL     1       1.888  -1.621 -28.464  1.00  0.00     0.211 HD
ENDBRANCH  25  33
ENDBRANCH  11  20
BRANCH  10  35
ATOM     35  O   UNL     1       3.812  -4.347 -23.869  1.00  0.00    -0.507 OA
ATOM     36  H   UNL     1       3.494  -5.306 -23.649  1.00  0.00     0.293 HD
ENDBRANCH  10  35
TORSDOF 9
ENDMDL
MODEL 6
REMARK VINA RESULT:    -6.983      2.799      4.456
REMARK INTER + INTRA:          -1.337
REMARK INTER:                  -7.923
REMARK INTRA:                   6.586
REMARK UNBOUND:                 6.871
REMARK SMILES O=c1c(-c2ccc(O)cc2)coc2c([C@@H]3O[C@H](CO)[C@@H](O)[C@@H](O)[C@@H]3O)c(O)ccc12
REMARK SMILES IDX 3 1 11 2 12 3 13 4 30 5 2 6 1 7 29 8 28 9 26 10 14 11 4 12
REMARK SMILES IDX 5 13 6 14 7 15 10 16 9 17 8 18 15 20 24 21 16 22 22 23 17 24
REMARK SMILES IDX 20 25 25 26 23 28 18 30 19 31 21 33 27 35
REMARK H PARENT 8 19 25 27 23 29 19 32 21 34 27 36
REMARK Flexibility Score: inf
ROOT
ATOM      1  C   UNL     1       3.632   1.271 -22.959  1.00  0.00     0.065 A 
ATOM      2  C   UNL     1       2.871   1.032 -24.107  1.00  0.00     0.208 A 
ATOM      3  O   UNL     1       2.129  -0.068 -24.211  1.00  0.00    -0.463 OA
ATOM      4  C   UNL     1       2.090  -0.986 -23.255  1.00  0.00     0.147 A 
ATOM      5  C   UNL     1       2.775  -0.805 -22.056  1.00  0.00     0.066 A 
ATOM      6  C   UNL     1       3.565   0.346 -21.902  1.00  0.00     0.200 A 
ATOM      7  O   UNL     1       4.254   0.517 -20.862  1.00  0.00    -0.288 OA
ATOM      8  C   UNL     1       2.721  -1.837 -21.117  1.00  0.00     0.020 A 
ATOM      9  C   UNL     1       2.210  -3.105 -21.480  1.00  0.00     0.047 A 
ATOM     10  C   UNL     1       1.710  -3.427 -22.853  1.00  0.00     0.125 A 
ATOM     11  C   UNL     1       1.387  -2.172 -23.427  1.00  0.00     0.069 A 
ENDROOT
BRANCH   1  12
ATOM     12  C   UNL     1       4.592   2.393 -22.937  1.00  0.00    -0.011 A 
ATOM     13  C   UNL     1       5.822   2.266 -23.606  1.00  0.00     0.013 A 
ATOM     14  C   UNL     1       6.727   3.333 -23.633  1.00  0.00     0.047 A 
ATOM     15  C   UNL     1       6.407   4.541 -22.997  1.00  0.00     0.115 A 
ATOM     16  C   UNL     1       4.300   3.583 -22.253  1.00  0.00     0.013 A 
ATOM     17  C   UNL     1       5.205   4.655 -22.289  1.00  0.00     0.047 A 
BRANCH  15  18
ATOM     18  O   UNL     1       7.277   5.625 -23.052  1.00  0.00    -0.508 OA
ATOM     19  H   UNL     1       7.461   6.196 -22.238  1.00  0.00     0.293 HD
ENDBRANCH  15  18
ENDBRANCH   1  12
BRANCH  11  20
ATOM     20  C   UNL     1       1.432  -3.061 -24.422  1.00  0.00     0.188 C 
ATOM     21  C   UNL     1       0.706  -1.960 -26.132  1.00  0.00     0.179 C 
ATOM     22  O   UNL     1       3.124  -3.555 -24.191  1.00  0.00    -0.362 OA
ATOM     23  C   UNL     1       2.172  -0.740 -26.725  1.00  0.00     0.177 C 
ATOM     24  C   UNL     1       4.390  -2.495 -24.672  1.00  0.00     0.176 C 
ATOM     25  C   UNL     1       4.045  -1.036 -25.990  1.00  0.00     0.177 C 
BRANCH  21  26
ATOM     26  O   UNL     1      -0.434  -1.220 -25.814  1.00  0.00    -0.387 OA
ATOM     27  H   UNL     1      -0.165  -0.276 -25.900  1.00  0.00     0.211 HD
ENDBRANCH  21  26
BRANCH  23  28
ATOM     28  O   UNL     1       2.241  -0.805 -28.125  1.00  0.00    -0.387 OA
ATOM     29  H   UNL     1       2.139   0.128 -28.444  1.00  0.00     0.211 HD
ENDBRANCH  23  28
BRANCH  24  30
ATOM     30  C   UNL     1       5.148  -1.982 -23.446  1.00  0.00     0.191 C 
BRANCH  30  31
ATOM     31  O   UNL     1       6.532  -2.119 -23.639  1.00  0.00    -0.394 OA
ATOM     32  H   UNL     1       6.881  -2.626 -22.856  1.00  0.00     0.210 HD
ENDBRANCH  30  31
ENDBRANCH  24  30
BRANCH  25  33
ATOM     33  O   UNL     1       4.884  -1.306 -27.084  1.00  0.00    -0.388 OA
ATOM     34  H   UNL     1       4.349  -1.113 -27.904  1.00  0.00     0.211 HD
ENDBRANCH  25  33
ENDBRANCH  11  20
BRANCH  10  35
ATOM     35  O   UNL     1       1.634  -5.099 -24.000  1.00  0.00    -0.507 OA
ATOM     36  H   UNL     1       1.230  -5.662 -24.768  1.00  0.00     0.293 HD
ENDBRANCH  10  35
TORSDOF 9
ENDMDL
MODEL 7
REMARK VINA RESULT:    -6.723      2.137      3.189
REMARK INTER + INTRA:          -1.031
REMARK INTER:                  -7.943
REMARK INTRA:                   6.912
REMARK UNBOUND:                 6.871
REMARK SMILES O=c1c(-c2ccc(O)cc2)coc2c([C@@H]3O[C@H](CO)[C@@H](O)[C@@H](O)[C@@H]3O)c(O)ccc12
REMARK SMILES IDX 3 1 11 2 12 3 13 4 30 5 2 6 1 7 29 8 28 9 26 10 14 11 4 12
REMARK SMILES IDX 5 13 6 14 7 15 10 16 9 17 8 18 15 20 24 21 16 22 22 23 17 24
REMARK SMILES IDX 20 25 25 26 23 28 18 30 19 31 21 33 27 35
REMARK H PARENT 8 19 25 27 23 29 19 32 21 34 27 36
REMARK Flexibility Score: inf
ROOT
ATOM      1  C   UNL     1       2.929   5.419 -25.515  1.00  0.00     0.065 A 
ATOM      2  C   UNL     1       2.624   4.232 -26.188  1.00  0.00     0.208 A 
ATOM      3  O   UNL     1       2.836   3.052 -25.611  1.00  0.00    -0.463 OA
ATOM      4  C   UNL     1       3.358   2.944 -24.396  1.00  0.00     0.147 A 
ATOM      5  C   UNL     1       3.643   4.073 -23.633  1.00  0.00     0.066 A 
ATOM      6  C   UNL     1       3.427   5.339 -24.203  1.00  0.00     0.200 A 
ATOM      7  O   UNL     1       3.734   6.387 -23.574  1.00  0.00    -0.288 OA
ATOM      8  C   UNL     1       4.233   3.879 -22.383  1.00  0.00     0.020 A 
ATOM      9  C   UNL     1       4.748   2.610 -22.027  1.00  0.00     0.047 A 
ATOM     10  C   UNL     1       4.707   1.423 -22.937  1.00  0.00     0.125 A 
ATOM     11  C   UNL     1       3.662   1.702 -23.854  1.00  0.00     0.069 A 
ENDROOT
BRANCH   1  12
ATOM     12  C   UNL     1       2.868   6.706 -26.236  1.00  0.00    -0.011 A 
ATOM     13  C   UNL     1       1.623   7.322 -26.452  1.00  0.00     0.013 A 
ATOM     14  C   UNL     1       1.548   8.564 -27.095  1.00  0.00     0.047 A 
ATOM     15  C   UNL     1       2.721   9.203 -27.523  1.00  0.00     0.115 A 
ATOM     16  C   UNL     1       4.034   7.322 -26.717  1.00  0.00     0.013 A 
ATOM     17  C   UNL     1       3.958   8.570 -27.354  1.00  0.00     0.047 A 
BRANCH  15  18
ATOM     18  O   UNL     1       2.667  10.457 -28.125  1.00  0.00    -0.508 OA
ATOM     19  H   UNL     1       2.741  10.563 -29.127  1.00  0.00     0.293 HD
ENDBRANCH  15  18
ENDBRANCH   1  12
BRANCH  11  20
ATOM     20  C   UNL     1       4.376   0.693 -24.362  1.00  0.00     0.188 C 
ATOM     21  C   UNL     1       3.945  -0.959 -23.041  1.00  0.00     0.179 C 
ATOM     22  O   UNL     1       3.777   0.827 -26.031  1.00  0.00    -0.362 OA
ATOM     23  C   UNL     1       2.109  -1.613 -23.479  1.00  0.00     0.177 C 
ATOM     24  C   UNL     1       2.185   0.294 -26.406  1.00  0.00     0.176 C 
ATOM     25  C   UNL     1       1.234  -0.984 -25.202  1.00  0.00     0.177 C 
BRANCH  21  26
ATOM     26  O   UNL     1       4.010  -0.571 -21.702  1.00  0.00    -0.387 OA
ATOM     27  H   UNL     1       4.652   0.176 -21.678  1.00  0.00     0.211 HD
ENDBRANCH  21  26
BRANCH  23  28
ATOM     28  O   UNL     1       2.150  -3.016 -23.501  1.00  0.00    -0.387 OA
ATOM     29  H   UNL     1       2.098  -3.272 -24.458  1.00  0.00     0.211 HD
ENDBRANCH  23  28
BRANCH  24  30
ATOM     30  C   UNL     1       1.301   1.485 -26.780  1.00  0.00     0.191 C 
BRANCH  30  31
ATOM     31  O   UNL     1       1.513   1.844 -28.121  1.00  0.00    -0.394 OA
ATOM     32  H   UNL     1       1.971   1.072 -28.554  1.00  0.00     0.210 HD
ENDBRANCH  30  31
ENDBRANCH  24  30
BRANCH  25  33
ATOM     33  O   UNL     1       0.982  -2.125 -25.983  1.00  0.00    -0.388 OA
ATOM     34  H   UNL     1       0.684  -1.795 -26.876  1.00  0.00     0.211 HD
ENDBRANCH  25  33
ENDBRANCH  11  20
BRANCH  10  35
ATOM     35  O   UNL     1       5.874  -0.213 -23.219  1.00  0.00    -0.507 OA
ATOM     36  H   UNL     1       6.048  -1.230 -23.164  1.00  0.00     0.293 HD
ENDBRANCH  10  35
TORSDOF 9
ENDMDL
MODEL 8
REMARK VINA RESULT:    -6.237      1.870      8.379
REMARK INTER + INTRA:          -0.459
REMARK INTER:                  -7.531
REMARK INTRA:                   7.072
REMARK UNBOUND:                 6.871
REMARK SMILES O=c1c(-c2ccc(O)cc2)coc2c([C@@H]3O[C@H](CO)[C@@H](O)[C@@H](O)[C@@H]3O)c(O)ccc12
REMARK SMILES IDX 3 1 11 2 12 3 13 4 30 5 2 6 1 7 29 8 28 9 26 10 14 11 4 12
REMARK SMILES IDX 5 13 6 14 7 15 10 16 9 17 8 18 15 20 24 21 16 22 22 23 17 24
REMARK SMILES IDX 20 25 25 26 23 28 18 30 19 31 21 33 27 35
REMARK H PARENT 8 19 25 27 23 29 19 32 21 34 27 36
REMARK Flexibility Score: inf
ROOT
ATOM      1  C   UNL     1       2.653   0.057 -24.388  1.00  0.00     0.065 A 
ATOM      2  C   UNL     1       3.449   0.982 -23.706  1.00  0.00     0.208 A 
ATOM      3  O   UNL     1       3.754   2.152 -24.260  1.00  0.00    -0.463 OA
ATOM      4  C   UNL     1       3.342   2.486 -25.476  1.00  0.00     0.147 A 
ATOM      5  C   UNL     1       2.503   1.649 -26.206  1.00  0.00     0.066 A 
ATOM      6  C   UNL     1       2.150   0.406 -25.654  1.00  0.00     0.200 A 
ATOM      7  O   UNL     1       1.449  -0.411 -26.308  1.00  0.00    -0.288 OA
ATOM      8  C   UNL     1       2.149   2.050 -27.496  1.00  0.00     0.020 A 
ATOM      9  C   UNL     1       2.823   3.128 -28.117  1.00  0.00     0.047 A 
ATOM     10  C   UNL     1       3.932   3.889 -27.463  1.00  0.00     0.125 A 
ATOM     11  C   UNL     1       3.755   3.671 -26.073  1.00  0.00     0.069 A 
ENDROOT
BRANCH   1  12
ATOM     12  C   UNL     1       2.482  -1.305 -23.844  1.00  0.00    -0.011 A 
ATOM     13  C   UNL     1       3.594  -2.160 -23.753  1.00  0.00     0.013 A 
ATOM     14  C   UNL     1       3.461  -3.439 -23.200  1.00  0.00     0.047 A 
ATOM     15  C   UNL     1       2.214  -3.873 -22.726  1.00  0.00     0.115 A 
ATOM     16  C   UNL     1       1.224  -1.764 -23.422  1.00  0.00     0.013 A 
ATOM     17  C   UNL     1       1.095  -3.043 -22.860  1.00  0.00     0.047 A 
BRANCH  15  18
ATOM     18  O   UNL     1       2.075  -5.125 -22.135  1.00  0.00    -0.508 OA
ATOM     19  H   UNL     1       2.475  -5.953 -22.554  1.00  0.00     0.293 HD
ENDBRANCH  15  18
ENDBRANCH   1  12
BRANCH  11  20
ATOM     20  C   UNL     1       4.984   4.166 -26.242  1.00  0.00     0.188 C 
ATOM     21  C   UNL     1       4.638   6.200 -26.875  1.00  0.00     0.179 C 
ATOM     22  O   UNL     1       5.620   3.706 -24.646  1.00  0.00    -0.362 OA
ATOM     23  C   UNL     1       4.089   7.245 -25.264  1.00  0.00     0.177 C 
ATOM     24  C   UNL     1       5.127   4.583 -23.251  1.00  0.00     0.176 C 
ATOM     25  C   UNL     1       4.362   6.419 -23.427  1.00  0.00     0.177 C 
BRANCH  21  26
ATOM     26  O   UNL     1       3.642   6.267 -27.852  1.00  0.00    -0.387 OA
ATOM     27  H   UNL     1       4.049   6.752 -28.607  1.00  0.00     0.211 HD
ENDBRANCH  21  26
BRANCH  23  28
ATOM     28  O   UNL     1       4.776   8.468 -25.295  1.00  0.00    -0.387 OA
ATOM     29  H   UNL     1       4.618   8.843 -26.199  1.00  0.00     0.211 HD
ENDBRANCH  23  28
BRANCH  24  30
ATOM     30  C   UNL     1       4.272   3.698 -22.343  1.00  0.00     0.191 C 
BRANCH  30  31
ATOM     31  O   UNL     1       5.067   2.705 -21.747  1.00  0.00    -0.394 OA
ATOM     32  H   UNL     1       5.740   2.430 -22.427  1.00  0.00     0.210 HD
ENDBRANCH  30  31
ENDBRANCH  24  30
BRANCH  25  33
ATOM     33  O   UNL     1       5.233   7.262 -22.715  1.00  0.00    -0.388 OA
ATOM     34  H   UNL     1       4.673   7.741 -22.042  1.00  0.00     0.211 HD
ENDBRANCH  25  33
ENDBRANCH  11  20
BRANCH  10  35
ATOM     35  O   UNL     1       5.584   4.870 -28.117  1.00  0.00    -0.507 OA
ATOM     36  H   UNL     1       6.446   4.928 -28.685  1.00  0.00     0.293 HD
ENDBRANCH  10  35
TORSDOF 9
ENDMDL
MODEL 9
REMARK VINA RESULT:    -5.755      2.030      7.919
REMARK INTER + INTRA:           0.107
REMARK INTER:                  -6.766
REMARK INTRA:                   6.873
REMARK UNBOUND:                 6.871
REMARK SMILES O=c1c(-c2ccc(O)cc2)coc2c([C@@H]3O[C@H](CO)[C@@H](O)[C@@H](O)[C@@H]3O)c(O)ccc12
REMARK SMILES IDX 3 1 11 2 12 3 13 4 30 5 2 6 1 7 29 8 28 9 26 10 14 11 4 12
REMARK SMILES IDX 5 13 6 14 7 15 10 16 9 17 8 18 15 20 24 21 16 22 22 23 17 24
REMARK SMILES IDX 20 25 25 26 23 28 18 30 19 31 21 33 27 35
REMARK H PARENT 8 19 25 27 23 29 19 32 21 34 27 36
REMARK Flexibility Score: inf
ROOT
ATOM      1  C   UNL     1       3.040   0.984 -24.560  1.00  0.00     0.065 A 
ATOM      2  C   UNL     1       3.511   2.065 -23.808  1.00  0.00     0.208 A 
ATOM      3  O   UNL     1       3.459   3.302 -24.294  1.00  0.00    -0.463 OA
ATOM      4  C   UNL     1       2.984   3.566 -25.504  1.00  0.00     0.147 A 
ATOM      5  C   UNL     1       2.447   2.559 -26.300  1.00  0.00     0.066 A 
ATOM      6  C   UNL     1       2.475   1.238 -25.822  1.00  0.00     0.200 A 
ATOM      7  O   UNL     1       2.062   0.287 -26.537  1.00  0.00    -0.288 OA
ATOM      8  C   UNL     1       2.009   2.908 -27.579  1.00  0.00     0.020 A 
ATOM      9  C   UNL     1       2.337   4.171 -28.125  1.00  0.00     0.047 A 
ATOM     10  C   UNL     1       3.156   5.191 -27.399  1.00  0.00     0.125 A 
ATOM     11  C   UNL     1       3.032   4.852 -26.028  1.00  0.00     0.069 A 
ENDROOT
BRANCH   1  12
ATOM     12  C   UNL     1       3.279  -0.395 -24.089  1.00  0.00    -0.011 A 
ATOM     13  C   UNL     1       2.352  -1.004 -23.225  1.00  0.00     0.013 A 
ATOM     14  C   UNL     1       2.538  -2.325 -22.803  1.00  0.00     0.047 A 
ATOM     15  C   UNL     1       3.652  -3.053 -23.247  1.00  0.00     0.115 A 
ATOM     16  C   UNL     1       4.422  -1.107 -24.485  1.00  0.00     0.013 A 
ATOM     17  C   UNL     1       4.603  -2.435 -24.068  1.00  0.00     0.047 A 
BRANCH  15  18
ATOM     18  O   UNL     1       3.829  -4.381 -22.871  1.00  0.00    -0.508 OA
ATOM     19  H   UNL     1       3.050  -5.024 -22.829  1.00  0.00     0.293 HD
ENDBRANCH  15  18
ENDBRANCH   1  12
BRANCH  11  20
ATOM     20  C   UNL     1       4.058   5.700 -26.133  1.00  0.00     0.188 C 
ATOM     21  C   UNL     1       4.154   6.635 -24.190  1.00  0.00     0.179 C 
ATOM     22  O   UNL     1       5.245   4.525 -26.742  1.00  0.00    -0.362 OA
ATOM     23  C   UNL     1       4.959   5.313 -22.928  1.00  0.00     0.177 C 
ATOM     24  C   UNL     1       5.918   3.365 -25.666  1.00  0.00     0.176 C 
ATOM     25  C   UNL     1       5.871   3.665 -23.693  1.00  0.00     0.177 C 
BRANCH  21  26
ATOM     26  O   UNL     1       2.887   7.014 -23.744  1.00  0.00    -0.387 OA
ATOM     27  H   UNL     1       2.393   7.278 -24.554  1.00  0.00     0.211 HD
ENDBRANCH  21  26
BRANCH  23  28
ATOM     28  O   UNL     1       5.894   5.996 -22.134  1.00  0.00    -0.387 OA
ATOM     29  H   UNL     1       6.480   5.296 -21.747  1.00  0.00     0.211 HD
ENDBRANCH  23  28
BRANCH  24  30
ATOM     30  C   UNL     1       5.443   1.959 -26.037  1.00  0.00     0.191 C 
BRANCH  30  31
ATOM     31  O   UNL     1       5.726   1.692 -27.386  1.00  0.00    -0.394 OA
ATOM     32  H   UNL     1       6.153   2.512 -27.756  1.00  0.00     0.210 HD
ENDBRANCH  30  31
ENDBRANCH  24  30
BRANCH  25  33
ATOM     33  O   UNL     1       7.214   3.703 -23.282  1.00  0.00    -0.388 OA
ATOM     34  H   UNL     1       7.762   3.510 -24.093  1.00  0.00     0.211 HD
ENDBRANCH  25  33
ENDBRANCH  11  20
BRANCH  10  35
ATOM     35  O   UNL     1       4.446   6.656 -27.952  1.00  0.00    -0.507 OA
ATOM     36  H   UNL     1       5.127   7.404 -27.734  1.00  0.00     0.293 HD
ENDBRANCH  10  35
TORSDOF 9
ENDMDL
