MODEL 1
REMARK VINA RESULT:    -2.952      0.000      0.000
REMARK INTER + INTRA:          -2.952
REMARK INTER:                  -2.952
REMARK INTRA:                   0.000
REMARK UNBOUND:                 0.000
REMARK SMILES CC(C)=C1CC[C@@H](C)CC1=O
REMARK SMILES IDX 8 1 7 2 6 3 5 4 4 5 2 6 1 7 3 8 10 9 11 10 9 11
REMARK H PARENT
REMARK Flexibility Score: inf
ROOT
ATOM      1  C   UNL     1      13.578  30.368  83.760  1.00  0.00     0.008 C 
ATOM      2  C   UNL     1      13.139  30.596  82.308  1.00  0.00    -0.006 C 
ATOM      3  C   UNL     1      14.347  30.957  81.428  1.00  0.00     0.008 C 
ATOM      4  C   UNL     1      13.944  31.090  79.954  1.00  0.00     0.039 C 
ATOM      5  C   UNL     1      12.769  32.039  79.753  1.00  0.00    -0.006 C 
ATOM      6  C   UNL     1      12.649  32.786  78.618  1.00  0.00    -0.070 C 
ATOM      7  C   UNL     1      11.518  33.773  78.431  1.00  0.00     0.039 C 
ATOM      8  C   UNL     1      13.665  32.690  77.503  1.00  0.00     0.039 C 
ATOM      9  C   UNL     1      11.715  32.010  80.810  1.00  0.00     0.159 C 
ATOM     10  O   UNL     1      10.505  32.228  80.535  1.00  0.00    -0.295 OA
ATOM     11  C   UNL     1      12.085  31.711  82.235  1.00  0.00     0.084 C 
ENDROOT
TORSDOF 0
ENDMDL
MODEL 2
REMARK VINA RESULT:    -2.886      2.097      4.514
REMARK INTER + INTRA:          -2.886
REMARK INTER:                  -2.886
REMARK INTRA:                   0.000
REMARK UNBOUND:                 0.000
REMARK SMILES CC(C)=C1CC[C@@H](C)CC1=O
REMARK SMILES IDX 8 1 7 2 6 3 5 4 4 5 2 6 1 7 3 8 10 9 11 10 9 11
REMARK H PARENT
REMARK Flexibility Score: inf
ROOT
ATOM      1  C   UNL     1      10.628  32.346  80.758  1.00  0.00     0.008 C 
ATOM      2  C   UNL     1      11.808  31.462  81.178  1.00  0.00    -0.006 C 
ATOM      3  C   UNL     1      12.213  31.755  82.632  1.00  0.00     0.008 C 
ATOM      4  C   UNL     1      13.326  30.810  83.103  1.00  0.00     0.039 C 
ATOM      5  C   UNL     1      14.518  30.793  82.155  1.00  0.00    -0.006 C 
ATOM      6  C   UNL     1      15.786  30.588  82.615  1.00  0.00    -0.070 C 
ATOM      7  C   UNL     1      16.984  30.625  81.693  1.00  0.00     0.039 C 
ATOM      8  C   UNL     1      16.059  30.350  84.083  1.00  0.00     0.039 C 
ATOM      9  C   UNL     1      14.200  30.896  80.700  1.00  0.00     0.159 C 
ATOM     10  O   UNL     1      14.913  30.327  79.831  1.00  0.00    -0.295 OA
ATOM     11  C   UNL     1      13.006  31.686  80.244  1.00  0.00     0.084 C 
ENDROOT
TORSDOF 0
ENDMDL
MODEL 3
REMARK VINA RESULT:    -2.836      7.032      8.831
REMARK INTER + INTRA:          -2.836
REMARK INTER:                  -2.836
REMARK INTRA:                   0.000
REMARK UNBOUND:                 0.000
REMARK SMILES CC(C)=C1CC[C@@H](C)CC1=O
REMARK SMILES IDX 8 1 7 2 6 3 5 4 4 5 2 6 1 7 3 8 10 9 11 10 9 11
REMARK H PARENT
REMARK Flexibility Score: inf
ROOT
ATOM      1  C   UNL     1       5.228  31.716  77.360  1.00  0.00     0.008 C 
ATOM      2  C   UNL     1       5.263  32.073  78.851  1.00  0.00    -0.006 C 
ATOM      3  C   UNL     1       6.246  31.160  79.603  1.00  0.00     0.008 C 
ATOM      4  C   UNL     1       6.370  31.568  81.077  1.00  0.00     0.039 C 
ATOM      5  C   UNL     1       5.018  31.670  81.771  1.00  0.00    -0.006 C 
ATOM      6  C   UNL     1       4.880  31.384  83.098  1.00  0.00    -0.070 C 
ATOM      7  C   UNL     1       3.534  31.427  83.785  1.00  0.00     0.039 C 
ATOM      8  C   UNL     1       6.066  30.972  83.940  1.00  0.00     0.039 C 
ATOM      9  C   UNL     1       3.896  32.208  80.945  1.00  0.00     0.159 C 
ATOM     10  O   UNL     1       2.968  32.885  81.463  1.00  0.00    -0.295 OA
ATOM     11  C   UNL     1       3.861  31.952  79.466  1.00  0.00     0.084 C 
ENDROOT
TORSDOF 0
ENDMDL
MODEL 4
REMARK VINA RESULT:    -2.785      2.004      3.452
REMARK INTER + INTRA:          -2.785
REMARK INTER:                  -2.785
REMARK INTRA:                   0.000
REMARK UNBOUND:                 0.000
REMARK SMILES CC(C)=C1CC[C@@H](C)CC1=O
REMARK SMILES IDX 8 1 7 2 6 3 5 4 4 5 2 6 1 7 3 8 10 9 11 10 9 11
REMARK H PARENT
REMARK Flexibility Score: inf
ROOT
ATOM      1  C   UNL     1      10.333  32.504  81.328  1.00  0.00     0.008 C 
ATOM      2  C   UNL     1      11.807  32.433  80.914  1.00  0.00    -0.006 C 
ATOM      3  C   UNL     1      11.941  32.465  79.383  1.00  0.00     0.008 C 
ATOM      4  C   UNL     1      13.413  32.496  78.952  1.00  0.00     0.039 C 
ATOM      5  C   UNL     1      14.231  31.379  79.587  1.00  0.00    -0.006 C 
ATOM      6  C   UNL     1      15.290  30.817  78.934  1.00  0.00    -0.070 C 
ATOM      7  C   UNL     1      16.074  29.669  79.530  1.00  0.00     0.039 C 
ATOM      8  C   UNL     1      15.706  31.291  77.561  1.00  0.00     0.039 C 
ATOM      9  C   UNL     1      13.878  31.027  80.995  1.00  0.00     0.159 C 
ATOM     10  O   UNL     1      14.752  30.622  81.807  1.00  0.00    -0.295 OA
ATOM     11  C   UNL     1      12.460  31.158  81.470  1.00  0.00     0.084 C 
ENDROOT
TORSDOF 0
ENDMDL
MODEL 5
REMARK VINA RESULT:    -2.779      1.520      4.045
REMARK INTER + INTRA:          -2.779
REMARK INTER:                  -2.779
REMARK INTRA:                   0.000
REMARK UNBOUND:                 0.000
REMARK SMILES CC(C)=C1CC[C@@H](C)CC1=O
REMARK SMILES IDX 8 1 7 2 6 3 5 4 4 5 2 6 1 7 3 8 10 9 11 10 9 11
REMARK H PARENT
REMARK Flexibility Score: inf
ROOT
ATOM      1  C   UNL     1      15.853  31.358  76.438  1.00  0.00     0.008 C 
ATOM      2  C   UNL     1      15.228  31.739  77.786  1.00  0.00    -0.006 C 
ATOM      3  C   UNL     1      15.329  30.570  78.779  1.00  0.00     0.008 C 
ATOM      4  C   UNL     1      14.800  30.966  80.163  1.00  0.00     0.039 C 
ATOM      5  C   UNL     1      13.400  31.564  80.104  1.00  0.00    -0.006 C 
ATOM      6  C   UNL     1      12.515  31.398  81.129  1.00  0.00    -0.070 C 
ATOM      7  C   UNL     1      11.104  31.938  81.058  1.00  0.00     0.039 C 
ATOM      8  C   UNL     1      12.892  30.629  82.374  1.00  0.00     0.039 C 
ATOM      9  C   UNL     1      13.106  32.429  78.923  1.00  0.00     0.159 C 
ATOM     10  O   UNL     1      12.319  33.409  79.008  1.00  0.00    -0.295 OA
ATOM     11  C   UNL     1      13.758  32.144  77.600  1.00  0.00     0.084 C 
ENDROOT
TORSDOF 0
ENDMDL
MODEL 6
REMARK VINA RESULT:    -2.763      1.780      2.647
REMARK INTER + INTRA:          -2.763
REMARK INTER:                  -2.763
REMARK INTRA:                   0.000
REMARK UNBOUND:                 0.000
REMARK SMILES CC(C)=C1CC[C@@H](C)CC1=O
REMARK SMILES IDX 8 1 7 2 6 3 5 4 4 5 2 6 1 7 3 8 10 9 11 10 9 11
REMARK H PARENT
REMARK Flexibility Score: inf
ROOT
ATOM      1  C   UNL     1      13.160  30.490  82.828  1.00  0.00     0.008 C 
ATOM      2  C   UNL     1      13.234  31.457  81.640  1.00  0.00    -0.006 C 
ATOM      3  C   UNL     1      11.843  31.650  81.012  1.00  0.00     0.008 C 
ATOM      4  C   UNL     1      11.879  32.691  79.886  1.00  0.00     0.039 C 
ATOM      5  C   UNL     1      12.953  32.392  78.848  1.00  0.00    -0.006 C 
ATOM      6  C   UNL     1      12.783  32.729  77.537  1.00  0.00    -0.070 C 
ATOM      7  C   UNL     1      13.817  32.386  76.487  1.00  0.00     0.039 C 
ATOM      8  C   UNL     1      11.531  33.430  77.062  1.00  0.00     0.039 C 
ATOM      9  C   UNL     1      14.230  31.822  79.371  1.00  0.00     0.159 C 
ATOM     10  O   UNL     1      15.334  32.074  78.819  1.00  0.00    -0.295 OA
ATOM     11  C   UNL     1      14.218  30.934  80.582  1.00  0.00     0.084 C 
ENDROOT
TORSDOF 0
ENDMDL
MODEL 7
REMARK VINA RESULT:    -2.763      1.990      3.869
REMARK INTER + INTRA:          -2.763
REMARK INTER:                  -2.763
REMARK INTRA:                   0.000
REMARK UNBOUND:                 0.000
REMARK SMILES CC(C)=C1CC[C@@H](C)CC1=O
REMARK SMILES IDX 8 1 7 2 6 3 5 4 4 5 2 6 1 7 3 8 10 9 11 10 9 11
REMARK H PARENT
REMARK Flexibility Score: inf
ROOT
ATOM      1  C   UNL     1      16.038  30.631  79.429  1.00  0.00     0.008 C 
ATOM      2  C   UNL     1      14.691  30.649  80.162  1.00  0.00    -0.006 C 
ATOM      3  C   UNL     1      13.821  31.815  79.666  1.00  0.00     0.008 C 
ATOM      4  C   UNL     1      12.431  31.790  80.315  1.00  0.00     0.039 C 
ATOM      5  C   UNL     1      12.498  31.715  81.835  1.00  0.00    -0.006 C 
ATOM      6  C   UNL     1      11.541  32.296  82.615  1.00  0.00    -0.070 C 
ATOM      7  C   UNL     1      11.626  32.278  84.125  1.00  0.00     0.039 C 
ATOM      8  C   UNL     1      10.364  33.023  82.004  1.00  0.00     0.039 C 
ATOM      9  C   UNL     1      13.596  30.878  82.403  1.00  0.00     0.159 C 
ATOM     10  O   UNL     1      13.449  30.252  83.486  1.00  0.00    -0.295 OA
ATOM     11  C   UNL     1      14.907  30.765  81.679  1.00  0.00     0.084 C 
ENDROOT
TORSDOF 0
ENDMDL
MODEL 8
REMARK VINA RESULT:    -2.707      1.796      3.278
REMARK INTER + INTRA:          -2.707
REMARK INTER:                  -2.707
REMARK INTRA:                   0.000
REMARK UNBOUND:                 0.000
REMARK SMILES CC(C)=C1CC[C@@H](C)CC1=O
REMARK SMILES IDX 8 1 7 2 6 3 5 4 4 5 2 6 1 7 3 8 10 9 11 10 9 11
REMARK H PARENT
REMARK Flexibility Score: inf
ROOT
ATOM      1  C   UNL     1      14.949  30.632  80.243  1.00  0.00     0.008 C 
ATOM      2  C   UNL     1      13.799  31.600  80.540  1.00  0.00    -0.006 C 
ATOM      3  C   UNL     1      12.778  30.953  81.490  1.00  0.00     0.008 C 
ATOM      4  C   UNL     1      11.672  31.942  81.879  1.00  0.00     0.039 C 
ATOM      5  C   UNL     1      11.014  32.590  80.668  1.00  0.00    -0.006 C 
ATOM      6  C   UNL     1       9.699  32.954  80.686  1.00  0.00    -0.070 C 
ATOM      7  C   UNL     1       9.021  33.546  79.471  1.00  0.00     0.039 C 
ATOM      8  C   UNL     1       8.844  32.747  81.915  1.00  0.00     0.039 C 
ATOM      9  C   UNL     1      11.918  32.902  79.521  1.00  0.00     0.159 C 
ATOM     10  O   UNL     1      11.711  33.897  78.776  1.00  0.00    -0.295 OA
ATOM     11  C   UNL     1      13.105  32.027  79.238  1.00  0.00     0.084 C 
ENDROOT
TORSDOF 0
ENDMDL
MODEL 9
REMARK VINA RESULT:    -2.692      6.625      7.777
REMARK INTER + INTRA:          -2.692
REMARK INTER:                  -2.692
REMARK INTRA:                   0.000
REMARK UNBOUND:                 0.000
REMARK SMILES CC(C)=C1CC[C@@H](C)CC1=O
REMARK SMILES IDX 8 1 7 2 6 3 5 4 4 5 2 6 1 7 3 8 10 9 11 10 9 11
REMARK H PARENT
REMARK Flexibility Score: inf
ROOT
ATOM      1  C   UNL     1       9.034  32.513  80.461  1.00  0.00     0.008 C 
ATOM      2  C   UNL     1       7.619  31.926  80.405  1.00  0.00    -0.006 C 
ATOM      3  C   UNL     1       7.197  31.669  78.949  1.00  0.00     0.008 C 
ATOM      4  C   UNL     1       5.824  30.988  78.877  1.00  0.00     0.039 C 
ATOM      5  C   UNL     1       4.760  31.733  79.672  1.00  0.00    -0.006 C 
ATOM      6  C   UNL     1       3.453  31.734  79.280  1.00  0.00    -0.070 C 
ATOM      7  C   UNL     1       2.398  32.516  80.029  1.00  0.00     0.039 C 
ATOM      8  C   UNL     1       3.003  30.979  78.050  1.00  0.00     0.039 C 
ATOM      9  C   UNL     1       5.213  32.355  80.952  1.00  0.00     0.159 C 
ATOM     10  O   UNL     1       4.440  32.453  81.943  1.00  0.00    -0.295 OA
ATOM     11  C   UNL     1       6.617  32.873  81.082  1.00  0.00     0.084 C 
ENDROOT
TORSDOF 0
ENDMDL
