MODEL 1
REMARK VINA RESULT:    -2.482      0.000      0.000
REMARK INTER + INTRA:          -2.957
REMARK INTER:                  -2.627
REMARK INTRA:                  -0.330
REMARK UNBOUND:                -0.330
REMARK SMILES CC1=CC[C@@]23[C@@H]([C@H](C(C)C)CC[C@@H]2C)[C@H]13
REMARK SMILES IDX 14 1 13 2 12 3 11 4 7 5 6 6 5 7 15 8 2 9 3 10 4 11 1 12 8 13
REMARK SMILES IDX 9 14 10 15
REMARK H PARENT
REMARK Flexibility Score: inf
ROOT
ATOM      1  C   UNL     1     168.997 175.708 139.386  1.00  0.00     0.008 C 
ATOM      2  C   UNL     1     168.125 174.965 138.362  1.00  0.00    -0.007 C 
ATOM      3  C   UNL     1     168.807 173.650 137.945  1.00  0.00     0.004 C 
ATOM      4  C   UNL     1     167.864 172.800 137.099  1.00  0.00     0.004 C 
ATOM      5  C   UNL     1     166.669 172.274 137.926  1.00  0.00    -0.004 C 
ATOM      6  C   UNL     1     165.937 173.429 138.667  1.00  0.00     0.007 C 
ATOM      7  C   UNL     1     166.669 174.768 138.868  1.00  0.00    -0.013 C 
ATOM      8  C   UNL     1     166.480 173.825 140.051  1.00  0.00     0.025 C 
ATOM      9  C   UNL     1     165.531 174.558 140.940  1.00  0.00    -0.073 C 
ATOM     10  C   UNL     1     165.163 175.734 140.447  1.00  0.00    -0.027 C 
ATOM     11  C   UNL     1     165.773 175.994 139.113  1.00  0.00     0.035 C 
ATOM     12  C   UNL     1     165.040 174.020 142.247  1.00  0.00     0.039 C 
ENDROOT
BRANCH   5  13
ATOM     13  C   UNL     1     166.995 171.049 138.850  1.00  0.00    -0.014 C 
ATOM     14  C   UNL     1     167.945 170.043 138.172  1.00  0.00     0.007 C 
ATOM     15  C   UNL     1     165.708 170.310 139.261  1.00  0.00     0.007 C 
ENDBRANCH   5  13
TORSDOF 1
ENDMDL
MODEL 2
REMARK VINA RESULT:    -2.428     12.307     16.003
REMARK INTER + INTRA:          -2.900
REMARK INTER:                  -2.570
REMARK INTRA:                  -0.330
REMARK UNBOUND:                -0.330
REMARK SMILES CC1=CC[C@@]23[C@@H]([C@H](C(C)C)CC[C@@H]2C)[C@H]13
REMARK SMILES IDX 14 1 13 2 12 3 11 4 7 5 6 6 5 7 15 8 2 9 3 10 4 11 1 12 8 13
REMARK SMILES IDX 9 14 10 15
REMARK H PARENT
REMARK Flexibility Score: inf
ROOT
ATOM      1  C   UNL     1     163.281 155.916 139.249  1.00  0.00     0.008 C 
ATOM      2  C   UNL     1     164.163 156.791 138.343  1.00  0.00    -0.007 C 
ATOM      3  C   UNL     1     163.414 158.082 137.968  1.00  0.00     0.004 C 
ATOM      4  C   UNL     1     164.347 159.054 137.252  1.00  0.00     0.004 C 
ATOM      5  C   UNL     1     165.440 159.601 138.197  1.00  0.00    -0.004 C 
ATOM      6  C   UNL     1     166.205 158.449 138.909  1.00  0.00     0.007 C 
ATOM      7  C   UNL     1     165.563 157.050 138.966  1.00  0.00    -0.013 C 
ATOM      8  C   UNL     1     165.601 157.916 140.221  1.00  0.00     0.025 C 
ATOM      9  C   UNL     1     166.540 157.188 141.124  1.00  0.00    -0.073 C 
ATOM     10  C   UNL     1     167.026 156.079 140.581  1.00  0.00    -0.027 C 
ATOM     11  C   UNL     1     166.529 155.876 139.192  1.00  0.00     0.035 C 
ATOM     12  C   UNL     1     166.900 157.663 142.497  1.00  0.00     0.039 C 
ENDROOT
BRANCH   5  13
ATOM     13  C   UNL     1     164.963 160.730 139.175  1.00  0.00    -0.014 C 
ATOM     14  C   UNL     1     164.003 161.724 138.495  1.00  0.00     0.007 C 
ATOM     15  C   UNL     1     166.163 161.513 139.741  1.00  0.00     0.007 C 
ENDBRANCH   5  13
TORSDOF 1
ENDMDL
MODEL 3
REMARK VINA RESULT:    -2.356      1.836      5.170
REMARK INTER + INTRA:          -2.824
REMARK INTER:                  -2.514
REMARK INTRA:                  -0.309
REMARK UNBOUND:                -0.330
REMARK SMILES CC1=CC[C@@]23[C@@H]([C@H](C(C)C)CC[C@@H]2C)[C@H]13
REMARK SMILES IDX 14 1 13 2 12 3 11 4 7 5 6 6 5 7 15 8 2 9 3 10 4 11 1 12 8 13
REMARK SMILES IDX 9 14 10 15
REMARK H PARENT
REMARK Flexibility Score: inf
ROOT
ATOM      1  C   UNL     1     168.551 169.897 139.112  1.00  0.00     0.008 C 
ATOM      2  C   UNL     1     168.002 171.023 138.220  1.00  0.00    -0.007 C 
ATOM      3  C   UNL     1     166.813 171.711 138.914  1.00  0.00     0.004 C 
ATOM      4  C   UNL     1     166.394 172.961 138.148  1.00  0.00     0.004 C 
ATOM      5  C   UNL     1     167.471 174.067 138.223  1.00  0.00    -0.004 C 
ATOM      6  C   UNL     1     168.866 173.534 137.787  1.00  0.00     0.007 C 
ATOM      7  C   UNL     1     169.114 172.014 137.780  1.00  0.00    -0.013 C 
ATOM      8  C   UNL     1     169.732 172.876 138.875  1.00  0.00     0.025 C 
ATOM      9  C   UNL     1     171.196 172.811 138.594  1.00  0.00    -0.073 C 
ATOM     10  C   UNL     1     171.487 172.068 137.532  1.00  0.00    -0.027 C 
ATOM     11  C   UNL     1     170.262 171.526 136.881  1.00  0.00     0.035 C 
ATOM     12  C   UNL     1     172.229 173.513 139.418  1.00  0.00     0.039 C 
ENDROOT
BRANCH   5  13
ATOM     13  C   UNL     1     167.502 174.866 139.571  1.00  0.00    -0.014 C 
ATOM     14  C   UNL     1     166.096 175.298 140.027  1.00  0.00     0.007 C 
ATOM     15  C   UNL     1     168.387 176.122 139.448  1.00  0.00     0.007 C 
ENDBRANCH   5  13
TORSDOF 1
ENDMDL
MODEL 4
REMARK VINA RESULT:    -2.354     12.178     15.067
REMARK INTER + INTRA:          -2.821
REMARK INTER:                  -2.502
REMARK INTRA:                  -0.319
REMARK UNBOUND:                -0.330
REMARK SMILES CC1=CC[C@@]23[C@@H]([C@H](C(C)C)CC[C@@H]2C)[C@H]13
REMARK SMILES IDX 14 1 13 2 12 3 11 4 7 5 6 6 5 7 15 8 2 9 3 10 4 11 1 12 8 13
REMARK SMILES IDX 9 14 10 15
REMARK H PARENT
REMARK Flexibility Score: inf
ROOT
ATOM      1  C   UNL     1     163.397 162.131 139.044  1.00  0.00     0.008 C 
ATOM      2  C   UNL     1     163.938 161.000 138.154  1.00  0.00    -0.007 C 
ATOM      3  C   UNL     1     165.150 160.334 138.827  1.00  0.00     0.004 C 
ATOM      4  C   UNL     1     165.564 159.079 138.066  1.00  0.00     0.004 C 
ATOM      5  C   UNL     1     164.502 157.962 138.181  1.00  0.00    -0.004 C 
ATOM      6  C   UNL     1     163.091 158.475 137.772  1.00  0.00     0.007 C 
ATOM      7  C   UNL     1     162.826 159.991 137.752  1.00  0.00    -0.013 C 
ATOM      8  C   UNL     1     162.244 159.137 138.873  1.00  0.00     0.025 C 
ATOM      9  C   UNL     1     160.773 159.183 138.625  1.00  0.00    -0.073 C 
ATOM     10  C   UNL     1     160.449 159.909 137.562  1.00  0.00    -0.027 C 
ATOM     11  C   UNL     1     161.651 160.456 136.875  1.00  0.00     0.035 C 
ATOM     12  C   UNL     1     159.768 158.479 139.483  1.00  0.00     0.039 C 
ENDROOT
BRANCH   5  13
ATOM     13  C   UNL     1     164.512 157.180 139.539  1.00  0.00    -0.014 C 
ATOM     14  C   UNL     1     165.938 156.817 139.995  1.00  0.00     0.007 C 
ATOM     15  C   UNL     1     163.684 155.884 139.436  1.00  0.00     0.007 C 
ENDBRANCH   5  13
TORSDOF 1
ENDMDL
MODEL 5
REMARK VINA RESULT:    -2.343      1.981      4.293
REMARK INTER + INTRA:          -2.809
REMARK INTER:                  -2.481
REMARK INTRA:                  -0.328
REMARK UNBOUND:                -0.330
REMARK SMILES CC1=CC[C@@]23[C@@H]([C@H](C(C)C)CC[C@@H]2C)[C@H]13
REMARK SMILES IDX 14 1 13 2 12 3 11 4 7 5 6 6 5 7 15 8 2 9 3 10 4 11 1 12 8 13
REMARK SMILES IDX 9 14 10 15
REMARK H PARENT
REMARK Flexibility Score: inf
ROOT
ATOM      1  C   UNL     1     169.090 171.931 137.190  1.00  0.00     0.008 C 
ATOM      2  C   UNL     1     169.269 173.234 137.984  1.00  0.00    -0.007 C 
ATOM      3  C   UNL     1     168.209 174.263 137.553  1.00  0.00     0.004 C 
ATOM      4  C   UNL     1     168.233 175.477 138.476  1.00  0.00     0.004 C 
ATOM      5  C   UNL     1     167.752 175.124 139.902  1.00  0.00    -0.004 C 
ATOM      6  C   UNL     1     168.535 173.912 140.483  1.00  0.00     0.007 C 
ATOM      7  C   UNL     1     169.296 172.984 139.518  1.00  0.00    -0.013 C 
ATOM      8  C   UNL     1     167.995 172.509 140.154  1.00  0.00     0.025 C 
ATOM      9  C   UNL     1     168.427 171.412 141.068  1.00  0.00    -0.073 C 
ATOM     10  C   UNL     1     169.739 171.207 141.047  1.00  0.00    -0.027 C 
ATOM     11  C   UNL     1     170.436 172.158 140.138  1.00  0.00     0.035 C 
ATOM     12  C   UNL     1     167.482 170.628 141.924  1.00  0.00     0.039 C 
ENDROOT
BRANCH   5  13
ATOM     13  C   UNL     1     166.197 174.995 140.060  1.00  0.00    -0.014 C 
ATOM     14  C   UNL     1     165.438 176.090 139.287  1.00  0.00     0.007 C 
ATOM     15  C   UNL     1     165.786 175.065 141.544  1.00  0.00     0.007 C 
ENDBRANCH   5  13
TORSDOF 1
ENDMDL
MODEL 6
REMARK VINA RESULT:    -2.294     12.341     15.545
REMARK INTER + INTRA:          -2.758
REMARK INTER:                  -2.431
REMARK INTRA:                  -0.327
REMARK UNBOUND:                -0.330
REMARK SMILES CC1=CC[C@@]23[C@@H]([C@H](C(C)C)CC[C@@H]2C)[C@H]13
REMARK SMILES IDX 14 1 13 2 12 3 11 4 7 5 6 6 5 7 15 8 2 9 3 10 4 11 1 12 8 13
REMARK SMILES IDX 9 14 10 15
REMARK H PARENT
REMARK Flexibility Score: inf
ROOT
ATOM      1  C   UNL     1     162.915 159.121 137.172  1.00  0.00     0.008 C 
ATOM      2  C   UNL     1     162.975 158.080 138.301  1.00  0.00    -0.007 C 
ATOM      3  C   UNL     1     164.037 157.014 137.977  1.00  0.00     0.004 C 
ATOM      4  C   UNL     1     164.263 156.100 139.177  1.00  0.00     0.004 C 
ATOM      5  C   UNL     1     164.932 156.849 140.352  1.00  0.00    -0.004 C 
ATOM      6  C   UNL     1     164.151 158.142 140.720  1.00  0.00     0.007 C 
ATOM      7  C   UNL     1     163.170 158.740 139.694  1.00  0.00    -0.013 C 
ATOM      8  C   UNL     1     164.511 159.421 139.944  1.00  0.00     0.025 C 
ATOM      9  C   UNL     1     164.137 160.709 140.597  1.00  0.00    -0.073 C 
ATOM     10  C   UNL     1     162.827 160.850 140.754  1.00  0.00    -0.027 C 
ATOM     11  C   UNL     1     162.078 159.659 140.264  1.00  0.00     0.035 C 
ATOM     12  C   UNL     1     165.136 161.734 141.036  1.00  0.00     0.039 C 
ENDROOT
BRANCH   5  13
ATOM     13  C   UNL     1     166.475 157.076 140.195  1.00  0.00    -0.014 C 
ATOM     14  C   UNL     1     167.178 155.877 139.531  1.00  0.00     0.007 C 
ATOM     15  C   UNL     1     167.135 157.338 141.562  1.00  0.00     0.007 C 
ENDBRANCH   5  13
TORSDOF 1
ENDMDL
MODEL 7
REMARK VINA RESULT:    -2.252      1.624      4.197
REMARK INTER + INTRA:          -2.713
REMARK INTER:                  -2.384
REMARK INTRA:                  -0.329
REMARK UNBOUND:                -0.330
REMARK SMILES CC1=CC[C@@]23[C@@H]([C@H](C(C)C)CC[C@@H]2C)[C@H]13
REMARK SMILES IDX 14 1 13 2 12 3 11 4 7 5 6 6 5 7 15 8 2 9 3 10 4 11 1 12 8 13
REMARK SMILES IDX 9 14 10 15
REMARK H PARENT
REMARK Flexibility Score: inf
ROOT
ATOM      1  C   UNL     1     164.411 176.125 139.490  1.00  0.00     0.008 C 
ATOM      2  C   UNL     1     165.480 175.995 140.588  1.00  0.00    -0.007 C 
ATOM      3  C   UNL     1     164.901 175.241 141.798  1.00  0.00     0.004 C 
ATOM      4  C   UNL     1     166.002 174.914 142.803  1.00  0.00     0.004 C 
ATOM      5  C   UNL     1     166.997 173.872 142.244  1.00  0.00    -0.004 C 
ATOM      6  C   UNL     1     167.557 174.306 140.859  1.00  0.00     0.007 C 
ATOM      7  C   UNL     1     166.798 175.373 140.049  1.00  0.00    -0.013 C 
ATOM      8  C   UNL     1     166.736 173.911 139.619  1.00  0.00     0.025 C 
ATOM      9  C   UNL     1     167.477 173.891 138.324  1.00  0.00    -0.073 C 
ATOM     10  C   UNL     1     167.938 175.085 137.973  1.00  0.00    -0.027 C 
ATOM     11  C   UNL     1     167.621 176.125 138.990  1.00  0.00     0.035 C 
ATOM     12  C   UNL     1     167.685 172.653 137.509  1.00  0.00     0.039 C 
ENDROOT
BRANCH   5  13
ATOM     13  C   UNL     1     166.487 172.390 142.273  1.00  0.00    -0.014 C 
ATOM     14  C   UNL     1     165.709 172.065 143.562  1.00  0.00     0.007 C 
ATOM     15  C   UNL     1     167.660 171.400 142.143  1.00  0.00     0.007 C 
ENDBRANCH   5  13
TORSDOF 1
ENDMDL
MODEL 8
REMARK VINA RESULT:    -2.244     14.343     17.862
REMARK INTER + INTRA:          -2.705
REMARK INTER:                  -2.384
REMARK INTRA:                  -0.321
REMARK UNBOUND:                -0.330
REMARK SMILES CC1=CC[C@@]23[C@@H]([C@H](C(C)C)CC[C@@H]2C)[C@H]13
REMARK SMILES IDX 14 1 13 2 12 3 11 4 7 5 6 6 5 7 15 8 2 9 3 10 4 11 1 12 8 13
REMARK SMILES IDX 9 14 10 15
REMARK H PARENT
REMARK Flexibility Score: inf
ROOT
ATOM      1  C   UNL     1     156.117 158.251 136.879  1.00  0.00     0.008 C 
ATOM      2  C   UNL     1     157.615 158.049 137.160  1.00  0.00    -0.007 C 
ATOM      3  C   UNL     1     158.358 159.391 137.045  1.00  0.00     0.004 C 
ATOM      4  C   UNL     1     159.798 159.251 137.529  1.00  0.00     0.004 C 
ATOM      5  C   UNL     1     159.869 158.993 139.051  1.00  0.00    -0.004 C 
ATOM      6  C   UNL     1     158.974 157.790 139.467  1.00  0.00     0.007 C 
ATOM      7  C   UNL     1     157.862 157.322 138.511  1.00  0.00    -0.013 C 
ATOM      8  C   UNL     1     157.498 158.091 139.776  1.00  0.00     0.025 C 
ATOM      9  C   UNL     1     156.785 157.081 140.612  1.00  0.00    -0.073 C 
ATOM     10  C   UNL     1     156.701 155.892 140.028  1.00  0.00    -0.027 C 
ATOM     11  C   UNL     1     157.377 155.875 138.701  1.00  0.00     0.035 C 
ATOM     12  C   UNL     1     156.229 157.376 141.970  1.00  0.00     0.039 C 
ENDROOT
BRANCH   5  13
ATOM     13  C   UNL     1     159.659 160.263 139.946  1.00  0.00    -0.014 C 
ATOM     14  C   UNL     1     160.260 161.531 139.310  1.00  0.00     0.007 C 
ATOM     15  C   UNL     1     160.287 160.066 141.339  1.00  0.00     0.007 C 
ENDBRANCH   5  13
TORSDOF 1
ENDMDL
MODEL 9
REMARK VINA RESULT:    -2.237     14.035     15.541
REMARK INTER + INTRA:          -2.697
REMARK INTER:                  -2.372
REMARK INTRA:                  -0.326
REMARK UNBOUND:                -0.330
REMARK SMILES CC1=CC[C@@]23[C@@H]([C@H](C(C)C)CC[C@@H]2C)[C@H]13
REMARK SMILES IDX 14 1 13 2 12 3 11 4 7 5 6 6 5 7 15 8 2 9 3 10 4 11 1 12 8 13
REMARK SMILES IDX 9 14 10 15
REMARK H PARENT
REMARK Flexibility Score: inf
ROOT
ATOM      1  C   UNL     1     165.038 155.875 139.244  1.00  0.00     0.008 C 
ATOM      2  C   UNL     1     164.986 157.280 138.622  1.00  0.00    -0.007 C 
ATOM      3  C   UNL     1     163.753 157.407 137.711  1.00  0.00     0.004 C 
ATOM      4  C   UNL     1     163.566 158.852 137.259  1.00  0.00     0.004 C 
ATOM      5  C   UNL     1     163.171 159.774 138.434  1.00  0.00    -0.004 C 
ATOM      6  C   UNL     1     164.166 159.640 139.622  1.00  0.00     0.007 C 
ATOM      7  C   UNL     1     165.074 158.398 139.698  1.00  0.00    -0.013 C 
ATOM      8  C   UNL     1     163.886 158.526 140.646  1.00  0.00     0.025 C 
ATOM      9  C   UNL     1     164.519 158.696 141.986  1.00  0.00    -0.073 C 
ATOM     10  C   UNL     1     165.845 158.689 141.937  1.00  0.00    -0.027 C 
ATOM     11  C   UNL     1     166.349 158.548 140.543  1.00  0.00     0.035 C 
ATOM     12  C   UNL     1     163.740 158.864 143.253  1.00  0.00     0.039 C 
ENDROOT
BRANCH   5  13
ATOM     13  C   UNL     1     161.667 159.682 138.868  1.00  0.00    -0.014 C 
ATOM     14  C   UNL     1     160.713 159.626 137.660  1.00  0.00     0.007 C 
ATOM     15  C   UNL     1     161.274 160.882 139.750  1.00  0.00     0.007 C 
ENDBRANCH   5  13
TORSDOF 1
ENDMDL
