MODEL 1
REMARK VINA RESULT:    -3.646      0.000      0.000
REMARK INTER + INTRA:          -4.696
REMARK INTER:                  -5.138
REMARK INTRA:                   0.442
REMARK UNBOUND:                 0.442
REMARK SMILES CC1=CCC(=C(C)C)C(=O)CC(C)=CCC1
REMARK SMILES IDX 12 1 14 2 13 3 15 4 16 5 2 6 1 7 3 8 11 10 9 11 10 12 5 13
REMARK SMILES IDX 6 14 7 15 8 16 4 17
REMARK H PARENT
REMARK Flexibility Score: 60.00
ROOT
ATOM      1  C   UNL     1      -5.813   3.695  55.744  1.00  0.00    -0.070 C 
ATOM      2  C   UNL     1      -6.232   4.582  56.676  1.00  0.00    -0.027 C 
ATOM      3  C   UNL     1      -5.180   2.412  56.218  1.00  0.00     0.039 C 
ENDROOT
BRANCH   2   4
ATOM      4  C   UNL     1      -6.832   5.938  56.382  1.00  0.00     0.032 C 
BRANCH   4   5
ATOM      5  C   UNL     1      -8.233   6.081  56.994  1.00  0.00     0.034 C 
BRANCH   5   6
ATOM      6  C   UNL     1      -9.146   4.898  56.706  1.00  0.00    -0.077 C 
ATOM      7  C   UNL     1      -9.643   4.065  57.862  1.00  0.00     0.039 C 
ATOM      8  C   UNL     1      -9.527   4.537  55.459  1.00  0.00    -0.023 CG0
ATOM      9  G   UNL     1      -9.191   5.285  54.190  1.00  0.00     0.000 G0
ENDBRANCH   5   6
ENDBRANCH   4   5
ENDBRANCH   2   4
BRANCH   1  10
ATOM     10  C   UNL     1      -5.957   3.936  54.253  1.00  0.00     0.111 C 
BRANCH  10  11
ATOM     11  C   UNL     1      -7.318   3.523  53.767  1.00  0.00     0.163 C 
ATOM     12  O   UNL     1      -7.645   2.306  53.805  1.00  0.00    -0.294 OA
BRANCH  11  13
ATOM     13  C   UNL     1      -8.276   4.518  53.222  1.00  0.00    -0.002 C 
ATOM     14  C   UNL     1      -8.330   4.758  51.883  1.00  0.00    -0.069 C 
ATOM     15  C   UNL     1      -7.361   4.094  50.930  1.00  0.00     0.039 C 
ATOM     16  C   UNL     1      -9.333   5.729  51.305  1.00  0.00     0.039 C 
BRANCH  13  17
ATOM     17  C   UNL     1      -9.195   5.267  54.182  1.00  0.00     0.066 CG0
ATOM     18  G   UNL     1      -9.497   4.508  55.452  1.00  0.00     0.000 G0
ENDBRANCH  13  17
ENDBRANCH  11  13
ENDBRANCH  10  11
ENDBRANCH   1  10
TORSDOF 0
ENDMDL
MODEL 2
REMARK VINA RESULT:    -3.591      2.478      4.001
REMARK INTER + INTRA:          -4.619
REMARK INTER:                  -5.047
REMARK INTRA:                   0.428
REMARK UNBOUND:                 0.442
REMARK SMILES CC1=CCC(=C(C)C)C(=O)CC(C)=CCC1
REMARK SMILES IDX 12 1 14 2 13 3 15 4 16 5 2 6 1 7 3 8 11 10 9 11 10 12 5 13
REMARK SMILES IDX 6 14 7 15 8 16 4 17
REMARK H PARENT
REMARK Flexibility Score: 60.00
ROOT
ATOM      1  C   UNL     1      -7.813   6.281  58.601  1.00  0.00    -0.070 C 
ATOM      2  C   UNL     1      -6.719   5.995  59.345  1.00  0.00    -0.027 C 
ATOM      3  C   UNL     1      -9.116   6.521  59.319  1.00  0.00     0.039 C 
ENDROOT
BRANCH   2   4
ATOM      4  C   UNL     1      -5.351   5.669  58.793  1.00  0.00     0.032 C 
BRANCH   4   5
ATOM      5  C   UNL     1      -4.920   4.240  59.156  1.00  0.00     0.034 C 
BRANCH   5   6
ATOM      6  C   UNL     1      -5.981   3.191  58.859  1.00  0.00    -0.077 C 
ATOM      7  C   UNL     1      -6.624   2.460  60.011  1.00  0.00     0.039 C 
ATOM      8  C   UNL     1      -6.371   2.859  57.606  1.00  0.00    -0.023 CG0
ATOM      9  G   UNL     1      -5.895   3.525  56.336  1.00  0.00     0.000 G0
ENDBRANCH   5   6
ENDBRANCH   4   5
ENDBRANCH   2   4
BRANCH   1  10
ATOM     10  C   UNL     1      -7.780   6.372  57.087  1.00  0.00     0.111 C 
BRANCH  10  11
ATOM     11  C   UNL     1      -8.024   5.028  56.459  1.00  0.00     0.163 C 
ATOM     12  O   UNL     1      -9.122   4.444  56.657  1.00  0.00    -0.294 OA
BRANCH  11  13
ATOM     13  C   UNL     1      -6.986   4.367  55.628  1.00  0.00    -0.002 C 
ATOM     14  C   UNL     1      -6.999   4.505  54.274  1.00  0.00    -0.069 C 
ATOM     15  C   UNL     1      -8.113   5.251  53.575  1.00  0.00     0.039 C 
ATOM     16  C   UNL     1      -5.922   3.882  53.417  1.00  0.00     0.039 C 
BRANCH  13  17
ATOM     17  C   UNL     1      -5.909   3.530  56.312  1.00  0.00     0.066 CG0
ATOM     18  G   UNL     1      -6.372   2.871  57.591  1.00  0.00     0.000 G0
ENDBRANCH  13  17
ENDBRANCH  11  13
ENDBRANCH  10  11
ENDBRANCH   1  10
TORSDOF 0
ENDMDL
MODEL 3
REMARK VINA RESULT:    -3.589      3.218      6.063
REMARK INTER + INTRA:          -4.616
REMARK INTER:                  -4.900
REMARK INTRA:                   0.284
REMARK UNBOUND:                 0.442
REMARK SMILES CC1=CCC(=C(C)C)C(=O)CC(C)=CCC1
REMARK SMILES IDX 12 1 14 2 13 3 15 4 16 5 2 6 1 7 3 8 11 10 9 11 10 12 5 13
REMARK SMILES IDX 6 14 7 15 8 16 4 17
REMARK H PARENT
REMARK Flexibility Score: 60.00
ROOT
ATOM      1  C   UNL     1      -7.452   5.992  59.281  1.00  0.00    -0.070 C 
ATOM      2  C   UNL     1      -8.254   6.120  58.199  1.00  0.00    -0.027 C 
ATOM      3  C   UNL     1      -7.971   6.478  60.610  1.00  0.00     0.039 C 
ENDROOT
BRANCH   2   4
ATOM      4  C   UNL     1      -7.876   5.743  56.785  1.00  0.00     0.032 C 
BRANCH   4   5
ATOM      5  C   UNL     1      -7.868   4.220  56.587  1.00  0.00     0.034 C 
BRANCH   5   6
ATOM      6  C   UNL     1      -6.611   3.702  55.902  1.00  0.00    -0.077 C 
ATOM      7  C   UNL     1      -6.246   4.248  54.544  1.00  0.00     0.039 C 
ATOM      8  C   UNL     1      -5.805   2.757  56.438  1.00  0.00    -0.023 CG0
ATOM      9  G   UNL     1      -5.967   2.144  57.809  1.00  0.00     0.000 G0
ENDBRANCH   5   6
ENDBRANCH   4   5
ENDBRANCH   2   4
BRANCH   1  10
ATOM     10  C   UNL     1      -6.064   5.382  59.213  1.00  0.00     0.111 C 
BRANCH  10  11
ATOM     11  C   UNL     1      -6.080   3.949  59.665  1.00  0.00     0.163 C 
ATOM     12  O   UNL     1      -6.760   3.628  60.677  1.00  0.00    -0.294 OA
BRANCH  11  13
ATOM     13  C   UNL     1      -5.292   2.909  58.956  1.00  0.00    -0.002 C 
ATOM     14  C   UNL     1      -4.000   2.666  59.309  1.00  0.00    -0.069 C 
ATOM     15  C   UNL     1      -3.306   3.504  60.359  1.00  0.00     0.039 C 
ATOM     16  C   UNL     1      -3.200   1.577  58.633  1.00  0.00     0.039 C 
BRANCH  13  17
ATOM     17  C   UNL     1      -5.950   2.120  57.828  1.00  0.00     0.066 CG0
ATOM     18  G   UNL     1      -5.801   2.764  56.469  1.00  0.00     0.000 G0
ENDBRANCH  13  17
ENDBRANCH  11  13
ENDBRANCH  10  11
ENDBRANCH   1  10
TORSDOF 0
ENDMDL
MODEL 4
REMARK VINA RESULT:    -3.537     11.063     12.806
REMARK INTER + INTRA:          -4.543
REMARK INTER:                  -5.023
REMARK INTRA:                   0.480
REMARK UNBOUND:                 0.442
REMARK SMILES CC1=CCC(=C(C)C)C(=O)CC(C)=CCC1
REMARK SMILES IDX 12 1 14 2 13 3 15 4 16 5 2 6 1 7 3 8 11 10 9 11 10 12 5 13
REMARK SMILES IDX 6 14 7 15 8 16 4 17
REMARK H PARENT
REMARK Flexibility Score: 60.00
ROOT
ATOM      1  C   UNL     1       3.089  -1.370  54.803  1.00  0.00    -0.070 C 
ATOM      2  C   UNL     1       3.976  -2.272  55.284  1.00  0.00    -0.027 C 
ATOM      3  C   UNL     1       2.987  -0.036  55.497  1.00  0.00     0.039 C 
ENDROOT
BRANCH   2   4
ATOM      4  C   UNL     1       4.169  -3.673  54.752  1.00  0.00     0.032 C 
BRANCH   4   5
ATOM      5  C   UNL     1       3.922  -4.730  55.839  1.00  0.00     0.034 C 
BRANCH   5   6
ATOM      6  C   UNL     1       2.523  -4.674  56.435  1.00  0.00    -0.077 C 
ATOM      7  C   UNL     1       2.374  -4.498  57.926  1.00  0.00     0.039 C 
ATOM      8  C   UNL     1       1.394  -4.794  55.700  1.00  0.00    -0.023 CG0
ATOM      9  G   UNL     1       1.338  -4.907  54.194  1.00  0.00     0.000 G0
ENDBRANCH   5   6
ENDBRANCH   4   5
ENDBRANCH   2   4
BRANCH   1  10
ATOM     10  C   UNL     1       2.204  -1.643  53.602  1.00  0.00     0.111 C 
BRANCH  10  11
ATOM     11  C   UNL     1       0.935  -2.337  54.011  1.00  0.00     0.163 C 
ATOM     12  O   UNL     1       0.132  -1.751  54.786  1.00  0.00    -0.294 OA
BRANCH  11  13
ATOM     13  C   UNL     1       0.620  -3.709  53.538  1.00  0.00    -0.002 C 
ATOM     14  C   UNL     1      -0.273  -3.900  52.529  1.00  0.00    -0.069 C 
ATOM     15  C   UNL     1      -1.035  -2.739  51.929  1.00  0.00     0.039 C 
ATOM     16  C   UNL     1      -0.568  -5.285  52.001  1.00  0.00     0.039 C 
BRANCH  13  17
ATOM     17  C   UNL     1       1.309  -4.899  54.200  1.00  0.00     0.066 CG0
ATOM     18  G   UNL     1       1.406  -4.786  55.704  1.00  0.00     0.000 G0
ENDBRANCH  13  17
ENDBRANCH  11  13
ENDBRANCH  10  11
ENDBRANCH   1  10
TORSDOF 0
ENDMDL
MODEL 5
REMARK VINA RESULT:    -3.493     12.024     14.587
REMARK INTER + INTRA:          -4.480
REMARK INTER:                  -4.824
REMARK INTRA:                   0.344
REMARK UNBOUND:                 0.442
REMARK SMILES CC1=CCC(=C(C)C)C(=O)CC(C)=CCC1
REMARK SMILES IDX 12 1 14 2 13 3 15 4 16 5 2 6 1 7 3 8 11 10 9 11 10 12 5 13
REMARK SMILES IDX 6 14 7 15 8 16 4 17
REMARK H PARENT
REMARK Flexibility Score: 60.00
ROOT
ATOM      1  C   UNL     1      -0.638  -3.457  63.008  1.00  0.00    -0.070 C 
ATOM      2  C   UNL     1      -0.083  -4.015  64.108  1.00  0.00    -0.027 C 
ATOM      3  C   UNL     1      -1.941  -4.024  62.504  1.00  0.00     0.039 C 
ENDROOT
BRANCH   2   4
ATOM      4  C   UNL     1       1.243  -3.616  64.714  1.00  0.00     0.032 C 
BRANCH   4   5
ATOM      5  C   UNL     1       2.424  -4.105  63.863  1.00  0.00     0.034 C 
BRANCH   5   6
ATOM      6  C   UNL     1       3.519  -3.063  63.685  1.00  0.00    -0.077 C 
ATOM      7  C   UNL     1       4.239  -2.549  64.907  1.00  0.00     0.039 C 
ATOM      8  C   UNL     1       3.873  -2.552  62.484  1.00  0.00    -0.023 CG0
ATOM      9  G   UNL     1       3.318  -2.989  61.148  1.00  0.00     0.000 G0
ENDBRANCH   5   6
ENDBRANCH   4   5
ENDBRANCH   2   4
BRANCH   1  10
ATOM     10  C   UNL     1      -0.010  -2.292  62.267  1.00  0.00     0.111 C 
BRANCH  10  11
ATOM     11  C   UNL     1       0.733  -2.762  61.049  1.00  0.00     0.163 C 
ATOM     12  O   UNL     1       0.222  -3.653  60.319  1.00  0.00    -0.294 OA
BRANCH  11  13
ATOM     13  C   UNL     1       2.068  -2.212  60.700  1.00  0.00    -0.002 C 
ATOM     14  C   UNL     1       2.171  -1.047  60.005  1.00  0.00    -0.069 C 
ATOM     15  C   UNL     1       0.941  -0.332  59.490  1.00  0.00     0.039 C 
ATOM     16  C   UNL     1       3.521  -0.447  59.686  1.00  0.00     0.039 C 
BRANCH  13  17
ATOM     17  C   UNL     1       3.319  -2.973  61.129  1.00  0.00     0.066 CG0
ATOM     18  G   UNL     1       3.859  -2.546  62.474  1.00  0.00     0.000 G0
ENDBRANCH  13  17
ENDBRANCH  11  13
ENDBRANCH  10  11
ENDBRANCH   1  10
TORSDOF 0
ENDMDL
MODEL 6
REMARK VINA RESULT:    -3.480      2.489      3.299
REMARK INTER + INTRA:          -4.462
REMARK INTER:                  -4.943
REMARK INTRA:                   0.481
REMARK UNBOUND:                 0.442
REMARK SMILES CC1=CCC(=C(C)C)C(=O)CC(C)=CCC1
REMARK SMILES IDX 12 1 14 2 13 3 15 4 16 5 2 6 1 7 3 8 11 10 9 11 10 12 5 13
REMARK SMILES IDX 6 14 7 15 8 16 4 17
REMARK H PARENT
REMARK Flexibility Score: 60.00
ROOT
ATOM      1  C   UNL     1      -4.557   3.441  58.728  1.00  0.00    -0.070 C 
ATOM      2  C   UNL     1      -4.835   4.382  59.661  1.00  0.00    -0.027 C 
ATOM      3  C   UNL     1      -4.080   2.092  59.202  1.00  0.00     0.039 C 
ENDROOT
BRANCH   2   4
ATOM      4  C   UNL     1      -5.265   5.801  59.366  1.00  0.00     0.032 C 
BRANCH   4   5
ATOM      5  C   UNL     1      -6.624   6.125  60.005  1.00  0.00     0.034 C 
BRANCH   5   6
ATOM      6  C   UNL     1      -7.687   5.069  59.742  1.00  0.00    -0.077 C 
ATOM      7  C   UNL     1      -8.299   4.345  60.916  1.00  0.00     0.039 C 
ATOM      8  C   UNL     1      -8.106   4.725  58.503  1.00  0.00    -0.023 CG0
ATOM      9  G   UNL     1      -7.664   5.382  57.216  1.00  0.00     0.000 G0
ENDBRANCH   5   6
ENDBRANCH   4   5
ENDBRANCH   2   4
BRANCH   1  10
ATOM     10  C   UNL     1      -4.708   3.685  57.239  1.00  0.00     0.111 C 
BRANCH  10  11
ATOM     11  C   UNL     1      -6.092   3.332  56.770  1.00  0.00     0.163 C 
ATOM     12  O   UNL     1      -6.471   2.131  56.812  1.00  0.00    -0.294 OA
BRANCH  11  13
ATOM     13  C   UNL     1      -7.013   4.369  56.237  1.00  0.00    -0.002 C 
ATOM     14  C   UNL     1      -7.271   4.437  54.902  1.00  0.00    -0.069 C 
ATOM     15  C   UNL     1      -6.562   3.530  53.921  1.00  0.00     0.039 C 
ATOM     16  C   UNL     1      -8.244   5.452  54.348  1.00  0.00     0.039 C 
BRANCH  13  17
ATOM     17  C   UNL     1      -7.661   5.354  57.204  1.00  0.00     0.066 CG0
ATOM     18  G   UNL     1      -8.107   4.727  58.504  1.00  0.00     0.000 G0
ENDBRANCH  13  17
ENDBRANCH  11  13
ENDBRANCH  10  11
ENDBRANCH   1  10
TORSDOF 0
ENDMDL
MODEL 7
REMARK VINA RESULT:    -3.453      9.960     11.437
REMARK INTER + INTRA:          -4.424
REMARK INTER:                  -4.754
REMARK INTRA:                   0.330
REMARK UNBOUND:                 0.442
REMARK SMILES CC1=CCC(=C(C)C)C(=O)CC(C)=CCC1
REMARK SMILES IDX 12 1 14 2 13 3 15 4 16 5 2 6 1 7 3 8 11 10 9 11 10 12 5 13
REMARK SMILES IDX 6 14 7 15 8 16 4 17
REMARK H PARENT
REMARK Flexibility Score: 60.00
ROOT
ATOM      1  C   UNL     1       2.276   0.574  54.333  1.00  0.00    -0.070 C 
ATOM      2  C   UNL     1       2.130  -0.420  53.427  1.00  0.00    -0.027 C 
ATOM      3  C   UNL     1       2.307   1.995  53.830  1.00  0.00     0.039 C 
ENDROOT
BRANCH   2   4
ATOM      4  C   UNL     1       2.138  -1.897  53.745  1.00  0.00     0.032 C 
BRANCH   4   5
ATOM      5  C   UNL     1       0.719  -2.432  53.987  1.00  0.00     0.034 C 
BRANCH   5   6
ATOM      6  C   UNL     1       0.591  -3.264  55.255  1.00  0.00    -0.077 C 
ATOM      7  C   UNL     1       1.137  -4.670  55.260  1.00  0.00     0.039 C 
ATOM      8  C   UNL     1      -0.008  -2.817  56.383  1.00  0.00    -0.023 CG0
ATOM      9  G   UNL     1      -0.551  -1.422  56.591  1.00  0.00     0.000 G0
ENDBRANCH   5   6
ENDBRANCH   4   5
ENDBRANCH   2   4
BRANCH   1  10
ATOM     10  C   UNL     1       2.407   0.320  55.823  1.00  0.00     0.111 C 
BRANCH  10  11
ATOM     11  C   UNL     1       1.110   0.586  56.533  1.00  0.00     0.163 C 
ATOM     12  O   UNL     1       0.603   1.739  56.484  1.00  0.00    -0.294 OA
BRANCH  11  13
ATOM     13  C   UNL     1       0.425  -0.478  57.311  1.00  0.00    -0.002 C 
ATOM     14  C   UNL     1       0.663  -0.616  58.644  1.00  0.00    -0.069 C 
ATOM     15  C   UNL     1       1.693   0.241  59.347  1.00  0.00     0.039 C 
ATOM     16  C   UNL     1      -0.063  -1.660  59.461  1.00  0.00     0.039 C 
BRANCH  13  17
ATOM     17  C   UNL     1      -0.544  -1.414  56.595  1.00  0.00     0.066 CG0
ATOM     18  G   UNL     1      -0.001  -2.808  56.385  1.00  0.00     0.000 G0
ENDBRANCH  13  17
ENDBRANCH  11  13
ENDBRANCH  10  11
ENDBRANCH   1  10
TORSDOF 0
ENDMDL
MODEL 8
REMARK VINA RESULT:    -3.363      2.704      5.130
REMARK INTER + INTRA:          -4.297
REMARK INTER:                  -4.691
REMARK INTRA:                   0.394
REMARK UNBOUND:                 0.442
REMARK SMILES CC1=CCC(=C(C)C)C(=O)CC(C)=CCC1
REMARK SMILES IDX 12 1 14 2 13 3 15 4 16 5 2 6 1 7 3 8 11 10 9 11 10 12 5 13
REMARK SMILES IDX 6 14 7 15 8 16 4 17
REMARK H PARENT
REMARK Flexibility Score: 60.00
ROOT
ATOM      1  C   UNL     1      -4.883   3.133  58.204  1.00  0.00    -0.070 C 
ATOM      2  C   UNL     1      -4.929   2.784  56.897  1.00  0.00    -0.027 C 
ATOM      3  C   UNL     1      -4.296   2.147  59.181  1.00  0.00     0.039 C 
ENDROOT
BRANCH   2   4
ATOM      4  C   UNL     1      -5.535   3.619  55.793  1.00  0.00     0.032 C 
BRANCH   4   5
ATOM      5  C   UNL     1      -7.049   3.386  55.672  1.00  0.00     0.034 C 
BRANCH   5   6
ATOM      6  C   UNL     1      -7.861   4.672  55.632  1.00  0.00    -0.077 C 
ATOM      7  C   UNL     1      -7.859   5.494  54.367  1.00  0.00     0.039 C 
ATOM      8  C   UNL     1      -8.577   5.135  56.682  1.00  0.00    -0.023 CG0
ATOM      9  G   UNL     1      -8.756   4.421  58.002  1.00  0.00     0.000 G0
ENDBRANCH   5   6
ENDBRANCH   4   5
ENDBRANCH   2   4
BRANCH   1  10
ATOM     10  C   UNL     1      -5.392   4.465  58.721  1.00  0.00     0.111 C 
BRANCH  10  11
ATOM     11  C   UNL     1      -6.650   4.289  59.524  1.00  0.00     0.163 C 
ATOM     12  O   UNL     1      -6.644   3.520  60.522  1.00  0.00    -0.294 OA
BRANCH  11  13
ATOM     13  C   UNL     1      -7.907   4.987  59.150  1.00  0.00    -0.002 C 
ATOM     14  C   UNL     1      -8.286   6.118  59.806  1.00  0.00    -0.069 C 
ATOM     15  C   UNL     1      -7.496   6.639  60.986  1.00  0.00     0.039 C 
ATOM     16  C   UNL     1      -9.534   6.869  59.406  1.00  0.00     0.039 C 
BRANCH  13  17
ATOM     17  C   UNL     1      -8.765   4.419  58.024  1.00  0.00     0.066 CG0
ATOM     18  G   UNL     1      -8.576   5.122  56.700  1.00  0.00     0.000 G0
ENDBRANCH  13  17
ENDBRANCH  11  13
ENDBRANCH  10  11
ENDBRANCH   1  10
TORSDOF 0
ENDMDL
MODEL 9
REMARK VINA RESULT:    -3.299      1.527      4.077
REMARK INTER + INTRA:          -4.208
REMARK INTER:                  -4.882
REMARK INTRA:                   0.674
REMARK UNBOUND:                 0.442
REMARK SMILES CC1=CCC(=C(C)C)C(=O)CC(C)=CCC1
REMARK SMILES IDX 12 1 14 2 13 3 15 4 16 5 2 6 1 7 3 8 11 10 9 11 10 12 5 13
REMARK SMILES IDX 6 14 7 15 8 16 4 17
REMARK H PARENT
REMARK Flexibility Score: 60.00
ROOT
ATOM      1  C   UNL     1      -7.049   2.352  52.776  1.00  0.00    -0.070 C 
ATOM      2  C   UNL     1      -7.361   3.155  51.732  1.00  0.00    -0.027 C 
ATOM      3  C   UNL     1      -7.508   0.918  52.731  1.00  0.00     0.039 C 
ENDROOT
BRANCH   2   4
ATOM      4  C   UNL     1      -7.035   4.627  51.636  1.00  0.00     0.032 C 
BRANCH   4   5
ATOM      5  C   UNL     1      -8.292   5.497  51.790  1.00  0.00     0.034 C 
BRANCH   5   6
ATOM      6  C   UNL     1      -9.334   4.900  52.726  1.00  0.00    -0.077 C 
ATOM      7  C   UNL     1     -10.528   4.196  52.131  1.00  0.00     0.039 C 
ATOM      8  C   UNL     1      -9.258   4.982  54.074  1.00  0.00    -0.023 CG0
ATOM      9  G   UNL     1      -8.111   5.583  54.852  1.00  0.00     0.000 G0
ENDBRANCH   5   6
ENDBRANCH   4   5
ENDBRANCH   2   4
BRANCH   1  10
ATOM     10  C   UNL     1      -6.259   2.833  53.979  1.00  0.00     0.111 C 
BRANCH  10  11
ATOM     11  C   UNL     1      -7.172   3.179  55.122  1.00  0.00     0.163 C 
ATOM     12  O   UNL     1      -7.875   2.275  55.647  1.00  0.00    -0.294 OA
BRANCH  11  13
ATOM     13  C   UNL     1      -7.277   4.571  55.630  1.00  0.00    -0.002 C 
ATOM     14  C   UNL     1      -6.645   4.932  56.781  1.00  0.00    -0.069 C 
ATOM     15  C   UNL     1      -5.902   3.913  57.617  1.00  0.00     0.039 C 
ATOM     16  C   UNL     1      -6.699   6.355  57.285  1.00  0.00     0.039 C 
BRANCH  13  17
ATOM     17  C   UNL     1      -8.103   5.587  54.847  1.00  0.00     0.066 CG0
ATOM     18  G   UNL     1      -9.259   4.976  54.090  1.00  0.00     0.000 G0
ENDBRANCH  13  17
ENDBRANCH  11  13
ENDBRANCH  10  11
ENDBRANCH   1  10
TORSDOF 0
ENDMDL
