MODEL 1
REMARK VINA RESULT:     0.241      0.000      0.000
REMARK INTER + INTRA:          -0.517
REMARK INTER:                   0.636
REMARK INTRA:                  -1.153
REMARK UNBOUND:                -1.153
REMARK SMILES CCCCCCCCCCCCCCCCCCCCCCCCCCCCCC(=O)[O-]
REMARK SMILES IDX 16 1 17 2 18 3 19 4 20 5 21 6 22 7 23 8 24 9 25 10 26 11
REMARK SMILES IDX 27 12 28 13 29 14 30 15 31 16 32 17 15 18 14 19 13 20 12 21
REMARK SMILES IDX 11 22 10 23 9 24 8 25 7 26 6 27 5 28 4 29 3 30 2 31 1 32
REMARK H PARENT
REMARK Flexibility Score: inf
ROOT
ATOM      1  C   UNL     1      -2.223 -22.112  15.301  1.00  0.00     0.000 C 
ENDROOT
BRANCH   1   2
ATOM      2  C   UNL     1      -1.305 -22.777  16.344  1.00  0.00     0.000 C 
BRANCH   2   3
ATOM      3  C   UNL     1       0.154 -22.298  16.240  1.00  0.00     0.000 C 
BRANCH   3   4
ATOM      4  C   UNL     1       1.041 -23.123  15.288  1.00  0.00     0.000 C 
BRANCH   4   5
ATOM      5  C   UNL     1       2.393 -22.445  14.997  1.00  0.00     0.000 C 
BRANCH   5   6
ATOM      6  C   UNL     1       3.527 -22.964  15.895  1.00  0.00     0.000 C 
BRANCH   6   7
ATOM      7  C   UNL     1       4.868 -22.261  15.617  1.00  0.00     0.000 C 
BRANCH   7   8
ATOM      8  C   UNL     1       5.436 -21.558  16.865  1.00  0.00     0.000 C 
BRANCH   8   9
ATOM      9  C   UNL     1       6.452 -22.403  17.660  1.00  0.00     0.000 C 
BRANCH   9  10
ATOM     10  C   UNL     1       7.910 -22.045  17.329  1.00  0.00     0.000 C 
BRANCH  10  11
ATOM     11  C   UNL     1       8.422 -22.867  16.139  1.00  0.00     0.000 C 
BRANCH  11  12
ATOM     12  C   UNL     1       8.739 -21.960  14.940  1.00  0.00     0.000 C 
BRANCH  12  13
ATOM     13  C   UNL     1       7.962 -22.359  13.675  1.00  0.00     0.006 C 
BRANCH  13  14
ATOM     14  C   UNL     1       8.860 -22.463  12.436  1.00  0.00     0.053 C 
BRANCH  14  15
ATOM     15  C   UNL     1       8.630 -21.297  11.527  1.00  0.00     0.041 C 
ATOM     16  O   UNL     1       8.329 -20.169  12.001  1.00  0.00    -0.550 OA
ATOM     17  O   UNL     1       8.699 -21.469  10.149  1.00  0.00    -0.550 OA
ENDBRANCH  14  15
ENDBRANCH  13  14
ENDBRANCH  12  13
ENDBRANCH  11  12
ENDBRANCH  10  11
ENDBRANCH   9  10
ENDBRANCH   8   9
ENDBRANCH   7   8
ENDBRANCH   6   7
ENDBRANCH   5   6
ENDBRANCH   4   5
ENDBRANCH   3   4
ENDBRANCH   2   3
ENDBRANCH   1   2
BRANCH   1  18
ATOM     18  C   UNL     1      -3.693 -22.050  15.747  1.00  0.00     0.000 C 
BRANCH  18  19
ATOM     19  C   UNL     1      -4.030 -22.818  17.039  1.00  0.00     0.000 C 
BRANCH  19  20
ATOM     20  C   UNL     1      -5.538 -22.903  17.359  1.00  0.00     0.000 C 
BRANCH  20  21
ATOM     21  C   UNL     1      -6.411 -23.003  16.093  1.00  0.00     0.000 C 
BRANCH  21  22
ATOM     22  C   UNL     1      -6.673 -21.637  15.430  1.00  0.00     0.000 C 
BRANCH  22  23
ATOM     23  C   UNL     1      -7.971 -20.928  15.872  1.00  0.00     0.000 C 
BRANCH  23  24
ATOM     24  C   UNL     1      -8.979 -20.633  14.741  1.00  0.00    -0.000 C 
BRANCH  24  25
ATOM     25  C   UNL     1     -10.456 -20.599  15.183  1.00  0.00    -0.000 C 
BRANCH  25  26
ATOM     26  C   UNL     1     -11.038 -21.967  15.592  1.00  0.00    -0.000 C 
BRANCH  26  27
ATOM     27  C   UNL     1     -11.062 -22.240  17.110  1.00  0.00    -0.000 C 
BRANCH  27  28
ATOM     28  C   UNL     1     -10.675 -21.044  18.000  1.00  0.00    -0.000 C 
BRANCH  28  29
ATOM     29  C   UNL     1     -10.994 -21.281  19.485  1.00  0.00    -0.000 C 
BRANCH  29  30
ATOM     30  C   UNL     1      -9.848 -21.978  20.235  1.00  0.00    -0.000 C 
BRANCH  30  31
ATOM     31  C   UNL     1     -10.011 -21.946  21.770  1.00  0.00    -0.003 C 
ATOM     32  C   UNL     1      -8.980 -21.040  22.442  1.00  0.00     0.004 C 
ENDBRANCH  30  31
ENDBRANCH  29  30
ENDBRANCH  28  29
ENDBRANCH  27  28
ENDBRANCH  26  27
ENDBRANCH  25  26
ENDBRANCH  24  25
ENDBRANCH  23  24
ENDBRANCH  22  23
ENDBRANCH  21  22
ENDBRANCH  20  21
ENDBRANCH  19  20
ENDBRANCH  18  19
ENDBRANCH   1  18
TORSDOF 28
ENDMDL
