MODEL 1
REMARK VINA RESULT:    -7.862      0.000      0.000
REMARK INTER + INTRA:          -8.542
REMARK INTER:                  -8.321
REMARK INTRA:                  -0.220
REMARK UNBOUND:                -0.220
REMARK SMILES O=c1cc(-c2ccccc2)oc2ccccc12
REMARK SMILES IDX 4 1 3 2 2 3 1 4 17 5 16 6 15 7 14 8 13 9 12 10 11 11 5 12
REMARK SMILES IDX 8 13 7 14 9 15 6 16 10 17
REMARK H PARENT
REMARK Flexibility Score: inf
ROOT
ATOM      1  C   UNL     1       1.449  -6.127  -8.368  1.00  0.00     0.138 A 
ATOM      2  C   UNL     1       0.650  -7.120  -7.764  1.00  0.00     0.100 A 
ATOM      3  C   UNL     1      -0.660  -6.815  -7.389  1.00  0.00     0.193 A 
ATOM      4  O   UNL     1      -1.375  -7.702  -6.849  1.00  0.00    -0.289 OA
ATOM      5  C   UNL     1      -1.162  -5.526  -7.615  1.00  0.00     0.065 A 
ATOM      6  C   UNL     1      -2.472  -5.153  -7.262  1.00  0.00     0.016 A 
ATOM      7  C   UNL     1      -2.921  -3.853  -7.511  1.00  0.00     0.001 A 
ATOM      8  C   UNL     1      -2.072  -2.919  -8.114  1.00  0.00     0.004 A 
ATOM      9  C   UNL     1      -0.770  -3.281  -8.470  1.00  0.00     0.048 A 
ATOM     10  C   UNL     1      -0.310  -4.579  -8.223  1.00  0.00     0.138 A 
ATOM     11  O   UNL     1       0.931  -4.914  -8.565  1.00  0.00    -0.456 OA
ENDROOT
BRANCH   1  12
ATOM     12  C   UNL     1       2.860  -6.369  -8.800  1.00  0.00     0.017 A 
ATOM     13  C   UNL     1       5.553  -6.790  -9.532  1.00  0.00     0.000 A 
ATOM     14  C   UNL     1       5.245  -6.250  -8.284  1.00  0.00     0.001 A 
ATOM     15  C   UNL     1       4.529  -7.121 -10.418  1.00  0.00     0.001 A 
ATOM     16  C   UNL     1       3.912  -6.040  -7.920  1.00  0.00     0.012 A 
ATOM     17  C   UNL     1       3.193  -6.916 -10.061  1.00  0.00     0.012 A 
ENDBRANCH   1  12
TORSDOF 1
ENDMDL
MODEL 2
REMARK VINA RESULT:    -7.792      4.835      9.383
REMARK INTER + INTRA:          -8.468
REMARK INTER:                  -8.244
REMARK INTRA:                  -0.224
REMARK UNBOUND:                -0.220
REMARK SMILES O=c1cc(-c2ccccc2)oc2ccccc12
REMARK SMILES IDX 4 1 3 2 2 3 1 4 17 5 16 6 15 7 14 8 13 9 12 10 11 11 5 12
REMARK SMILES IDX 8 13 7 14 9 15 6 16 10 17
REMARK H PARENT
REMARK Flexibility Score: inf
ROOT
ATOM      1  C   UNL     1       7.451  -7.044 -10.082  1.00  0.00     0.138 A 
ATOM      2  C   UNL     1       8.002  -8.303 -10.401  1.00  0.00     0.100 A 
ATOM      3  C   UNL     1       9.299  -8.377 -10.913  1.00  0.00     0.193 A 
ATOM      4  O   UNL     1       9.791  -9.502 -11.199  1.00  0.00    -0.289 OA
ATOM      5  C   UNL     1      10.035  -7.199 -11.103  1.00  0.00     0.065 A 
ATOM      6  C   UNL     1      11.346  -7.203 -11.614  1.00  0.00     0.016 A 
ATOM      7  C   UNL     1      12.036  -5.999 -11.783  1.00  0.00     0.001 A 
ATOM      8  C   UNL     1      11.427  -4.787 -11.444  1.00  0.00     0.004 A 
ATOM      9  C   UNL     1      10.125  -4.773 -10.935  1.00  0.00     0.048 A 
ATOM     10  C   UNL     1       9.426  -5.973 -10.763  1.00  0.00     0.138 A 
ATOM     11  O   UNL     1       8.188  -5.950 -10.278  1.00  0.00    -0.456 OA
ENDROOT
BRANCH   1  12
ATOM     12  C   UNL     1       6.072  -6.875  -9.530  1.00  0.00     0.017 A 
ATOM     13  C   UNL     1       3.433  -6.579  -8.574  1.00  0.00     0.000 A 
ATOM     14  C   UNL     1       3.658  -6.962  -9.896  1.00  0.00     0.001 A 
ATOM     15  C   UNL     1       4.513  -6.343  -7.725  1.00  0.00     0.001 A 
ATOM     16  C   UNL     1       4.964  -7.108 -10.371  1.00  0.00     0.012 A 
ATOM     17  C   UNL     1       5.822  -6.488  -8.192  1.00  0.00     0.012 A 
ENDBRANCH   1  12
TORSDOF 1
ENDMDL
MODEL 3
REMARK VINA RESULT:    -7.667      1.589      2.768
REMARK INTER + INTRA:          -8.336
REMARK INTER:                  -8.115
REMARK INTRA:                  -0.221
REMARK UNBOUND:                -0.220
REMARK SMILES O=c1cc(-c2ccccc2)oc2ccccc12
REMARK SMILES IDX 4 1 3 2 2 3 1 4 17 5 16 6 15 7 14 8 13 9 12 10 11 11 5 12
REMARK SMILES IDX 8 13 7 14 9 15 6 16 10 17
REMARK H PARENT
REMARK Flexibility Score: inf
ROOT
ATOM      1  C   UNL     1       2.173  -6.435  -8.515  1.00  0.00     0.138 A 
ATOM      2  C   UNL     1       1.434  -5.244  -8.677  1.00  0.00     0.100 A 
ATOM      3  C   UNL     1       0.131  -5.170  -8.182  1.00  0.00     0.193 A 
ATOM      4  O   UNL     1      -0.530  -4.106  -8.326  1.00  0.00    -0.289 OA
ATOM      5  C   UNL     1      -0.426  -6.280  -7.532  1.00  0.00     0.065 A 
ATOM      6  C   UNL     1      -1.732  -6.273  -7.009  1.00  0.00     0.016 A 
ATOM      7  C   UNL     1      -2.237  -7.408  -6.370  1.00  0.00     0.001 A 
ATOM      8  C   UNL     1      -1.447  -8.555  -6.245  1.00  0.00     0.004 A 
ATOM      9  C   UNL     1      -0.148  -8.572  -6.760  1.00  0.00     0.048 A 
ATOM     10  C   UNL     1       0.367  -7.441  -7.403  1.00  0.00     0.138 A 
ATOM     11  O   UNL     1       1.604  -7.466  -7.890  1.00  0.00    -0.456 OA
ENDROOT
BRANCH   1  12
ATOM     12  C   UNL     1       3.573  -6.599  -9.014  1.00  0.00     0.017 A 
ATOM     13  C   UNL     1       6.248  -6.887  -9.868  1.00  0.00     0.000 A 
ATOM     14  C   UNL     1       5.970  -6.563  -8.541  1.00  0.00     0.001 A 
ATOM     15  C   UNL     1       5.203  -7.069 -10.773  1.00  0.00     0.001 A 
ATOM     16  C   UNL     1       4.646  -6.419  -8.116  1.00  0.00     0.012 A 
ATOM     17  C   UNL     1       3.876  -6.928 -10.356  1.00  0.00     0.012 A 
ENDBRANCH   1  12
TORSDOF 1
ENDMDL
MODEL 4
REMARK VINA RESULT:    -7.611      9.980     12.402
REMARK INTER + INTRA:          -8.277
REMARK INTER:                  -8.011
REMARK INTRA:                  -0.265
REMARK UNBOUND:                -0.220
REMARK SMILES O=c1cc(-c2ccccc2)oc2ccccc12
REMARK SMILES IDX 4 1 3 2 2 3 1 4 17 5 16 6 15 7 14 8 13 9 12 10 11 11 5 12
REMARK SMILES IDX 8 13 7 14 9 15 6 16 10 17
REMARK H PARENT
REMARK Flexibility Score: inf
ROOT
ATOM      1  C   UNL     1      12.143  -6.041 -12.615  1.00  0.00     0.138 A 
ATOM      2  C   UNL     1      11.170  -5.654 -11.669  1.00  0.00     0.100 A 
ATOM      3  C   UNL     1      10.301  -6.613 -11.145  1.00  0.00     0.193 A 
ATOM      4  O   UNL     1       9.431  -6.267 -10.300  1.00  0.00    -0.289 OA
ATOM      5  C   UNL     1      10.406  -7.945 -11.566  1.00  0.00     0.065 A 
ATOM      6  C   UNL     1       9.562  -8.960 -11.077  1.00  0.00     0.016 A 
ATOM      7  C   UNL     1       9.711 -10.273 -11.531  1.00  0.00     0.001 A 
ATOM      8  C   UNL     1      10.699 -10.585 -12.471  1.00  0.00     0.004 A 
ATOM      9  C   UNL     1      11.542  -9.584 -12.961  1.00  0.00     0.048 A 
ATOM     10  C   UNL     1      11.401  -8.266 -12.514  1.00  0.00     0.138 A 
ATOM     11  O   UNL     1      12.208  -7.320 -12.986  1.00  0.00    -0.456 OA
ENDROOT
BRANCH   1  12
ATOM     12  C   UNL     1      13.113  -5.081 -13.225  1.00  0.00     0.017 A 
ATOM     13  C   UNL     1      14.972  -3.338 -14.437  1.00  0.00     0.000 A 
ATOM     14  C   UNL     1      14.866  -4.657 -14.874  1.00  0.00     0.001 A 
ATOM     15  C   UNL     1      14.160  -2.880 -13.401  1.00  0.00     0.001 A 
ATOM     16  C   UNL     1      13.946  -5.522 -14.275  1.00  0.00     0.012 A 
ATOM     17  C   UNL     1      13.236  -3.738 -12.797  1.00  0.00     0.012 A 
ENDBRANCH   1  12
TORSDOF 1
ENDMDL
MODEL 5
REMARK VINA RESULT:    -7.518      9.723     11.949
REMARK INTER + INTRA:          -8.178
REMARK INTER:                  -7.916
REMARK INTRA:                  -0.262
REMARK UNBOUND:                -0.220
REMARK SMILES O=c1cc(-c2ccccc2)oc2ccccc12
REMARK SMILES IDX 4 1 3 2 2 3 1 4 17 5 16 6 15 7 14 8 13 9 12 10 11 11 5 12
REMARK SMILES IDX 8 13 7 14 9 15 6 16 10 17
REMARK H PARENT
REMARK Flexibility Score: inf
ROOT
ATOM      1  C   UNL     1      10.872  -7.192 -11.647  1.00  0.00     0.138 A 
ATOM      2  C   UNL     1      10.526  -6.189 -10.717  1.00  0.00     0.100 A 
ATOM      3  C   UNL     1      11.123  -4.930 -10.810  1.00  0.00     0.193 A 
ATOM      4  O   UNL     1      10.814  -4.034  -9.978  1.00  0.00    -0.289 OA
ATOM      5  C   UNL     1      12.059  -4.681 -11.823  1.00  0.00     0.065 A 
ATOM      6  C   UNL     1      12.697  -3.436 -11.972  1.00  0.00     0.016 A 
ATOM      7  C   UNL     1      13.622  -3.242 -13.001  1.00  0.00     0.001 A 
ATOM      8  C   UNL     1      13.916  -4.283 -13.888  1.00  0.00     0.004 A 
ATOM      9  C   UNL     1      13.287  -5.523 -13.749  1.00  0.00     0.048 A 
ATOM     10  C   UNL     1      12.360  -5.728 -12.720  1.00  0.00     0.138 A 
ATOM     11  O   UNL     1      11.766  -6.911 -12.596  1.00  0.00    -0.456 OA
ENDROOT
BRANCH   1  12
ATOM     12  C   UNL     1      10.281  -8.565 -11.621  1.00  0.00     0.017 A 
ATOM     13  C   UNL     1       9.094 -11.124 -11.515  1.00  0.00     0.000 A 
ATOM     14  C   UNL     1       8.510 -10.055 -10.837  1.00  0.00     0.001 A 
ATOM     15  C   UNL     1      10.266 -10.928 -12.245  1.00  0.00     0.001 A 
ATOM     16  C   UNL     1       9.096  -8.787 -10.888  1.00  0.00     0.012 A 
ATOM     17  C   UNL     1      10.857  -9.663 -12.302  1.00  0.00     0.012 A 
ENDBRANCH   1  12
TORSDOF 1
ENDMDL
MODEL 6
REMARK VINA RESULT:    -7.405      1.765      2.416
REMARK INTER + INTRA:          -8.058
REMARK INTER:                  -7.815
REMARK INTRA:                  -0.244
REMARK UNBOUND:                -0.220
REMARK SMILES O=c1cc(-c2ccccc2)oc2ccccc12
REMARK SMILES IDX 4 1 3 2 2 3 1 4 17 5 16 6 15 7 14 8 13 9 12 10 11 11 5 12
REMARK SMILES IDX 8 13 7 14 9 15 6 16 10 17
REMARK H PARENT
REMARK Flexibility Score: inf
ROOT
ATOM      1  C   UNL     1       0.745  -4.592  -8.537  1.00  0.00     0.138 A 
ATOM      2  C   UNL     1      -0.058  -4.542  -9.696  1.00  0.00     0.100 A 
ATOM      3  C   UNL     1      -1.362  -4.048  -9.610  1.00  0.00     0.193 A 
ATOM      4  O   UNL     1      -2.079  -4.004 -10.645  1.00  0.00    -0.289 OA
ATOM      5  C   UNL     1      -1.855  -3.611  -8.372  1.00  0.00     0.065 A 
ATOM      6  C   UNL     1      -3.158  -3.104  -8.216  1.00  0.00     0.016 A 
ATOM      7  C   UNL     1      -3.598  -2.681  -6.959  1.00  0.00     0.001 A 
ATOM      8  C   UNL     1      -2.747  -2.759  -5.852  1.00  0.00     0.004 A 
ATOM      9  C   UNL     1      -1.450  -3.261  -5.998  1.00  0.00     0.048 A 
ATOM     10  C   UNL     1      -1.000  -3.688  -7.252  1.00  0.00     0.138 A 
ATOM     11  O   UNL     1       0.235  -4.164  -7.381  1.00  0.00    -0.456 OA
ENDROOT
BRANCH   1  12
ATOM     12  C   UNL     1       2.149  -5.104  -8.541  1.00  0.00     0.017 A 
ATOM     13  C   UNL     1       4.828  -5.993  -8.499  1.00  0.00     0.000 A 
ATOM     14  C   UNL     1       4.481  -4.793  -7.880  1.00  0.00     0.001 A 
ATOM     15  C   UNL     1       3.850  -6.753  -9.139  1.00  0.00     0.001 A 
ATOM     16  C   UNL     1       3.155  -4.351  -7.900  1.00  0.00     0.012 A 
ATOM     17  C   UNL     1       2.522  -6.319  -9.163  1.00  0.00     0.012 A 
ENDBRANCH   1  12
TORSDOF 1
ENDMDL
MODEL 7
REMARK VINA RESULT:    -7.306      4.642      9.509
REMARK INTER + INTRA:          -7.953
REMARK INTER:                  -7.719
REMARK INTRA:                  -0.234
REMARK UNBOUND:                -0.220
REMARK SMILES O=c1cc(-c2ccccc2)oc2ccccc12
REMARK SMILES IDX 4 1 3 2 2 3 1 4 17 5 16 6 15 7 14 8 13 9 12 10 11 11 5 12
REMARK SMILES IDX 8 13 7 14 9 15 6 16 10 17
REMARK H PARENT
REMARK Flexibility Score: inf
ROOT
ATOM      1  C   UNL     1       7.202  -7.360  -9.934  1.00  0.00     0.138 A 
ATOM      2  C   UNL     1       8.261  -6.454 -10.154  1.00  0.00     0.100 A 
ATOM      3  C   UNL     1       9.450  -6.911 -10.727  1.00  0.00     0.193 A 
ATOM      4  O   UNL     1      10.396  -6.102 -10.924  1.00  0.00    -0.289 OA
ATOM      5  C   UNL     1       9.575  -8.264 -11.072  1.00  0.00     0.065 A 
ATOM      6  C   UNL     1      10.744  -8.790 -11.652  1.00  0.00     0.016 A 
ATOM      7  C   UNL     1      10.815 -10.147 -11.977  1.00  0.00     0.001 A 
ATOM      8  C   UNL     1       9.725 -10.988 -11.730  1.00  0.00     0.004 A 
ATOM      9  C   UNL     1       8.559 -10.474 -11.156  1.00  0.00     0.048 A 
ATOM     10  C   UNL     1       8.478  -9.117 -10.825  1.00  0.00     0.138 A 
ATOM     11  O   UNL     1       7.364  -8.637 -10.279  1.00  0.00    -0.456 OA
ENDROOT
BRANCH   1  12
ATOM     12  C   UNL     1       5.897  -6.954  -9.328  1.00  0.00     0.017 A 
ATOM     13  C   UNL     1       3.388  -6.218  -8.264  1.00  0.00     0.000 A 
ATOM     14  C   UNL     1       3.469  -6.776  -9.539  1.00  0.00     0.001 A 
ATOM     15  C   UNL     1       4.548  -6.024  -7.515  1.00  0.00     0.001 A 
ATOM     16  C   UNL     1       4.710  -7.141 -10.068  1.00  0.00     0.012 A 
ATOM     17  C   UNL     1       5.793  -6.387  -8.036  1.00  0.00     0.012 A 
ENDBRANCH   1  12
TORSDOF 1
ENDMDL
MODEL 8
REMARK VINA RESULT:    -7.284      1.714      6.295
REMARK INTER + INTRA:          -7.930
REMARK INTER:                  -7.710
REMARK INTRA:                  -0.221
REMARK UNBOUND:                -0.220
REMARK SMILES O=c1cc(-c2ccccc2)oc2ccccc12
REMARK SMILES IDX 4 1 3 2 2 3 1 4 17 5 16 6 15 7 14 8 13 9 12 10 11 11 5 12
REMARK SMILES IDX 8 13 7 14 9 15 6 16 10 17
REMARK H PARENT
REMARK Flexibility Score: inf
ROOT
ATOM      1  C   UNL     1       1.923  -5.214  -8.602  1.00  0.00     0.138 A 
ATOM      2  C   UNL     1       2.731  -4.510  -7.684  1.00  0.00     0.100 A 
ATOM      3  C   UNL     1       4.107  -4.745  -7.658  1.00  0.00     0.193 A 
ATOM      4  O   UNL     1       4.830  -4.116  -6.837  1.00  0.00    -0.289 OA
ATOM      5  C   UNL     1       4.666  -5.677  -8.542  1.00  0.00     0.065 A 
ATOM      6  C   UNL     1       6.044  -5.961  -8.568  1.00  0.00     0.016 A 
ATOM      7  C   UNL     1       6.549  -6.900  -9.472  1.00  0.00     0.001 A 
ATOM      8  C   UNL     1       5.688  -7.561 -10.355  1.00  0.00     0.004 A 
ATOM      9  C   UNL     1       4.318  -7.284 -10.337  1.00  0.00     0.048 A 
ATOM     10  C   UNL     1       3.802  -6.346  -9.435  1.00  0.00     0.138 A 
ATOM     11  O   UNL     1       2.498  -6.091  -9.426  1.00  0.00    -0.456 OA
ENDROOT
BRANCH   1  12
ATOM     12  C   UNL     1       0.443  -5.023  -8.697  1.00  0.00     0.017 A 
ATOM     13  C   UNL     1      -2.362  -4.740  -8.820  1.00  0.00     0.000 A 
ATOM     14  C   UNL     1      -1.798  -5.779  -8.082  1.00  0.00     0.001 A 
ATOM     15  C   UNL     1      -1.540  -3.841  -9.497  1.00  0.00     0.001 A 
ATOM     16  C   UNL     1      -0.408  -5.921  -8.020  1.00  0.00     0.012 A 
ATOM     17  C   UNL     1      -0.150  -3.975  -9.439  1.00  0.00     0.012 A 
ENDBRANCH   1  12
TORSDOF 1
ENDMDL
MODEL 9
REMARK VINA RESULT:    -7.193      1.741      2.652
REMARK INTER + INTRA:          -7.833
REMARK INTER:                  -7.573
REMARK INTRA:                  -0.261
REMARK UNBOUND:                -0.220
REMARK SMILES O=c1cc(-c2ccccc2)oc2ccccc12
REMARK SMILES IDX 4 1 3 2 2 3 1 4 17 5 16 6 15 7 14 8 13 9 12 10 11 11 5 12
REMARK SMILES IDX 8 13 7 14 9 15 6 16 10 17
REMARK H PARENT
REMARK Flexibility Score: inf
ROOT
ATOM      1  C   UNL     1       0.795  -4.642  -8.231  1.00  0.00     0.138 A 
ATOM      2  C   UNL     1       0.414  -3.708  -7.244  1.00  0.00     0.100 A 
ATOM      3  C   UNL     1      -0.921  -3.309  -7.153  1.00  0.00     0.193 A 
ATOM      4  O   UNL     1      -1.262  -2.475  -6.271  1.00  0.00    -0.289 OA
ATOM      5  C   UNL     1      -1.864  -3.841  -8.044  1.00  0.00     0.065 A 
ATOM      6  C   UNL     1      -3.224  -3.482  -8.007  1.00  0.00     0.016 A 
ATOM      7  C   UNL     1      -4.121  -4.043  -8.919  1.00  0.00     0.001 A 
ATOM      8  C   UNL     1      -3.673  -4.964  -9.872  1.00  0.00     0.004 A 
ATOM      9  C   UNL     1      -2.324  -5.327  -9.916  1.00  0.00     0.048 A 
ATOM     10  C   UNL     1      -1.417  -4.770  -9.007  1.00  0.00     0.138 A 
ATOM     11  O   UNL     1      -0.135  -5.122  -9.057  1.00  0.00    -0.456 OA
ENDROOT
BRANCH   1  12
ATOM     12  C   UNL     1       2.201  -5.122  -8.397  1.00  0.00     0.017 A 
ATOM     13  C   UNL     1       4.821  -6.108  -8.757  1.00  0.00     0.000 A 
ATOM     14  C   UNL     1       3.731  -6.831  -9.239  1.00  0.00     0.001 A 
ATOM     15  C   UNL     1       4.615  -4.898  -8.096  1.00  0.00     0.001 A 
ATOM     16  C   UNL     1       2.433  -6.345  -9.062  1.00  0.00     0.012 A 
ATOM     17  C   UNL     1       3.320  -4.404  -7.916  1.00  0.00     0.012 A 
ENDBRANCH   1  12
TORSDOF 1
ENDMDL
