MODEL 1
REMARK VINA RESULT:    -3.099      0.000      0.000
REMARK INTER + INTRA:          -3.304
REMARK INTER:                  -3.280
REMARK INTRA:                  -0.023
REMARK UNBOUND:                -0.023
REMARK SMILES O=C([O-])c1cccnc1
REMARK SMILES IDX 4 1 5 2 9 3 6 4 8 5 7 6 2 7 1 8 3 9
REMARK H PARENT
REMARK Flexibility Score: inf
ROOT
ATOM      1  C   UNL     1       4.506  -2.054   9.544  1.00  0.00     0.016 A 
ATOM      2  C   UNL     1       3.418  -1.372  10.115  1.00  0.00     0.013 A 
ATOM      3  C   UNL     1       5.553  -1.295   8.990  1.00  0.00     0.120 A 
ATOM      4  C   UNL     1       3.392   0.023  10.125  1.00  0.00     0.021 A 
ATOM      5  N   UNL     1       5.503   0.064   9.013  1.00  0.00    -0.264 NA
ATOM      6  C   UNL     1       4.455   0.732   9.563  1.00  0.00     0.111 A 
ENDROOT
BRANCH   1   7
ATOM      7  C   UNL     1       4.545  -3.532   9.527  1.00  0.00     0.073 C 
ATOM      8  O   UNL     1       5.608  -4.141   9.235  1.00  0.00    -0.545 OA
ATOM      9  O   UNL     1       3.408  -4.270   9.835  1.00  0.00    -0.545 OA
ENDBRANCH   1   7
TORSDOF 1
ENDMDL
MODEL 2
REMARK VINA RESULT:    -3.082      1.582      2.158
REMARK INTER + INTRA:          -3.286
REMARK INTER:                  -3.267
REMARK INTRA:                  -0.019
REMARK UNBOUND:                -0.023
REMARK SMILES O=C([O-])c1cccnc1
REMARK SMILES IDX 4 1 5 2 9 3 6 4 8 5 7 6 2 7 1 8 3 9
REMARK H PARENT
REMARK Flexibility Score: inf
ROOT
ATOM      1  C   UNL     1       6.142  -2.063   9.122  1.00  0.00     0.016 A 
ATOM      2  C   UNL     1       4.983  -1.421   8.655  1.00  0.00     0.013 A 
ATOM      3  C   UNL     1       7.094  -1.300   9.821  1.00  0.00     0.120 A 
ATOM      4  C   UNL     1       4.796  -0.058   8.889  1.00  0.00     0.021 A 
ATOM      5  N   UNL     1       6.886   0.027  10.035  1.00  0.00    -0.264 NA
ATOM      6  C   UNL     1       5.768   0.658   9.588  1.00  0.00     0.111 A 
ENDROOT
BRANCH   1   7
ATOM      7  C   UNL     1       6.353  -3.507   8.880  1.00  0.00     0.073 C 
ATOM      8  O   UNL     1       5.468  -4.346   9.197  1.00  0.00    -0.545 OA
ATOM      9  O   UNL     1       7.531  -3.958   8.298  1.00  0.00    -0.545 OA
ENDBRANCH   1   7
TORSDOF 1
ENDMDL
MODEL 3
REMARK VINA RESULT:    -2.992      8.508      9.356
REMARK INTER + INTRA:          -3.191
REMARK INTER:                  -3.175
REMARK INTRA:                  -0.016
REMARK UNBOUND:                -0.023
REMARK SMILES O=C([O-])c1cccnc1
REMARK SMILES IDX 4 1 5 2 9 3 6 4 8 5 7 6 2 7 1 8 3 9
REMARK H PARENT
REMARK Flexibility Score: inf
ROOT
ATOM      1  C   UNL     1      -3.446  -6.472   8.288  1.00  0.00     0.016 A 
ATOM      2  C   UNL     1      -3.113  -5.151   8.629  1.00  0.00     0.013 A 
ATOM      3  C   UNL     1      -2.410  -7.349   7.920  1.00  0.00     0.120 A 
ATOM      4  C   UNL     1      -1.781  -4.734   8.600  1.00  0.00     0.021 A 
ATOM      5  N   UNL     1      -1.120  -6.917   7.900  1.00  0.00    -0.264 NA
ATOM      6  C   UNL     1      -0.787  -5.641   8.228  1.00  0.00     0.111 A 
ENDROOT
BRANCH   1   7
ATOM      7  C   UNL     1      -4.853  -6.926   8.314  1.00  0.00     0.073 C 
ATOM      8  O   UNL     1      -5.338  -7.449   9.353  1.00  0.00    -0.545 OA
ATOM      9  O   UNL     1      -5.661  -6.780   7.193  1.00  0.00    -0.545 OA
ENDBRANCH   1   7
TORSDOF 1
ENDMDL
MODEL 4
REMARK VINA RESULT:    -2.897      6.704      7.545
REMARK INTER + INTRA:          -3.089
REMARK INTER:                  -3.070
REMARK INTRA:                  -0.019
REMARK UNBOUND:                -0.023
REMARK SMILES O=C([O-])c1cccnc1
REMARK SMILES IDX 4 1 5 2 9 3 6 4 8 5 7 6 2 7 1 8 3 9
REMARK H PARENT
REMARK Flexibility Score: inf
ROOT
ATOM      1  C   UNL     1      -0.552  -6.375   8.763  1.00  0.00     0.016 A 
ATOM      2  C   UNL     1      -0.995  -5.044   8.689  1.00  0.00     0.013 A 
ATOM      3  C   UNL     1      -1.509  -7.402   8.687  1.00  0.00     0.120 A 
ATOM      4  C   UNL     1      -2.354  -4.764   8.542  1.00  0.00     0.021 A 
ATOM      5  N   UNL     1      -2.828  -7.102   8.543  1.00  0.00    -0.264 NA
ATOM      6  C   UNL     1      -3.267  -5.818   8.470  1.00  0.00     0.111 A 
ENDROOT
BRANCH   1   7
ATOM      7  C   UNL     1       0.885  -6.683   8.919  1.00  0.00     0.073 C 
ATOM      8  O   UNL     1       1.574  -6.101   9.799  1.00  0.00    -0.545 OA
ATOM      9  O   UNL     1       1.497  -7.622   8.097  1.00  0.00    -0.545 OA
ENDBRANCH   1   7
TORSDOF 1
ENDMDL
MODEL 5
REMARK VINA RESULT:    -2.769     11.452     12.261
REMARK INTER + INTRA:          -2.954
REMARK INTER:                  -2.937
REMARK INTRA:                  -0.017
REMARK UNBOUND:                -0.023
REMARK SMILES O=C([O-])c1cccnc1
REMARK SMILES IDX 4 1 5 2 9 3 6 4 8 5 7 6 2 7 1 8 3 9
REMARK H PARENT
REMARK Flexibility Score: inf
ROOT
ATOM      1  C   UNL     1      -5.431  -8.364   6.370  1.00  0.00     0.016 A 
ATOM      2  C   UNL     1      -5.743  -7.232   7.141  1.00  0.00     0.013 A 
ATOM      3  C   UNL     1      -4.155  -8.936   6.510  1.00  0.00     0.120 A 
ATOM      4  C   UNL     1      -4.798  -6.702   8.021  1.00  0.00     0.021 A 
ATOM      5  N   UNL     1      -3.252  -8.400   7.375  1.00  0.00    -0.264 NA
ATOM      6  C   UNL     1      -3.545  -7.305   8.125  1.00  0.00     0.111 A 
ENDROOT
BRANCH   1   7
ATOM      7  C   UNL     1      -6.424  -8.934   5.434  1.00  0.00     0.073 C 
ATOM      8  O   UNL     1      -6.670  -8.367   4.336  1.00  0.00    -0.545 OA
ATOM      9  O   UNL     1      -7.099 -10.107   5.753  1.00  0.00    -0.545 OA
ENDBRANCH   1   7
TORSDOF 1
ENDMDL
MODEL 6
REMARK VINA RESULT:    -2.753      9.473     10.486
REMARK INTER + INTRA:          -2.937
REMARK INTER:                  -2.921
REMARK INTRA:                  -0.016
REMARK UNBOUND:                -0.023
REMARK SMILES O=C([O-])c1cccnc1
REMARK SMILES IDX 4 1 5 2 9 3 6 4 8 5 7 6 2 7 1 8 3 9
REMARK H PARENT
REMARK Flexibility Score: inf
ROOT
ATOM      1  C   UNL     1      -4.188  -7.186   7.869  1.00  0.00     0.016 A 
ATOM      2  C   UNL     1      -3.265  -8.146   7.422  1.00  0.00     0.013 A 
ATOM      3  C   UNL     1      -3.697  -6.030   8.501  1.00  0.00     0.120 A 
ATOM      4  C   UNL     1      -1.897  -7.942   7.607  1.00  0.00     0.021 A 
ATOM      5  N   UNL     1      -2.358  -5.856   8.668  1.00  0.00    -0.264 NA
ATOM      6  C   UNL     1      -1.457  -6.779   8.239  1.00  0.00     0.111 A 
ENDROOT
BRANCH   1   7
ATOM      7  C   UNL     1      -5.640  -7.391   7.679  1.00  0.00     0.073 C 
ATOM      8  O   UNL     1      -6.282  -8.171   8.432  1.00  0.00    -0.545 OA
ATOM      9  O   UNL     1      -6.319  -6.723   6.665  1.00  0.00    -0.545 OA
ENDBRANCH   1   7
TORSDOF 1
ENDMDL
MODEL 7
REMARK VINA RESULT:    -2.738     13.725     14.539
REMARK INTER + INTRA:          -2.921
REMARK INTER:                  -2.901
REMARK INTRA:                  -0.020
REMARK UNBOUND:                -0.023
REMARK SMILES O=C([O-])c1cccnc1
REMARK SMILES IDX 4 1 5 2 9 3 6 4 8 5 7 6 2 7 1 8 3 9
REMARK H PARENT
REMARK Flexibility Score: inf
ROOT
ATOM      1  C   UNL     1      -6.491  -8.978   4.721  1.00  0.00     0.016 A 
ATOM      2  C   UNL     1      -6.416  -8.600   3.370  1.00  0.00     0.013 A 
ATOM      3  C   UNL     1      -7.752  -9.301   5.254  1.00  0.00     0.120 A 
ATOM      4  C   UNL     1      -7.572  -8.552   2.589  1.00  0.00     0.021 A 
ATOM      5  N   UNL     1      -8.863  -9.247   4.472  1.00  0.00    -0.264 NA
ATOM      6  C   UNL     1      -8.800  -8.882   3.164  1.00  0.00     0.111 A 
ENDROOT
BRANCH   1   7
ATOM      7  C   UNL     1      -5.274  -9.031   5.558  1.00  0.00     0.073 C 
ATOM      8  O   UNL     1      -4.204  -9.516   5.102  1.00  0.00    -0.545 OA
ATOM      9  O   UNL     1      -5.293  -8.547   6.861  1.00  0.00    -0.545 OA
ENDBRANCH   1   7
TORSDOF 1
ENDMDL
MODEL 8
REMARK VINA RESULT:    -2.695      7.917      8.986
REMARK INTER + INTRA:          -2.876
REMARK INTER:                  -2.852
REMARK INTRA:                  -0.024
REMARK UNBOUND:                -0.023
REMARK SMILES O=C([O-])c1cccnc1
REMARK SMILES IDX 4 1 5 2 9 3 6 4 8 5 7 6 2 7 1 8 3 9
REMARK H PARENT
REMARK Flexibility Score: inf
ROOT
ATOM      1  C   UNL     1      -2.479  -5.772   8.688  1.00  0.00     0.016 A 
ATOM      2  C   UNL     1      -3.714  -6.399   8.454  1.00  0.00     0.013 A 
ATOM      3  C   UNL     1      -1.311  -6.402   8.220  1.00  0.00     0.120 A 
ATOM      4  C   UNL     1      -3.765  -7.615   7.771  1.00  0.00     0.021 A 
ATOM      5  N   UNL     1      -1.389  -7.587   7.557  1.00  0.00    -0.264 NA
ATOM      6  C   UNL     1      -2.580  -8.201   7.325  1.00  0.00     0.111 A 
ENDROOT
BRANCH   1   7
ATOM      7  C   UNL     1      -2.412  -4.484   9.410  1.00  0.00     0.073 C 
ATOM      8  O   UNL     1      -3.466  -3.870   9.725  1.00  0.00    -0.545 OA
ATOM      9  O   UNL     1      -1.183  -3.933   9.754  1.00  0.00    -0.545 OA
ENDBRANCH   1   7
TORSDOF 1
ENDMDL
MODEL 9
REMARK VINA RESULT:    -2.694      7.858      8.680
REMARK INTER + INTRA:          -2.875
REMARK INTER:                  -2.859
REMARK INTRA:                  -0.016
REMARK UNBOUND:                -0.023
REMARK SMILES O=C([O-])c1cccnc1
REMARK SMILES IDX 4 1 5 2 9 3 6 4 8 5 7 6 2 7 1 8 3 9
REMARK H PARENT
REMARK Flexibility Score: inf
ROOT
ATOM      1  C   UNL     1      -2.073  -7.070   8.038  1.00  0.00     0.016 A 
ATOM      2  C   UNL     1      -1.138  -6.026   8.135  1.00  0.00     0.013 A 
ATOM      3  C   UNL     1      -3.393  -6.827   8.456  1.00  0.00     0.120 A 
ATOM      4  C   UNL     1      -1.527  -4.783   8.635  1.00  0.00     0.021 A 
ATOM      5  N   UNL     1      -3.746  -5.605   8.939  1.00  0.00    -0.264 NA
ATOM      6  C   UNL     1      -2.849  -4.588   9.037  1.00  0.00     0.111 A 
ENDROOT
BRANCH   1   7
ATOM      7  C   UNL     1      -1.673  -8.393   7.510  1.00  0.00     0.073 C 
ATOM      8  O   UNL     1      -1.435  -9.350   8.293  1.00  0.00    -0.545 OA
ATOM      9  O   UNL     1      -1.556  -8.597   6.140  1.00  0.00    -0.545 OA
ENDBRANCH   1   7
TORSDOF 1
ENDMDL
