MODEL 1
REMARK VINA RESULT:    -3.624      0.000      0.000
REMARK INTER + INTRA:          -4.816
REMARK INTER:                  -4.683
REMARK INTRA:                  -0.133
REMARK UNBOUND:                -0.133
REMARK SMILES CCCCCCC(=O)[O-]
REMARK SMILES IDX 5 1 6 2 7 3 8 4 9 5 4 6 3 7 2 8 1 9
REMARK H PARENT
REMARK Flexibility Score: inf
ROOT
ATOM      1  C   UNL     1      -2.124 -15.538 -26.232  1.00  0.00     0.006 C 
ENDROOT
BRANCH   1   2
ATOM      2  C   UNL     1      -1.159 -16.648 -26.668  1.00  0.00     0.053 C 
BRANCH   2   3
ATOM      3  C   UNL     1      -1.241 -17.809 -25.729  1.00  0.00     0.041 C 
ATOM      4  O   UNL     1      -2.124 -17.839 -24.832  1.00  0.00    -0.550 OA
ATOM      5  O   UNL     1      -0.373 -18.884 -25.876  1.00  0.00    -0.550 OA
ENDBRANCH   2   3
ENDBRANCH   1   2
BRANCH   1   6
ATOM      6  C   UNL     1      -1.499 -14.136 -26.325  1.00  0.00     0.000 C 
BRANCH   6   7
ATOM      7  C   UNL     1      -1.549 -13.562 -27.751  1.00  0.00    -0.000 C 
BRANCH   7   8
ATOM      8  C   UNL     1      -0.342 -12.665 -28.066  1.00  0.00    -0.003 C 
ATOM      9  C   UNL     1      -0.454 -11.276 -27.435  1.00  0.00     0.004 C 
ENDBRANCH   7   8
ENDBRANCH   6   7
ENDBRANCH   1   6
TORSDOF 5
ENDMDL
MODEL 2
REMARK VINA RESULT:    -3.262      1.973      2.702
REMARK INTER + INTRA:          -4.349
REMARK INTER:                  -4.189
REMARK INTRA:                  -0.160
REMARK UNBOUND:                -0.133
REMARK SMILES CCCCCCC(=O)[O-]
REMARK SMILES IDX 5 1 6 2 7 3 8 4 9 5 4 6 3 7 2 8 1 9
REMARK H PARENT
REMARK Flexibility Score: inf
ROOT
ATOM      1  C   UNL     1      -1.868 -18.088 -25.482  1.00  0.00     0.006 C 
ENDROOT
BRANCH   1   2
ATOM      2  C   UNL     1      -0.473 -18.575 -25.895  1.00  0.00     0.053 C 
BRANCH   2   3
ATOM      3  C   UNL     1      -0.421 -20.070 -25.891  1.00  0.00     0.041 C 
ATOM      4  O   UNL     1       0.370 -20.675 -25.121  1.00  0.00    -0.550 OA
ATOM      5  O   UNL     1      -1.283 -20.798 -26.702  1.00  0.00    -0.550 OA
ENDBRANCH   2   3
ENDBRANCH   1   2
BRANCH   1   6
ATOM      6  C   UNL     1      -2.112 -16.612 -25.839  1.00  0.00     0.000 C 
BRANCH   6   7
ATOM      7  C   UNL     1      -1.099 -16.080 -26.867  1.00  0.00    -0.000 C 
BRANCH   7   8
ATOM      8  C   UNL     1      -0.764 -14.595 -26.649  1.00  0.00    -0.003 C 
ATOM      9  C   UNL     1      -1.980 -13.683 -26.815  1.00  0.00     0.004 C 
ENDBRANCH   7   8
ENDBRANCH   6   7
ENDBRANCH   1   6
TORSDOF 5
ENDMDL
MODEL 3
REMARK VINA RESULT:    -3.225      1.126      1.365
REMARK INTER + INTRA:          -4.301
REMARK INTER:                  -4.199
REMARK INTRA:                  -0.102
REMARK UNBOUND:                -0.133
REMARK SMILES CCCCCCC(=O)[O-]
REMARK SMILES IDX 5 1 6 2 7 3 8 4 9 5 4 6 3 7 2 8 1 9
REMARK H PARENT
REMARK Flexibility Score: inf
ROOT
ATOM      1  C   UNL     1      -1.248 -16.489 -26.605  1.00  0.00     0.006 C 
ENDROOT
BRANCH   1   2
ATOM      2  C   UNL     1      -1.577 -17.619 -25.620  1.00  0.00     0.053 C 
BRANCH   2   3
ATOM      3  C   UNL     1      -0.726 -18.817 -25.899  1.00  0.00     0.041 C 
ATOM      4  O   UNL     1      -1.246 -19.960 -25.977  1.00  0.00    -0.550 OA
ATOM      5  O   UNL     1       0.638 -18.664 -26.122  1.00  0.00    -0.550 OA
ENDBRANCH   2   3
ENDBRANCH   1   2
BRANCH   1   6
ATOM      6  C   UNL     1      -1.867 -15.143 -26.192  1.00  0.00     0.000 C 
BRANCH   6   7
ATOM      7  C   UNL     1      -2.095 -14.207 -27.391  1.00  0.00    -0.000 C 
BRANCH   7   8
ATOM      8  C   UNL     1      -0.796 -13.541 -27.873  1.00  0.00    -0.003 C 
ATOM      9  C   UNL     1      -0.694 -12.072 -27.459  1.00  0.00     0.004 C 
ENDBRANCH   7   8
ENDBRANCH   6   7
ENDBRANCH   1   6
TORSDOF 5
ENDMDL
MODEL 4
REMARK VINA RESULT:    -3.106      2.705      5.448
REMARK INTER + INTRA:          -4.147
REMARK INTER:                  -3.977
REMARK INTRA:                  -0.170
REMARK UNBOUND:                -0.133
REMARK SMILES CCCCCCC(=O)[O-]
REMARK SMILES IDX 5 1 6 2 7 3 8 4 9 5 4 6 3 7 2 8 1 9
REMARK H PARENT
REMARK Flexibility Score: inf
ROOT
ATOM      1  C   UNL     1      -2.125 -16.900 -25.575  1.00  0.00     0.006 C 
ENDROOT
BRANCH   1   2
ATOM      2  C   UNL     1      -1.387 -16.158 -26.697  1.00  0.00     0.053 C 
BRANCH   2   3
ATOM      3  C   UNL     1      -1.592 -14.682 -26.568  1.00  0.00     0.041 C 
ATOM      4  O   UNL     1      -1.257 -14.085 -25.512  1.00  0.00    -0.550 OA
ATOM      5  O   UNL     1      -2.108 -13.957 -27.635  1.00  0.00    -0.550 OA
ENDBRANCH   2   3
ENDBRANCH   1   2
BRANCH   1   6
ATOM      6  C   UNL     1      -1.754 -18.391 -25.505  1.00  0.00     0.000 C 
BRANCH   6   7
ATOM      7  C   UNL     1      -0.301 -18.658 -25.935  1.00  0.00    -0.000 C 
BRANCH   7   8
ATOM      8  C   UNL     1       0.063 -20.150 -25.884  1.00  0.00    -0.003 C 
ATOM      9  C   UNL     1      -1.118 -21.061 -26.223  1.00  0.00     0.004 C 
ENDBRANCH   7   8
ENDBRANCH   6   7
ENDBRANCH   1   6
TORSDOF 5
ENDMDL
MODEL 5
REMARK VINA RESULT:    -2.420      2.813      5.339
REMARK INTER + INTRA:          -3.260
REMARK INTER:                  -3.156
REMARK INTRA:                  -0.104
REMARK UNBOUND:                -0.133
REMARK SMILES CCCCCCC(=O)[O-]
REMARK SMILES IDX 5 1 6 2 7 3 8 4 9 5 4 6 3 7 2 8 1 9
REMARK H PARENT
REMARK Flexibility Score: inf
ROOT
ATOM      1  C   UNL     1      -1.566 -16.302 -26.691  1.00  0.00     0.006 C 
ENDROOT
BRANCH   1   2
ATOM      2  C   UNL     1      -2.104 -14.868 -26.603  1.00  0.00     0.053 C 
BRANCH   2   3
ATOM      3  C   UNL     1      -1.065 -13.893 -27.060  1.00  0.00     0.041 C 
ATOM      4  O   UNL     1      -1.158 -12.676 -26.751  1.00  0.00    -0.550 OA
ATOM      5  O   UNL     1       0.033 -14.337 -27.786  1.00  0.00    -0.550 OA
ENDBRANCH   2   3
ENDBRANCH   1   2
BRANCH   1   6
ATOM      6  C   UNL     1      -1.832 -17.115 -25.413  1.00  0.00     0.000 C 
BRANCH   6   7
ATOM      7  C   UNL     1      -1.801 -18.632 -25.663  1.00  0.00    -0.000 C 
BRANCH   7   8
ATOM      8  C   UNL     1      -0.369 -19.176 -25.799  1.00  0.00    -0.003 C 
ATOM      9  C   UNL     1      -0.325 -20.697 -25.950  1.00  0.00     0.004 C 
ENDBRANCH   7   8
ENDBRANCH   6   7
ENDBRANCH   1   6
TORSDOF 5
ENDMDL
MODEL 6
REMARK VINA RESULT:    -0.992      2.881      6.063
REMARK INTER + INTRA:          -1.415
REMARK INTER:                  -1.249
REMARK INTRA:                  -0.166
REMARK UNBOUND:                -0.133
REMARK SMILES CCCCCCC(=O)[O-]
REMARK SMILES IDX 5 1 6 2 7 3 8 4 9 5 4 6 3 7 2 8 1 9
REMARK H PARENT
REMARK Flexibility Score: inf
ROOT
ATOM      1  C   UNL     1      -1.239 -18.416 -25.806  1.00  0.00     0.006 C 
ENDROOT
BRANCH   1   2
ATOM      2  C   UNL     1      -0.433 -17.143 -26.098  1.00  0.00     0.053 C 
BRANCH   2   3
ATOM      3  C   UNL     1      -1.307 -16.105 -26.727  1.00  0.00     0.041 C 
ATOM      4  O   UNL     1      -2.124 -15.453 -26.025  1.00  0.00    -0.550 OA
ATOM      5  O   UNL     1      -1.185 -15.822 -28.082  1.00  0.00    -0.550 OA
ENDBRANCH   2   3
ENDBRANCH   1   2
BRANCH   1   6
ATOM      6  C   UNL     1      -0.546 -19.688 -26.321  1.00  0.00     0.000 C 
BRANCH   6   7
ATOM      7  C   UNL     1      -1.234 -20.974 -25.830  1.00  0.00    -0.000 C 
BRANCH   7   8
ATOM      8  C   UNL     1      -0.252 -21.948 -25.160  1.00  0.00    -0.003 C 
ATOM      9  C   UNL     1       1.001 -21.253 -24.626  1.00  0.00     0.004 C 
ENDBRANCH   7   8
ENDBRANCH   6   7
ENDBRANCH   1   6
TORSDOF 5
ENDMDL
