MODEL 1
REMARK VINA RESULT:    -5.144      0.000      0.000
REMARK INTER + INTRA:          -5.144
REMARK INTER:                  -5.144
REMARK INTRA:                   0.000
REMARK UNBOUND:                 0.000
REMARK SMILES C=C1CCC[C@@]2(C)CC(=O)C(=C(C)C)C[C@@H]12
REMARK SMILES IDX 13 1 12 2 11 3 15 4 16 5 2 6 1 7 3 8 4 9 5 10 6 11 8 12 9 13
REMARK SMILES IDX 10 14 7 15 14 16
REMARK H PARENT
REMARK Flexibility Score: inf
ROOT
ATOM      1  C   UNL     1      18.863  61.095  23.680  1.00  0.00     0.039 C 
ATOM      2  C   UNL     1      17.674  61.758  23.026  1.00  0.00    -0.070 C 
ATOM      3  C   UNL     1      16.911  61.103  22.103  1.00  0.00    -0.006 C 
ATOM      4  C   UNL     1      15.657  61.693  21.488  1.00  0.00     0.047 C 
ATOM      5  C   UNL     1      14.394  60.805  21.730  1.00  0.00     0.025 C 
ATOM      6  C   UNL     1      13.224  61.182  20.796  1.00  0.00    -0.073 C 
ATOM      7  C   UNL     1      13.097  62.413  20.258  1.00  0.00     0.008 C 
ATOM      8  C   UNL     1      12.061  60.238  20.582  1.00  0.00     0.031 C 
ATOM      9  C   UNL     1      12.228  58.918  21.320  1.00  0.00     0.005 C 
ATOM     10  C   UNL     1      13.630  58.373  21.078  1.00  0.00     0.008 C 
ATOM     11  C   UNL     1      14.724  59.242  21.766  1.00  0.00    -0.018 C 
ATOM     12  C   UNL     1      16.073  58.928  21.051  1.00  0.00     0.088 C 
ATOM     13  C   UNL     1      17.200  59.730  21.628  1.00  0.00     0.159 C 
ATOM     14  O   UNL     1      18.367  59.253  21.622  1.00  0.00    -0.295 OA
ATOM     15  C   UNL     1      14.837  58.778  23.248  1.00  0.00     0.012 C 
ATOM     16  C   UNL     1      17.337  63.163  23.469  1.00  0.00     0.039 C 
ENDROOT
TORSDOF 0
ENDMDL
MODEL 2
REMARK VINA RESULT:    -5.067      1.826      5.291
REMARK INTER + INTRA:          -5.067
REMARK INTER:                  -5.067
REMARK INTRA:                   0.000
REMARK UNBOUND:                 0.000
REMARK SMILES C=C1CCC[C@@]2(C)CC(=O)C(=C(C)C)C[C@@H]12
REMARK SMILES IDX 13 1 12 2 11 3 15 4 16 5 2 6 1 7 3 8 4 9 5 10 6 11 8 12 9 13
REMARK SMILES IDX 10 14 7 15 14 16
REMARK H PARENT
REMARK Flexibility Score: inf
ROOT
ATOM      1  C   UNL     1      11.852  59.721  20.871  1.00  0.00     0.039 C 
ATOM      2  C   UNL     1      13.236  59.135  21.030  1.00  0.00    -0.070 C 
ATOM      3  C   UNL     1      14.352  59.919  20.972  1.00  0.00    -0.006 C 
ATOM      4  C   UNL     1      15.753  59.392  21.216  1.00  0.00     0.047 C 
ATOM      5  C   UNL     1      16.478  60.133  22.387  1.00  0.00     0.025 C 
ATOM      6  C   UNL     1      18.002  59.886  22.382  1.00  0.00    -0.073 C 
ATOM      7  C   UNL     1      18.554  58.788  21.827  1.00  0.00     0.008 C 
ATOM      8  C   UNL     1      18.940  60.781  23.162  1.00  0.00     0.031 C 
ATOM      9  C   UNL     1      18.220  61.929  23.856  1.00  0.00     0.005 C 
ATOM     10  C   UNL     1      17.262  62.596  22.877  1.00  0.00     0.008 C 
ATOM     11  C   UNL     1      16.066  61.672  22.505  1.00  0.00    -0.018 C 
ATOM     12  C   UNL     1      15.474  62.208  21.167  1.00  0.00     0.088 C 
ATOM     13  C   UNL     1      14.317  61.376  20.705  1.00  0.00     0.159 C 
ATOM     14  O   UNL     1      13.392  61.913  20.038  1.00  0.00    -0.295 OA
ATOM     15  C   UNL     1      14.984  61.827  23.613  1.00  0.00     0.012 C 
ATOM     16  C   UNL     1      13.330  57.651  21.299  1.00  0.00     0.039 C 
ENDROOT
TORSDOF 0
ENDMDL
MODEL 3
REMARK VINA RESULT:    -4.995     13.801     14.827
REMARK INTER + INTRA:          -4.995
REMARK INTER:                  -4.995
REMARK INTRA:                   0.000
REMARK UNBOUND:                 0.000
REMARK SMILES C=C1CCC[C@@]2(C)CC(=O)C(=C(C)C)C[C@@H]12
REMARK SMILES IDX 13 1 12 2 11 3 15 4 16 5 2 6 1 7 3 8 4 9 5 10 6 11 8 12 9 13
REMARK SMILES IDX 10 14 7 15 14 16
REMARK H PARENT
REMARK Flexibility Score: inf
ROOT
ATOM      1  C   UNL     1      14.887  55.168  35.866  1.00  0.00     0.039 C 
ATOM      2  C   UNL     1      16.277  55.388  35.317  1.00  0.00    -0.070 C 
ATOM      3  C   UNL     1      17.142  54.349  35.130  1.00  0.00    -0.006 C 
ATOM      4  C   UNL     1      18.511  54.507  34.497  1.00  0.00     0.047 C 
ATOM      5  C   UNL     1      18.692  53.615  33.226  1.00  0.00     0.025 C 
ATOM      6  C   UNL     1      20.174  53.471  32.818  1.00  0.00    -0.073 C 
ATOM      7  C   UNL     1      21.105  54.392  33.141  1.00  0.00     0.008 C 
ATOM      8  C   UNL     1      20.621  52.373  31.877  1.00  0.00     0.031 C 
ATOM      9  C   UNL     1      19.484  51.448  31.466  1.00  0.00     0.005 C 
ATOM     10  C   UNL     1      18.691  51.037  32.701  1.00  0.00     0.008 C 
ATOM     11  C   UNL     1      17.901  52.230  33.314  1.00  0.00    -0.018 C 
ATOM     12  C   UNL     1      17.577  51.852  34.791  1.00  0.00     0.088 C 
ATOM     13  C   UNL     1      16.825  52.946  35.486  1.00  0.00     0.159 C 
ATOM     14  O   UNL     1      16.011  52.654  36.402  1.00  0.00    -0.295 OA
ATOM     15  C   UNL     1      16.558  52.359  32.538  1.00  0.00     0.012 C 
ATOM     16  C   UNL     1      16.655  56.802  34.941  1.00  0.00     0.039 C 
ENDROOT
TORSDOF 0
ENDMDL
MODEL 4
REMARK VINA RESULT:    -4.991      1.444      3.190
REMARK INTER + INTRA:          -4.991
REMARK INTER:                  -4.991
REMARK INTRA:                   0.000
REMARK UNBOUND:                 0.000
REMARK SMILES C=C1CCC[C@@]2(C)CC(=O)C(=C(C)C)C[C@@H]12
REMARK SMILES IDX 13 1 12 2 11 3 15 4 16 5 2 6 1 7 3 8 4 9 5 10 6 11 8 12 9 13
REMARK SMILES IDX 10 14 7 15 14 16
REMARK H PARENT
REMARK Flexibility Score: inf
ROOT
ATOM      1  C   UNL     1      19.393  58.985  22.028  1.00  0.00     0.039 C 
ATOM      2  C   UNL     1      17.995  58.414  22.004  1.00  0.00    -0.070 C 
ATOM      3  C   UNL     1      16.900  59.202  22.213  1.00  0.00    -0.006 C 
ATOM      4  C   UNL     1      15.475  58.693  22.107  1.00  0.00     0.047 C 
ATOM      5  C   UNL     1      14.633  59.480  21.051  1.00  0.00     0.025 C 
ATOM      6  C   UNL     1      13.116  59.242  21.217  1.00  0.00    -0.073 C 
ATOM      7  C   UNL     1      12.618  58.127  21.791  1.00  0.00     0.008 C 
ATOM      8  C   UNL     1      12.106  60.170  20.577  1.00  0.00     0.031 C 
ATOM      9  C   UNL     1      12.756  61.338  19.848  1.00  0.00     0.005 C 
ATOM     10  C   UNL     1      13.823  61.963  20.739  1.00  0.00     0.008 C 
ATOM     11  C   UNL     1      15.044  61.020  20.942  1.00  0.00    -0.018 C 
ATOM     12  C   UNL     1      15.786  61.503  22.225  1.00  0.00     0.088 C 
ATOM     13  C   UNL     1      16.979  60.648  22.526  1.00  0.00     0.159 C 
ATOM     14  O   UNL     1      17.977  61.155  23.104  1.00  0.00    -0.295 OA
ATOM     15  C   UNL     1      15.998  61.207  19.727  1.00  0.00     0.012 C 
ATOM     16  C   UNL     1      17.856  56.941  21.695  1.00  0.00     0.039 C 
ENDROOT
TORSDOF 0
ENDMDL
MODEL 5
REMARK VINA RESULT:    -4.909     12.828     15.136
REMARK INTER + INTRA:          -4.909
REMARK INTER:                  -4.909
REMARK INTRA:                   0.000
REMARK UNBOUND:                 0.000
REMARK SMILES C=C1CCC[C@@]2(C)CC(=O)C(=C(C)C)C[C@@H]12
REMARK SMILES IDX 13 1 12 2 11 3 15 4 16 5 2 6 1 7 3 8 4 9 5 10 6 11 8 12 9 13
REMARK SMILES IDX 10 14 7 15 14 16
REMARK H PARENT
REMARK Flexibility Score: inf
ROOT
ATOM      1  C   UNL     1      13.395  50.380  34.045  1.00  0.00     0.039 C 
ATOM      2  C   UNL     1      13.773  51.776  33.607  1.00  0.00    -0.070 C 
ATOM      3  C   UNL     1      14.704  52.508  34.285  1.00  0.00    -0.006 C 
ATOM      4  C   UNL     1      15.182  53.873  33.831  1.00  0.00     0.047 C 
ATOM      5  C   UNL     1      16.728  53.924  33.602  1.00  0.00     0.025 C 
ATOM      6  C   UNL     1      17.263  55.370  33.530  1.00  0.00    -0.073 C 
ATOM      7  C   UNL     1      16.486  56.410  33.161  1.00  0.00     0.008 C 
ATOM      8  C   UNL     1      18.737  55.666  33.696  1.00  0.00     0.031 C 
ATOM      9  C   UNL     1      19.560  54.420  33.993  1.00  0.00     0.005 C 
ATOM     10  C   UNL     1      18.877  53.608  35.087  1.00  0.00     0.008 C 
ATOM     11  C   UNL     1      17.541  52.976  34.599  1.00  0.00    -0.018 C 
ATOM     12  C   UNL     1      16.705  52.637  35.871  1.00  0.00     0.088 C 
ATOM     13  C   UNL     1      15.381  52.034  35.515  1.00  0.00     0.159 C 
ATOM     14  O   UNL     1      14.843  51.209  36.300  1.00  0.00    -0.295 OA
ATOM     15  C   UNL     1      17.882  51.643  33.871  1.00  0.00     0.012 C 
ATOM     16  C   UNL     1      13.108  52.311  32.360  1.00  0.00     0.039 C 
ENDROOT
TORSDOF 0
ENDMDL
MODEL 6
REMARK VINA RESULT:    -4.895      9.169     11.714
REMARK INTER + INTRA:          -4.895
REMARK INTER:                  -4.895
REMARK INTRA:                   0.000
REMARK UNBOUND:                 0.000
REMARK SMILES C=C1CCC[C@@]2(C)CC(=O)C(=C(C)C)C[C@@H]12
REMARK SMILES IDX 13 1 12 2 11 3 15 4 16 5 2 6 1 7 3 8 4 9 5 10 6 11 8 12 9 13
REMARK SMILES IDX 10 14 7 15 14 16
REMARK H PARENT
REMARK Flexibility Score: inf
ROOT
ATOM      1  C   UNL     1      11.140  53.757  20.314  1.00  0.00     0.039 C 
ATOM      2  C   UNL     1      11.343  52.314  19.913  1.00  0.00    -0.070 C 
ATOM      3  C   UNL     1      11.895  51.407  20.770  1.00  0.00    -0.006 C 
ATOM      4  C   UNL     1      12.034  49.932  20.446  1.00  0.00     0.047 C 
ATOM      5  C   UNL     1      11.310  49.018  21.487  1.00  0.00     0.025 C 
ATOM      6  C   UNL     1      11.769  47.547  21.393  1.00  0.00    -0.073 C 
ATOM      7  C   UNL     1      12.275  47.018  20.260  1.00  0.00     0.008 C 
ATOM      8  C   UNL     1      11.503  46.573  22.521  1.00  0.00     0.031 C 
ATOM      9  C   UNL     1      10.822  47.225  23.716  1.00  0.00     0.005 C 
ATOM     10  C   UNL     1      11.535  48.526  24.062  1.00  0.00     0.008 C 
ATOM     11  C   UNL     1      11.331  49.616  22.969  1.00  0.00    -0.018 C 
ATOM     12  C   UNL     1      12.475  50.660  23.145  1.00  0.00     0.088 C 
ATOM     13  C   UNL     1      12.384  51.753  22.125  1.00  0.00     0.159 C 
ATOM     14  O   UNL     1      12.795  52.908  22.415  1.00  0.00    -0.295 OA
ATOM     15  C   UNL     1       9.975  50.325  23.252  1.00  0.00     0.012 C 
ATOM     16  C   UNL     1      10.867  51.908  18.537  1.00  0.00     0.039 C 
ENDROOT
TORSDOF 0
ENDMDL
MODEL 7
REMARK VINA RESULT:    -4.822     12.688     14.727
REMARK INTER + INTRA:          -4.822
REMARK INTER:                  -4.822
REMARK INTRA:                   0.000
REMARK UNBOUND:                 0.000
REMARK SMILES C=C1CCC[C@@]2(C)CC(=O)C(=C(C)C)C[C@@H]12
REMARK SMILES IDX 13 1 12 2 11 3 15 4 16 5 2 6 1 7 3 8 4 9 5 10 6 11 8 12 9 13
REMARK SMILES IDX 10 14 7 15 14 16
REMARK H PARENT
REMARK Flexibility Score: inf
ROOT
ATOM      1  C   UNL     1      20.123  53.161  31.669  1.00  0.00     0.039 C 
ATOM      2  C   UNL     1      19.196  52.473  32.643  1.00  0.00    -0.070 C 
ATOM      3  C   UNL     1      18.617  53.152  33.676  1.00  0.00    -0.006 C 
ATOM      4  C   UNL     1      17.610  52.528  34.623  1.00  0.00     0.047 C 
ATOM      5  C   UNL     1      16.245  53.290  34.636  1.00  0.00     0.025 C 
ATOM      6  C   UNL     1      15.376  52.915  35.856  1.00  0.00    -0.073 C 
ATOM      7  C   UNL     1      15.502  51.734  36.496  1.00  0.00     0.008 C 
ATOM      8  C   UNL     1      14.212  53.783  36.281  1.00  0.00     0.031 C 
ATOM      9  C   UNL     1      14.068  55.037  35.431  1.00  0.00     0.005 C 
ATOM     10  C   UNL     1      15.428  55.708  35.278  1.00  0.00     0.008 C 
ATOM     11  C   UNL     1      16.404  54.863  34.406  1.00  0.00    -0.018 C 
ATOM     12  C   UNL     1      17.848  55.345  34.741  1.00  0.00     0.088 C 
ATOM     13  C   UNL     1      18.876  54.582  33.963  1.00  0.00     0.159 C 
ATOM     14  O   UNL     1      19.958  55.144  33.646  1.00  0.00    -0.295 OA
ATOM     15  C   UNL     1      16.113  55.193  32.913  1.00  0.00     0.012 C 
ATOM     16  C   UNL     1      18.901  51.010  32.400  1.00  0.00     0.039 C 
ENDROOT
TORSDOF 0
ENDMDL
MODEL 8
REMARK VINA RESULT:    -4.769      9.527     11.702
REMARK INTER + INTRA:          -4.769
REMARK INTER:                  -4.769
REMARK INTRA:                   0.000
REMARK UNBOUND:                 0.000
REMARK SMILES C=C1CCC[C@@]2(C)CC(=O)C(=C(C)C)C[C@@H]12
REMARK SMILES IDX 13 1 12 2 11 3 15 4 16 5 2 6 1 7 3 8 4 9 5 10 6 11 8 12 9 13
REMARK SMILES IDX 10 14 7 15 14 16
REMARK H PARENT
REMARK Flexibility Score: inf
ROOT
ATOM      1  C   UNL     1       9.075  47.626  23.616  1.00  0.00     0.039 C 
ATOM      2  C   UNL     1       8.655  48.842  22.824  1.00  0.00    -0.070 C 
ATOM      3  C   UNL     1       9.528  49.856  22.559  1.00  0.00    -0.006 C 
ATOM      4  C   UNL     1       9.179  51.051  21.692  1.00  0.00     0.047 C 
ATOM      5  C   UNL     1      10.139  51.206  20.468  1.00  0.00     0.025 C 
ATOM      6  C   UNL     1      10.044  52.605  19.822  1.00  0.00    -0.073 C 
ATOM      7  C   UNL     1       8.939  53.373  19.921  1.00  0.00     0.008 C 
ATOM      8  C   UNL     1      11.124  53.109  18.889  1.00  0.00     0.031 C 
ATOM      9  C   UNL     1      12.279  52.130  18.739  1.00  0.00     0.005 C 
ATOM     10  C   UNL     1      12.711  51.636  20.115  1.00  0.00     0.008 C 
ATOM     11  C   UNL     1      11.633  50.729  20.777  1.00  0.00    -0.018 C 
ATOM     12  C   UNL     1      11.921  50.721  22.309  1.00  0.00     0.088 C 
ATOM     13  C   UNL     1      10.925  49.884  23.052  1.00  0.00     0.159 C 
ATOM     14  O   UNL     1      11.274  49.298  24.111  1.00  0.00    -0.295 OA
ATOM     15  C   UNL     1      11.830  49.283  20.236  1.00  0.00     0.012 C 
ATOM     16  C   UNL     1       7.237  48.868  22.301  1.00  0.00     0.039 C 
ENDROOT
TORSDOF 0
ENDMDL
MODEL 9
REMARK VINA RESULT:    -4.720      2.589      4.781
REMARK INTER + INTRA:          -4.720
REMARK INTER:                  -4.720
REMARK INTRA:                   0.000
REMARK UNBOUND:                 0.000
REMARK SMILES C=C1CCC[C@@]2(C)CC(=O)C(=C(C)C)C[C@@H]12
REMARK SMILES IDX 13 1 12 2 11 3 15 4 16 5 2 6 1 7 3 8 4 9 5 10 6 11 8 12 9 13
REMARK SMILES IDX 10 14 7 15 14 16
REMARK H PARENT
REMARK Flexibility Score: inf
ROOT
ATOM      1  C   UNL     1      11.765  63.869  23.123  1.00  0.00     0.039 C 
ATOM      2  C   UNL     1      12.213  62.477  23.503  1.00  0.00    -0.070 C 
ATOM      3  C   UNL     1      12.822  61.654  22.601  1.00  0.00    -0.006 C 
ATOM      4  C   UNL     1      13.370  60.286  22.959  1.00  0.00     0.047 C 
ATOM      5  C   UNL     1      14.896  60.150  22.648  1.00  0.00     0.025 C 
ATOM      6  C   UNL     1      15.363  58.679  22.636  1.00  0.00    -0.073 C 
ATOM      7  C   UNL     1      14.720  57.711  23.321  1.00  0.00     0.008 C 
ATOM      8  C   UNL     1      16.676  58.282  21.996  1.00  0.00     0.031 C 
ATOM      9  C   UNL     1      17.396  59.456  21.348  1.00  0.00     0.005 C 
ATOM     10  C   UNL     1      16.412  60.251  20.499  1.00  0.00     0.008 C 
ATOM     11  C   UNL     1      15.353  60.991  21.369  1.00  0.00    -0.018 C 
ATOM     12  C   UNL     1      14.144  61.315  20.439  1.00  0.00     0.088 C 
ATOM     13  C   UNL     1      13.051  62.019  21.184  1.00  0.00     0.159 C 
ATOM     14  O   UNL     1      12.309  62.834  20.573  1.00  0.00    -0.295 OA
ATOM     15  C   UNL     1      15.980  62.336  21.839  1.00  0.00     0.012 C 
ATOM     16  C   UNL     1      11.998  62.051  24.937  1.00  0.00     0.039 C 
ENDROOT
TORSDOF 0
ENDMDL
