MODEL 1
REMARK VINA RESULT:    -5.379      0.000      0.000
REMARK INTER + INTRA:          -5.851
REMARK INTER:                  -5.851
REMARK INTRA:                   0.000
REMARK UNBOUND:                 0.000
REMARK SMILES Cc1cc(O)c2c(c1)C(=O)c1cc(O)cc(O)c1C2=O
REMARK SMILES IDX 1 1 2 2 8 3 7 4 6 5 4 6 3 7 19 8 20 9 18 10 11 11 9 12 10 13
REMARK SMILES IDX 12 14 13 15 15 16 16 17 5 18 17 20 14 22
REMARK H PARENT 5 19 17 21 14 23
REMARK Flexibility Score: inf
ROOT
ATOM      1  C   UNL     1      29.250  -6.439   8.754  1.00  0.00     0.044 C 
ATOM      2  C   UNL     1      28.223  -7.290   9.443  1.00  0.00    -0.047 A 
ATOM      3  C   UNL     1      28.117  -8.652   9.138  1.00  0.00     0.016 A 
ATOM      4  C   UNL     1      27.184  -9.467   9.805  1.00  0.00     0.038 A 
ATOM      5  C   UNL     1      26.350  -8.910  10.797  1.00  0.00     0.076 A 
ATOM      6  C   UNL     1      26.480  -7.540  11.122  1.00  0.00     0.127 A 
ATOM      7  C   UNL     1      27.416  -6.745  10.447  1.00  0.00     0.050 A 
ATOM      8  C   UNL     1      25.342  -9.775  11.463  1.00  0.00     0.201 C 
ATOM      9  O   UNL     1      24.369  -9.243  12.063  1.00  0.00    -0.288 OA
ATOM     10  C   UNL     1      25.416 -11.256  11.323  1.00  0.00     0.076 A 
ATOM     11  C   UNL     1      26.212 -11.794  10.285  1.00  0.00     0.041 A 
ATOM     12  C   UNL     1      27.074 -10.904   9.470  1.00  0.00     0.194 C 
ATOM     13  O   UNL     1      27.729 -11.377   8.499  1.00  0.00    -0.289 OA
ATOM     14  C   UNL     1      26.192 -13.177  10.030  1.00  0.00     0.059 A 
ATOM     15  C   UNL     1      25.404 -14.029  10.807  1.00  0.00     0.120 A 
ATOM     16  C   UNL     1      24.655 -13.511  11.861  1.00  0.00     0.093 A 
ATOM     17  C   UNL     1      24.678 -12.144  12.153  1.00  0.00     0.131 A 
ENDROOT
BRANCH   6  18
ATOM     18  O   UNL     1      25.691  -6.968  12.120  1.00  0.00    -0.507 OA
ATOM     19  H   UNL     1      24.869  -6.417  11.900  1.00  0.00     0.293 HD
ENDBRANCH   6  18
BRANCH  17  20
ATOM     20  O   UNL     1      23.985 -11.723  13.291  1.00  0.00    -0.507 OA
ATOM     21  H   UNL     1      23.225 -12.239  13.709  1.00  0.00     0.293 HD
ENDBRANCH  17  20
BRANCH  15  22
ATOM     22  O   UNL     1      25.369 -15.398  10.547  1.00  0.00    -0.508 OA
ATOM     23  H   UNL     1      25.545 -16.081  11.275  1.00  0.00     0.293 HD
ENDBRANCH  15  22
TORSDOF 3
ENDMDL
MODEL 2
REMARK VINA RESULT:    -5.264      3.546      5.967
REMARK INTER + INTRA:          -5.726
REMARK INTER:                  -5.726
REMARK INTRA:                   0.000
REMARK UNBOUND:                 0.000
REMARK SMILES Cc1cc(O)c2c(c1)C(=O)c1cc(O)cc(O)c1C2=O
REMARK SMILES IDX 1 1 2 2 8 3 7 4 6 5 4 6 3 7 19 8 20 9 18 10 11 11 9 12 10 13
REMARK SMILES IDX 12 14 13 15 15 16 16 17 5 18 17 20 14 22
REMARK H PARENT 5 19 17 21 14 23
REMARK Flexibility Score: inf
ROOT
ATOM      1  C   UNL     1      26.252 -12.241   4.245  1.00  0.00     0.044 C 
ATOM      2  C   UNL     1      26.953 -12.739   5.475  1.00  0.00    -0.047 A 
ATOM      3  C   UNL     1      26.767 -12.093   6.703  1.00  0.00     0.016 A 
ATOM      4  C   UNL     1      27.389 -12.574   7.869  1.00  0.00     0.038 A 
ATOM      5  C   UNL     1      28.205 -13.724   7.805  1.00  0.00     0.076 A 
ATOM      6  C   UNL     1      28.368 -14.389   6.569  1.00  0.00     0.127 A 
ATOM      7  C   UNL     1      27.739 -13.895   5.418  1.00  0.00     0.050 A 
ATOM      8  C   UNL     1      28.888 -14.195   9.038  1.00  0.00     0.201 C 
ATOM      9  O   UNL     1      29.878 -14.968   8.940  1.00  0.00    -0.288 OA
ATOM     10  C   UNL     1      28.479 -13.667  10.369  1.00  0.00     0.076 A 
ATOM     11  C   UNL     1      27.710 -12.480  10.415  1.00  0.00     0.041 A 
ATOM     12  C   UNL     1      27.192 -11.880   9.162  1.00  0.00     0.194 C 
ATOM     13  O   UNL     1      26.567 -10.784   9.199  1.00  0.00    -0.289 OA
ATOM     14  C   UNL     1      27.430 -11.873  11.652  1.00  0.00     0.059 A 
ATOM     15  C   UNL     1      27.890 -12.441  12.841  1.00  0.00     0.120 A 
ATOM     16  C   UNL     1      28.606 -13.635  12.806  1.00  0.00     0.093 A 
ATOM     17  C   UNL     1      28.876 -14.275  11.593  1.00  0.00     0.131 A 
ENDROOT
BRANCH   6  18
ATOM     18  O   UNL     1      29.143 -15.545   6.481  1.00  0.00    -0.507 OA
ATOM     19  H   UNL     1      30.096 -15.576   6.824  1.00  0.00     0.293 HD
ENDBRANCH   6  18
BRANCH  17  20
ATOM     20  O   UNL     1      29.505 -15.521  11.653  1.00  0.00    -0.507 OA
ATOM     21  H   UNL     1      30.480 -15.669  11.438  1.00  0.00     0.293 HD
ENDBRANCH  17  20
BRANCH  15  22
ATOM     22  O   UNL     1      27.627 -11.833  14.067  1.00  0.00    -0.508 OA
ATOM     23  H   UNL     1      27.312 -12.368  14.868  1.00  0.00     0.293 HD
ENDBRANCH  15  22
TORSDOF 3
ENDMDL
MODEL 3
REMARK VINA RESULT:    -5.134      3.597      5.958
REMARK INTER + INTRA:          -5.585
REMARK INTER:                  -5.585
REMARK INTRA:                   0.000
REMARK UNBOUND:                 0.000
REMARK SMILES Cc1cc(O)c2c(c1)C(=O)c1cc(O)cc(O)c1C2=O
REMARK SMILES IDX 1 1 2 2 8 3 7 4 6 5 4 6 3 7 19 8 20 9 18 10 11 11 9 12 10 13
REMARK SMILES IDX 12 14 13 15 15 16 16 17 5 18 17 20 14 22
REMARK H PARENT 5 19 17 21 14 23
REMARK Flexibility Score: inf
ROOT
ATOM      1  C   UNL     1      27.783 -14.398  15.341  1.00  0.00     0.044 C 
ATOM      2  C   UNL     1      27.795 -13.874  13.935  1.00  0.00    -0.047 A 
ATOM      3  C   UNL     1      28.506 -14.550  12.937  1.00  0.00     0.016 A 
ATOM      4  C   UNL     1      28.493 -14.089  11.608  1.00  0.00     0.038 A 
ATOM      5  C   UNL     1      27.752 -12.936  11.273  1.00  0.00     0.076 A 
ATOM      6  C   UNL     1      27.013 -12.272  12.279  1.00  0.00     0.127 A 
ATOM      7  C   UNL     1      27.037 -12.747  13.597  1.00  0.00     0.050 A 
ATOM      8  C   UNL     1      27.782 -12.438   9.873  1.00  0.00     0.201 C 
ATOM      9  O   UNL     1      27.445 -11.248   9.632  1.00  0.00    -0.288 OA
ATOM     10  C   UNL     1      28.317 -13.301   8.783  1.00  0.00     0.076 A 
ATOM     11  C   UNL     1      29.108 -14.419   9.137  1.00  0.00     0.041 A 
ATOM     12  C   UNL     1      29.255 -14.807  10.561  1.00  0.00     0.194 C 
ATOM     13  O   UNL     1      30.017 -15.761  10.879  1.00  0.00    -0.289 OA
ATOM     14  C   UNL     1      29.749 -15.170   8.136  1.00  0.00     0.059 A 
ATOM     15  C   UNL     1      29.598 -14.831   6.790  1.00  0.00     0.120 A 
ATOM     16  C   UNL     1      28.782 -13.761   6.432  1.00  0.00     0.093 A 
ATOM     17  C   UNL     1      28.112 -13.014   7.405  1.00  0.00     0.131 A 
ENDROOT
BRANCH   6  18
ATOM     18  O   UNL     1      26.245 -11.148  11.972  1.00  0.00    -0.507 OA
ATOM     19  H   UNL     1      25.459 -11.197  11.335  1.00  0.00     0.293 HD
ENDBRANCH   6  18
BRANCH  17  20
ATOM     20  O   UNL     1      27.230 -12.027   6.957  1.00  0.00    -0.507 OA
ATOM     21  H   UNL     1      26.237 -12.169   6.848  1.00  0.00     0.293 HD
ENDBRANCH  17  20
BRANCH  15  22
ATOM     22  O   UNL     1      30.245 -15.564   5.796  1.00  0.00    -0.508 OA
ATOM     23  H   UNL     1      31.007 -15.169   5.257  1.00  0.00     0.293 HD
ENDBRANCH  15  22
TORSDOF 3
ENDMDL
MODEL 4
REMARK VINA RESULT:    -5.127      3.428      6.338
REMARK INTER + INTRA:          -5.577
REMARK INTER:                  -5.577
REMARK INTRA:                   0.000
REMARK UNBOUND:                 0.000
REMARK SMILES Cc1cc(O)c2c(c1)C(=O)c1cc(O)cc(O)c1C2=O
REMARK SMILES IDX 1 1 2 2 8 3 7 4 6 5 4 6 3 7 19 8 20 9 18 10 11 11 9 12 10 13
REMARK SMILES IDX 12 14 13 15 15 16 16 17 5 18 17 20 14 22
REMARK H PARENT 5 19 17 21 14 23
REMARK Flexibility Score: inf
ROOT
ATOM      1  C   UNL     1      31.808 -17.125   8.574  1.00  0.00     0.044 C 
ATOM      2  C   UNL     1      30.789 -16.028   8.478  1.00  0.00    -0.047 A 
ATOM      3  C   UNL     1      30.078 -15.624   9.614  1.00  0.00     0.016 A 
ATOM      4  C   UNL     1      29.148 -14.571   9.542  1.00  0.00     0.038 A 
ATOM      5  C   UNL     1      28.932 -13.909   8.315  1.00  0.00     0.076 A 
ATOM      6  C   UNL     1      29.672 -14.301   7.176  1.00  0.00     0.127 A 
ATOM      7  C   UNL     1      30.595 -15.352   7.268  1.00  0.00     0.050 A 
ATOM      8  C   UNL     1      27.916 -12.826   8.247  1.00  0.00     0.201 C 
ATOM      9  O   UNL     1      27.453 -12.482   7.127  1.00  0.00    -0.288 OA
ATOM     10  C   UNL     1      27.366 -12.236   9.499  1.00  0.00     0.076 A 
ATOM     11  C   UNL     1      27.542 -12.944  10.711  1.00  0.00     0.041 A 
ATOM     12  C   UNL     1      28.395 -14.157  10.747  1.00  0.00     0.194 C 
ATOM     13  O   UNL     1      28.494 -14.826  11.813  1.00  0.00    -0.289 OA
ATOM     14  C   UNL     1      26.913 -12.493  11.884  1.00  0.00     0.059 A 
ATOM     15  C   UNL     1      26.127 -11.339  11.869  1.00  0.00     0.120 A 
ATOM     16  C   UNL     1      25.989 -10.610  10.690  1.00  0.00     0.093 A 
ATOM     17  C   UNL     1      26.626 -11.021   9.515  1.00  0.00     0.131 A 
ENDROOT
BRANCH   6  18
ATOM     18  O   UNL     1      29.503 -13.645   5.958  1.00  0.00    -0.507 OA
ATOM     19  H   UNL     1      29.794 -14.063   5.081  1.00  0.00     0.293 HD
ENDBRANCH   6  18
BRANCH  17  20
ATOM     20  O   UNL     1      26.524 -10.178   8.405  1.00  0.00    -0.507 OA
ATOM     21  H   UNL     1      27.298  -9.649   8.030  1.00  0.00     0.293 HD
ENDBRANCH  17  20
BRANCH  15  22
ATOM     22  O   UNL     1      25.490 -10.898  13.027  1.00  0.00    -0.508 OA
ATOM     23  H   UNL     1      24.928 -11.523  13.594  1.00  0.00     0.293 HD
ENDBRANCH  15  22
TORSDOF 3
ENDMDL
MODEL 5
REMARK VINA RESULT:    -5.107      3.201      5.555
REMARK INTER + INTRA:          -5.555
REMARK INTER:                  -5.555
REMARK INTRA:                   0.000
REMARK UNBOUND:                 0.000
REMARK SMILES Cc1cc(O)c2c(c1)C(=O)c1cc(O)cc(O)c1C2=O
REMARK SMILES IDX 1 1 2 2 8 3 7 4 6 5 4 6 3 7 19 8 20 9 18 10 11 11 9 12 10 13
REMARK SMILES IDX 12 14 13 15 15 16 16 17 5 18 17 20 14 22
REMARK H PARENT 5 19 17 21 14 23
REMARK Flexibility Score: inf
ROOT
ATOM      1  C   UNL     1      27.792 -14.955  16.312  1.00  0.00     0.044 C 
ATOM      2  C   UNL     1      27.576 -14.117  15.086  1.00  0.00    -0.047 A 
ATOM      3  C   UNL     1      28.177 -14.473  13.873  1.00  0.00     0.016 A 
ATOM      4  C   UNL     1      27.950 -13.716  12.710  1.00  0.00     0.038 A 
ATOM      5  C   UNL     1      27.103 -12.589  12.761  1.00  0.00     0.076 A 
ATOM      6  C   UNL     1      26.476 -12.249  13.981  1.00  0.00     0.127 A 
ATOM      7  C   UNL     1      26.713 -13.016  15.130  1.00  0.00     0.050 A 
ATOM      8  C   UNL     1      26.906 -11.776  11.532  1.00  0.00     0.201 C 
ATOM      9  O   UNL     1      26.469 -10.598  11.633  1.00  0.00    -0.288 OA
ATOM     10  C   UNL     1      27.332 -12.307  10.207  1.00  0.00     0.076 A 
ATOM     11  C   UNL     1      28.229 -13.400  10.177  1.00  0.00     0.041 A 
ATOM     12  C   UNL     1      28.597 -14.096  11.434  1.00  0.00     0.194 C 
ATOM     13  O   UNL     1      29.451 -15.026  11.413  1.00  0.00    -0.289 OA
ATOM     14  C   UNL     1      28.765 -13.834   8.952  1.00  0.00     0.059 A 
ATOM     15  C   UNL     1      28.406 -13.204   7.759  1.00  0.00     0.120 A 
ATOM     16  C   UNL     1      27.487 -12.158   7.776  1.00  0.00     0.093 A 
ATOM     17  C   UNL     1      26.918 -11.724   8.977  1.00  0.00     0.131 A 
ENDROOT
BRANCH   6  18
ATOM     18  O   UNL     1      25.608 -11.159  14.055  1.00  0.00    -0.507 OA
ATOM     19  H   UNL     1      24.966 -10.936  13.303  1.00  0.00     0.293 HD
ENDBRANCH   6  18
BRANCH  17  20
ATOM     20  O   UNL     1      25.926 -10.743   8.896  1.00  0.00    -0.507 OA
ATOM     21  H   UNL     1      25.823 -10.112   8.115  1.00  0.00     0.293 HD
ENDBRANCH  17  20
BRANCH  15  22
ATOM     22  O   UNL     1      28.949 -13.621   6.544  1.00  0.00    -0.508 OA
ATOM     23  H   UNL     1      28.394 -14.122   5.860  1.00  0.00     0.293 HD
ENDBRANCH  15  22
TORSDOF 3
ENDMDL
MODEL 6
REMARK VINA RESULT:    -5.089      3.593      5.384
REMARK INTER + INTRA:          -5.535
REMARK INTER:                  -5.535
REMARK INTRA:                   0.000
REMARK UNBOUND:                 0.000
REMARK SMILES Cc1cc(O)c2c(c1)C(=O)c1cc(O)cc(O)c1C2=O
REMARK SMILES IDX 1 1 2 2 8 3 7 4 6 5 4 6 3 7 19 8 20 9 18 10 11 11 9 12 10 13
REMARK SMILES IDX 12 14 13 15 15 16 16 17 5 18 17 20 14 22
REMARK H PARENT 5 19 17 21 14 23
REMARK Flexibility Score: inf
ROOT
ATOM      1  C   UNL     1      29.395 -14.897   4.564  1.00  0.00     0.044 C 
ATOM      2  C   UNL     1      28.753 -14.260   5.761  1.00  0.00    -0.047 A 
ATOM      3  C   UNL     1      29.099 -14.677   7.052  1.00  0.00     0.016 A 
ATOM      4  C   UNL     1      28.532 -14.060   8.181  1.00  0.00     0.038 A 
ATOM      5  C   UNL     1      27.610 -13.005   8.016  1.00  0.00     0.076 A 
ATOM      6  C   UNL     1      27.285 -12.568   6.712  1.00  0.00     0.127 A 
ATOM      7  C   UNL     1      27.861 -13.195   5.598  1.00  0.00     0.050 A 
ATOM      8  C   UNL     1      26.989 -12.392   9.219  1.00  0.00     0.201 C 
ATOM      9  O   UNL     1      25.926 -11.727   9.096  1.00  0.00    -0.288 OA
ATOM     10  C   UNL     1      27.554 -12.659  10.571  1.00  0.00     0.076 A 
ATOM     11  C   UNL     1      28.431 -13.758  10.729  1.00  0.00     0.041 A 
ATOM     12  C   UNL     1      28.898 -14.514   9.542  1.00  0.00     0.194 C 
ATOM     13  O   UNL     1      29.624 -15.536   9.692  1.00  0.00    -0.289 OA
ATOM     14  C   UNL     1      28.867 -14.128  12.014  1.00  0.00     0.059 A 
ATOM     15  C   UNL     1      28.454 -13.409  13.137  1.00  0.00     0.120 A 
ATOM     16  C   UNL     1      27.629 -12.297  12.984  1.00  0.00     0.093 A 
ATOM     17  C   UNL     1      27.203 -11.891  11.716  1.00  0.00     0.131 A 
ENDROOT
BRANCH   6  18
ATOM     18  O   UNL     1      26.401 -11.507   6.517  1.00  0.00    -0.507 OA
ATOM     19  H   UNL     1      25.760 -11.484   5.732  1.00  0.00     0.293 HD
ENDBRANCH   6  18
BRANCH  17  20
ATOM     20  O   UNL     1      26.467 -10.705  11.639  1.00  0.00    -0.507 OA
ATOM     21  H   UNL     1      25.715 -10.470  12.270  1.00  0.00     0.293 HD
ENDBRANCH  17  20
BRANCH  15  22
ATOM     22  O   UNL     1      28.872 -13.783  14.413  1.00  0.00    -0.508 OA
ATOM     23  H   UNL     1      28.308 -14.386  15.001  1.00  0.00     0.293 HD
ENDBRANCH  15  22
TORSDOF 3
ENDMDL
MODEL 7
REMARK VINA RESULT:    -5.089      4.000      5.282
REMARK INTER + INTRA:          -5.535
REMARK INTER:                  -5.535
REMARK INTRA:                   0.000
REMARK UNBOUND:                 0.000
REMARK SMILES Cc1cc(O)c2c(c1)C(=O)c1cc(O)cc(O)c1C2=O
REMARK SMILES IDX 1 1 2 2 8 3 7 4 6 5 4 6 3 7 19 8 20 9 18 10 11 11 9 12 10 13
REMARK SMILES IDX 12 14 13 15 15 16 16 17 5 18 17 20 14 22
REMARK H PARENT 5 19 17 21 14 23
REMARK Flexibility Score: inf
ROOT
ATOM      1  C   UNL     1      27.315 -11.889   8.770  1.00  0.00     0.044 C 
ATOM      2  C   UNL     1      26.880 -11.909  10.206  1.00  0.00    -0.047 A 
ATOM      3  C   UNL     1      27.767 -12.324  11.205  1.00  0.00     0.016 A 
ATOM      4  C   UNL     1      27.382 -12.311  12.558  1.00  0.00     0.038 A 
ATOM      5  C   UNL     1      26.090 -11.870  12.915  1.00  0.00     0.076 A 
ATOM      6  C   UNL     1      25.206 -11.427  11.905  1.00  0.00     0.127 A 
ATOM      7  C   UNL     1      25.608 -11.446  10.563  1.00  0.00     0.050 A 
ATOM      8  C   UNL     1      25.685 -11.902  14.345  1.00  0.00     0.201 C 
ATOM      9  O   UNL     1      24.460 -11.868  14.641  1.00  0.00    -0.288 OA
ATOM     10  C   UNL     1      26.709 -12.090  15.409  1.00  0.00     0.076 A 
ATOM     11  C   UNL     1      27.980 -12.588  15.039  1.00  0.00     0.041 A 
ATOM     12  C   UNL     1      28.325 -12.758  13.608  1.00  0.00     0.194 C 
ATOM     13  O   UNL     1      29.433 -13.269  13.282  1.00  0.00    -0.289 OA
ATOM     14  C   UNL     1      28.921 -12.916  16.032  1.00  0.00     0.059 A 
ATOM     15  C   UNL     1      28.617 -12.737  17.383  1.00  0.00     0.120 A 
ATOM     16  C   UNL     1      27.386 -12.201  17.751  1.00  0.00     0.093 A 
ATOM     17  C   UNL     1      26.442 -11.842  16.784  1.00  0.00     0.131 A 
ENDROOT
BRANCH   6  18
ATOM     18  O   UNL     1      23.934 -10.956  12.230  1.00  0.00    -0.507 OA
ATOM     19  H   UNL     1      23.110 -11.538  12.136  1.00  0.00     0.293 HD
ENDBRANCH   6  18
BRANCH  17  20
ATOM     20  O   UNL     1      25.277 -11.213  17.232  1.00  0.00    -0.507 OA
ATOM     21  H   UNL     1      24.824 -11.429  18.108  1.00  0.00     0.293 HD
ENDBRANCH  17  20
BRANCH  15  22
ATOM     22  O   UNL     1      29.542 -13.075  18.369  1.00  0.00    -0.508 OA
ATOM     23  H   UNL     1      29.862 -12.398  19.051  1.00  0.00     0.293 HD
ENDBRANCH  15  22
TORSDOF 3
ENDMDL
MODEL 8
REMARK VINA RESULT:    -5.042      3.800      5.366
REMARK INTER + INTRA:          -5.484
REMARK INTER:                  -5.484
REMARK INTRA:                   0.000
REMARK UNBOUND:                 0.000
REMARK SMILES Cc1cc(O)c2c(c1)C(=O)c1cc(O)cc(O)c1C2=O
REMARK SMILES IDX 1 1 2 2 8 3 7 4 6 5 4 6 3 7 19 8 20 9 18 10 11 11 9 12 10 13
REMARK SMILES IDX 12 14 13 15 15 16 16 17 5 18 17 20 14 22
REMARK H PARENT 5 19 17 21 14 23
REMARK Flexibility Score: inf
ROOT
ATOM      1  C   UNL     1      28.986 -14.137   8.251  1.00  0.00     0.044 C 
ATOM      2  C   UNL     1      28.399 -13.593   9.520  1.00  0.00    -0.047 A 
ATOM      3  C   UNL     1      28.559 -14.287  10.725  1.00  0.00     0.016 A 
ATOM      4  C   UNL     1      28.045 -13.768  11.927  1.00  0.00     0.038 A 
ATOM      5  C   UNL     1      27.367 -12.530  11.923  1.00  0.00     0.076 A 
ATOM      6  C   UNL     1      27.232 -11.819  10.708  1.00  0.00     0.127 A 
ATOM      7  C   UNL     1      27.751 -12.352   9.521  1.00  0.00     0.050 A 
ATOM      8  C   UNL     1      26.794 -12.015  13.194  1.00  0.00     0.201 C 
ATOM      9  O   UNL     1      25.897 -11.131  13.155  1.00  0.00    -0.288 OA
ATOM     10  C   UNL     1      27.193 -12.621  14.494  1.00  0.00     0.076 A 
ATOM     11  C   UNL     1      27.819 -13.890  14.481  1.00  0.00     0.041 A 
ATOM     12  C   UNL     1      28.212 -14.513  13.195  1.00  0.00     0.194 C 
ATOM     13  O   UNL     1      28.706 -15.675  13.182  1.00  0.00    -0.289 OA
ATOM     14  C   UNL     1      28.077 -14.557  15.692  1.00  0.00     0.059 A 
ATOM     15  C   UNL     1      27.735 -13.970  16.912  1.00  0.00     0.120 A 
ATOM     16  C   UNL     1      27.162 -12.700  16.933  1.00  0.00     0.093 A 
ATOM     17  C   UNL     1      26.919 -12.003  15.746  1.00  0.00     0.131 A 
ENDROOT
BRANCH   6  18
ATOM     18  O   UNL     1      26.594 -10.579  10.678  1.00  0.00    -0.507 OA
ATOM     19  H   UNL     1      27.000  -9.782  10.201  1.00  0.00     0.293 HD
ENDBRANCH   6  18
BRANCH  17  20
ATOM     20  O   UNL     1      26.443 -10.695  15.860  1.00  0.00    -0.507 OA
ATOM     21  H   UNL     1      26.923  -9.888  15.489  1.00  0.00     0.293 HD
ENDBRANCH  17  20
BRANCH  15  22
ATOM     22  O   UNL     1      27.975 -14.636  18.112  1.00  0.00    -0.508 OA
ATOM     23  H   UNL     1      27.744 -15.615  18.231  1.00  0.00     0.293 HD
ENDBRANCH  15  22
TORSDOF 3
ENDMDL
MODEL 9
REMARK VINA RESULT:    -4.868      3.427      5.916
REMARK INTER + INTRA:          -5.295
REMARK INTER:                  -5.295
REMARK INTRA:                   0.000
REMARK UNBOUND:                 0.000
REMARK SMILES Cc1cc(O)c2c(c1)C(=O)c1cc(O)cc(O)c1C2=O
REMARK SMILES IDX 1 1 2 2 8 3 7 4 6 5 4 6 3 7 19 8 20 9 18 10 11 11 9 12 10 13
REMARK SMILES IDX 12 14 13 15 15 16 16 17 5 18 17 20 14 22
REMARK H PARENT 5 19 17 21 14 23
REMARK Flexibility Score: inf
ROOT
ATOM      1  C   UNL     1      26.842 -12.266  15.068  1.00  0.00     0.044 C 
ATOM      2  C   UNL     1      27.132 -12.639  13.644  1.00  0.00    -0.047 A 
ATOM      3  C   UNL     1      26.356 -12.112  12.605  1.00  0.00     0.016 A 
ATOM      4  C   UNL     1      26.643 -12.425  11.265  1.00  0.00     0.038 A 
ATOM      5  C   UNL     1      27.728 -13.274  10.959  1.00  0.00     0.076 A 
ATOM      6  C   UNL     1      28.526 -13.783  12.010  1.00  0.00     0.127 A 
ATOM      7  C   UNL     1      28.225 -13.458  13.340  1.00  0.00     0.050 A 
ATOM      8  C   UNL     1      27.992 -13.629   9.540  1.00  0.00     0.201 C 
ATOM      9  O   UNL     1      28.695 -14.641   9.276  1.00  0.00    -0.288 OA
ATOM     10  C   UNL     1      27.336 -12.864   8.443  1.00  0.00     0.076 A 
ATOM     11  C   UNL     1      26.214 -12.064   8.759  1.00  0.00     0.041 A 
ATOM     12  C   UNL     1      25.812 -11.869  10.173  1.00  0.00     0.194 C 
ATOM     13  O   UNL     1      24.769 -11.213  10.447  1.00  0.00    -0.289 OA
ATOM     14  C   UNL     1      25.482 -11.445   7.730  1.00  0.00     0.059 A 
ATOM     15  C   UNL     1      25.865 -11.600   6.396  1.00  0.00     0.120 A 
ATOM     16  C   UNL     1      26.997 -12.347   6.083  1.00  0.00     0.093 A 
ATOM     17  C   UNL     1      27.758 -12.951   7.088  1.00  0.00     0.131 A 
ENDROOT
BRANCH   6  18
ATOM     18  O   UNL     1      29.623 -14.599  11.738  1.00  0.00    -0.507 OA
ATOM     19  H   UNL     1      30.158 -15.038  12.478  1.00  0.00     0.293 HD
ENDBRANCH   6  18
BRANCH  17  20
ATOM     20  O   UNL     1      28.938 -13.592   6.698  1.00  0.00    -0.507 OA
ATOM     21  H   UNL     1      29.853 -13.341   7.042  1.00  0.00     0.293 HD
ENDBRANCH  17  20
BRANCH  15  22
ATOM     22  O   UNL     1      25.132 -11.001   5.373  1.00  0.00    -0.508 OA
ATOM     23  H   UNL     1      24.379 -10.352   5.569  1.00  0.00     0.293 HD
ENDBRANCH  15  22
TORSDOF 3
ENDMDL
