MODEL 1
REMARK VINA RESULT:    -4.269      0.000      0.000
REMARK INTER + INTRA:          -6.914
REMARK INTER:                  -6.516
REMARK INTRA:                  -0.398
REMARK UNBOUND:                -0.398
REMARK SMILES O=C([O-])CCCCCCCCC(=O)[O-]
REMARK SMILES IDX 7 1 6 2 5 3 4 4 2 5 1 6 3 7 8 8 9 9 10 10 11 11 12 12 13 13
REMARK SMILES IDX 14 14
REMARK H PARENT
REMARK Flexibility Score: inf
ROOT
ATOM      1  C   UNL     1       0.314   7.803  -0.869  1.00  0.00     0.000 C 
ENDROOT
BRANCH   1   2
ATOM      2  C   UNL     1       0.681   7.642  -2.349  1.00  0.00     0.000 C 
BRANCH   2   3
ATOM      3  C   UNL     1       1.457   6.340  -2.585  1.00  0.00     0.006 C 
BRANCH   3   4
ATOM      4  C   UNL     1       2.417   6.480  -3.768  1.00  0.00     0.053 C 
BRANCH   4   5
ATOM      5  C   UNL     1       3.825   6.636  -3.286  1.00  0.00     0.041 C 
ATOM      6  O   UNL     1       4.072   7.331  -2.267  1.00  0.00    -0.550 OA
ATOM      7  O   UNL     1       4.859   5.970  -3.932  1.00  0.00    -0.550 OA
ENDBRANCH   4   5
ENDBRANCH   3   4
ENDBRANCH   2   3
ENDBRANCH   1   2
BRANCH   1   8
ATOM      8  C   UNL     1       1.301   7.048   0.030  1.00  0.00     0.000 C 
BRANCH   8   9
ATOM      9  C   UNL     1       0.825   7.049   1.490  1.00  0.00     0.000 C 
BRANCH   9  10
ATOM     10  C   UNL     1       0.884   5.653   2.132  1.00  0.00     0.006 C 
BRANCH  10  11
ATOM     11  C   UNL     1      -0.295   5.386   3.076  1.00  0.00     0.053 C 
BRANCH  11  12
ATOM     12  C   UNL     1      -0.448   3.917   3.318  1.00  0.00     0.041 C 
ATOM     13  O   UNL     1      -0.809   3.157   2.382  1.00  0.00    -0.550 OA
ATOM     14  O   UNL     1      -0.145   3.383   4.563  1.00  0.00    -0.550 OA
ENDBRANCH  11  12
ENDBRANCH  10  11
ENDBRANCH   9  10
ENDBRANCH   8   9
ENDBRANCH   1   8
TORSDOF 9
ENDMDL
MODEL 2
REMARK VINA RESULT:    -4.113      1.669      6.501
REMARK INTER + INTRA:          -6.674
REMARK INTER:                  -6.127
REMARK INTRA:                  -0.547
REMARK UNBOUND:                -0.398
REMARK SMILES O=C([O-])CCCCCCCCC(=O)[O-]
REMARK SMILES IDX 7 1 6 2 5 3 4 4 2 5 1 6 3 7 8 8 9 9 10 10 11 11 12 12 13 13
REMARK SMILES IDX 14 14
REMARK H PARENT
REMARK Flexibility Score: inf
ROOT
ATOM      1  C   UNL     1       0.702   7.560   1.486  1.00  0.00     0.000 C 
ENDROOT
BRANCH   1   2
ATOM      2  C   UNL     1      -0.261   7.779   2.658  1.00  0.00     0.000 C 
BRANCH   2   3
ATOM      3  C   UNL     1      -0.538   6.464   3.397  1.00  0.00     0.006 C 
BRANCH   3   4
ATOM      4  C   UNL     1       0.182   5.293   2.725  1.00  0.00     0.053 C 
BRANCH   4   5
ATOM      5  C   UNL     1      -0.340   3.989   3.241  1.00  0.00     0.041 C 
ATOM      6  O   UNL     1      -0.358   3.760   4.479  1.00  0.00    -0.550 OA
ATOM      7  O   UNL     1      -0.853   3.047   2.359  1.00  0.00    -0.550 OA
ENDBRANCH   4   5
ENDBRANCH   3   4
ENDBRANCH   2   3
ENDBRANCH   1   2
BRANCH   1   8
ATOM      8  C   UNL     1       0.666   8.745   0.513  1.00  0.00     0.000 C 
BRANCH   8   9
ATOM      9  C   UNL     1      -0.739   8.925  -0.081  1.00  0.00     0.000 C 
BRANCH   9  10
ATOM     10  C   UNL     1      -0.845   8.396  -1.520  1.00  0.00     0.006 C 
BRANCH  10  11
ATOM     11  C   UNL     1       0.451   8.588  -2.318  1.00  0.00     0.053 C 
BRANCH  11  12
ATOM     12  C   UNL     1       1.017   7.263  -2.721  1.00  0.00     0.041 C 
ATOM     13  O   UNL     1       0.752   6.231  -2.049  1.00  0.00    -0.550 OA
ATOM     14  O   UNL     1       1.798   7.159  -3.865  1.00  0.00    -0.550 OA
ENDBRANCH  11  12
ENDBRANCH  10  11
ENDBRANCH   9  10
ENDBRANCH   8   9
ENDBRANCH   1   8
TORSDOF 9
ENDMDL
MODEL 3
REMARK VINA RESULT:    -4.089      0.895      6.595
REMARK INTER + INTRA:          -6.638
REMARK INTER:                  -6.171
REMARK INTRA:                  -0.467
REMARK UNBOUND:                -0.398
REMARK SMILES O=C([O-])CCCCCCCCC(=O)[O-]
REMARK SMILES IDX 7 1 6 2 5 3 4 4 2 5 1 6 3 7 8 8 9 9 10 10 11 11 12 12 13 13
REMARK SMILES IDX 14 14
REMARK H PARENT
REMARK Flexibility Score: inf
ROOT
ATOM      1  C   UNL     1       0.815   8.181   0.211  1.00  0.00     0.000 C 
ENDROOT
BRANCH   1   2
ATOM      2  C   UNL     1       0.938   6.696   0.573  1.00  0.00     0.000 C 
BRANCH   2   3
ATOM      3  C   UNL     1       1.118   6.510   2.084  1.00  0.00     0.006 C 
BRANCH   3   4
ATOM      4  C   UNL     1      -0.114   5.848   2.707  1.00  0.00     0.053 C 
BRANCH   4   5
ATOM      5  C   UNL     1       0.040   4.360   2.722  1.00  0.00     0.041 C 
ATOM      6  O   UNL     1       1.184   3.843   2.809  1.00  0.00    -0.550 OA
ATOM      7  O   UNL     1      -1.084   3.545   2.690  1.00  0.00    -0.550 OA
ENDBRANCH   4   5
ENDBRANCH   3   4
ENDBRANCH   2   3
ENDBRANCH   1   2
BRANCH   1   8
ATOM      8  C   UNL     1       0.218   8.360  -1.190  1.00  0.00     0.000 C 
BRANCH   8   9
ATOM      9  C   UNL     1       0.582   7.175  -2.098  1.00  0.00     0.000 C 
BRANCH   9  10
ATOM     10  C   UNL     1       1.488   7.584  -3.270  1.00  0.00     0.006 C 
BRANCH  10  11
ATOM     11  C   UNL     1       2.411   6.448  -3.729  1.00  0.00     0.053 C 
BRANCH  11  12
ATOM     12  C   UNL     1       3.808   6.683  -3.246  1.00  0.00     0.041 C 
ATOM     13  O   UNL     1       4.023   7.475  -2.291  1.00  0.00    -0.550 OA
ATOM     14  O   UNL     1       4.866   5.989  -3.818  1.00  0.00    -0.550 OA
ENDBRANCH  11  12
ENDBRANCH  10  11
ENDBRANCH   9  10
ENDBRANCH   8   9
ENDBRANCH   1   8
TORSDOF 9
ENDMDL
MODEL 4
REMARK VINA RESULT:    -4.071      1.854      2.613
REMARK INTER + INTRA:          -6.611
REMARK INTER:                  -6.183
REMARK INTRA:                  -0.428
REMARK UNBOUND:                -0.398
REMARK SMILES O=C([O-])CCCCCCCCC(=O)[O-]
REMARK SMILES IDX 7 1 6 2 5 3 4 4 2 5 1 6 3 7 8 8 9 9 10 10 11 11 12 12 13 13
REMARK SMILES IDX 14 14
REMARK H PARENT
REMARK Flexibility Score: inf
ROOT
ATOM      1  C   UNL     1       0.001   8.493   0.861  1.00  0.00     0.000 C 
ENDROOT
BRANCH   1   2
ATOM      2  C   UNL     1      -0.870   9.249  -0.148  1.00  0.00     0.000 C 
BRANCH   2   3
ATOM      3  C   UNL     1      -0.922   8.511  -1.492  1.00  0.00     0.006 C 
BRANCH   3   4
ATOM      4  C   UNL     1       0.383   8.693  -2.270  1.00  0.00     0.053 C 
BRANCH   4   5
ATOM      5  C   UNL     1       0.937   7.366  -2.685  1.00  0.00     0.041 C 
ATOM      6  O   UNL     1       1.605   7.263  -3.747  1.00  0.00    -0.550 OA
ATOM      7  O   UNL     1       0.759   6.254  -1.873  1.00  0.00    -0.550 OA
ENDBRANCH   4   5
ENDBRANCH   3   4
ENDBRANCH   2   3
ENDBRANCH   1   2
BRANCH   1   8
ATOM      8  C   UNL     1      -0.460   8.764   2.299  1.00  0.00     0.000 C 
BRANCH   8   9
ATOM      9  C   UNL     1      -0.871   7.460   2.999  1.00  0.00     0.000 C 
BRANCH   9  10
ATOM     10  C   UNL     1       0.315   6.506   3.215  1.00  0.00     0.006 C 
BRANCH  10  11
ATOM     11  C   UNL     1       0.255   5.272   2.305  1.00  0.00     0.053 C 
BRANCH  11  12
ATOM     12  C   UNL     1      -0.430   4.140   3.004  1.00  0.00     0.041 C 
ATOM     13  O   UNL     1      -0.801   3.128   2.355  1.00  0.00    -0.550 OA
ATOM     14  O   UNL     1      -0.615   4.183   4.380  1.00  0.00    -0.550 OA
ENDBRANCH  11  12
ENDBRANCH  10  11
ENDBRANCH   9  10
ENDBRANCH   8   9
ENDBRANCH   1   8
TORSDOF 9
ENDMDL
MODEL 5
REMARK VINA RESULT:    -3.948      1.641      2.363
REMARK INTER + INTRA:          -6.423
REMARK INTER:                  -6.092
REMARK INTRA:                  -0.331
REMARK UNBOUND:                -0.398
REMARK SMILES O=C([O-])CCCCCCCCC(=O)[O-]
REMARK SMILES IDX 7 1 6 2 5 3 4 4 2 5 1 6 3 7 8 8 9 9 10 10 11 11 12 12 13 13
REMARK SMILES IDX 14 14
REMARK H PARENT
REMARK Flexibility Score: inf
ROOT
ATOM      1  C   UNL     1       1.018   6.882   0.359  1.00  0.00     0.000 C 
ENDROOT
BRANCH   1   2
ATOM      2  C   UNL     1       0.328   8.024  -0.396  1.00  0.00     0.000 C 
BRANCH   2   3
ATOM      3  C   UNL     1       0.104   7.656  -1.868  1.00  0.00     0.006 C 
BRANCH   3   4
ATOM      4  C   UNL     1       1.415   7.714  -2.655  1.00  0.00     0.053 C 
BRANCH   4   5
ATOM      5  C   UNL     1       1.739   6.374  -3.235  1.00  0.00     0.041 C 
ATOM      6  O   UNL     1       2.589   6.272  -4.158  1.00  0.00    -0.550 OA
ATOM      7  O   UNL     1       1.140   5.231  -2.722  1.00  0.00    -0.550 OA
ENDBRANCH   4   5
ENDBRANCH   3   4
ENDBRANCH   2   3
ENDBRANCH   1   2
BRANCH   1   8
ATOM      8  C   UNL     1       0.630   6.888   1.842  1.00  0.00     0.000 C 
BRANCH   8   9
ATOM      9  C   UNL     1       0.864   5.509   2.477  1.00  0.00     0.000 C 
BRANCH   9  10
ATOM     10  C   UNL     1      -0.442   4.833   2.921  1.00  0.00     0.006 C 
BRANCH  10  11
ATOM     11  C   UNL     1      -0.201   3.603   3.806  1.00  0.00     0.053 C 
BRANCH  11  12
ATOM     12  C   UNL     1       0.078   4.020   5.216  1.00  0.00     0.041 C 
ATOM     13  O   UNL     1      -0.873   4.227   6.015  1.00  0.00    -0.550 OA
ATOM     14  O   UNL     1       1.389   4.133   5.660  1.00  0.00    -0.550 OA
ENDBRANCH  11  12
ENDBRANCH  10  11
ENDBRANCH   9  10
ENDBRANCH   8   9
ENDBRANCH   1   8
TORSDOF 9
ENDMDL
MODEL 6
REMARK VINA RESULT:    -3.913      1.601      1.976
REMARK INTER + INTRA:          -6.370
REMARK INTER:                  -5.807
REMARK INTRA:                  -0.562
REMARK UNBOUND:                -0.398
REMARK SMILES O=C([O-])CCCCCCCCC(=O)[O-]
REMARK SMILES IDX 7 1 6 2 5 3 4 4 2 5 1 6 3 7 8 8 9 9 10 10 11 11 12 12 13 13
REMARK SMILES IDX 14 14
REMARK H PARENT
REMARK Flexibility Score: inf
ROOT
ATOM      1  C   UNL     1      -0.412   8.816  -0.175  1.00  0.00     0.000 C 
ENDROOT
BRANCH   1   2
ATOM      2  C   UNL     1      -0.402   8.120  -1.541  1.00  0.00     0.000 C 
BRANCH   2   3
ATOM      3  C   UNL     1       0.693   7.048  -1.606  1.00  0.00     0.006 C 
BRANCH   3   4
ATOM      4  C   UNL     1       1.347   7.014  -2.989  1.00  0.00     0.053 C 
BRANCH   4   5
ATOM      5  C   UNL     1       1.930   8.350  -3.328  1.00  0.00     0.041 C 
ATOM      6  O   UNL     1       1.492   9.001  -4.312  1.00  0.00    -0.550 OA
ATOM      7  O   UNL     1       2.921   8.900  -2.525  1.00  0.00    -0.550 OA
ENDBRANCH   4   5
ENDBRANCH   3   4
ENDBRANCH   2   3
ENDBRANCH   1   2
BRANCH   1   8
ATOM      8  C   UNL     1       0.335   7.983   0.873  1.00  0.00     0.000 C 
BRANCH   8   9
ATOM      9  C   UNL     1      -0.255   8.205   2.274  1.00  0.00     0.000 C 
BRANCH   9  10
ATOM     10  C   UNL     1      -0.449   6.892   3.049  1.00  0.00     0.006 C 
BRANCH  10  11
ATOM     11  C   UNL     1       0.280   5.709   2.401  1.00  0.00     0.053 C 
BRANCH  11  12
ATOM     12  C   UNL     1      -0.155   4.421   3.027  1.00  0.00     0.041 C 
ATOM     13  O   UNL     1      -0.610   3.491   2.310  1.00  0.00    -0.550 OA
ATOM     14  O   UNL     1      -0.011   4.230   4.395  1.00  0.00    -0.550 OA
ENDBRANCH  11  12
ENDBRANCH  10  11
ENDBRANCH   9  10
ENDBRANCH   8   9
ENDBRANCH   1   8
TORSDOF 9
ENDMDL
MODEL 7
REMARK VINA RESULT:    -3.888      1.337      6.176
REMARK INTER + INTRA:          -6.331
REMARK INTER:                  -5.711
REMARK INTRA:                  -0.620
REMARK UNBOUND:                -0.398
REMARK SMILES O=C([O-])CCCCCCCCC(=O)[O-]
REMARK SMILES IDX 7 1 6 2 5 3 4 4 2 5 1 6 3 7 8 8 9 9 10 10 11 11 12 12 13 13
REMARK SMILES IDX 14 14
REMARK H PARENT
REMARK Flexibility Score: inf
ROOT
ATOM      1  C   UNL     1      -0.132   8.207  -1.133  1.00  0.00     0.000 C 
ENDROOT
BRANCH   1   2
ATOM      2  C   UNL     1      -0.235   8.700   0.314  1.00  0.00     0.000 C 
BRANCH   2   3
ATOM      3  C   UNL     1       0.845   8.059   1.194  1.00  0.00     0.006 C 
BRANCH   3   4
ATOM      4  C   UNL     1       0.971   6.561   0.905  1.00  0.00     0.053 C 
BRANCH   4   5
ATOM      5  C   UNL     1       0.763   5.766   2.155  1.00  0.00     0.041 C 
ATOM      6  O   UNL     1       1.011   6.276   3.279  1.00  0.00    -0.550 OA
ATOM      7  O   UNL     1       0.246   4.479   2.082  1.00  0.00    -0.550 OA
ENDBRANCH   4   5
ENDBRANCH   3   4
ENDBRANCH   2   3
ENDBRANCH   1   2
BRANCH   1   8
ATOM      8  C   UNL     1       0.642   9.206  -2.002  1.00  0.00     0.000 C 
BRANCH   8   9
ATOM      9  C   UNL     1       1.229   8.516  -3.243  1.00  0.00     0.000 C 
BRANCH   9  10
ATOM     10  C   UNL     1       1.397   7.000  -3.053  1.00  0.00     0.006 C 
BRANCH  10  11
ATOM     11  C   UNL     1       2.502   6.412  -3.939  1.00  0.00     0.053 C 
BRANCH  11  12
ATOM     12  C   UNL     1       3.794   6.342  -3.185  1.00  0.00     0.041 C 
ATOM     13  O   UNL     1       3.813   6.547  -1.943  1.00  0.00    -0.550 OA
ATOM     14  O   UNL     1       4.966   6.001  -3.847  1.00  0.00    -0.550 OA
ENDBRANCH  11  12
ENDBRANCH  10  11
ENDBRANCH   9  10
ENDBRANCH   8   9
ENDBRANCH   1   8
TORSDOF 9
ENDMDL
MODEL 8
REMARK VINA RESULT:    -3.840      1.660      6.611
REMARK INTER + INTRA:          -6.258
REMARK INTER:                  -5.782
REMARK INTRA:                  -0.475
REMARK UNBOUND:                -0.398
REMARK SMILES O=C([O-])CCCCCCCCC(=O)[O-]
REMARK SMILES IDX 7 1 6 2 5 3 4 4 2 5 1 6 3 7 8 8 9 9 10 10 11 11 12 12 13 13
REMARK SMILES IDX 14 14
REMARK H PARENT
REMARK Flexibility Score: inf
ROOT
ATOM      1  C   UNL     1       0.077   7.738   2.266  1.00  0.00     0.000 C 
ENDROOT
BRANCH   1   2
ATOM      2  C   UNL     1       0.103   6.566   3.253  1.00  0.00     0.000 C 
BRANCH   2   3
ATOM      3  C   UNL     1       0.337   5.236   2.526  1.00  0.00     0.006 C 
BRANCH   3   4
ATOM      4  C   UNL     1       1.521   4.479   3.132  1.00  0.00     0.053 C 
BRANCH   4   5
ATOM      5  C   UNL     1       1.217   4.068   4.538  1.00  0.00     0.041 C 
ATOM      6  O   UNL     1       1.926   4.491   5.489  1.00  0.00    -0.550 OA
ATOM      7  O   UNL     1       0.119   3.260   4.804  1.00  0.00    -0.550 OA
ENDBRANCH   4   5
ENDBRANCH   3   4
ENDBRANCH   2   3
ENDBRANCH   1   2
BRANCH   1   8
ATOM      8  C   UNL     1       0.658   7.327   0.907  1.00  0.00     0.000 C 
BRANCH   8   9
ATOM      9  C   UNL     1       0.503   8.457  -0.121  1.00  0.00     0.000 C 
BRANCH   9  10
ATOM     10  C   UNL     1      -0.063   7.963  -1.462  1.00  0.00     0.006 C 
BRANCH  10  11
ATOM     11  C   UNL     1       0.937   8.109  -2.616  1.00  0.00     0.053 C 
BRANCH  11  12
ATOM     12  C   UNL     1       1.457   6.768  -3.030  1.00  0.00     0.041 C 
ATOM     13  O   UNL     1       2.204   6.662  -4.038  1.00  0.00    -0.550 OA
ATOM     14  O   UNL     1       1.157   5.643  -2.273  1.00  0.00    -0.550 OA
ENDBRANCH  11  12
ENDBRANCH  10  11
ENDBRANCH   9  10
ENDBRANCH   8   9
ENDBRANCH   1   8
TORSDOF 9
ENDMDL
MODEL 9
REMARK VINA RESULT:    -3.720      1.538      2.045
REMARK INTER + INTRA:          -6.075
REMARK INTER:                  -5.215
REMARK INTRA:                  -0.860
REMARK UNBOUND:                -0.398
REMARK SMILES O=C([O-])CCCCCCCCC(=O)[O-]
REMARK SMILES IDX 7 1 6 2 5 3 4 4 2 5 1 6 3 7 8 8 9 9 10 10 11 11 12 12 13 13
REMARK SMILES IDX 14 14
REMARK H PARENT
REMARK Flexibility Score: inf
ROOT
ATOM      1  C   UNL     1      -0.428   8.306  -1.712  1.00  0.00     0.000 C 
ENDROOT
BRANCH   1   2
ATOM      2  C   UNL     1       0.367   9.367  -2.480  1.00  0.00     0.000 C 
BRANCH   2   3
ATOM      3  C   UNL     1       1.379   8.717  -3.432  1.00  0.00     0.006 C 
BRANCH   3   4
ATOM      4  C   UNL     1       1.469   7.208  -3.191  1.00  0.00     0.053 C 
BRANCH   4   5
ATOM      5  C   UNL     1       2.868   6.816  -2.833  1.00  0.00     0.041 C 
ATOM      6  O   UNL     1       3.263   6.901  -1.640  1.00  0.00    -0.550 OA
ATOM      7  O   UNL     1       3.719   6.310  -3.806  1.00  0.00    -0.550 OA
ENDBRANCH   4   5
ENDBRANCH   3   4
ENDBRANCH   2   3
ENDBRANCH   1   2
BRANCH   1   8
ATOM      8  C   UNL     1      -0.446   8.611  -0.209  1.00  0.00     0.000 C 
BRANCH   8   9
ATOM      9  C   UNL     1       0.976   8.840   0.322  1.00  0.00     0.000 C 
BRANCH   9  10
ATOM     10  C   UNL     1       1.351   7.865   1.450  1.00  0.00     0.006 C 
BRANCH  10  11
ATOM     11  C   UNL     1       1.077   6.401   1.082  1.00  0.00     0.053 C 
BRANCH  11  12
ATOM     12  C   UNL     1       0.365   5.706   2.200  1.00  0.00     0.041 C 
ATOM     13  O   UNL     1       0.352   4.449   2.257  1.00  0.00    -0.550 OA
ATOM     14  O   UNL     1      -0.242   6.449   3.205  1.00  0.00    -0.550 OA
ENDBRANCH  11  12
ENDBRANCH  10  11
ENDBRANCH   9  10
ENDBRANCH   8   9
ENDBRANCH   1   8
TORSDOF 9
ENDMDL
