MODEL 1
REMARK VINA RESULT:    -4.542      0.000      0.000
REMARK INTER + INTRA:          -4.542
REMARK INTER:                  -4.542
REMARK INTRA:                   0.000
REMARK UNBOUND:                 0.000
REMARK SMILES CC1=CC[C@@]2(C)CCCC(C)(C)[C@]23C[C@@H]13
REMARK SMILES IDX 1 1 2 2 3 3 4 4 5 5 7 6 8 7 9 8 10 9 13 10 15 11 14 12 11 13
REMARK SMILES IDX 12 14 6 15
REMARK H PARENT
REMARK Flexibility Score: inf
ROOT
ATOM      1  C   UNL     1      10.200  21.105  27.562  1.00  0.00     0.039 C 
ATOM      2  C   UNL     1      10.229  20.740  26.107  1.00  0.00    -0.074 C 
ATOM      3  C   UNL     1      10.769  19.570  25.684  1.00  0.00    -0.027 C 
ATOM      4  C   UNL     1      10.843  19.236  24.192  1.00  0.00     0.034 C 
ATOM      5  C   UNL     1       9.701  19.898  23.311  1.00  0.00    -0.022 C 
ATOM      6  C   UNL     1       8.800  18.789  22.673  1.00  0.00     0.008 C 
ATOM      7  C   UNL     1       7.391  19.299  22.357  1.00  0.00     0.001 C 
ATOM      8  C   UNL     1       6.605  19.737  23.611  1.00  0.00     0.007 C 
ATOM      9  C   UNL     1       7.476  20.206  24.826  1.00  0.00    -0.029 C 
ATOM     10  C   UNL     1       8.828  20.842  24.235  1.00  0.00    -0.012 C 
ATOM     11  C   UNL     1       9.832  21.741  25.063  1.00  0.00     0.022 C 
ATOM     12  C   UNL     1       8.773  22.337  24.129  1.00  0.00     0.017 C 
ATOM     13  C   UNL     1       7.730  18.986  25.762  1.00  0.00     0.012 C 
ATOM     14  C   UNL     1       6.612  21.182  25.673  1.00  0.00     0.012 C 
ATOM     15  C   UNL     1      10.356  20.675  22.133  1.00  0.00     0.012 C 
ENDROOT
TORSDOF 0
ENDMDL
MODEL 2
REMARK VINA RESULT:    -4.506      1.388      3.793
REMARK INTER + INTRA:          -4.506
REMARK INTER:                  -4.506
REMARK INTRA:                   0.000
REMARK UNBOUND:                 0.000
REMARK SMILES CC1=CC[C@@]2(C)CCCC(C)(C)[C@]23C[C@@H]13
REMARK SMILES IDX 1 1 2 2 3 3 4 4 5 5 7 6 8 7 9 8 10 9 13 10 15 11 14 12 11 13
REMARK SMILES IDX 12 14 6 15
REMARK H PARENT
REMARK Flexibility Score: inf
ROOT
ATOM      1  C   UNL     1      11.803  21.946  28.395  1.00  0.00     0.039 C 
ATOM      2  C   UNL     1      10.572  21.242  27.903  1.00  0.00    -0.074 C 
ATOM      3  C   UNL     1       9.405  21.906  27.721  1.00  0.00    -0.027 C 
ATOM      4  C   UNL     1       8.142  21.164  27.274  1.00  0.00     0.034 C 
ATOM      5  C   UNL     1       8.415  19.871  26.395  1.00  0.00    -0.022 C 
ATOM      6  C   UNL     1       7.820  20.057  24.960  1.00  0.00     0.008 C 
ATOM      7  C   UNL     1       8.539  19.196  23.919  1.00  0.00     0.001 C 
ATOM      8  C   UNL     1      10.030  19.560  23.750  1.00  0.00     0.007 C 
ATOM      9  C   UNL     1      10.713  20.212  25.001  1.00  0.00    -0.029 C 
ATOM     10  C   UNL     1       9.978  19.635  26.308  1.00  0.00    -0.012 C 
ATOM     11  C   UNL     1      10.548  19.747  27.779  1.00  0.00     0.022 C 
ATOM     12  C   UNL     1      10.709  18.482  26.929  1.00  0.00     0.017 C 
ATOM     13  C   UNL     1      10.615  21.762  24.875  1.00  0.00     0.012 C 
ATOM     14  C   UNL     1      12.234  19.903  24.918  1.00  0.00     0.012 C 
ATOM     15  C   UNL     1       7.675  18.660  27.033  1.00  0.00     0.012 C 
ENDROOT
TORSDOF 0
ENDMDL
MODEL 3
REMARK VINA RESULT:    -4.490      1.267      3.221
REMARK INTER + INTRA:          -4.490
REMARK INTER:                  -4.490
REMARK INTRA:                   0.000
REMARK UNBOUND:                 0.000
REMARK SMILES CC1=CC[C@@]2(C)CCCC(C)(C)[C@]23C[C@@H]13
REMARK SMILES IDX 1 1 2 2 3 3 4 4 5 5 7 6 8 7 9 8 10 9 13 10 15 11 14 12 11 13
REMARK SMILES IDX 12 14 6 15
REMARK H PARENT
REMARK Flexibility Score: inf
ROOT
ATOM      1  C   UNL     1      11.507  19.012  27.598  1.00  0.00     0.039 C 
ATOM      2  C   UNL     1      10.240  19.098  26.798  1.00  0.00    -0.074 C 
ATOM      3  C   UNL     1       9.032  18.853  27.362  1.00  0.00    -0.027 C 
ATOM      4  C   UNL     1       7.753  18.889  26.521  1.00  0.00     0.034 C 
ATOM      5  C   UNL     1       7.814  19.864  25.270  1.00  0.00    -0.022 C 
ATOM      6  C   UNL     1       6.761  21.011  25.428  1.00  0.00     0.008 C 
ATOM      7  C   UNL     1       7.155  22.269  24.649  1.00  0.00     0.001 C 
ATOM      8  C   UNL     1       8.471  22.906  25.143  1.00  0.00     0.007 C 
ATOM      9  C   UNL     1       9.481  21.925  25.831  1.00  0.00    -0.029 C 
ATOM     10  C   UNL     1       9.271  20.474  25.172  1.00  0.00    -0.012 C 
ATOM     11  C   UNL     1      10.290  19.273  25.309  1.00  0.00     0.022 C 
ATOM     12  C   UNL     1      10.253  20.183  24.076  1.00  0.00     0.017 C 
ATOM     13  C   UNL     1       9.229  21.943  27.369  1.00  0.00     0.012 C 
ATOM     14  C   UNL     1      10.906  22.521  25.656  1.00  0.00     0.012 C 
ATOM     15  C   UNL     1       7.424  19.071  23.991  1.00  0.00     0.012 C 
ENDROOT
TORSDOF 0
ENDMDL
MODEL 4
REMARK VINA RESULT:    -4.413     12.028     14.019
REMARK INTER + INTRA:          -4.413
REMARK INTER:                  -4.413
REMARK INTRA:                   0.000
REMARK UNBOUND:                 0.000
REMARK SMILES CC1=CC[C@@]2(C)CCCC(C)(C)[C@]23C[C@@H]13
REMARK SMILES IDX 1 1 2 2 3 3 4 4 5 5 7 6 8 7 9 8 10 9 13 10 15 11 14 12 11 13
REMARK SMILES IDX 12 14 6 15
REMARK H PARENT
REMARK Flexibility Score: inf
ROOT
ATOM      1  C   UNL     1      14.131  20.118  37.762  1.00  0.00     0.039 C 
ATOM      2  C   UNL     1      14.520  18.756  37.265  1.00  0.00    -0.074 C 
ATOM      3  C   UNL     1      15.502  18.040  37.866  1.00  0.00    -0.027 C 
ATOM      4  C   UNL     1      15.928  16.677  37.314  1.00  0.00     0.034 C 
ATOM      5  C   UNL     1      14.781  15.888  36.551  1.00  0.00    -0.022 C 
ATOM      6  C   UNL     1      14.449  14.557  37.305  1.00  0.00     0.008 C 
ATOM      7  C   UNL     1      13.021  14.078  37.030  1.00  0.00     0.001 C 
ATOM      8  C   UNL     1      11.940  15.063  37.526  1.00  0.00     0.007 C 
ATOM      9  C   UNL     1      12.381  16.564  37.611  1.00  0.00    -0.029 C 
ATOM     10  C   UNL     1      13.494  16.806  36.477  1.00  0.00    -0.012 C 
ATOM     11  C   UNL     1      13.965  18.229  35.975  1.00  0.00     0.022 C 
ATOM     12  C   UNL     1      12.927  17.393  35.218  1.00  0.00     0.017 C 
ATOM     13  C   UNL     1      12.900  16.854  39.052  1.00  0.00     0.012 C 
ATOM     14  C   UNL     1      11.102  17.436  37.467  1.00  0.00     0.012 C 
ATOM     15  C   UNL     1      15.296  15.486  35.139  1.00  0.00     0.012 C 
ENDROOT
TORSDOF 0
ENDMDL
MODEL 5
REMARK VINA RESULT:    -4.401      1.180      3.692
REMARK INTER + INTRA:          -4.401
REMARK INTER:                  -4.401
REMARK INTRA:                   0.000
REMARK UNBOUND:                 0.000
REMARK SMILES CC1=CC[C@@]2(C)CCCC(C)(C)[C@]23C[C@@H]13
REMARK SMILES IDX 1 1 2 2 3 3 4 4 5 5 7 6 8 7 9 8 10 9 13 10 15 11 14 12 11 13
REMARK SMILES IDX 12 14 6 15
REMARK H PARENT
REMARK Flexibility Score: inf
ROOT
ATOM      1  C   UNL     1       6.261  18.656  22.562  1.00  0.00     0.039 C 
ATOM      2  C   UNL     1       7.547  18.961  23.272  1.00  0.00    -0.074 C 
ATOM      3  C   UNL     1       8.692  19.201  22.586  1.00  0.00    -0.027 C 
ATOM      4  C   UNL     1      10.009  19.455  23.324  1.00  0.00     0.034 C 
ATOM      5  C   UNL     1       9.844  20.108  24.762  1.00  0.00    -0.022 C 
ATOM      6  C   UNL     1      10.508  21.525  24.791  1.00  0.00     0.008 C 
ATOM      7  C   UNL     1       9.886  22.433  25.854  1.00  0.00     0.001 C 
ATOM      8  C   UNL     1       8.392  22.731  25.605  1.00  0.00     0.007 C 
ATOM      9  C   UNL     1       7.613  21.645  24.788  1.00  0.00    -0.029 C 
ATOM     10  C   UNL     1       8.301  20.225  25.093  1.00  0.00    -0.012 C 
ATOM     11  C   UNL     1       7.646  18.823  24.763  1.00  0.00     0.022 C 
ATOM     12  C   UNL     1       7.589  19.449  26.161  1.00  0.00     0.017 C 
ATOM     13  C   UNL     1       7.647  22.032  23.279  1.00  0.00     0.012 C 
ATOM     14  C   UNL     1       6.113  21.743  25.188  1.00  0.00     0.012 C 
ATOM     15  C   UNL     1      10.602  19.237  25.803  1.00  0.00     0.012 C 
ENDROOT
TORSDOF 0
ENDMDL
MODEL 6
REMARK VINA RESULT:    -4.394      1.410      3.355
REMARK INTER + INTRA:          -4.394
REMARK INTER:                  -4.394
REMARK INTRA:                   0.000
REMARK UNBOUND:                 0.000
REMARK SMILES CC1=CC[C@@]2(C)CCCC(C)(C)[C@]23C[C@@H]13
REMARK SMILES IDX 1 1 2 2 3 3 4 4 5 5 7 6 8 7 9 8 10 9 13 10 15 11 14 12 11 13
REMARK SMILES IDX 12 14 6 15
REMARK H PARENT
REMARK Flexibility Score: inf
ROOT
ATOM      1  C   UNL     1       7.424  22.649  23.255  1.00  0.00     0.039 C 
ATOM      2  C   UNL     1       8.630  21.766  23.387  1.00  0.00    -0.074 C 
ATOM      3  C   UNL     1       9.876  22.286  23.505  1.00  0.00    -0.027 C 
ATOM      4  C   UNL     1      11.103  21.374  23.581  1.00  0.00     0.034 C 
ATOM      5  C   UNL     1      10.823  19.945  24.215  1.00  0.00    -0.022 C 
ATOM      6  C   UNL     1      11.637  19.774  25.541  1.00  0.00     0.008 C 
ATOM      7  C   UNL     1      10.987  18.766  26.492  1.00  0.00     0.001 C 
ATOM      8  C   UNL     1       9.584  19.196  26.972  1.00  0.00     0.007 C 
ATOM      9  C   UNL     1       8.802  20.150  26.007  1.00  0.00    -0.029 C 
ATOM     10  C   UNL     1       9.273  19.814  24.508  1.00  0.00    -0.012 C 
ATOM     11  C   UNL     1       8.511  20.282  23.203  1.00  0.00     0.022 C 
ATOM     12  C   UNL     1       8.340  18.879  23.797  1.00  0.00     0.017 C 
ATOM     13  C   UNL     1       9.082  21.625  26.423  1.00  0.00     0.012 C 
ATOM     14  C   UNL     1       7.284  19.945  26.275  1.00  0.00     0.012 C 
ATOM     15  C   UNL     1      11.329  18.849  23.235  1.00  0.00     0.012 C 
ENDROOT
TORSDOF 0
ENDMDL
MODEL 7
REMARK VINA RESULT:    -4.393      2.005      4.366
REMARK INTER + INTRA:          -4.393
REMARK INTER:                  -4.393
REMARK INTRA:                   0.000
REMARK UNBOUND:                 0.000
REMARK SMILES CC1=CC[C@@]2(C)CCCC(C)(C)[C@]23C[C@@H]13
REMARK SMILES IDX 1 1 2 2 3 3 4 4 5 5 7 6 8 7 9 8 10 9 13 10 15 11 14 12 11 13
REMARK SMILES IDX 12 14 6 15
REMARK H PARENT
REMARK Flexibility Score: inf
ROOT
ATOM      1  C   UNL     1       7.989  19.111  26.569  1.00  0.00     0.039 C 
ATOM      2  C   UNL     1       9.382  19.497  26.975  1.00  0.00    -0.074 C 
ATOM      3  C   UNL     1      10.301  18.562  27.319  1.00  0.00    -0.027 C 
ATOM      4  C   UNL     1      11.700  18.973  27.786  1.00  0.00     0.034 C 
ATOM      5  C   UNL     1      12.216  20.349  27.186  1.00  0.00    -0.022 C 
ATOM      6  C   UNL     1      13.481  20.110  26.296  1.00  0.00     0.008 C 
ATOM      7  C   UNL     1      13.655  21.199  25.235  1.00  0.00     0.001 C 
ATOM      8  C   UNL     1      12.494  21.252  24.219  1.00  0.00     0.007 C 
ATOM      9  C   UNL     1      11.115  20.721  24.739  1.00  0.00    -0.029 C 
ATOM     10  C   UNL     1      11.058  20.994  26.322  1.00  0.00    -0.012 C 
ATOM     11  C   UNL     1       9.739  20.937  27.193  1.00  0.00     0.022 C 
ATOM     12  C   UNL     1      10.324  22.254  26.671  1.00  0.00     0.017 C 
ATOM     13  C   UNL     1      10.988  19.212  24.371  1.00  0.00     0.012 C 
ATOM     14  C   UNL     1      10.001  21.425  23.915  1.00  0.00     0.012 C 
ATOM     15  C   UNL     1      12.660  21.275  28.355  1.00  0.00     0.012 C 
ENDROOT
TORSDOF 0
ENDMDL
MODEL 8
REMARK VINA RESULT:    -4.328      1.170      3.589
REMARK INTER + INTRA:          -4.328
REMARK INTER:                  -4.328
REMARK INTRA:                   0.000
REMARK UNBOUND:                 0.000
REMARK SMILES CC1=CC[C@@]2(C)CCCC(C)(C)[C@]23C[C@@H]13
REMARK SMILES IDX 1 1 2 2 3 3 4 4 5 5 7 6 8 7 9 8 10 9 13 10 15 11 14 12 11 13
REMARK SMILES IDX 12 14 6 15
REMARK H PARENT
REMARK Flexibility Score: inf
ROOT
ATOM      1  C   UNL     1       6.982  22.344  27.906  1.00  0.00     0.039 C 
ATOM      2  C   UNL     1       7.165  21.578  26.628  1.00  0.00    -0.074 C 
ATOM      3  C   UNL     1       7.131  22.199  25.424  1.00  0.00    -0.027 C 
ATOM      4  C   UNL     1       7.261  21.397  24.126  1.00  0.00     0.034 C 
ATOM      5  C   UNL     1       8.109  20.062  24.259  1.00  0.00    -0.022 C 
ATOM      6  C   UNL     1       9.394  20.146  23.369  1.00  0.00     0.008 C 
ATOM      7  C   UNL     1      10.517  19.245  23.888  1.00  0.00     0.001 C 
ATOM      8  C   UNL     1      11.016  19.639  25.295  1.00  0.00     0.007 C 
ATOM      9  C   UNL     1       9.974  20.382  26.198  1.00  0.00    -0.029 C 
ATOM     10  C   UNL     1       8.512  19.864  25.776  1.00  0.00    -0.012 C 
ATOM     11  C   UNL     1       7.203  20.079  26.638  1.00  0.00     0.022 C 
ATOM     12  C   UNL     1       8.001  18.770  26.667  1.00  0.00     0.017 C 
ATOM     13  C   UNL     1      10.157  21.919  26.015  1.00  0.00     0.012 C 
ATOM     14  C   UNL     1      10.360  20.111  27.679  1.00  0.00     0.012 C 
ATOM     15  C   UNL     1       7.267  18.872  23.717  1.00  0.00     0.012 C 
ENDROOT
TORSDOF 0
ENDMDL
MODEL 9
REMARK VINA RESULT:    -4.319      1.363      2.523
REMARK INTER + INTRA:          -4.319
REMARK INTER:                  -4.319
REMARK INTRA:                   0.000
REMARK UNBOUND:                 0.000
REMARK SMILES CC1=CC[C@@]2(C)CCCC(C)(C)[C@]23C[C@@H]13
REMARK SMILES IDX 1 1 2 2 3 3 4 4 5 5 7 6 8 7 9 8 10 9 13 10 15 11 14 12 11 13
REMARK SMILES IDX 12 14 6 15
REMARK H PARENT
REMARK Flexibility Score: inf
ROOT
ATOM      1  C   UNL     1      13.397  20.302  25.791  1.00  0.00     0.039 C 
ATOM      2  C   UNL     1      12.101  20.277  25.034  1.00  0.00    -0.074 C 
ATOM      3  C   UNL     1      11.727  19.193  24.311  1.00  0.00    -0.027 C 
ATOM      4  C   UNL     1      10.430  19.203  23.498  1.00  0.00     0.034 C 
ATOM      5  C   UNL     1       9.294  20.146  24.081  1.00  0.00    -0.022 C 
ATOM      6  C   UNL     1       8.052  19.296  24.507  1.00  0.00     0.008 C 
ATOM      7  C   UNL     1       7.224  19.986  25.594  1.00  0.00     0.001 C 
ATOM      8  C   UNL     1       7.999  20.193  26.913  1.00  0.00     0.007 C 
ATOM      9  C   UNL     1       9.556  20.294  26.773  1.00  0.00    -0.029 C 
ATOM     10  C   UNL     1       9.872  20.927  25.330  1.00  0.00    -0.012 C 
ATOM     11  C   UNL     1      11.273  21.521  24.901  1.00  0.00     0.022 C 
ATOM     12  C   UNL     1      10.118  22.406  25.382  1.00  0.00     0.017 C 
ATOM     13  C   UNL     1      10.171  18.875  26.969  1.00  0.00     0.012 C 
ATOM     14  C   UNL     1      10.082  21.123  27.979  1.00  0.00     0.012 C 
ATOM     15  C   UNL     1       8.812  21.111  22.959  1.00  0.00     0.012 C 
ENDROOT
TORSDOF 0
ENDMDL
