MODEL 1
REMARK VINA RESULT:    -5.898      0.000      0.000
REMARK INTER + INTRA:          -7.165
REMARK INTER:                  -6.933
REMARK INTRA:                  -0.232
REMARK UNBOUND:                -0.232
REMARK SMILES O=c1c(O)c(-c2ccc(O)c(O)c2)oc2cc(O)ccc12
REMARK SMILES IDX 5 1 3 2 2 3 1 4 21 5 15 6 14 7 16 8 17 9 19 10 20 11 6 12
REMARK SMILES IDX 7 13 8 14 9 15 13 16 11 17 10 18 12 20 4 22 18 24
REMARK H PARENT 10 19 12 21 4 23 18 25
REMARK Flexibility Score: inf
ROOT
ATOM      1  C   UNL     1       4.076  -5.372  11.295  1.00  0.00     0.180 A 
ATOM      2  C   UNL     1       4.431  -4.252  12.075  1.00  0.00     0.208 A 
ATOM      3  C   UNL     1       5.766  -4.110  12.484  1.00  0.00     0.235 A 
ATOM      4  O   UNL     1       6.111  -3.111  13.174  1.00  0.00    -0.285 OA
ATOM      5  C   UNL     1       6.706  -5.089  12.128  1.00  0.00     0.069 A 
ATOM      6  C   UNL     1       6.266  -6.192  11.366  1.00  0.00     0.142 A 
ATOM      7  O   UNL     1       4.995  -6.286  10.990  1.00  0.00    -0.452 OA
ATOM      8  C   UNL     1       7.170  -7.195  10.999  1.00  0.00     0.094 A 
ATOM      9  C   UNL     1       8.513  -7.109  11.382  1.00  0.00     0.119 A 
ATOM     10  C   UNL     1       8.954  -6.015  12.137  1.00  0.00     0.047 A 
ATOM     11  C   UNL     1       8.058  -5.009  12.510  1.00  0.00     0.020 A 
ENDROOT
BRANCH   1  12
ATOM     12  C   UNL     1       2.693  -5.584  10.808  1.00  0.00     0.025 A 
ATOM     13  C   UNL     1       2.187  -4.762   9.788  1.00  0.00     0.016 A 
ATOM     14  C   UNL     1       0.879  -4.930   9.328  1.00  0.00     0.051 A 
ATOM     15  C   UNL     1       0.052  -5.910   9.892  1.00  0.00     0.157 A 
ATOM     16  C   UNL     1       1.854  -6.553  11.385  1.00  0.00     0.062 A 
ATOM     17  C   UNL     1       0.539  -6.721  10.925  1.00  0.00     0.158 A 
BRANCH  15  18
ATOM     18  O   UNL     1      -1.254  -6.082   9.435  1.00  0.00    -0.504 OA
ATOM     19  H   UNL     1      -2.033  -6.165  10.076  1.00  0.00     0.293 HD
ENDBRANCH  15  18
BRANCH  17  20
ATOM     20  O   UNL     1      -0.290  -7.687  11.494  1.00  0.00    -0.504 OA
ATOM     21  H   UNL     1      -0.567  -8.516  10.982  1.00  0.00     0.293 HD
ENDBRANCH  17  20
ENDBRANCH   1  12
BRANCH   2  22
ATOM     22  O   UNL     1       3.463  -3.319  12.456  1.00  0.00    -0.502 OA
ATOM     23  H   UNL     1       3.040  -3.323  13.377  1.00  0.00     0.293 HD
ENDBRANCH   2  22
BRANCH   9  24
ATOM     24  O   UNL     1       9.400  -8.116  11.007  1.00  0.00    -0.508 OA
ATOM     25  H   UNL     1       9.079  -8.959  10.546  1.00  0.00     0.293 HD
ENDBRANCH   9  24
TORSDOF 5
ENDMDL
MODEL 2
REMARK VINA RESULT:    -5.699     12.220     13.838
REMARK INTER + INTRA:          -6.931
REMARK INTER:                  -7.335
REMARK INTRA:                   0.404
REMARK UNBOUND:                -0.232
REMARK SMILES O=c1c(O)c(-c2ccc(O)c(O)c2)oc2cc(O)ccc12
REMARK SMILES IDX 5 1 3 2 2 3 1 4 21 5 15 6 14 7 16 8 17 9 19 10 20 11 6 12
REMARK SMILES IDX 7 13 8 14 9 15 13 16 11 17 10 18 12 20 4 22 18 24
REMARK H PARENT 10 19 12 21 4 23 18 25
REMARK Flexibility Score: inf
ROOT
ATOM      1  C   UNL     1       2.086   7.154   7.633  1.00  0.00     0.180 A 
ATOM      2  C   UNL     1       2.362   8.480   7.239  1.00  0.00     0.208 A 
ATOM      3  C   UNL     1       3.076   9.311   8.118  1.00  0.00     0.235 A 
ATOM      4  O   UNL     1       3.344  10.497   7.784  1.00  0.00    -0.285 OA
ATOM      5  C   UNL     1       3.476   8.813   9.367  1.00  0.00     0.069 A 
ATOM      6  C   UNL     1       3.140   7.482   9.696  1.00  0.00     0.142 A 
ATOM      7  O   UNL     1       2.471   6.725   8.833  1.00  0.00    -0.452 OA
ATOM      8  C   UNL     1       3.513   6.951  10.936  1.00  0.00     0.094 A 
ATOM      9  C   UNL     1       4.222   7.733  11.854  1.00  0.00     0.119 A 
ATOM     10  C   UNL     1       4.559   9.054  11.530  1.00  0.00     0.047 A 
ATOM     11  C   UNL     1       4.189   9.594  10.295  1.00  0.00     0.020 A 
ENDROOT
BRANCH   1  12
ATOM     12  C   UNL     1       1.355   6.211   6.756  1.00  0.00     0.025 A 
ATOM     13  C   UNL     1       1.483   4.829   6.970  1.00  0.00     0.016 A 
ATOM     14  C   UNL     1       0.820   3.920   6.142  1.00  0.00     0.051 A 
ATOM     15  C   UNL     1       0.032   4.379   5.078  1.00  0.00     0.157 A 
ATOM     16  C   UNL     1       0.579   6.666   5.675  1.00  0.00     0.062 A 
ATOM     17  C   UNL     1      -0.086   5.754   4.842  1.00  0.00     0.158 A 
BRANCH  15  18
ATOM     18  O   UNL     1      -0.633   3.475   4.251  1.00  0.00    -0.504 OA
ATOM     19  H   UNL     1      -0.590   3.550   3.242  1.00  0.00     0.293 HD
ENDBRANCH  15  18
BRANCH  17  20
ATOM     20  O   UNL     1      -0.859   6.208   3.775  1.00  0.00    -0.504 OA
ATOM     21  H   UNL     1      -1.517   5.600   3.300  1.00  0.00     0.293 HD
ENDBRANCH  17  20
ENDBRANCH   1  12
BRANCH   2  22
ATOM     22  O   UNL     1       1.907   8.963   6.010  1.00  0.00    -0.502 OA
ATOM     23  H   UNL     1       1.477   8.362   5.317  1.00  0.00     0.293 HD
ENDBRANCH   2  22
BRANCH   9  24
ATOM     24  O   UNL     1       4.586   7.189  13.083  1.00  0.00    -0.508 OA
ATOM     25  H   UNL     1       5.547   7.203  13.405  1.00  0.00     0.293 HD
ENDBRANCH   9  24
TORSDOF 5
ENDMDL
MODEL 3
REMARK VINA RESULT:    -5.696      1.171      2.836
REMARK INTER + INTRA:          -6.927
REMARK INTER:                  -6.679
REMARK INTRA:                  -0.248
REMARK UNBOUND:                -0.232
REMARK SMILES O=c1c(O)c(-c2ccc(O)c(O)c2)oc2cc(O)ccc12
REMARK SMILES IDX 5 1 3 2 2 3 1 4 21 5 15 6 14 7 16 8 17 9 19 10 20 11 6 12
REMARK SMILES IDX 7 13 8 14 9 15 13 16 11 17 10 18 12 20 4 22 18 24
REMARK H PARENT 10 19 12 21 4 23 18 25
REMARK Flexibility Score: inf
ROOT
ATOM      1  C   UNL     1       4.435  -6.055  11.084  1.00  0.00     0.180 A 
ATOM      2  C   UNL     1       5.322  -7.072  10.674  1.00  0.00     0.208 A 
ATOM      3  C   UNL     1       6.670  -6.987  11.058  1.00  0.00     0.235 A 
ATOM      4  O   UNL     1       7.482  -7.890  10.713  1.00  0.00    -0.285 OA
ATOM      5  C   UNL     1       7.104  -5.891  11.819  1.00  0.00     0.069 A 
ATOM      6  C   UNL     1       6.158  -4.904  12.169  1.00  0.00     0.142 A 
ATOM      7  O   UNL     1       4.890  -5.025  11.793  1.00  0.00    -0.452 OA
ATOM      8  C   UNL     1       6.553  -3.790  12.919  1.00  0.00     0.094 A 
ATOM      9  C   UNL     1       7.884  -3.650  13.327  1.00  0.00     0.119 A 
ATOM     10  C   UNL     1       8.826  -4.629  12.983  1.00  0.00     0.047 A 
ATOM     11  C   UNL     1       8.441  -5.744  12.232  1.00  0.00     0.020 A 
ENDROOT
BRANCH   1  12
ATOM     12  C   UNL     1       2.996  -6.082  10.735  1.00  0.00     0.025 A 
ATOM     13  C   UNL     1       2.488  -5.136   9.829  1.00  0.00     0.016 A 
ATOM     14  C   UNL     1       1.130  -5.129   9.501  1.00  0.00     0.051 A 
ATOM     15  C   UNL     1       0.257  -6.056  10.086  1.00  0.00     0.157 A 
ATOM     16  C   UNL     1       2.113  -6.998  11.334  1.00  0.00     0.062 A 
ATOM     17  C   UNL     1       0.749  -6.990  11.006  1.00  0.00     0.158 A 
BRANCH  15  18
ATOM     18  O   UNL     1      -1.098  -6.054   9.760  1.00  0.00    -0.504 OA
ATOM     19  H   UNL     1      -1.614  -5.190   9.649  1.00  0.00     0.293 HD
ENDBRANCH  15  18
BRANCH  17  20
ATOM     20  O   UNL     1      -0.124  -7.903  11.597  1.00  0.00    -0.504 OA
ATOM     21  H   UNL     1       0.218  -8.683  12.146  1.00  0.00     0.293 HD
ENDBRANCH  17  20
ENDBRANCH   1  12
BRANCH   2  22
ATOM     22  O   UNL     1       4.872  -8.125   9.874  1.00  0.00    -0.502 OA
ATOM     23  H   UNL     1       4.921  -8.096   8.862  1.00  0.00     0.293 HD
ENDBRANCH   2  22
BRANCH   9  24
ATOM     24  O   UNL     1       8.260  -2.536  14.073  1.00  0.00    -0.508 OA
ATOM     25  H   UNL     1       7.694  -1.695  14.091  1.00  0.00     0.293 HD
ENDBRANCH   9  24
TORSDOF 5
ENDMDL
MODEL 4
REMARK VINA RESULT:    -5.323     13.049     15.440
REMARK INTER + INTRA:          -6.489
REMARK INTER:                  -6.823
REMARK INTRA:                   0.335
REMARK UNBOUND:                -0.232
REMARK SMILES O=c1c(O)c(-c2ccc(O)c(O)c2)oc2cc(O)ccc12
REMARK SMILES IDX 5 1 3 2 2 3 1 4 21 5 15 6 14 7 16 8 17 9 19 10 20 11 6 12
REMARK SMILES IDX 7 13 8 14 9 15 13 16 11 17 10 18 12 20 4 22 18 24
REMARK H PARENT 10 19 12 21 4 23 18 25
REMARK Flexibility Score: inf
ROOT
ATOM      1  C   UNL     1       3.315   8.667   9.179  1.00  0.00     0.180 A 
ATOM      2  C   UNL     1       3.683   9.867   8.537  1.00  0.00     0.208 A 
ATOM      3  C   UNL     1       3.167  10.136   7.259  1.00  0.00     0.235 A 
ATOM      4  O   UNL     1       3.474  11.208   6.669  1.00  0.00    -0.285 OA
ATOM      5  C   UNL     1       2.319   9.201   6.646  1.00  0.00     0.069 A 
ATOM      6  C   UNL     1       2.017   8.013   7.345  1.00  0.00     0.142 A 
ATOM      7  O   UNL     1       2.518   7.800   8.557  1.00  0.00    -0.452 OA
ATOM      8  C   UNL     1       1.182   7.052   6.764  1.00  0.00     0.094 A 
ATOM      9  C   UNL     1       0.642   7.263   5.491  1.00  0.00     0.119 A 
ATOM     10  C   UNL     1       0.938   8.442   4.795  1.00  0.00     0.047 A 
ATOM     11  C   UNL     1       1.772   9.408   5.366  1.00  0.00     0.020 A 
ENDROOT
BRANCH   1  12
ATOM     12  C   UNL     1       3.802   8.319  10.534  1.00  0.00     0.025 A 
ATOM     13  C   UNL     1       4.129   9.347  11.434  1.00  0.00     0.016 A 
ATOM     14  C   UNL     1       4.610   9.043  12.709  1.00  0.00     0.051 A 
ATOM     15  C   UNL     1       4.786   7.708  13.099  1.00  0.00     0.157 A 
ATOM     16  C   UNL     1       3.998   6.982  10.921  1.00  0.00     0.062 A 
ATOM     17  C   UNL     1       4.483   6.676  12.202  1.00  0.00     0.158 A 
BRANCH  15  18
ATOM     18  O   UNL     1       5.264   7.401  14.372  1.00  0.00    -0.504 OA
ATOM     19  H   UNL     1       6.229   7.137  14.525  1.00  0.00     0.293 HD
ENDBRANCH  15  18
BRANCH  17  20
ATOM     20  O   UNL     1       4.672   5.350  12.586  1.00  0.00    -0.504 OA
ATOM     21  H   UNL     1       4.081   4.606  12.233  1.00  0.00     0.293 HD
ENDBRANCH  17  20
ENDBRANCH   1  12
BRANCH   2  22
ATOM     22  O   UNL     1       4.570  10.755   9.151  1.00  0.00    -0.502 OA
ATOM     23  H   UNL     1       4.822  11.644   8.734  1.00  0.00     0.293 HD
ENDBRANCH   2  22
BRANCH   9  24
ATOM     24  O   UNL     1      -0.187   6.296   4.928  1.00  0.00    -0.508 OA
ATOM     25  H   UNL     1      -0.897   5.823   5.475  1.00  0.00     0.293 HD
ENDBRANCH   9  24
TORSDOF 5
ENDMDL
MODEL 5
REMARK VINA RESULT:    -5.249      1.248      1.938
REMARK INTER + INTRA:          -6.401
REMARK INTER:                  -6.088
REMARK INTRA:                  -0.313
REMARK UNBOUND:                -0.232
REMARK SMILES O=c1c(O)c(-c2ccc(O)c(O)c2)oc2cc(O)ccc12
REMARK SMILES IDX 5 1 3 2 2 3 1 4 21 5 15 6 14 7 16 8 17 9 19 10 20 11 6 12
REMARK SMILES IDX 7 13 8 14 9 15 13 16 11 17 10 18 12 20 4 22 18 24
REMARK H PARENT 10 19 12 21 4 23 18 25
REMARK Flexibility Score: inf
ROOT
ATOM      1  C   UNL     1       5.206  -5.232  11.961  1.00  0.00     0.180 A 
ATOM      2  C   UNL     1       5.561  -3.954  12.440  1.00  0.00     0.208 A 
ATOM      3  C   UNL     1       6.910  -3.690  12.728  1.00  0.00     0.235 A 
ATOM      4  O   UNL     1       7.253  -2.551  13.147  1.00  0.00    -0.285 OA
ATOM      5  C   UNL     1       7.864  -4.704  12.553  1.00  0.00     0.069 A 
ATOM      6  C   UNL     1       7.424  -5.964  12.092  1.00  0.00     0.142 A 
ATOM      7  O   UNL     1       6.140  -6.171  11.822  1.00  0.00    -0.452 OA
ATOM      8  C   UNL     1       8.344  -7.004  11.915  1.00  0.00     0.094 A 
ATOM      9  C   UNL     1       9.700  -6.801  12.190  1.00  0.00     0.119 A 
ATOM     10  C   UNL     1      10.140  -5.552  12.646  1.00  0.00     0.047 A 
ATOM     11  C   UNL     1       9.229  -4.507  12.828  1.00  0.00     0.020 A 
ENDROOT
BRANCH   1  12
ATOM     12  C   UNL     1       3.808  -5.582  11.617  1.00  0.00     0.025 A 
ATOM     13  C   UNL     1       3.037  -6.320  12.530  1.00  0.00     0.016 A 
ATOM     14  C   UNL     1       1.724  -6.679  12.218  1.00  0.00     0.051 A 
ATOM     15  C   UNL     1       1.167  -6.320  10.983  1.00  0.00     0.157 A 
ATOM     16  C   UNL     1       3.253  -5.240  10.371  1.00  0.00     0.062 A 
ATOM     17  C   UNL     1       1.934  -5.602  10.057  1.00  0.00     0.158 A 
BRANCH  15  18
ATOM     18  O   UNL     1      -0.144  -6.675  10.669  1.00  0.00    -0.504 OA
ATOM     19  H   UNL     1      -0.641  -7.382  11.196  1.00  0.00     0.293 HD
ENDBRANCH  15  18
BRANCH  17  20
ATOM     20  O   UNL     1       1.383  -5.258   8.824  1.00  0.00    -0.504 OA
ATOM     21  H   UNL     1       0.704  -5.852   8.362  1.00  0.00     0.293 HD
ENDBRANCH  17  20
ENDBRANCH   1  12
BRANCH   2  22
ATOM     22  O   UNL     1       4.582  -2.980  12.651  1.00  0.00    -0.502 OA
ATOM     23  H   UNL     1       3.825  -3.107  13.314  1.00  0.00     0.293 HD
ENDBRANCH   2  22
BRANCH   9  24
ATOM     24  O   UNL     1      10.602  -7.848  12.006  1.00  0.00    -0.508 OA
ATOM     25  H   UNL     1      11.100  -8.259  12.787  1.00  0.00     0.293 HD
ENDBRANCH   9  24
TORSDOF 5
ENDMDL
MODEL 6
REMARK VINA RESULT:    -5.197      1.630      3.517
REMARK INTER + INTRA:          -6.340
REMARK INTER:                  -6.025
REMARK INTRA:                  -0.315
REMARK UNBOUND:                -0.232
REMARK SMILES O=c1c(O)c(-c2ccc(O)c(O)c2)oc2cc(O)ccc12
REMARK SMILES IDX 5 1 3 2 2 3 1 4 21 5 15 6 14 7 16 8 17 9 19 10 20 11 6 12
REMARK SMILES IDX 7 13 8 14 9 15 13 16 11 17 10 18 12 20 4 22 18 24
REMARK H PARENT 10 19 12 21 4 23 18 25
REMARK Flexibility Score: inf
ROOT
ATOM      1  C   UNL     1       5.055  -5.451  11.795  1.00  0.00     0.180 A 
ATOM      2  C   UNL     1       6.129  -6.278  11.406  1.00  0.00     0.208 A 
ATOM      3  C   UNL     1       7.430  -5.923  11.798  1.00  0.00     0.235 A 
ATOM      4  O   UNL     1       8.407  -6.652  11.472  1.00  0.00    -0.285 OA
ATOM      5  C   UNL     1       7.632  -4.751  12.543  1.00  0.00     0.069 A 
ATOM      6  C   UNL     1       6.506  -3.966  12.872  1.00  0.00     0.142 A 
ATOM      7  O   UNL     1       5.290  -4.340  12.490  1.00  0.00    -0.452 OA
ATOM      8  C   UNL     1       6.667  -2.785  13.606  1.00  0.00     0.094 A 
ATOM      9  C   UNL     1       7.940  -2.379  14.020  1.00  0.00     0.119 A 
ATOM     10  C   UNL     1       9.059  -3.157  13.697  1.00  0.00     0.047 A 
ATOM     11  C   UNL     1       8.910  -4.337  12.963  1.00  0.00     0.020 A 
ENDROOT
BRANCH   1  12
ATOM     12  C   UNL     1       3.652  -5.766  11.437  1.00  0.00     0.025 A 
ATOM     13  C   UNL     1       2.907  -6.626  12.261  1.00  0.00     0.016 A 
ATOM     14  C   UNL     1       1.589  -6.953  11.933  1.00  0.00     0.051 A 
ATOM     15  C   UNL     1       1.003  -6.441  10.768  1.00  0.00     0.157 A 
ATOM     16  C   UNL     1       3.067  -5.270  10.259  1.00  0.00     0.062 A 
ATOM     17  C   UNL     1       1.744  -5.601   9.928  1.00  0.00     0.158 A 
BRANCH  15  18
ATOM     18  O   UNL     1      -0.312  -6.764  10.438  1.00  0.00    -0.504 OA
ATOM     19  H   UNL     1      -1.051  -6.746  11.129  1.00  0.00     0.293 HD
ENDBRANCH  15  18
BRANCH  17  20
ATOM     20  O   UNL     1       1.164  -5.104   8.762  1.00  0.00    -0.504 OA
ATOM     21  H   UNL     1       1.721  -4.884   7.944  1.00  0.00     0.293 HD
ENDBRANCH  17  20
ENDBRANCH   1  12
BRANCH   2  22
ATOM     22  O   UNL     1       5.903  -7.411  10.621  1.00  0.00    -0.502 OA
ATOM     23  H   UNL     1       5.072  -7.982  10.720  1.00  0.00     0.293 HD
ENDBRANCH   2  22
BRANCH   9  24
ATOM     24  O   UNL     1       8.082  -1.201  14.751  1.00  0.00    -0.508 OA
ATOM     25  H   UNL     1       8.905  -0.618  14.660  1.00  0.00     0.293 HD
ENDBRANCH   9  24
TORSDOF 5
ENDMDL
MODEL 7
REMARK VINA RESULT:    -4.793      1.723      2.265
REMARK INTER + INTRA:          -5.866
REMARK INTER:                  -6.340
REMARK INTRA:                   0.474
REMARK UNBOUND:                -0.232
REMARK SMILES O=c1c(O)c(-c2ccc(O)c(O)c2)oc2cc(O)ccc12
REMARK SMILES IDX 5 1 3 2 2 3 1 4 21 5 15 6 14 7 16 8 17 9 19 10 20 11 6 12
REMARK SMILES IDX 7 13 8 14 9 15 13 16 11 17 10 18 12 20 4 22 18 24
REMARK H PARENT 10 19 12 21 4 23 18 25
REMARK Flexibility Score: inf
ROOT
ATOM      1  C   UNL     1       4.432  -6.210  11.459  1.00  0.00     0.180 A 
ATOM      2  C   UNL     1       4.706  -7.149  12.475  1.00  0.00     0.208 A 
ATOM      3  C   UNL     1       6.006  -7.217  13.001  1.00  0.00     0.235 A 
ATOM      4  O   UNL     1       6.272  -8.042  13.917  1.00  0.00    -0.285 OA
ATOM      5  C   UNL     1       7.001  -6.368  12.493  1.00  0.00     0.069 A 
ATOM      6  C   UNL     1       6.652  -5.471  11.460  1.00  0.00     0.142 A 
ATOM      7  O   UNL     1       5.408  -5.432  10.996  1.00  0.00    -0.452 OA
ATOM      8  C   UNL     1       7.618  -4.615  10.921  1.00  0.00     0.094 A 
ATOM      9  C   UNL     1       8.932  -4.640  11.402  1.00  0.00     0.119 A 
ATOM     10  C   UNL     1       9.281  -5.527  12.429  1.00  0.00     0.047 A 
ATOM     11  C   UNL     1       8.323  -6.388  12.973  1.00  0.00     0.020 A 
ENDROOT
BRANCH   1  12
ATOM     12  C   UNL     1       3.082  -6.064  10.867  1.00  0.00     0.025 A 
ATOM     13  C   UNL     1       2.836  -5.021   9.959  1.00  0.00     0.016 A 
ATOM     14  C   UNL     1       1.566  -4.852   9.403  1.00  0.00     0.051 A 
ATOM     15  C   UNL     1       0.519  -5.714   9.759  1.00  0.00     0.157 A 
ATOM     16  C   UNL     1       2.025  -6.914  11.236  1.00  0.00     0.062 A 
ATOM     17  C   UNL     1       0.748  -6.744  10.679  1.00  0.00     0.158 A 
BRANCH  15  18
ATOM     18  O   UNL     1      -0.750  -5.549   9.205  1.00  0.00    -0.504 OA
ATOM     19  H   UNL     1      -1.013  -6.005   8.340  1.00  0.00     0.293 HD
ENDBRANCH  15  18
BRANCH  17  20
ATOM     20  O   UNL     1      -0.298  -7.590  11.042  1.00  0.00    -0.504 OA
ATOM     21  H   UNL     1      -0.674  -8.276  10.397  1.00  0.00     0.293 HD
ENDBRANCH  17  20
ENDBRANCH   1  12
BRANCH   2  22
ATOM     22  O   UNL     1       3.707  -8.016  12.925  1.00  0.00    -0.502 OA
ATOM     23  H   UNL     1       3.913  -8.841  13.477  1.00  0.00     0.293 HD
ENDBRANCH   2  22
BRANCH   9  24
ATOM     24  O   UNL     1       9.881  -3.780  10.854  1.00  0.00    -0.508 OA
ATOM     25  H   UNL     1       9.673  -2.803  10.683  1.00  0.00     0.293 HD
ENDBRANCH   9  24
TORSDOF 5
ENDMDL
MODEL 8
REMARK VINA RESULT:    -4.616      2.056      3.015
REMARK INTER + INTRA:          -5.657
REMARK INTER:                  -6.112
REMARK INTRA:                   0.454
REMARK UNBOUND:                -0.232
REMARK SMILES O=c1c(O)c(-c2ccc(O)c(O)c2)oc2cc(O)ccc12
REMARK SMILES IDX 5 1 3 2 2 3 1 4 21 5 15 6 14 7 16 8 17 9 19 10 20 11 6 12
REMARK SMILES IDX 7 13 8 14 9 15 13 16 11 17 10 18 12 20 4 22 18 24
REMARK H PARENT 10 19 12 21 4 23 18 25
REMARK Flexibility Score: inf
ROOT
ATOM      1  C   UNL     1       5.328  -6.282  11.940  1.00  0.00     0.180 A 
ATOM      2  C   UNL     1       5.868  -7.164  12.898  1.00  0.00     0.208 A 
ATOM      3  C   UNL     1       7.237  -7.079  13.200  1.00  0.00     0.235 A 
ATOM      4  O   UNL     1       7.741  -7.851  14.061  1.00  0.00    -0.285 OA
ATOM      5  C   UNL     1       8.034  -6.138  12.531  1.00  0.00     0.069 A 
ATOM      6  C   UNL     1       7.422  -5.307  11.568  1.00  0.00     0.142 A 
ATOM      7  O   UNL     1       6.122  -5.413  11.318  1.00  0.00    -0.452 OA
ATOM      8  C   UNL     1       8.185  -4.362  10.872  1.00  0.00     0.094 A 
ATOM      9  C   UNL     1       9.554  -4.235  11.128  1.00  0.00     0.119 A 
ATOM     10  C   UNL     1      10.165  -5.057  12.084  1.00  0.00     0.047 A 
ATOM     11  C   UNL     1       9.412  -6.005  12.783  1.00  0.00     0.020 A 
ENDROOT
BRANCH   1  12
ATOM     12  C   UNL     1       3.891  -6.296  11.581  1.00  0.00     0.025 A 
ATOM     13  C   UNL     1       2.973  -6.930  12.434  1.00  0.00     0.016 A 
ATOM     14  C   UNL     1       1.616  -6.974  12.105  1.00  0.00     0.051 A 
ATOM     15  C   UNL     1       1.159  -6.400  10.911  1.00  0.00     0.157 A 
ATOM     16  C   UNL     1       3.432  -5.739  10.374  1.00  0.00     0.062 A 
ATOM     17  C   UNL     1       2.069  -5.785  10.042  1.00  0.00     0.158 A 
BRANCH  15  18
ATOM     18  O   UNL     1      -0.194  -6.441  10.580  1.00  0.00    -0.504 OA
ATOM     19  H   UNL     1      -0.912  -6.232  11.262  1.00  0.00     0.293 HD
ENDBRANCH  15  18
BRANCH  17  20
ATOM     20  O   UNL     1       1.615  -5.228   8.848  1.00  0.00    -0.504 OA
ATOM     21  H   UNL     1       0.630  -5.212   8.611  1.00  0.00     0.293 HD
ENDBRANCH  17  20
ENDBRANCH   1  12
BRANCH   2  22
ATOM     22  O   UNL     1       5.060  -8.125  13.511  1.00  0.00    -0.502 OA
ATOM     23  H   UNL     1       4.212  -8.476  13.080  1.00  0.00     0.293 HD
ENDBRANCH   2  22
BRANCH   9  24
ATOM     24  O   UNL     1      10.299  -3.289  10.426  1.00  0.00    -0.508 OA
ATOM     25  H   UNL     1      10.958  -2.679  10.896  1.00  0.00     0.293 HD
ENDBRANCH   9  24
TORSDOF 5
ENDMDL
MODEL 9
REMARK VINA RESULT:    -3.565      2.367      3.015
REMARK INTER + INTRA:          -4.422
REMARK INTER:                  -4.244
REMARK INTRA:                  -0.178
REMARK UNBOUND:                -0.232
REMARK SMILES O=c1c(O)c(-c2ccc(O)c(O)c2)oc2cc(O)ccc12
REMARK SMILES IDX 5 1 3 2 2 3 1 4 21 5 15 6 14 7 16 8 17 9 19 10 20 11 6 12
REMARK SMILES IDX 7 13 8 14 9 15 13 16 11 17 10 18 12 20 4 22 18 24
REMARK H PARENT 10 19 12 21 4 23 18 25
REMARK Flexibility Score: inf
ROOT
ATOM      1  C   UNL     1       4.327  -5.818  13.001  1.00  0.00     0.180 A 
ATOM      2  C   UNL     1       4.678  -5.174  11.796  1.00  0.00     0.208 A 
ATOM      3  C   UNL     1       6.038  -5.040  11.473  1.00  0.00     0.235 A 
ATOM      4  O   UNL     1       6.377  -4.476  10.396  1.00  0.00    -0.285 OA
ATOM      5  C   UNL     1       7.010  -5.528  12.360  1.00  0.00     0.069 A 
ATOM      6  C   UNL     1       6.577  -6.139  13.556  1.00  0.00     0.142 A 
ATOM      7  O   UNL     1       5.281  -6.255  13.821  1.00  0.00    -0.452 OA
ATOM      8  C   UNL     1       7.516  -6.631  14.470  1.00  0.00     0.094 A 
ATOM      9  C   UNL     1       8.885  -6.521  14.204  1.00  0.00     0.119 A 
ATOM     10  C   UNL     1       9.318  -5.916  13.017  1.00  0.00     0.047 A 
ATOM     11  C   UNL     1       8.388  -5.421  12.098  1.00  0.00     0.020 A 
ENDROOT
BRANCH   1  12
ATOM     12  C   UNL     1       2.915  -6.015  13.404  1.00  0.00     0.025 A 
ATOM     13  C   UNL     1       2.449  -5.430  14.592  1.00  0.00     0.016 A 
ATOM     14  C   UNL     1       1.127  -5.619  15.002  1.00  0.00     0.051 A 
ATOM     15  C   UNL     1       0.257  -6.410  14.240  1.00  0.00     0.157 A 
ATOM     16  C   UNL     1       2.045  -6.824  12.652  1.00  0.00     0.062 A 
ATOM     17  C   UNL     1       0.718  -7.016  13.064  1.00  0.00     0.158 A 
BRANCH  15  18
ATOM     18  O   UNL     1      -1.063  -6.600  14.645  1.00  0.00    -0.504 OA
ATOM     19  H   UNL     1      -1.329  -7.379  15.234  1.00  0.00     0.293 HD
ENDBRANCH  15  18
BRANCH  17  20
ATOM     20  O   UNL     1      -0.145  -7.814  12.315  1.00  0.00    -0.504 OA
ATOM     21  H   UNL     1      -0.890  -8.345  12.751  1.00  0.00     0.293 HD
ENDBRANCH  17  20
ENDBRANCH   1  12
BRANCH   2  22
ATOM     22  O   UNL     1       3.690  -4.653  10.958  1.00  0.00    -0.502 OA
ATOM     23  H   UNL     1       2.980  -5.236  10.530  1.00  0.00     0.293 HD
ENDBRANCH   2  22
BRANCH   9  24
ATOM     24  O   UNL     1       9.805  -7.016  15.125  1.00  0.00    -0.508 OA
ATOM     25  H   UNL     1      10.131  -7.975  15.085  1.00  0.00     0.293 HD
ENDBRANCH   9  24
TORSDOF 5
ENDMDL
