MODEL 1
REMARK VINA RESULT:    -4.092      0.000      0.000
REMARK INTER + INTRA:          -6.292
REMARK INTER:                  -6.245
REMARK INTRA:                  -0.047
REMARK UNBOUND:                -0.047
REMARK SMILES CC1=CCC[C@@H](C)C(=O)C[C@@H](C(C)C)C(=O)C1
REMARK SMILES IDX 8 1 9 2 6 3 7 4 5 5 4 6 3 7 2 8 1 9 10 11 11 12 15 13 16 14
REMARK SMILES IDX 17 15 12 17 13 18 14 19
REMARK H PARENT
REMARK Flexibility Score: 70.00
ROOT
ATOM      1  C   UNL     1      10.571 -18.358 -21.185  1.00  0.00     0.136 C 
ATOM      2  O   UNL     1      10.397 -18.604 -19.998  1.00  0.00    -0.299 OA
ENDROOT
BRANCH   1   3
ATOM      3  C   UNL     1       9.385 -17.846 -21.998  1.00  0.00     0.053 C 
ATOM      4  C   UNL     1       8.193 -18.809 -21.874  1.00  0.00     0.016 C 
BRANCH   3   5
ATOM      5  C   UNL     1       9.753 -17.648 -23.487  1.00  0.00     0.015 C 
BRANCH   5   6
ATOM      6  C   UNL     1      10.269 -16.239 -23.828  1.00  0.00     0.028 C 
BRANCH   6   7
ATOM      7  C   UNL     1      11.215 -16.248 -25.007  1.00  0.00    -0.028 C 
ATOM      8  C   UNL     1      12.563 -16.125 -24.952  1.00  0.00    -0.070 CG0
ATOM      9  C   UNL     1      13.322 -16.135 -26.256  1.00  0.00     0.039 C 
ATOM     10  G   UNL     1      13.349 -15.934 -23.664  1.00  0.00     0.000 G0
ENDBRANCH   6   7
ENDBRANCH   5   6
ENDBRANCH   3   5
ENDBRANCH   1   3
BRANCH   1  11
ATOM     11  C   UNL     1      11.929 -18.698 -21.779  1.00  0.00     0.087 C 
BRANCH  11  12
ATOM     12  C   UNL     1      13.026 -17.607 -21.630  1.00  0.00     0.066 C 
BRANCH  12  13
ATOM     13  C   UNL     1      13.648 -17.242 -22.970  1.00  0.00     0.140 C 
ATOM     14  O   UNL     1      14.323 -18.084 -23.547  1.00  0.00    -0.299 OA
BRANCH  13  15
ATOM     15  C   UNL     1      13.366 -15.932 -23.670  1.00  0.00     0.106 CG0
ATOM     16  G   UNL     1      12.574 -16.145 -24.950  1.00  0.00     0.000 G0
ENDBRANCH  13  15
ENDBRANCH  12  13
BRANCH  12  17
ATOM     17  C   UNL     1      14.150 -18.016 -20.619  1.00  0.00    -0.006 C 
ATOM     18  C   UNL     1      13.851 -17.493 -19.199  1.00  0.00     0.008 C 
ATOM     19  C   UNL     1      14.356 -19.542 -20.542  1.00  0.00     0.008 C 
ENDBRANCH  12  17
ENDBRANCH  11  12
ENDBRANCH   1  11
TORSDOF 1
ENDMDL
MODEL 2
REMARK VINA RESULT:    -3.881      2.100      4.734
REMARK INTER + INTRA:          -5.970
REMARK INTER:                  -5.869
REMARK INTRA:                  -0.101
REMARK UNBOUND:                -0.047
REMARK SMILES CC1=CCC[C@@H](C)C(=O)C[C@@H](C(C)C)C(=O)C1
REMARK SMILES IDX 8 1 9 2 6 3 7 4 5 5 4 6 3 7 2 8 1 9 10 11 11 12 15 13 16 14
REMARK SMILES IDX 17 15 12 17 13 18 14 19
REMARK H PARENT
REMARK Flexibility Score: 70.00
ROOT
ATOM      1  C   UNL     1      12.552 -17.943 -19.969  1.00  0.00     0.136 C 
ATOM      2  O   UNL     1      11.481 -17.679 -19.439  1.00  0.00    -0.299 OA
ENDROOT
BRANCH   1   3
ATOM      3  C   UNL     1      13.646 -18.575 -19.113  1.00  0.00     0.053 C 
ATOM      4  C   UNL     1      14.792 -17.577 -18.883  1.00  0.00     0.016 C 
BRANCH   3   5
ATOM      5  C   UNL     1      14.195 -19.873 -19.751  1.00  0.00     0.015 C 
BRANCH   5   6
ATOM      6  C   UNL     1      15.577 -19.718 -20.409  1.00  0.00     0.028 C 
BRANCH   6   7
ATOM      7  C   UNL     1      15.699 -20.529 -21.679  1.00  0.00    -0.028 C 
ATOM      8  C   UNL     1      15.330 -20.132 -22.920  1.00  0.00    -0.070 CG0
ATOM      9  C   UNL     1      15.516 -21.111 -24.053  1.00  0.00     0.039 C 
ATOM     10  G   UNL     1      14.704 -18.782 -23.232  1.00  0.00     0.000 G0
ENDBRANCH   6   7
ENDBRANCH   5   6
ENDBRANCH   3   5
ENDBRANCH   1   3
BRANCH   1  11
ATOM     11  C   UNL     1      12.743 -17.508 -21.414  1.00  0.00     0.087 C 
BRANCH  11  12
ATOM     12  C   UNL     1      12.142 -18.454 -22.491  1.00  0.00     0.066 C 
BRANCH  12  13
ATOM     13  C   UNL     1      13.192 -18.917 -23.490  1.00  0.00     0.140 C 
ATOM     14  O   UNL     1      12.818 -19.329 -24.579  1.00  0.00    -0.299 OA
BRANCH  13  15
ATOM     15  C   UNL     1      14.676 -18.774 -23.236  1.00  0.00     0.106 CG0
ATOM     16  G   UNL     1      15.318 -20.117 -22.928  1.00  0.00     0.000 G0
ENDBRANCH  13  15
ENDBRANCH  12  13
BRANCH  12  17
ATOM     17  C   UNL     1      10.935 -17.808 -23.254  1.00  0.00    -0.006 C 
ATOM     18  C   UNL     1       9.715 -17.624 -22.328  1.00  0.00     0.008 C 
ATOM     19  C   UNL     1      11.285 -16.441 -23.875  1.00  0.00     0.008 C 
ENDBRANCH  12  17
ENDBRANCH  11  12
ENDBRANCH   1  11
TORSDOF 1
ENDMDL
MODEL 3
REMARK VINA RESULT:    -3.842      3.355      5.377
REMARK INTER + INTRA:          -5.909
REMARK INTER:                  -5.581
REMARK INTRA:                  -0.328
REMARK UNBOUND:                -0.047
REMARK SMILES CC1=CCC[C@@H](C)C(=O)C[C@@H](C(C)C)C(=O)C1
REMARK SMILES IDX 8 1 9 2 6 3 7 4 5 5 4 6 3 7 2 8 1 9 10 11 11 12 15 13 16 14
REMARK SMILES IDX 17 15 12 17 13 18 14 19
REMARK H PARENT
REMARK Flexibility Score: 70.00
ROOT
ATOM      1  C   UNL     1      15.962 -18.353 -20.644  1.00  0.00     0.136 C 
ATOM      2  O   UNL     1      17.028 -18.886 -20.365  1.00  0.00    -0.299 OA
ENDROOT
BRANCH   1   3
ATOM      3  C   UNL     1      14.753 -18.651 -19.762  1.00  0.00     0.053 C 
ATOM      4  C   UNL     1      14.909 -17.975 -18.390  1.00  0.00     0.016 C 
BRANCH   3   5
ATOM      5  C   UNL     1      14.536 -20.172 -19.580  1.00  0.00     0.015 C 
BRANCH   5   6
ATOM      6  C   UNL     1      13.767 -20.842 -20.732  1.00  0.00     0.028 C 
BRANCH   6   7
ATOM      7  C   UNL     1      14.687 -21.573 -21.683  1.00  0.00    -0.028 C 
ATOM      8  C   UNL     1      14.860 -21.298 -22.998  1.00  0.00    -0.070 CG0
ATOM      9  C   UNL     1      15.814 -22.171 -23.776  1.00  0.00     0.039 C 
ATOM     10  G   UNL     1      14.123 -20.197 -23.742  1.00  0.00     0.000 G0
ENDBRANCH   6   7
ENDBRANCH   5   6
ENDBRANCH   3   5
ENDBRANCH   1   3
BRANCH   1  11
ATOM     11  C   UNL     1      15.905 -17.529 -21.922  1.00  0.00     0.087 C 
BRANCH  11  12
ATOM     12  C   UNL     1      14.664 -17.769 -22.827  1.00  0.00     0.066 C 
BRANCH  12  13
ATOM     13  C   UNL     1      14.893 -18.904 -23.813  1.00  0.00     0.140 C 
ATOM     14  O   UNL     1      15.809 -18.801 -24.617  1.00  0.00    -0.299 OA
BRANCH  13  15
ATOM     15  C   UNL     1      14.114 -20.199 -23.760  1.00  0.00     0.106 CG0
ATOM     16  G   UNL     1      14.875 -21.273 -23.000  1.00  0.00     0.000 G0
ENDBRANCH  13  15
ENDBRANCH  12  13
BRANCH  12  17
ATOM     17  C   UNL     1      14.222 -16.478 -23.598  1.00  0.00    -0.006 C 
ATOM     18  C   UNL     1      12.956 -15.853 -22.976  1.00  0.00     0.008 C 
ATOM     19  C   UNL     1      15.326 -15.402 -23.639  1.00  0.00     0.008 C 
ENDBRANCH  12  17
ENDBRANCH  11  12
ENDBRANCH   1  11
TORSDOF 1
ENDMDL
MODEL 4
REMARK VINA RESULT:    -3.742      2.277      4.322
REMARK INTER + INTRA:          -5.758
REMARK INTER:                  -5.686
REMARK INTRA:                  -0.072
REMARK UNBOUND:                -0.047
REMARK SMILES CC1=CCC[C@@H](C)C(=O)C[C@@H](C(C)C)C(=O)C1
REMARK SMILES IDX 8 1 9 2 6 3 7 4 5 5 4 6 3 7 2 8 1 9 10 11 11 12 15 13 16 14
REMARK SMILES IDX 17 15 12 17 13 18 14 19
REMARK H PARENT
REMARK Flexibility Score: 70.00
ROOT
ATOM      1  C   UNL     1      15.660 -19.778 -21.618  1.00  0.00     0.136 C 
ATOM      2  O   UNL     1      16.616 -20.489 -21.339  1.00  0.00    -0.299 OA
ENDROOT
BRANCH   1   3
ATOM      3  C   UNL     1      14.731 -20.224 -22.743  1.00  0.00     0.053 C 
ATOM      4  C   UNL     1      14.895 -21.729 -23.010  1.00  0.00     0.016 C 
BRANCH   3   5
ATOM      5  C   UNL     1      14.981 -19.426 -24.044  1.00  0.00     0.015 C 
BRANCH   5   6
ATOM      6  C   UNL     1      14.099 -18.174 -24.196  1.00  0.00     0.028 C 
BRANCH   6   7
ATOM      7  C   UNL     1      12.730 -18.364 -23.583  1.00  0.00    -0.028 C 
ATOM      8  C   UNL     1      12.289 -17.816 -22.425  1.00  0.00    -0.070 CG0
ATOM      9  C   UNL     1      10.889 -18.156 -21.977  1.00  0.00     0.039 C 
ATOM     10  G   UNL     1      13.132 -16.918 -21.533  1.00  0.00     0.000 G0
ENDBRANCH   6   7
ENDBRANCH   5   6
ENDBRANCH   3   5
ENDBRANCH   1   3
BRANCH   1  11
ATOM     11  C   UNL     1      15.547 -18.444 -20.895  1.00  0.00     0.087 C 
BRANCH  11  12
ATOM     12  C   UNL     1      14.487 -18.376 -19.760  1.00  0.00     0.066 C 
BRANCH  12  13
ATOM     13  C   UNL     1      13.298 -17.508 -20.145  1.00  0.00     0.140 C 
ATOM     14  O   UNL     1      12.495 -17.202 -19.275  1.00  0.00    -0.299 OA
BRANCH  13  15
ATOM     15  C   UNL     1      13.137 -16.913 -21.526  1.00  0.00     0.106 CG0
ATOM     16  G   UNL     1      12.276 -17.797 -22.414  1.00  0.00     0.000 G0
ENDBRANCH  13  15
ENDBRANCH  12  13
BRANCH  12  17
ATOM     17  C   UNL     1      15.089 -17.877 -18.403  1.00  0.00    -0.006 C 
ATOM     18  C   UNL     1      15.032 -18.975 -17.321  1.00  0.00     0.008 C 
ATOM     19  C   UNL     1      16.550 -17.403 -18.538  1.00  0.00     0.008 C 
ENDBRANCH  12  17
ENDBRANCH  11  12
ENDBRANCH   1  11
TORSDOF 1
ENDMDL
MODEL 5
REMARK VINA RESULT:    -3.666      2.757      4.968
REMARK INTER + INTRA:          -5.641
REMARK INTER:                  -5.428
REMARK INTRA:                  -0.213
REMARK UNBOUND:                -0.047
REMARK SMILES CC1=CCC[C@@H](C)C(=O)C[C@@H](C(C)C)C(=O)C1
REMARK SMILES IDX 8 1 9 2 6 3 7 4 5 5 4 6 3 7 2 8 1 9 10 11 11 12 15 13 16 14
REMARK SMILES IDX 17 15 12 17 13 18 14 19
REMARK H PARENT
REMARK Flexibility Score: 70.00
ROOT
ATOM      1  C   UNL     1      16.173 -18.228 -19.604  1.00  0.00     0.136 C 
ATOM      2  O   UNL     1      17.259 -17.667 -19.675  1.00  0.00    -0.299 OA
ENDROOT
BRANCH   1   3
ATOM      3  C   UNL     1      15.254 -17.878 -18.437  1.00  0.00     0.053 C 
ATOM      4  C   UNL     1      14.913 -19.138 -17.626  1.00  0.00     0.016 C 
BRANCH   3   5
ATOM      5  C   UNL     1      13.954 -17.190 -18.917  1.00  0.00     0.015 C 
BRANCH   5   6
ATOM      6  C   UNL     1      12.799 -18.161 -19.214  1.00  0.00     0.028 C 
BRANCH   6   7
ATOM      7  C   UNL     1      12.097 -17.832 -20.511  1.00  0.00    -0.028 C 
ATOM      8  C   UNL     1      12.287 -18.448 -21.703  1.00  0.00    -0.070 CG0
ATOM      9  C   UNL     1      11.498 -17.945 -22.886  1.00  0.00     0.039 C 
ATOM     10  G   UNL     1      13.275 -19.581 -21.927  1.00  0.00     0.000 G0
ENDBRANCH   6   7
ENDBRANCH   5   6
ENDBRANCH   3   5
ENDBRANCH   1   3
BRANCH   1  11
ATOM     11  C   UNL     1      15.882 -19.318 -20.623  1.00  0.00     0.087 C 
BRANCH  11  12
ATOM     12  C   UNL     1      15.826 -18.860 -22.108  1.00  0.00     0.066 C 
BRANCH  12  13
ATOM     13  C   UNL     1      14.477 -19.160 -22.744  1.00  0.00     0.140 C 
ATOM     14  O   UNL     1      14.391 -19.140 -23.964  1.00  0.00    -0.299 OA
BRANCH  13  15
ATOM     15  C   UNL     1      13.275 -19.598 -21.937  1.00  0.00     0.106 CG0
ATOM     16  G   UNL     1      12.308 -18.447 -21.713  1.00  0.00     0.000 G0
ENDBRANCH  13  15
ENDBRANCH  12  13
BRANCH  12  17
ATOM     17  C   UNL     1      16.971 -19.487 -22.975  1.00  0.00    -0.006 C 
ATOM     18  C   UNL     1      17.892 -18.400 -23.566  1.00  0.00     0.008 C 
ATOM     19  C   UNL     1      17.841 -20.483 -22.182  1.00  0.00     0.008 C 
ENDBRANCH  12  17
ENDBRANCH  11  12
ENDBRANCH   1  11
TORSDOF 1
ENDMDL
MODEL 6
REMARK VINA RESULT:    -3.625      3.115      4.408
REMARK INTER + INTRA:          -5.579
REMARK INTER:                  -5.484
REMARK INTRA:                  -0.095
REMARK UNBOUND:                -0.047
REMARK SMILES CC1=CCC[C@@H](C)C(=O)C[C@@H](C(C)C)C(=O)C1
REMARK SMILES IDX 8 1 9 2 6 3 7 4 5 5 4 6 3 7 2 8 1 9 10 11 11 12 15 13 16 14
REMARK SMILES IDX 17 15 12 17 13 18 14 19
REMARK H PARENT
REMARK Flexibility Score: 70.00
ROOT
ATOM      1  C   UNL     1      16.121 -20.392 -21.747  1.00  0.00     0.136 C 
ATOM      2  O   UNL     1      17.072 -20.063 -22.444  1.00  0.00    -0.299 OA
ENDROOT
BRANCH   1   3
ATOM      3  C   UNL     1      15.196 -21.492 -22.259  1.00  0.00     0.053 C 
ATOM      4  C   UNL     1      15.755 -22.876 -21.896  1.00  0.00     0.016 C 
BRANCH   3   5
ATOM      5  C   UNL     1      14.979 -21.393 -23.788  1.00  0.00     0.015 C 
BRANCH   5   6
ATOM      6  C   UNL     1      13.860 -20.424 -24.206  1.00  0.00     0.028 C 
BRANCH   6   7
ATOM      7  C   UNL     1      14.404 -19.137 -24.781  1.00  0.00    -0.028 C 
ATOM      8  C   UNL     1      14.371 -17.919 -24.190  1.00  0.00    -0.070 CG0
ATOM      9  C   UNL     1      14.952 -16.754 -24.952  1.00  0.00     0.039 C 
ATOM     10  G   UNL     1      13.747 -17.650 -22.830  1.00  0.00     0.000 G0
ENDBRANCH   6   7
ENDBRANCH   5   6
ENDBRANCH   3   5
ENDBRANCH   1   3
BRANCH   1  11
ATOM     11  C   UNL     1      15.874 -19.590 -20.478  1.00  0.00     0.087 C 
BRANCH  11  12
ATOM     12  C   UNL     1      14.663 -18.615 -20.519  1.00  0.00     0.066 C 
BRANCH  12  13
ATOM     13  C   UNL     1      14.746 -17.657 -21.698  1.00  0.00     0.140 C 
ATOM     14  O   UNL     1      15.730 -16.937 -21.795  1.00  0.00    -0.299 OA
BRANCH  13  15
ATOM     15  C   UNL     1      13.725 -17.648 -22.813  1.00  0.00     0.106 CG0
ATOM     16  G   UNL     1      14.374 -17.911 -24.162  1.00  0.00     0.000 G0
ENDBRANCH  13  15
ENDBRANCH  12  13
BRANCH  12  17
ATOM     17  C   UNL     1      14.499 -17.804 -19.189  1.00  0.00    -0.006 C 
ATOM     18  C   UNL     1      13.021 -17.450 -18.921  1.00  0.00     0.008 C 
ATOM     19  C   UNL     1      15.049 -18.556 -17.960  1.00  0.00     0.008 C 
ENDBRANCH  12  17
ENDBRANCH  11  12
ENDBRANCH   1  11
TORSDOF 1
ENDMDL
MODEL 7
REMARK VINA RESULT:    -3.561      4.726      6.734
REMARK INTER + INTRA:          -5.482
REMARK INTER:                  -5.312
REMARK INTRA:                  -0.169
REMARK UNBOUND:                -0.047
REMARK SMILES CC1=CCC[C@@H](C)C(=O)C[C@@H](C(C)C)C(=O)C1
REMARK SMILES IDX 8 1 9 2 6 3 7 4 5 5 4 6 3 7 2 8 1 9 10 11 11 12 15 13 16 14
REMARK SMILES IDX 17 15 12 17 13 18 14 19
REMARK H PARENT
REMARK Flexibility Score: 70.00
ROOT
ATOM      1  C   UNL     1      15.855 -19.784 -21.926  1.00  0.00     0.136 C 
ATOM      2  O   UNL     1      16.160 -19.266 -20.860  1.00  0.00    -0.299 OA
ENDROOT
BRANCH   1   3
ATOM      3  C   UNL     1      14.850 -20.932 -21.909  1.00  0.00     0.053 C 
ATOM      4  C   UNL     1      13.932 -20.824 -20.681  1.00  0.00     0.016 C 
BRANCH   3   5
ATOM      5  C   UNL     1      15.553 -22.310 -21.925  1.00  0.00     0.015 C 
BRANCH   5   6
ATOM      6  C   UNL     1      15.618 -22.970 -23.313  1.00  0.00     0.028 C 
BRANCH   6   7
ATOM      7  C   UNL     1      17.040 -23.158 -23.789  1.00  0.00    -0.028 C 
ATOM      8  C   UNL     1      17.588 -22.622 -24.905  1.00  0.00    -0.070 CG0
ATOM      9  C   UNL     1      19.027 -22.958 -25.211  1.00  0.00     0.039 C 
ATOM     10  G   UNL     1      16.832 -21.742 -25.887  1.00  0.00     0.000 G0
ENDBRANCH   6   7
ENDBRANCH   5   6
ENDBRANCH   3   5
ENDBRANCH   1   3
BRANCH   1  11
ATOM     11  C   UNL     1      16.597 -19.317 -23.169  1.00  0.00     0.087 C 
BRANCH  11  12
ATOM     12  C   UNL     1      15.919 -19.650 -24.528  1.00  0.00     0.066 C 
BRANCH  12  13
ATOM     13  C   UNL     1      16.894 -20.285 -25.507  1.00  0.00     0.140 C 
ATOM     14  O   UNL     1      17.823 -19.609 -25.925  1.00  0.00    -0.299 OA
BRANCH  13  15
ATOM     15  C   UNL     1      16.830 -21.747 -25.888  1.00  0.00     0.106 CG0
ATOM     16  G   UNL     1      17.607 -22.610 -24.907  1.00  0.00     0.000 G0
ENDBRANCH  13  15
ENDBRANCH  12  13
BRANCH  12  17
ATOM     17  C   UNL     1      15.246 -18.398 -25.187  1.00  0.00    -0.006 C 
ATOM     18  C   UNL     1      14.633 -18.743 -26.560  1.00  0.00     0.008 C 
ATOM     19  C   UNL     1      14.144 -17.779 -24.304  1.00  0.00     0.008 C 
ENDBRANCH  12  17
ENDBRANCH  11  12
ENDBRANCH   1  11
TORSDOF 1
ENDMDL
MODEL 8
REMARK VINA RESULT:    -3.513      3.245      4.954
REMARK INTER + INTRA:          -5.408
REMARK INTER:                  -5.495
REMARK INTRA:                   0.086
REMARK UNBOUND:                -0.047
REMARK SMILES CC1=CCC[C@@H](C)C(=O)C[C@@H](C(C)C)C(=O)C1
REMARK SMILES IDX 8 1 9 2 6 3 7 4 5 5 4 6 3 7 2 8 1 9 10 11 11 12 15 13 16 14
REMARK SMILES IDX 17 15 12 17 13 18 14 19
REMARK H PARENT
REMARK Flexibility Score: 70.00
ROOT
ATOM      1  C   UNL     1      14.401 -20.874 -20.791  1.00  0.00     0.136 C 
ATOM      2  O   UNL     1      13.222 -20.723 -20.499  1.00  0.00    -0.299 OA
ENDROOT
BRANCH   1   3
ATOM      3  C   UNL     1      15.417 -19.881 -20.233  1.00  0.00     0.053 C 
ATOM      4  C   UNL     1      14.902 -19.267 -18.921  1.00  0.00     0.016 C 
BRANCH   3   5
ATOM      5  C   UNL     1      15.742 -18.761 -21.250  1.00  0.00     0.015 C 
BRANCH   5   6
ATOM      6  C   UNL     1      14.523 -17.928 -21.682  1.00  0.00     0.028 C 
BRANCH   6   7
ATOM      7  C   UNL     1      14.499 -17.685 -23.174  1.00  0.00    -0.028 C 
ATOM      8  C   UNL     1      14.019 -18.533 -24.115  1.00  0.00    -0.070 CG0
ATOM      9  C   UNL     1      14.114 -18.103 -25.558  1.00  0.00     0.039 C 
ATOM     10  G   UNL     1      13.434 -19.902 -23.809  1.00  0.00     0.000 G0
ENDBRANCH   6   7
ENDBRANCH   5   6
ENDBRANCH   3   5
ENDBRANCH   1   3
BRANCH   1  11
ATOM     11  C   UNL     1      14.740 -21.974 -21.786  1.00  0.00     0.087 C 
BRANCH  11  12
ATOM     12  C   UNL     1      15.424 -21.509 -23.102  1.00  0.00     0.066 C 
BRANCH  12  13
ATOM     13  C   UNL     1      14.411 -21.010 -24.122  1.00  0.00     0.140 C 
ATOM     14  O   UNL     1      14.327 -21.595 -25.193  1.00  0.00    -0.299 OA
BRANCH  13  15
ATOM     15  C   UNL     1      13.426 -19.904 -23.818  1.00  0.00     0.106 CG0
ATOM     16  G   UNL     1      14.024 -18.535 -24.103  1.00  0.00     0.000 G0
ENDBRANCH  13  15
ENDBRANCH  12  13
BRANCH  12  17
ATOM     17  C   UNL     1      16.316 -22.625 -23.744  1.00  0.00    -0.006 C 
ATOM     18  C   UNL     1      17.702 -22.080 -24.147  1.00  0.00     0.008 C 
ATOM     19  C   UNL     1      16.522 -23.834 -22.810  1.00  0.00     0.008 C 
ENDBRANCH  12  17
ENDBRANCH  11  12
ENDBRANCH   1  11
TORSDOF 1
ENDMDL
MODEL 9
REMARK VINA RESULT:    -3.315      2.298      4.563
REMARK INTER + INTRA:          -5.105
REMARK INTER:                  -4.764
REMARK INTRA:                  -0.341
REMARK UNBOUND:                -0.047
REMARK SMILES CC1=CCC[C@@H](C)C(=O)C[C@@H](C(C)C)C(=O)C1
REMARK SMILES IDX 8 1 9 2 6 3 7 4 5 5 4 6 3 7 2 8 1 9 10 11 11 12 15 13 16 14
REMARK SMILES IDX 17 15 12 17 13 18 14 19
REMARK H PARENT
REMARK Flexibility Score: 70.00
ROOT
ATOM      1  C   UNL     1      16.784 -18.195 -22.030  1.00  0.00     0.136 C 
ATOM      2  O   UNL     1      17.924 -17.966 -21.650  1.00  0.00    -0.299 OA
ENDROOT
BRANCH   1   3
ATOM      3  C   UNL     1      16.598 -18.990 -23.319  1.00  0.00     0.053 C 
ATOM      4  C   UNL     1      17.488 -20.243 -23.310  1.00  0.00     0.016 C 
BRANCH   3   5
ATOM      5  C   UNL     1      16.904 -18.133 -24.571  1.00  0.00     0.015 C 
BRANCH   5   6
ATOM      6  C   UNL     1      16.179 -16.776 -24.598  1.00  0.00     0.028 C 
BRANCH   6   7
ATOM      7  C   UNL     1      14.764 -16.896 -25.113  1.00  0.00    -0.028 C 
ATOM      8  C   UNL     1      13.632 -16.657 -24.407  1.00  0.00    -0.070 CG0
ATOM      9  C   UNL     1      12.312 -16.862 -25.109  1.00  0.00     0.039 C 
ATOM     10  G   UNL     1      13.613 -16.240 -22.946  1.00  0.00     0.000 G0
ENDBRANCH   6   7
ENDBRANCH   5   6
ENDBRANCH   3   5
ENDBRANCH   1   3
BRANCH   1  11
ATOM     11  C   UNL     1      15.644 -17.563 -21.245  1.00  0.00     0.087 C 
BRANCH  11  12
ATOM     12  C   UNL     1      14.267 -18.274 -21.360  1.00  0.00     0.066 C 
BRANCH  12  13
ATOM     13  C   UNL     1      13.230 -17.393 -22.042  1.00  0.00     0.140 C 
ATOM     14  O   UNL     1      12.050 -17.566 -21.770  1.00  0.00    -0.299 OA
BRANCH  13  15
ATOM     15  C   UNL     1      13.607 -16.239 -22.943  1.00  0.00     0.106 CG0
ATOM     16  G   UNL     1      13.632 -16.662 -24.403  1.00  0.00     0.000 G0
ENDBRANCH  13  15
ENDBRANCH  12  13
BRANCH  12  17
ATOM     17  C   UNL     1      13.721 -18.759 -19.974  1.00  0.00    -0.006 C 
ATOM     18  C   UNL     1      14.161 -20.205 -19.667  1.00  0.00     0.008 C 
ATOM     19  C   UNL     1      14.171 -17.855 -18.808  1.00  0.00     0.008 C 
ENDBRANCH  12  17
ENDBRANCH  11  12
ENDBRANCH   1  11
TORSDOF 1
ENDMDL
