MODEL 1
REMARK VINA RESULT:    -3.617      0.000      0.000
REMARK INTER + INTRA:          -5.841
REMARK INTER:                  -5.098
REMARK INTRA:                  -0.743
REMARK UNBOUND:                -0.743
REMARK SMILES CCCCCCCCC(=O)[O-]
REMARK SMILES IDX 6 1 7 2 8 3 9 4 10 5 11 6 5 7 4 8 3 9 2 10 1 11
REMARK H PARENT
REMARK Flexibility Score: inf
ROOT
ATOM      1  C   UNL     1      -7.046   4.603  51.181  1.00  0.00     0.000 C 
ENDROOT
BRANCH   1   2
ATOM      2  C   UNL     1      -7.883   5.775  51.707  1.00  0.00     0.006 C 
BRANCH   2   3
ATOM      3  C   UNL     1      -9.271   5.303  52.151  1.00  0.00     0.053 C 
BRANCH   3   4
ATOM      4  C   UNL     1     -10.193   5.209  50.977  1.00  0.00     0.041 C 
ATOM      5  O   UNL     1     -10.697   6.251  50.482  1.00  0.00    -0.550 OA
ATOM      6  O   UNL     1     -10.537   3.965  50.461  1.00  0.00    -0.550 OA
ENDBRANCH   3   4
ENDBRANCH   2   3
ENDBRANCH   1   2
BRANCH   1   7
ATOM      7  C   UNL     1      -7.061   3.428  52.171  1.00  0.00     0.000 C 
BRANCH   7   8
ATOM      8  C   UNL     1      -5.995   3.563  53.269  1.00  0.00    -0.000 C 
BRANCH   8   9
ATOM      9  C   UNL     1      -6.595   3.549  54.683  1.00  0.00    -0.000 C 
BRANCH   9  10
ATOM     10  C   UNL     1      -6.226   4.826  55.448  1.00  0.00    -0.003 C 
ATOM     11  C   UNL     1      -7.360   5.846  55.396  1.00  0.00     0.004 C 
ENDBRANCH   9  10
ENDBRANCH   8   9
ENDBRANCH   7   8
ENDBRANCH   1   7
TORSDOF 7
ENDMDL
MODEL 2
REMARK VINA RESULT:    -3.469      0.994      1.587
REMARK INTER + INTRA:          -5.631
REMARK INTER:                  -4.908
REMARK INTRA:                  -0.724
REMARK UNBOUND:                -0.743
REMARK SMILES CCCCCCCCC(=O)[O-]
REMARK SMILES IDX 6 1 7 2 8 3 9 4 10 5 11 6 5 7 4 8 3 9 2 10 1 11
REMARK H PARENT
REMARK Flexibility Score: inf
ROOT
ATOM      1  C   UNL     1      -7.277   3.171  52.279  1.00  0.00     0.000 C 
ENDROOT
BRANCH   1   2
ATOM      2  C   UNL     1      -7.618   3.907  50.978  1.00  0.00     0.006 C 
BRANCH   2   3
ATOM      3  C   UNL     1      -7.851   5.399  51.235  1.00  0.00     0.053 C 
BRANCH   3   4
ATOM      4  C   UNL     1      -9.309   5.680  51.405  1.00  0.00     0.041 C 
ATOM      5  O   UNL     1      -9.701   6.490  52.288  1.00  0.00    -0.550 OA
ATOM      6  O   UNL     1     -10.243   5.010  50.624  1.00  0.00    -0.550 OA
ENDBRANCH   3   4
ENDBRANCH   2   3
ENDBRANCH   1   2
BRANCH   1   7
ATOM      7  C   UNL     1      -6.147   3.887  53.036  1.00  0.00     0.000 C 
BRANCH   7   8
ATOM      8  C   UNL     1      -6.132   3.552  54.535  1.00  0.00    -0.000 C 
BRANCH   8   9
ATOM      9  C   UNL     1      -6.255   4.800  55.422  1.00  0.00    -0.000 C 
BRANCH   9  10
ATOM     10  C   UNL     1      -7.452   5.659  54.998  1.00  0.00    -0.003 C 
ATOM     11  C   UNL     1      -8.770   5.007  55.405  1.00  0.00     0.004 C 
ENDBRANCH   9  10
ENDBRANCH   8   9
ENDBRANCH   7   8
ENDBRANCH   1   7
TORSDOF 7
ENDMDL
MODEL 3
REMARK VINA RESULT:    -3.382      9.883     11.599
REMARK INTER + INTRA:          -5.509
REMARK INTER:                  -4.923
REMARK INTRA:                  -0.586
REMARK UNBOUND:                -0.743
REMARK SMILES CCCCCCCCC(=O)[O-]
REMARK SMILES IDX 6 1 7 2 8 3 9 4 10 5 11 6 5 7 4 8 3 9 2 10 1 11
REMARK H PARENT
REMARK Flexibility Score: inf
ROOT
ATOM      1  C   UNL     1       2.819   0.696  55.148  1.00  0.00     0.000 C 
ENDROOT
BRANCH   1   2
ATOM      2  C   UNL     1       1.600   1.527  55.565  1.00  0.00     0.006 C 
BRANCH   2   3
ATOM      3  C   UNL     1       0.536   0.647  56.227  1.00  0.00     0.053 C 
BRANCH   3   4
ATOM      4  C   UNL     1      -0.267   1.442  57.207  1.00  0.00     0.041 C 
ATOM      5  O   UNL     1      -1.498   1.629  57.016  1.00  0.00    -0.550 OA
ATOM      6  O   UNL     1       0.354   2.022  58.307  1.00  0.00    -0.550 OA
ENDBRANCH   3   4
ENDBRANCH   2   3
ENDBRANCH   1   2
BRANCH   1   7
ATOM      7  C   UNL     1       2.848   0.489  53.625  1.00  0.00     0.000 C 
BRANCH   7   8
ATOM      8  C   UNL     1       2.828  -0.995  53.228  1.00  0.00    -0.000 C 
BRANCH   8   9
ATOM      9  C   UNL     1       1.426  -1.616  53.328  1.00  0.00    -0.000 C 
BRANCH   9  10
ATOM     10  C   UNL     1       1.448  -2.881  54.195  1.00  0.00    -0.003 C 
ATOM     11  C   UNL     1       2.879  -3.321  54.492  1.00  0.00     0.004 C 
ENDBRANCH   9  10
ENDBRANCH   8   9
ENDBRANCH   7   8
ENDBRANCH   1   7
TORSDOF 7
ENDMDL
MODEL 4
REMARK VINA RESULT:    -3.364     10.328     11.433
REMARK INTER + INTRA:          -5.484
REMARK INTER:                  -4.933
REMARK INTRA:                  -0.551
REMARK UNBOUND:                -0.743
REMARK SMILES CCCCCCCCC(=O)[O-]
REMARK SMILES IDX 6 1 7 2 8 3 9 4 10 5 11 6 5 7 4 8 3 9 2 10 1 11
REMARK H PARENT
REMARK Flexibility Score: inf
ROOT
ATOM      1  C   UNL     1       0.050   1.340  56.933  1.00  0.00     0.000 C 
ENDROOT
BRANCH   1   2
ATOM      2  C   UNL     1       1.226   1.957  56.167  1.00  0.00     0.006 C 
BRANCH   2   3
ATOM      3  C   UNL     1       2.141   0.869  55.598  1.00  0.00     0.053 C 
BRANCH   3   4
ATOM      4  C   UNL     1       2.358   1.080  54.133  1.00  0.00     0.041 C 
ATOM      5  O   UNL     1       2.258   2.234  53.637  1.00  0.00    -0.550 OA
ATOM      6  O   UNL     1       2.622  -0.004  53.305  1.00  0.00    -0.550 OA
ENDBRANCH   3   4
ENDBRANCH   2   3
ENDBRANCH   1   2
BRANCH   1   7
ATOM      7  C   UNL     1       0.489   0.080  57.694  1.00  0.00     0.000 C 
BRANCH   7   8
ATOM      8  C   UNL     1       0.524   0.288  59.216  1.00  0.00    -0.000 C 
BRANCH   8   9
ATOM      9  C   UNL     1       1.859   0.870  59.704  1.00  0.00    -0.000 C 
BRANCH   9  10
ATOM     10  C   UNL     1       1.653   2.240  60.361  1.00  0.00    -0.003 C 
ATOM     11  C   UNL     1       0.341   2.286  61.140  1.00  0.00     0.004 C 
ENDBRANCH   9  10
ENDBRANCH   8   9
ENDBRANCH   7   8
ENDBRANCH   1   7
TORSDOF 7
ENDMDL
MODEL 5
REMARK VINA RESULT:    -3.345      2.423      4.259
REMARK INTER + INTRA:          -5.456
REMARK INTER:                  -4.745
REMARK INTRA:                  -0.711
REMARK UNBOUND:                -0.743
REMARK SMILES CCCCCCCCC(=O)[O-]
REMARK SMILES IDX 6 1 7 2 8 3 9 4 10 5 11 6 5 7 4 8 3 9 2 10 1 11
REMARK H PARENT
REMARK Flexibility Score: inf
ROOT
ATOM      1  C   UNL     1      -6.757   2.646  52.924  1.00  0.00     0.000 C 
ENDROOT
BRANCH   1   2
ATOM      2  C   UNL     1      -5.844   3.680  53.593  1.00  0.00     0.006 C 
BRANCH   2   3
ATOM      3  C   UNL     1      -6.230   3.886  55.061  1.00  0.00     0.053 C 
BRANCH   3   4
ATOM      4  C   UNL     1      -7.446   4.750  55.167  1.00  0.00     0.041 C 
ATOM      5  O   UNL     1      -7.343   6.003  55.086  1.00  0.00    -0.550 OA
ATOM      6  O   UNL     1      -8.689   4.176  55.406  1.00  0.00    -0.550 OA
ENDBRANCH   3   4
ENDBRANCH   2   3
ENDBRANCH   1   2
BRANCH   1   7
ATOM      7  C   UNL     1      -7.515   3.266  51.740  1.00  0.00     0.000 C 
BRANCH   7   8
ATOM      8  C   UNL     1      -6.952   4.634  51.327  1.00  0.00    -0.000 C 
BRANCH   8   9
ATOM      9  C   UNL     1      -7.934   5.785  51.597  1.00  0.00    -0.000 C 
BRANCH   9  10
ATOM     10  C   UNL     1      -9.352   5.251  51.836  1.00  0.00    -0.003 C 
ATOM     11  C   UNL     1     -10.350   5.889  50.874  1.00  0.00     0.004 C 
ENDBRANCH   9  10
ENDBRANCH   8   9
ENDBRANCH   7   8
ENDBRANCH   1   7
TORSDOF 7
ENDMDL
MODEL 6
REMARK VINA RESULT:    -3.331     11.242     12.467
REMARK INTER + INTRA:          -5.437
REMARK INTER:                  -5.034
REMARK INTRA:                  -0.404
REMARK UNBOUND:                -0.743
REMARK SMILES CCCCCCCCC(=O)[O-]
REMARK SMILES IDX 6 1 7 2 8 3 9 4 10 5 11 6 5 7 4 8 3 9 2 10 1 11
REMARK H PARENT
REMARK Flexibility Score: inf
ROOT
ATOM      1  C   UNL     1       1.243   0.216  57.098  1.00  0.00     0.000 C 
ENDROOT
BRANCH   1   2
ATOM      2  C   UNL     1       1.624   0.521  58.551  1.00  0.00     0.006 C 
BRANCH   2   3
ATOM      3  C   UNL     1       0.757   1.647  59.122  1.00  0.00     0.053 C 
BRANCH   3   4
ATOM      4  C   UNL     1       0.478   1.410  60.572  1.00  0.00     0.041 C 
ATOM      5  O   UNL     1       0.304   0.239  61.001  1.00  0.00    -0.550 OA
ATOM      6  O   UNL     1       0.360   2.487  61.443  1.00  0.00    -0.550 OA
ENDBRANCH   3   4
ENDBRANCH   2   3
ENDBRANCH   1   2
BRANCH   1   7
ATOM      7  C   UNL     1       1.019   1.514  56.304  1.00  0.00     0.000 C 
BRANCH   7   8
ATOM      8  C   UNL     1       1.941   1.627  55.081  1.00  0.00    -0.000 C 
BRANCH   8   9
ATOM      9  C   UNL     1       2.891   0.428  54.941  1.00  0.00    -0.000 C 
BRANCH   9  10
ATOM     10  C   UNL     1       2.726  -0.247  53.574  1.00  0.00    -0.003 C 
ATOM     11  C   UNL     1       2.819  -1.765  53.694  1.00  0.00     0.004 C 
ENDBRANCH   9  10
ENDBRANCH   8   9
ENDBRANCH   7   8
ENDBRANCH   1   7
TORSDOF 7
ENDMDL
MODEL 7
REMARK VINA RESULT:    -3.316     10.752     11.881
REMARK INTER + INTRA:          -5.417
REMARK INTER:                  -5.066
REMARK INTRA:                  -0.351
REMARK UNBOUND:                -0.743
REMARK SMILES CCCCCCCCC(=O)[O-]
REMARK SMILES IDX 6 1 7 2 8 3 9 4 10 5 11 6 5 7 4 8 3 9 2 10 1 11
REMARK H PARENT
REMARK Flexibility Score: inf
ROOT
ATOM      1  C   UNL     1       1.992   0.880  55.700  1.00  0.00     0.000 C 
ENDROOT
BRANCH   1   2
ATOM      2  C   UNL     1       2.168   1.161  54.203  1.00  0.00     0.006 C 
BRANCH   2   3
ATOM      3  C   UNL     1       3.141   0.164  53.568  1.00  0.00     0.053 C 
BRANCH   3   4
ATOM      4  C   UNL     1       2.506  -1.184  53.446  1.00  0.00     0.041 C 
ATOM      5  O   UNL     1       1.330  -1.294  53.011  1.00  0.00    -0.550 OA
ATOM      6  O   UNL     1       3.195  -2.318  53.861  1.00  0.00    -0.550 OA
ENDBRANCH   3   4
ENDBRANCH   2   3
ENDBRANCH   1   2
BRANCH   1   7
ATOM      7  C   UNL     1       1.128   1.964  56.365  1.00  0.00     0.000 C 
BRANCH   7   8
ATOM      8  C   UNL     1       0.774   1.629  57.822  1.00  0.00    -0.000 C 
BRANCH   8   9
ATOM      9  C   UNL     1       1.641   0.499  58.397  1.00  0.00    -0.000 C 
BRANCH   9  10
ATOM     10  C   UNL     1       1.964   0.754  59.875  1.00  0.00    -0.003 C 
ATOM     11  C   UNL     1       1.675   2.202  60.260  1.00  0.00     0.004 C 
ENDBRANCH   9  10
ENDBRANCH   8   9
ENDBRANCH   7   8
ENDBRANCH   1   7
TORSDOF 7
ENDMDL
MODEL 8
REMARK VINA RESULT:    -3.287     10.379     11.491
REMARK INTER + INTRA:          -5.374
REMARK INTER:                  -4.854
REMARK INTRA:                  -0.521
REMARK UNBOUND:                -0.743
REMARK SMILES CCCCCCCCC(=O)[O-]
REMARK SMILES IDX 6 1 7 2 8 3 9 4 10 5 11 6 5 7 4 8 3 9 2 10 1 11
REMARK H PARENT
REMARK Flexibility Score: inf
ROOT
ATOM      1  C   UNL     1       3.003  -2.064  53.933  1.00  0.00     0.000 C 
ENDROOT
BRANCH   1   2
ATOM      2  C   UNL     1       1.717  -2.899  53.931  1.00  0.00     0.006 C 
BRANCH   2   3
ATOM      3  C   UNL     1       0.575  -2.147  53.243  1.00  0.00     0.053 C 
BRANCH   3   4
ATOM      4  C   UNL     1      -0.273  -3.092  52.451  1.00  0.00     0.041 C 
ATOM      5  O   UNL     1      -1.206  -2.653  51.727  1.00  0.00    -0.550 OA
ATOM      6  O   UNL     1      -0.066  -4.462  52.550  1.00  0.00    -0.550 OA
ENDBRANCH   3   4
ENDBRANCH   2   3
ENDBRANCH   1   2
BRANCH   1   7
ATOM      7  C   UNL     1       2.772  -0.698  53.269  1.00  0.00     0.000 C 
BRANCH   7   8
ATOM      8  C   UNL     1       3.224   0.475  54.152  1.00  0.00    -0.000 C 
BRANCH   8   9
ATOM      9  C   UNL     1       2.060   1.389  54.565  1.00  0.00    -0.000 C 
BRANCH   9  10
ATOM     10  C   UNL     1       1.253   0.766  55.710  1.00  0.00    -0.003 C 
ATOM     11  C   UNL     1       0.871   1.815  56.750  1.00  0.00     0.004 C 
ENDBRANCH   9  10
ENDBRANCH   8   9
ENDBRANCH   7   8
ENDBRANCH   1   7
TORSDOF 7
ENDMDL
MODEL 9
REMARK VINA RESULT:    -3.244      3.540      5.090
REMARK INTER + INTRA:          -5.315
REMARK INTER:                  -4.673
REMARK INTRA:                  -0.642
REMARK UNBOUND:                -0.743
REMARK SMILES CCCCCCCCC(=O)[O-]
REMARK SMILES IDX 6 1 7 2 8 3 9 4 10 5 11 6 5 7 4 8 3 9 2 10 1 11
REMARK H PARENT
REMARK Flexibility Score: inf
ROOT
ATOM      1  C   UNL     1      -6.156   3.686  53.250  1.00  0.00     0.000 C 
ENDROOT
BRANCH   1   2
ATOM      2  C   UNL     1      -6.728   3.698  54.673  1.00  0.00     0.006 C 
BRANCH   2   3
ATOM      3  C   UNL     1      -6.813   5.126  55.219  1.00  0.00     0.053 C 
BRANCH   3   4
ATOM      4  C   UNL     1      -6.372   5.169  56.647  1.00  0.00     0.041 C 
ATOM      5  O   UNL     1      -5.580   4.296  57.093  1.00  0.00    -0.550 OA
ATOM      6  O   UNL     1      -6.875   6.142  57.502  1.00  0.00    -0.550 OA
ENDBRANCH   3   4
ENDBRANCH   2   3
ENDBRANCH   1   2
BRANCH   1   7
ATOM      7  C   UNL     1      -7.139   3.031  52.268  1.00  0.00     0.000 C 
BRANCH   7   8
ATOM      8  C   UNL     1      -7.388   3.888  51.018  1.00  0.00    -0.000 C 
BRANCH   8   9
ATOM      9  C   UNL     1      -7.611   5.371  51.351  1.00  0.00    -0.000 C 
BRANCH   9  10
ATOM     10  C   UNL     1      -9.105   5.719  51.335  1.00  0.00    -0.003 C 
ATOM     11  C   UNL     1      -9.602   6.078  52.732  1.00  0.00     0.004 C 
ENDBRANCH   9  10
ENDBRANCH   8   9
ENDBRANCH   7   8
ENDBRANCH   1   7
TORSDOF 7
ENDMDL
