MODEL 1
REMARK VINA RESULT:    -3.792      0.000      0.000
REMARK INTER + INTRA:          -4.976
REMARK INTER:                  -4.679
REMARK INTRA:                  -0.297
REMARK UNBOUND:                -0.297
REMARK SMILES C=CCc1ccc(OC)c(OC)c1
REMARK SMILES IDX 7 1 10 2 13 3 4 4 5 5 6 6 8 7 9 8 11 9 12 10 3 11 2 12 1 13
REMARK H PARENT
REMARK Flexibility Score: inf
ROOT
ATOM      1  C   UNL     1      52.548  52.781  49.607  1.00  0.00     0.160 A 
ATOM      2  C   UNL     1      52.702  54.162  49.812  1.00  0.00     0.160 A 
ATOM      3  C   UNL     1      53.115  54.982  48.744  1.00  0.00     0.054 A 
ATOM      4  C   UNL     1      53.365  54.433  47.477  1.00  0.00    -0.040 A 
ATOM      5  C   UNL     1      53.219  53.053  47.284  1.00  0.00     0.008 A 
ATOM      6  C   UNL     1      52.810  52.233  48.338  1.00  0.00     0.051 A 
ENDROOT
BRANCH   1   7
ATOM      7  O   UNL     1      52.134  51.988  50.690  1.00  0.00    -0.493 OA
ATOM      8  C   UNL     1      52.727  50.746  51.052  1.00  0.00     0.278 C 
ENDBRANCH   1   7
BRANCH   2   9
ATOM      9  O   UNL     1      52.439  54.678  51.090  1.00  0.00    -0.493 OA
ATOM     10  C   UNL     1      52.244  56.060  51.378  1.00  0.00     0.278 C 
ENDBRANCH   2   9
BRANCH   4  11
ATOM     11  C   UNL     1      53.834  55.314  46.349  1.00  0.00     0.062 C 
BRANCH  11  12
ATOM     12  C   UNL     1      52.872  56.446  46.123  1.00  0.00    -0.030 C 
ATOM     13  C   UNL     1      51.755  56.287  45.408  1.00  0.00     0.004 C 
ENDBRANCH  11  12
ENDBRANCH   4  11
TORSDOF 4
ENDMDL
MODEL 2
REMARK VINA RESULT:    -3.665      1.361      2.737
REMARK INTER + INTRA:          -4.820
REMARK INTER:                  -4.513
REMARK INTRA:                  -0.306
REMARK UNBOUND:                -0.297
REMARK SMILES C=CCc1ccc(OC)c(OC)c1
REMARK SMILES IDX 7 1 10 2 13 3 4 4 5 5 6 6 8 7 9 8 11 9 12 10 3 11 2 12 1 13
REMARK H PARENT
REMARK Flexibility Score: inf
ROOT
ATOM      1  C   UNL     1      52.764  53.788  51.161  1.00  0.00     0.160 A 
ATOM      2  C   UNL     1      52.403  52.778  50.254  1.00  0.00     0.160 A 
ATOM      3  C   UNL     1      52.519  53.011  48.870  1.00  0.00     0.054 A 
ATOM      4  C   UNL     1      52.999  54.239  48.390  1.00  0.00    -0.040 A 
ATOM      5  C   UNL     1      53.347  55.245  49.302  1.00  0.00     0.008 A 
ATOM      6  C   UNL     1      53.235  55.022  50.675  1.00  0.00     0.051 A 
ENDROOT
BRANCH   1   7
ATOM      7  O   UNL     1      52.637  53.527  52.535  1.00  0.00    -0.493 OA
ATOM      8  C   UNL     1      53.733  53.336  53.423  1.00  0.00     0.278 C 
ENDBRANCH   1   7
BRANCH   2   9
ATOM      9  O   UNL     1      51.931  51.560  50.768  1.00  0.00    -0.493 OA
ATOM     10  C   UNL     1      52.729  50.394  50.941  1.00  0.00     0.278 C 
ENDBRANCH   2   9
BRANCH   4  11
ATOM     11  C   UNL     1      53.093  54.489  46.908  1.00  0.00     0.062 C 
BRANCH  11  12
ATOM     12  C   UNL     1      52.691  55.900  46.580  1.00  0.00    -0.030 C 
ATOM     13  C   UNL     1      52.038  56.200  45.453  1.00  0.00     0.004 C 
ENDBRANCH  11  12
ENDBRANCH   4  11
TORSDOF 4
ENDMDL
MODEL 3
REMARK VINA RESULT:    -3.654      1.937      2.909
REMARK INTER + INTRA:          -4.806
REMARK INTER:                  -4.470
REMARK INTRA:                  -0.336
REMARK UNBOUND:                -0.297
REMARK SMILES C=CCc1ccc(OC)c(OC)c1
REMARK SMILES IDX 7 1 10 2 13 3 4 4 5 5 6 6 8 7 9 8 11 9 12 10 3 11 2 12 1 13
REMARK H PARENT
REMARK Flexibility Score: inf
ROOT
ATOM      1  C   UNL     1      54.463  52.900  47.012  1.00  0.00     0.160 A 
ATOM      2  C   UNL     1      53.262  53.495  47.430  1.00  0.00     0.160 A 
ATOM      3  C   UNL     1      52.879  54.740  46.894  1.00  0.00     0.054 A 
ATOM      4  C   UNL     1      53.682  55.385  45.941  1.00  0.00    -0.040 A 
ATOM      5  C   UNL     1      54.884  54.789  45.537  1.00  0.00     0.008 A 
ATOM      6  C   UNL     1      55.271  53.555  46.064  1.00  0.00     0.051 A 
ENDROOT
BRANCH   1   7
ATOM      7  O   UNL     1      54.819  51.658  47.563  1.00  0.00    -0.493 OA
ATOM      8  C   UNL     1      55.764  51.484  48.613  1.00  0.00     0.278 C 
ENDBRANCH   1   7
BRANCH   2   9
ATOM      9  O   UNL     1      52.480  52.821  48.381  1.00  0.00    -0.493 OA
ATOM     10  C   UNL     1      52.348  53.214  49.743  1.00  0.00     0.278 C 
ENDBRANCH   2   9
BRANCH   4  11
ATOM     11  C   UNL     1      53.277  56.729  45.396  1.00  0.00     0.062 C 
BRANCH  11  12
ATOM     12  C   UNL     1      52.626  56.583  44.049  1.00  0.00    -0.030 C 
ATOM     13  C   UNL     1      51.303  56.452  43.919  1.00  0.00     0.004 C 
ENDBRANCH  11  12
ENDBRANCH   4  11
TORSDOF 4
ENDMDL
MODEL 4
REMARK VINA RESULT:    -3.645      2.021      5.280
REMARK INTER + INTRA:          -4.795
REMARK INTER:                  -4.513
REMARK INTRA:                  -0.282
REMARK UNBOUND:                -0.297
REMARK SMILES C=CCc1ccc(OC)c(OC)c1
REMARK SMILES IDX 7 1 10 2 13 3 4 4 5 5 6 6 8 7 9 8 11 9 12 10 3 11 2 12 1 13
REMARK H PARENT
REMARK Flexibility Score: inf
ROOT
ATOM      1  C   UNL     1      53.215  56.123  49.553  1.00  0.00     0.160 A 
ATOM      2  C   UNL     1      53.229  55.005  48.703  1.00  0.00     0.160 A 
ATOM      3  C   UNL     1      52.804  53.754  49.190  1.00  0.00     0.054 A 
ATOM      4  C   UNL     1      52.359  53.617  50.514  1.00  0.00    -0.040 A 
ATOM      5  C   UNL     1      52.358  54.735  51.359  1.00  0.00     0.008 A 
ATOM      6  C   UNL     1      52.778  55.979  50.883  1.00  0.00     0.051 A 
ENDROOT
BRANCH   1   7
ATOM      7  O   UNL     1      53.644  57.358  49.039  1.00  0.00    -0.493 OA
ATOM      8  C   UNL     1      52.773  58.401  48.616  1.00  0.00     0.278 C 
ENDBRANCH   1   7
BRANCH   2   9
ATOM      9  O   UNL     1      53.675  55.179  47.383  1.00  0.00    -0.493 OA
ATOM     10  C   UNL     1      52.822  55.402  46.265  1.00  0.00     0.278 C 
ENDBRANCH   2   9
BRANCH   4  11
ATOM     11  C   UNL     1      51.934  52.269  51.034  1.00  0.00     0.062 C 
BRANCH  11  12
ATOM     12  C   UNL     1      52.842  51.189  50.517  1.00  0.00    -0.030 C 
ATOM     13  C   UNL     1      52.798  49.944  51.000  1.00  0.00     0.004 C 
ENDBRANCH  11  12
ENDBRANCH   4  11
TORSDOF 4
ENDMDL
MODEL 5
REMARK VINA RESULT:    -3.627      2.758      5.254
REMARK INTER + INTRA:          -4.772
REMARK INTER:                  -4.529
REMARK INTRA:                  -0.242
REMARK UNBOUND:                -0.297
REMARK SMILES C=CCc1ccc(OC)c(OC)c1
REMARK SMILES IDX 7 1 10 2 13 3 4 4 5 5 6 6 8 7 9 8 11 9 12 10 3 11 2 12 1 13
REMARK H PARENT
REMARK Flexibility Score: inf
ROOT
ATOM      1  C   UNL     1      54.424  55.026  45.639  1.00  0.00     0.160 A 
ATOM      2  C   UNL     1      53.244  55.279  46.357  1.00  0.00     0.160 A 
ATOM      3  C   UNL     1      52.825  54.373  47.350  1.00  0.00     0.054 A 
ATOM      4  C   UNL     1      53.580  53.225  47.634  1.00  0.00    -0.040 A 
ATOM      5  C   UNL     1      54.752  52.974  46.906  1.00  0.00     0.008 A 
ATOM      6  C   UNL     1      55.174  53.868  45.920  1.00  0.00     0.051 A 
ENDROOT
BRANCH   1   7
ATOM      7  O   UNL     1      54.818  55.947  44.655  1.00  0.00    -0.493 OA
ATOM      8  C   UNL     1      56.164  56.166  44.247  1.00  0.00     0.278 C 
ENDBRANCH   1   7
BRANCH   2   9
ATOM      9  O   UNL     1      52.515  56.439  46.051  1.00  0.00    -0.493 OA
ATOM     10  C   UNL     1      51.348  56.467  45.234  1.00  0.00     0.278 C 
ENDBRANCH   2   9
BRANCH   4  11
ATOM     11  C   UNL     1      53.109  52.247  48.678  1.00  0.00     0.062 C 
BRANCH  11  12
ATOM     12  C   UNL     1      52.307  52.947  49.739  1.00  0.00    -0.030 C 
ATOM     13  C   UNL     1      51.978  52.343  50.884  1.00  0.00     0.004 C 
ENDBRANCH  11  12
ENDBRANCH   4  11
TORSDOF 4
ENDMDL
MODEL 6
REMARK VINA RESULT:    -3.542      1.645      4.714
REMARK INTER + INTRA:          -4.668
REMARK INTER:                  -4.348
REMARK INTRA:                  -0.320
REMARK UNBOUND:                -0.297
REMARK SMILES C=CCc1ccc(OC)c(OC)c1
REMARK SMILES IDX 7 1 10 2 13 3 4 4 5 5 6 6 8 7 9 8 11 9 12 10 3 11 2 12 1 13
REMARK H PARENT
REMARK Flexibility Score: inf
ROOT
ATOM      1  C   UNL     1      53.344  54.495  47.820  1.00  0.00     0.160 A 
ATOM      2  C   UNL     1      53.126  54.984  49.118  1.00  0.00     0.160 A 
ATOM      3  C   UNL     1      52.682  54.107  50.127  1.00  0.00     0.054 A 
ATOM      4  C   UNL     1      52.463  52.750  49.849  1.00  0.00    -0.040 A 
ATOM      5  C   UNL     1      52.673  52.272  48.548  1.00  0.00     0.008 A 
ATOM      6  C   UNL     1      53.114  53.135  47.542  1.00  0.00     0.051 A 
ENDROOT
BRANCH   1   7
ATOM      7  O   UNL     1      53.788  55.392  46.835  1.00  0.00    -0.493 OA
ATOM      8  C   UNL     1      52.949  55.986  45.849  1.00  0.00     0.278 C 
ENDBRANCH   1   7
BRANCH   2   9
ATOM      9  O   UNL     1      53.359  56.346  49.364  1.00  0.00    -0.493 OA
ATOM     10  C   UNL     1      52.950  57.036  50.541  1.00  0.00     0.278 C 
ENDBRANCH   2   9
BRANCH   4  11
ATOM     11  C   UNL     1      51.961  51.827  50.927  1.00  0.00     0.062 C 
BRANCH  11  12
ATOM     12  C   UNL     1      52.699  50.518  50.893  1.00  0.00    -0.030 C 
ATOM     13  C   UNL     1      53.846  50.341  51.556  1.00  0.00     0.004 C 
ENDBRANCH  11  12
ENDBRANCH   4  11
TORSDOF 4
ENDMDL
MODEL 7
REMARK VINA RESULT:    -3.435      2.698      4.914
REMARK INTER + INTRA:          -4.536
REMARK INTER:                  -4.290
REMARK INTRA:                  -0.246
REMARK UNBOUND:                -0.297
REMARK SMILES C=CCc1ccc(OC)c(OC)c1
REMARK SMILES IDX 7 1 10 2 13 3 4 4 5 5 6 6 8 7 9 8 11 9 12 10 3 11 2 12 1 13
REMARK H PARENT
REMARK Flexibility Score: inf
ROOT
ATOM      1  C   UNL     1      53.066  55.831  46.577  1.00  0.00     0.160 A 
ATOM      2  C   UNL     1      53.111  56.746  47.642  1.00  0.00     0.160 A 
ATOM      3  C   UNL     1      53.204  56.270  48.964  1.00  0.00     0.054 A 
ATOM      4  C   UNL     1      53.259  54.893  49.226  1.00  0.00    -0.040 A 
ATOM      5  C   UNL     1      53.203  53.987  48.158  1.00  0.00     0.008 A 
ATOM      6  C   UNL     1      53.111  54.450  46.844  1.00  0.00     0.051 A 
ENDROOT
BRANCH   1   7
ATOM      7  O   UNL     1      52.974  56.335  45.269  1.00  0.00    -0.493 OA
ATOM      8  C   UNL     1      51.773  56.380  44.505  1.00  0.00     0.278 C 
ENDBRANCH   1   7
BRANCH   2   9
ATOM      9  O   UNL     1      53.058  58.116  47.345  1.00  0.00    -0.493 OA
ATOM     10  C   UNL     1      52.426  59.096  48.163  1.00  0.00     0.278 C 
ENDBRANCH   2   9
BRANCH   4  11
ATOM     11  C   UNL     1      53.329  54.393  50.644  1.00  0.00     0.062 C 
BRANCH  11  12
ATOM     12  C   UNL     1      52.057  53.688  51.024  1.00  0.00    -0.030 C 
ATOM     13  C   UNL     1      51.981  52.355  51.076  1.00  0.00     0.004 C 
ENDBRANCH  11  12
ENDBRANCH   4  11
TORSDOF 4
ENDMDL
MODEL 8
REMARK VINA RESULT:    -3.417      2.584      6.245
REMARK INTER + INTRA:          -4.513
REMARK INTER:                  -4.254
REMARK INTRA:                  -0.259
REMARK UNBOUND:                -0.297
REMARK SMILES C=CCc1ccc(OC)c(OC)c1
REMARK SMILES IDX 7 1 10 2 13 3 4 4 5 5 6 6 8 7 9 8 11 9 12 10 3 11 2 12 1 13
REMARK H PARENT
REMARK Flexibility Score: inf
ROOT
ATOM      1  C   UNL     1      53.924  51.334  49.338  1.00  0.00     0.160 A 
ATOM      2  C   UNL     1      52.842  51.335  50.232  1.00  0.00     0.160 A 
ATOM      3  C   UNL     1      52.602  50.203  51.036  1.00  0.00     0.054 A 
ATOM      4  C   UNL     1      53.438  49.080  50.956  1.00  0.00    -0.040 A 
ATOM      5  C   UNL     1      54.511  49.083  50.053  1.00  0.00     0.008 A 
ATOM      6  C   UNL     1      54.755  50.201  49.253  1.00  0.00     0.051 A 
ENDROOT
BRANCH   1   7
ATOM      7  O   UNL     1      54.140  52.476  48.550  1.00  0.00    -0.493 OA
ATOM      8  C   UNL     1      53.636  52.651  47.230  1.00  0.00     0.278 C 
ENDBRANCH   1   7
BRANCH   2   9
ATOM      9  O   UNL     1      52.027  52.477  50.290  1.00  0.00    -0.493 OA
ATOM     10  C   UNL     1      52.019  53.408  51.368  1.00  0.00     0.278 C 
ENDBRANCH   2   9
BRANCH   4  11
ATOM     11  C   UNL     1      53.157  47.864  51.799  1.00  0.00     0.062 C 
BRANCH  11  12
ATOM     12  C   UNL     1      52.834  46.679  50.932  1.00  0.00    -0.030 C 
ATOM     13  C   UNL     1      52.001  45.717  51.339  1.00  0.00     0.004 C 
ENDBRANCH  11  12
ENDBRANCH   4  11
TORSDOF 4
ENDMDL
MODEL 9
REMARK VINA RESULT:    -3.396      2.865      5.619
REMARK INTER + INTRA:          -4.488
REMARK INTER:                  -4.227
REMARK INTRA:                  -0.260
REMARK UNBOUND:                -0.297
REMARK SMILES C=CCc1ccc(OC)c(OC)c1
REMARK SMILES IDX 7 1 10 2 13 3 4 4 5 5 6 6 8 7 9 8 11 9 12 10 3 11 2 12 1 13
REMARK H PARENT
REMARK Flexibility Score: inf
ROOT
ATOM      1  C   UNL     1      53.339  57.307  47.327  1.00  0.00     0.160 A 
ATOM      2  C   UNL     1      52.945  56.285  46.449  1.00  0.00     0.160 A 
ATOM      3  C   UNL     1      52.755  54.979  46.941  1.00  0.00     0.054 A 
ATOM      4  C   UNL     1      52.948  54.693  48.301  1.00  0.00    -0.040 A 
ATOM      5  C   UNL     1      53.351  55.717  49.169  1.00  0.00     0.008 A 
ATOM      6  C   UNL     1      53.541  57.015  48.689  1.00  0.00     0.051 A 
ENDROOT
BRANCH   1   7
ATOM      7  O   UNL     1      53.520  58.600  46.808  1.00  0.00    -0.493 OA
ATOM      8  C   UNL     1      53.682  59.771  47.601  1.00  0.00     0.278 C 
ENDBRANCH   1   7
BRANCH   2   9
ATOM      9  O   UNL     1      52.756  56.606  45.096  1.00  0.00    -0.493 OA
ATOM     10  C   UNL     1      51.550  56.379  44.373  1.00  0.00     0.278 C 
ENDBRANCH   2   9
BRANCH   4  11
ATOM     11  C   UNL     1      52.771  53.288  48.812  1.00  0.00     0.062 C 
BRANCH  11  12
ATOM     12  C   UNL     1      52.429  53.293  50.276  1.00  0.00    -0.030 C 
ATOM     13  C   UNL     1      51.949  52.207  50.889  1.00  0.00     0.004 C 
ENDBRANCH  11  12
ENDBRANCH   4  11
TORSDOF 4
ENDMDL
