MODEL 1
REMARK VINA RESULT:    -4.648      0.000      0.000
REMARK INTER + INTRA:          -6.420
REMARK INTER:                  -6.006
REMARK INTRA:                  -0.414
REMARK UNBOUND:                -0.414
REMARK SMILES CCO[C@H]1O[C@@H](CO)[C@@H](O)[C@@H](O)[C@@H]1O
REMARK SMILES IDX 4 1 13 2 11 3 9 4 6 5 5 6 3 7 2 8 1 9 14 10 12 12 7 14 8 15
REMARK SMILES IDX 10 17
REMARK H PARENT 14 11 12 13 8 16 10 18
REMARK Flexibility Score: inf
ROOT
ATOM      1  C   UNL     1       3.551  -2.059  20.438  1.00  0.00     0.281 C 
ATOM      2  C   UNL     1       4.091  -1.582  21.796  1.00  0.00     0.202 C 
ATOM      3  C   UNL     1       5.568  -1.964  21.966  1.00  0.00     0.179 C 
ATOM      4  C   UNL     1       5.765  -3.459  21.676  1.00  0.00     0.177 C 
ATOM      5  C   UNL     1       5.030  -3.943  20.391  1.00  0.00     0.178 C 
ATOM      6  O   UNL     1       3.696  -3.462  20.261  1.00  0.00    -0.341 OA
ENDROOT
BRANCH   1   7
ATOM      7  O   UNL     1       4.156  -1.334  19.382  1.00  0.00    -0.350 OA
BRANCH   7   8
ATOM      8  C   UNL     1       3.498  -0.097  19.195  1.00  0.00     0.160 C 
ATOM      9  C   UNL     1       2.001  -0.338  19.082  1.00  0.00     0.035 C 
ENDBRANCH   7   8
ENDBRANCH   1   7
BRANCH   2  10
ATOM     10  O   UNL     1       3.324  -2.162  22.823  1.00  0.00    -0.385 OA
ATOM     11  H   UNL     1       2.454  -2.420  22.421  1.00  0.00     0.211 HD
ENDBRANCH   2  10
BRANCH   3  12
ATOM     12  O   UNL     1       6.382  -1.182  21.129  1.00  0.00    -0.387 OA
ATOM     13  H   UNL     1       6.360  -1.603  20.230  1.00  0.00     0.211 HD
ENDBRANCH   3  12
BRANCH   5  14
ATOM     14  C   UNL     1       5.828  -3.857  19.069  1.00  0.00     0.191 C 
BRANCH  14  15
ATOM     15  O   UNL     1       6.923  -4.726  19.054  1.00  0.00    -0.394 OA
ATOM     16  H   UNL     1       6.549  -5.645  19.057  1.00  0.00     0.210 HD
ENDBRANCH  14  15
ENDBRANCH   5  14
BRANCH   4  17
ATOM     17  O   UNL     1       7.137  -3.757  21.620  1.00  0.00    -0.387 OA
ATOM     18  H   UNL     1       7.214  -4.746  21.573  1.00  0.00     0.211 HD
ENDBRANCH   4  17
TORSDOF 7
ENDMDL
MODEL 2
REMARK VINA RESULT:    -3.909      1.632      2.797
REMARK INTER + INTRA:          -5.466
REMARK INTER:                  -5.052
REMARK INTRA:                  -0.414
REMARK UNBOUND:                -0.414
REMARK SMILES CCO[C@H]1O[C@@H](CO)[C@@H](O)[C@@H](O)[C@@H]1O
REMARK SMILES IDX 4 1 13 2 11 3 9 4 6 5 5 6 3 7 2 8 1 9 14 10 12 12 7 14 8 15
REMARK SMILES IDX 10 17
REMARK H PARENT 14 11 12 13 8 16 10 18
REMARK Flexibility Score: inf
ROOT
ATOM      1  C   UNL     1       3.813  -1.443  19.291  1.00  0.00     0.281 C 
ATOM      2  C   UNL     1       3.351  -2.649  20.126  1.00  0.00     0.202 C 
ATOM      3  C   UNL     1       4.046  -2.669  21.495  1.00  0.00     0.179 C 
ATOM      4  C   UNL     1       5.566  -2.544  21.318  1.00  0.00     0.177 C 
ATOM      5  C   UNL     1       5.983  -1.437  20.304  1.00  0.00     0.178 C 
ATOM      6  O   UNL     1       5.221  -1.425  19.102  1.00  0.00    -0.341 OA
ENDROOT
BRANCH   1   7
ATOM      7  O   UNL     1       3.347  -0.235  19.866  1.00  0.00    -0.350 OA
BRANCH   7   8
ATOM      8  C   UNL     1       2.644   0.528  18.904  1.00  0.00     0.160 C 
ATOM      9  C   UNL     1       1.163   0.198  18.991  1.00  0.00     0.035 C 
ENDBRANCH   7   8
ENDBRANCH   1   7
BRANCH   2  10
ATOM     10  O   UNL     1       3.641  -3.831  19.423  1.00  0.00    -0.385 OA
ATOM     11  H   UNL     1       3.213  -4.575  19.921  1.00  0.00     0.211 HD
ENDBRANCH   2  10
BRANCH   3  12
ATOM     12  O   UNL     1       3.553  -1.641  22.317  1.00  0.00    -0.387 OA
ATOM     13  H   UNL     1       2.563  -1.711  22.305  1.00  0.00     0.211 HD
ENDBRANCH   3  12
BRANCH   5  14
ATOM     14  C   UNL     1       6.206  -0.022  20.886  1.00  0.00     0.191 C 
BRANCH  14  15
ATOM     15  O   UNL     1       6.112   0.974  19.909  1.00  0.00    -0.394 OA
ATOM     16  H   UNL     1       6.950   0.922  19.380  1.00  0.00     0.210 HD
ENDBRANCH  14  15
ENDBRANCH   5  14
BRANCH   4  17
ATOM     17  O   UNL     1       6.177  -2.345  22.567  1.00  0.00    -0.387 OA
ATOM     18  H   UNL     1       7.154  -2.282  22.402  1.00  0.00     0.211 HD
ENDBRANCH   4  17
TORSDOF 7
ENDMDL
MODEL 3
REMARK VINA RESULT:    -3.676      1.776      3.281
REMARK INTER + INTRA:          -5.164
REMARK INTER:                  -5.127
REMARK INTRA:                  -0.037
REMARK UNBOUND:                -0.414
REMARK SMILES CCO[C@H]1O[C@@H](CO)[C@@H](O)[C@@H](O)[C@@H]1O
REMARK SMILES IDX 4 1 13 2 11 3 9 4 6 5 5 6 3 7 2 8 1 9 14 10 12 12 7 14 8 15
REMARK SMILES IDX 10 17
REMARK H PARENT 14 11 12 13 8 16 10 18
REMARK Flexibility Score: inf
ROOT
ATOM      1  C   UNL     1       5.905  -2.615  22.017  1.00  0.00     0.281 C 
ATOM      2  C   UNL     1       5.654  -1.890  20.684  1.00  0.00     0.202 C 
ATOM      3  C   UNL     1       5.566  -2.891  19.523  1.00  0.00     0.179 C 
ATOM      4  C   UNL     1       6.784  -3.826  19.537  1.00  0.00     0.177 C 
ATOM      5  C   UNL     1       7.123  -4.381  20.952  1.00  0.00     0.178 C 
ATOM      6  O   UNL     1       7.085  -3.406  21.989  1.00  0.00    -0.341 OA
ENDROOT
BRANCH   1   7
ATOM      7  O   UNL     1       4.771  -3.381  22.386  1.00  0.00    -0.350 OA
BRANCH   7   8
ATOM      8  C   UNL     1       3.881  -2.601  23.159  1.00  0.00     0.160 C 
ATOM      9  C   UNL     1       2.964  -1.821  22.230  1.00  0.00     0.035 C 
ENDBRANCH   7   8
ENDBRANCH   1   7
BRANCH   2  10
ATOM     10  O   UNL     1       6.700  -0.979  20.455  1.00  0.00    -0.385 OA
ATOM     11  H   UNL     1       7.360  -1.109  21.186  1.00  0.00     0.211 HD
ENDBRANCH   2  10
BRANCH   3  12
ATOM     12  O   UNL     1       4.371  -3.626  19.592  1.00  0.00    -0.387 OA
ATOM     13  H   UNL     1       3.948  -3.574  18.695  1.00  0.00     0.211 HD
ENDBRANCH   3  12
BRANCH   5  14
ATOM     14  C   UNL     1       6.438  -5.708  21.352  1.00  0.00     0.191 C 
BRANCH  14  15
ATOM     15  O   UNL     1       7.092  -6.823  20.823  1.00  0.00    -0.394 OA
ATOM     16  H   UNL     1       6.601  -7.067  19.996  1.00  0.00     0.210 HD
ENDBRANCH  14  15
ENDBRANCH   5  14
BRANCH   4  17
ATOM     17  O   UNL     1       6.594  -4.868  18.614  1.00  0.00    -0.387 OA
ATOM     18  H   UNL     1       5.806  -5.387  18.925  1.00  0.00     0.211 HD
ENDBRANCH   4  17
TORSDOF 7
ENDMDL
MODEL 4
REMARK VINA RESULT:    -3.645      1.722      4.248
REMARK INTER + INTRA:          -5.125
REMARK INTER:                  -4.927
REMARK INTRA:                  -0.198
REMARK UNBOUND:                -0.414
REMARK SMILES CCO[C@H]1O[C@@H](CO)[C@@H](O)[C@@H](O)[C@@H]1O
REMARK SMILES IDX 4 1 13 2 11 3 9 4 6 5 5 6 3 7 2 8 1 9 14 10 12 12 7 14 8 15
REMARK SMILES IDX 10 17
REMARK H PARENT 14 11 12 13 8 16 10 18
REMARK Flexibility Score: inf
ROOT
ATOM      1  C   UNL     1       6.380  -2.973  21.492  1.00  0.00     0.281 C 
ATOM      2  C   UNL     1       5.006  -3.664  21.511  1.00  0.00     0.202 C 
ATOM      3  C   UNL     1       4.016  -2.947  20.582  1.00  0.00     0.179 C 
ATOM      4  C   UNL     1       3.993  -1.444  20.894  1.00  0.00     0.177 C 
ATOM      5  C   UNL     1       5.412  -0.824  21.066  1.00  0.00     0.178 C 
ATOM      6  O   UNL     1       6.300  -1.603  21.860  1.00  0.00    -0.341 OA
ENDROOT
BRANCH   1   7
ATOM      7  O   UNL     1       7.000  -3.140  20.229  1.00  0.00    -0.350 OA
BRANCH   7   8
ATOM      8  C   UNL     1       7.312  -4.502  20.011  1.00  0.00     0.160 C 
ATOM      9  C   UNL     1       8.090  -5.035  21.203  1.00  0.00     0.035 C 
ENDBRANCH   7   8
ENDBRANCH   1   7
BRANCH   2  10
ATOM     10  O   UNL     1       4.514  -3.667  22.829  1.00  0.00    -0.385 OA
ATOM     11  H   UNL     1       4.963  -4.415  23.302  1.00  0.00     0.211 HD
ENDBRANCH   2  10
BRANCH   3  12
ATOM     12  O   UNL     1       4.347  -3.173  19.236  1.00  0.00    -0.387 OA
ATOM     13  H   UNL     1       3.633  -2.753  18.689  1.00  0.00     0.211 HD
ENDBRANCH   3  12
BRANCH   5  14
ATOM     14  C   UNL     1       6.080  -0.274  19.784  1.00  0.00     0.191 C 
BRANCH  14  15
ATOM     15  O   UNL     1       5.761   1.067  19.553  1.00  0.00    -0.394 OA
ATOM     16  H   UNL     1       6.051   1.266  18.626  1.00  0.00     0.210 HD
ENDBRANCH  14  15
ENDBRANCH   5  14
BRANCH   4  17
ATOM     17  O   UNL     1       3.257  -0.764  19.909  1.00  0.00    -0.387 OA
ATOM     18  H   UNL     1       3.781  -0.823  19.068  1.00  0.00     0.211 HD
ENDBRANCH   4  17
TORSDOF 7
ENDMDL
MODEL 5
REMARK VINA RESULT:    -3.614     17.094     19.273
REMARK INTER + INTRA:          -5.084
REMARK INTER:                  -4.677
REMARK INTRA:                  -0.407
REMARK UNBOUND:                -0.414
REMARK SMILES CCO[C@H]1O[C@@H](CO)[C@@H](O)[C@@H](O)[C@@H]1O
REMARK SMILES IDX 4 1 13 2 11 3 9 4 6 5 5 6 3 7 2 8 1 9 14 10 12 12 7 14 8 15
REMARK SMILES IDX 10 17
REMARK H PARENT 14 11 12 13 8 16 10 18
REMARK Flexibility Score: inf
ROOT
ATOM      1  C   UNL     1      16.053  -7.726   4.688  1.00  0.00     0.281 C 
ATOM      2  C   UNL     1      16.496  -9.188   4.860  1.00  0.00     0.202 C 
ATOM      3  C   UNL     1      16.343  -9.641   6.319  1.00  0.00     0.179 C 
ATOM      4  C   UNL     1      17.028  -8.639   7.259  1.00  0.00     0.177 C 
ATOM      5  C   UNL     1      16.707  -7.152   6.920  1.00  0.00     0.178 C 
ATOM      6  O   UNL     1      16.774  -6.840   5.532  1.00  0.00    -0.341 OA
ENDROOT
BRANCH   1   7
ATOM      7  O   UNL     1      14.654  -7.606   4.879  1.00  0.00    -0.350 OA
BRANCH   7   8
ATOM      8  C   UNL     1      14.141  -6.540   4.104  1.00  0.00     0.160 C 
ATOM      9  C   UNL     1      13.009  -5.869   4.863  1.00  0.00     0.035 C 
ENDBRANCH   7   8
ENDBRANCH   1   7
BRANCH   2  10
ATOM     10  O   UNL     1      17.838  -9.309   4.458  1.00  0.00    -0.385 OA
ATOM     11  H   UNL     1      18.328  -9.728   5.213  1.00  0.00     0.211 HD
ENDBRANCH   2  10
BRANCH   3  12
ATOM     12  O   UNL     1      14.986  -9.791   6.651  1.00  0.00    -0.387 OA
ATOM     13  H   UNL     1      14.789  -9.131   7.366  1.00  0.00     0.211 HD
ENDBRANCH   3  12
BRANCH   5  14
ATOM     14  C   UNL     1      15.465  -6.543   7.611  1.00  0.00     0.191 C 
BRANCH  14  15
ATOM     15  O   UNL     1      15.771  -5.988   8.858  1.00  0.00    -0.394 OA
ATOM     16  H   UNL     1      15.245  -5.150   8.926  1.00  0.00     0.210 HD
ENDBRANCH  14  15
ENDBRANCH   5  14
BRANCH   4  17
ATOM     17  O   UNL     1      16.702  -8.937   8.593  1.00  0.00    -0.387 OA
ATOM     18  H   UNL     1      17.427  -8.559   9.157  1.00  0.00     0.211 HD
ENDBRANCH   4  17
TORSDOF 7
ENDMDL
MODEL 6
REMARK VINA RESULT:    -3.468     18.091     19.826
REMARK INTER + INTRA:          -4.896
REMARK INTER:                  -4.199
REMARK INTRA:                  -0.696
REMARK UNBOUND:                -0.414
REMARK SMILES CCO[C@H]1O[C@@H](CO)[C@@H](O)[C@@H](O)[C@@H]1O
REMARK SMILES IDX 4 1 13 2 11 3 9 4 6 5 5 6 3 7 2 8 1 9 14 10 12 12 7 14 8 15
REMARK SMILES IDX 10 17
REMARK H PARENT 14 11 12 13 8 16 10 18
REMARK Flexibility Score: inf
ROOT
ATOM      1  C   UNL     1      16.115  -6.416   4.439  1.00  0.00     0.281 C 
ATOM      2  C   UNL     1      14.668  -6.454   4.959  1.00  0.00     0.202 C 
ATOM      3  C   UNL     1      14.493  -7.553   6.017  1.00  0.00     0.179 C 
ATOM      4  C   UNL     1      15.029  -8.890   5.485  1.00  0.00     0.177 C 
ATOM      5  C   UNL     1      16.415  -8.768   4.784  1.00  0.00     0.178 C 
ATOM      6  O   UNL     1      16.526  -7.662   3.894  1.00  0.00    -0.341 OA
ENDROOT
BRANCH   1   7
ATOM      7  O   UNL     1      16.996  -5.975   5.458  1.00  0.00    -0.350 OA
BRANCH   7   8
ATOM      8  C   UNL     1      18.158  -5.404   4.889  1.00  0.00     0.160 C 
ATOM      9  C   UNL     1      17.750  -4.347   3.875  1.00  0.00     0.035 C 
ENDBRANCH   7   8
ENDBRANCH   1   7
BRANCH   2  10
ATOM     10  O   UNL     1      13.800  -6.686   3.877  1.00  0.00    -0.385 OA
ATOM     11  H   UNL     1      13.899  -5.915   3.259  1.00  0.00     0.211 HD
ENDBRANCH   2  10
BRANCH   3  12
ATOM     12  O   UNL     1      15.137  -7.198   7.213  1.00  0.00    -0.387 OA
ATOM     13  H   UNL     1      15.688  -7.977   7.488  1.00  0.00     0.211 HD
ENDBRANCH   3  12
BRANCH   5  14
ATOM     14  C   UNL     1      17.658  -8.936   5.688  1.00  0.00     0.191 C 
BRANCH  14  15
ATOM     15  O   UNL     1      17.426  -8.501   6.996  1.00  0.00    -0.394 OA
ATOM     16  H   UNL     1      18.307  -8.510   7.452  1.00  0.00     0.210 HD
ENDBRANCH  14  15
ENDBRANCH   5  14
BRANCH   4  17
ATOM     17  O   UNL     1      15.066  -9.836   6.523  1.00  0.00    -0.387 OA
ATOM     18  H   UNL     1      15.468 -10.662   6.145  1.00  0.00     0.211 HD
ENDBRANCH   4  17
TORSDOF 7
ENDMDL
MODEL 7
REMARK VINA RESULT:    -3.424     17.663     19.623
REMARK INTER + INTRA:          -4.838
REMARK INTER:                  -4.163
REMARK INTRA:                  -0.675
REMARK UNBOUND:                -0.414
REMARK SMILES CCO[C@H]1O[C@@H](CO)[C@@H](O)[C@@H](O)[C@@H]1O
REMARK SMILES IDX 4 1 13 2 11 3 9 4 6 5 5 6 3 7 2 8 1 9 14 10 12 12 7 14 8 15
REMARK SMILES IDX 10 17
REMARK H PARENT 14 11 12 13 8 16 10 18
REMARK Flexibility Score: inf
ROOT
ATOM      1  C   UNL     1      15.975  -6.876   6.753  1.00  0.00     0.281 C 
ATOM      2  C   UNL     1      16.758  -6.244   5.590  1.00  0.00     0.202 C 
ATOM      3  C   UNL     1      17.245  -7.319   4.608  1.00  0.00     0.179 C 
ATOM      4  C   UNL     1      17.987  -8.430   5.364  1.00  0.00     0.177 C 
ATOM      5  C   UNL     1      17.250  -8.901   6.653  1.00  0.00     0.178 C 
ATOM      6  O   UNL     1      16.741  -7.843   7.458  1.00  0.00    -0.341 OA
ENDROOT
BRANCH   1   7
ATOM      7  O   UNL     1      14.750  -7.416   6.290  1.00  0.00    -0.350 OA
BRANCH   7   8
ATOM      8  C   UNL     1      13.681  -6.543   6.596  1.00  0.00     0.160 C 
ATOM      9  C   UNL     1      13.036  -6.069   5.303  1.00  0.00     0.035 C 
ENDBRANCH   7   8
ENDBRANCH   1   7
BRANCH   2  10
ATOM     10  O   UNL     1      17.855  -5.535   6.109  1.00  0.00    -0.385 OA
ATOM     11  H   UNL     1      17.912  -4.682   5.604  1.00  0.00     0.211 HD
ENDBRANCH   2  10
BRANCH   3  12
ATOM     12  O   UNL     1      16.169  -7.846   3.876  1.00  0.00    -0.387 OA
ATOM     13  H   UNL     1      16.378  -8.801   3.700  1.00  0.00     0.211 HD
ENDBRANCH   3  12
BRANCH   5  14
ATOM     14  C   UNL     1      16.241 -10.061   6.482  1.00  0.00     0.191 C 
BRANCH  14  15
ATOM     15  O   UNL     1      15.620 -10.043   5.230  1.00  0.00    -0.394 OA
ATOM     16  H   UNL     1      15.102  -9.198   5.189  1.00  0.00     0.210 HD
ENDBRANCH  14  15
ENDBRANCH   5  14
BRANCH   4  17
ATOM     17  O   UNL     1      18.240  -9.509   4.500  1.00  0.00    -0.387 OA
ATOM     18  H   UNL     1      17.382  -9.719   4.045  1.00  0.00     0.211 HD
ENDBRANCH   4  17
TORSDOF 7
ENDMDL
MODEL 8
REMARK VINA RESULT:    -3.396     17.262     19.470
REMARK INTER + INTRA:          -4.803
REMARK INTER:                  -4.218
REMARK INTRA:                  -0.585
REMARK UNBOUND:                -0.414
REMARK SMILES CCO[C@H]1O[C@@H](CO)[C@@H](O)[C@@H](O)[C@@H]1O
REMARK SMILES IDX 4 1 13 2 11 3 9 4 6 5 5 6 3 7 2 8 1 9 14 10 12 12 7 14 8 15
REMARK SMILES IDX 10 17
REMARK H PARENT 14 11 12 13 8 16 10 18
REMARK Flexibility Score: inf
ROOT
ATOM      1  C   UNL     1      14.769  -7.720   5.535  1.00  0.00     0.281 C 
ATOM      2  C   UNL     1      15.415  -9.009   6.068  1.00  0.00     0.202 C 
ATOM      3  C   UNL     1      16.926  -8.825   6.269  1.00  0.00     0.179 C 
ATOM      4  C   UNL     1      17.564  -8.257   4.994  1.00  0.00     0.177 C 
ATOM      5  C   UNL     1      16.762  -7.074   4.373  1.00  0.00     0.178 C 
ATOM      6  O   UNL     1      15.355  -7.286   4.315  1.00  0.00    -0.341 OA
ENDROOT
BRANCH   1   7
ATOM      7  O   UNL     1      14.803  -6.704   6.522  1.00  0.00    -0.350 OA
BRANCH   7   8
ATOM      8  C   UNL     1      13.505  -6.467   7.029  1.00  0.00     0.160 C 
ATOM      9  C   UNL     1      12.477  -6.981   6.034  1.00  0.00     0.035 C 
ENDBRANCH   7   8
ENDBRANCH   1   7
BRANCH   2  10
ATOM     10  O   UNL     1      15.176 -10.052   5.155  1.00  0.00    -0.385 OA
ATOM     11  H   UNL     1      14.195 -10.211   5.150  1.00  0.00     0.211 HD
ENDBRANCH   2  10
BRANCH   3  12
ATOM     12  O   UNL     1      17.181  -7.991   7.370  1.00  0.00    -0.387 OA
ATOM     13  H   UNL     1      16.651  -8.346   8.131  1.00  0.00     0.211 HD
ENDBRANCH   3  12
BRANCH   5  14
ATOM     14  C   UNL     1      17.133  -5.657   4.869  1.00  0.00     0.191 C 
BRANCH  14  15
ATOM     15  O   UNL     1      17.618  -5.664   6.180  1.00  0.00    -0.394 OA
ATOM     16  H   UNL     1      17.224  -6.463   6.617  1.00  0.00     0.210 HD
ENDBRANCH  14  15
ENDBRANCH   5  14
BRANCH   4  17
ATOM     17  O   UNL     1      18.895  -7.888   5.250  1.00  0.00    -0.387 OA
ATOM     18  H   UNL     1      19.056  -7.036   4.766  1.00  0.00     0.211 HD
ENDBRANCH   4  17
TORSDOF 7
ENDMDL
MODEL 9
REMARK VINA RESULT:    -3.300     17.344     18.863
REMARK INTER + INTRA:          -4.679
REMARK INTER:                  -4.014
REMARK INTRA:                  -0.665
REMARK UNBOUND:                -0.414
REMARK SMILES CCO[C@H]1O[C@@H](CO)[C@@H](O)[C@@H](O)[C@@H]1O
REMARK SMILES IDX 4 1 13 2 11 3 9 4 6 5 5 6 3 7 2 8 1 9 14 10 12 12 7 14 8 15
REMARK SMILES IDX 10 17
REMARK H PARENT 14 11 12 13 8 16 10 18
REMARK Flexibility Score: inf
ROOT
ATOM      1  C   UNL     1      15.128  -8.209   4.885  1.00  0.00     0.281 C 
ATOM      2  C   UNL     1      15.075  -6.718   5.256  1.00  0.00     0.202 C 
ATOM      3  C   UNL     1      13.741  -6.366   5.929  1.00  0.00     0.179 C 
ATOM      4  C   UNL     1      12.568  -6.865   5.073  1.00  0.00     0.177 C 
ATOM      5  C   UNL     1      12.758  -8.320   4.550  1.00  0.00     0.178 C 
ATOM      6  O   UNL     1      14.057  -8.592   4.033  1.00  0.00    -0.341 OA
ENDROOT
BRANCH   1   7
ATOM      7  O   UNL     1      15.177  -9.009   6.053  1.00  0.00    -0.350 OA
BRANCH   7   8
ATOM      8  C   UNL     1      16.461  -9.583   6.201  1.00  0.00     0.160 C 
ATOM      9  C   UNL     1      17.122  -9.017   7.447  1.00  0.00     0.035 C 
ENDBRANCH   7   8
ENDBRANCH   1   7
BRANCH   2  10
ATOM     10  O   UNL     1      15.241  -5.950   4.089  1.00  0.00    -0.385 OA
ATOM     11  H   UNL     1      15.234  -6.583   3.325  1.00  0.00     0.211 HD
ENDBRANCH   2  10
BRANCH   3  12
ATOM     12  O   UNL     1      13.680  -6.908   7.224  1.00  0.00    -0.387 OA
ATOM     13  H   UNL     1      12.745  -7.208   7.368  1.00  0.00     0.211 HD
ENDBRANCH   3  12
BRANCH   5  14
ATOM     14  C   UNL     1      12.227  -9.453   5.459  1.00  0.00     0.191 C 
BRANCH  14  15
ATOM     15  O   UNL     1      12.244  -9.098   6.811  1.00  0.00    -0.394 OA
ATOM     16  H   UNL     1      12.812  -8.288   6.879  1.00  0.00     0.210 HD
ENDBRANCH  14  15
ENDBRANCH   5  14
BRANCH   4  17
ATOM     17  O   UNL     1      11.366  -6.737   5.790  1.00  0.00    -0.387 OA
ATOM     18  H   UNL     1      11.150  -7.636   6.152  1.00  0.00     0.211 HD
ENDBRANCH   4  17
TORSDOF 7
ENDMDL
