MODEL 1
REMARK VINA RESULT:    -4.265      0.000      0.000
REMARK INTER + INTRA:          -7.218
REMARK INTER:                  -5.886
REMARK INTRA:                  -1.331
REMARK UNBOUND:                -1.331
REMARK SMILES CCCCc1cccc(O)c1CCCC
REMARK SMILES IDX 5 1 11 2 9 3 8 4 7 5 6 6 4 7 3 8 2 9 1 10 12 11 13 12 14 13
REMARK SMILES IDX 15 14 10 15
REMARK H PARENT 10 16
REMARK Flexibility Score: inf
ROOT
ATOM      1  C   UNL     1     143.676 130.667 115.401  1.00  0.00    -0.041 A 
ATOM      2  C   UNL     1     145.087 130.632 115.590  1.00  0.00    -0.003 A 
ATOM      3  C   UNL     1     145.737 131.767 116.127  1.00  0.00     0.119 A 
ATOM      4  C   UNL     1     144.994 132.891 116.509  1.00  0.00     0.046 A 
ATOM      5  C   UNL     1     143.611 132.905 116.355  1.00  0.00     0.004 A 
ATOM      6  C   UNL     1     142.956 131.804 115.808  1.00  0.00     0.004 A 
ENDROOT
BRANCH   1   7
ATOM      7  C   UNL     1     142.899 129.504 114.826  1.00  0.00     0.036 C 
BRANCH   7   8
ATOM      8  C   UNL     1     141.988 128.880 115.890  1.00  0.00     0.004 C 
BRANCH   8   9
ATOM      9  C   UNL     1     142.403 127.435 116.190  1.00  0.00    -0.003 C 
ATOM     10  C   UNL     1     142.753 127.258 117.665  1.00  0.00     0.004 C 
ENDBRANCH   8   9
ENDBRANCH   7   8
ENDBRANCH   1   7
BRANCH   2  11
ATOM     11  C   UNL     1     145.924 129.438 115.174  1.00  0.00     0.040 C 
BRANCH  11  12
ATOM     12  C   UNL     1     145.998 128.407 116.310  1.00  0.00     0.005 C 
BRANCH  12  13
ATOM     13  C   UNL     1     146.011 126.960 115.794  1.00  0.00    -0.003 C 
ATOM     14  C   UNL     1     145.948 126.875 114.270  1.00  0.00     0.004 C 
ENDBRANCH  12  13
ENDBRANCH  11  12
ENDBRANCH   2  11
BRANCH   3  15
ATOM     15  O   UNL     1     147.124 131.777 116.280  1.00  0.00    -0.508 OA
ATOM     16  H   UNL     1     147.681 130.940 116.157  1.00  0.00     0.293 HD
ENDBRANCH   3  15
TORSDOF 7
ENDMDL
MODEL 2
REMARK VINA RESULT:    -4.221      1.693      3.453
REMARK INTER + INTRA:          -7.156
REMARK INTER:                  -6.016
REMARK INTRA:                  -1.140
REMARK UNBOUND:                -1.331
REMARK SMILES CCCCc1cccc(O)c1CCCC
REMARK SMILES IDX 5 1 11 2 9 3 8 4 7 5 6 6 4 7 3 8 2 9 1 10 12 11 13 12 14 13
REMARK SMILES IDX 15 14 10 15
REMARK H PARENT 10 16
REMARK Flexibility Score: inf
ROOT
ATOM      1  C   UNL     1     145.055 129.529 115.021  1.00  0.00    -0.041 A 
ATOM      2  C   UNL     1     143.787 130.161 115.160  1.00  0.00    -0.003 A 
ATOM      3  C   UNL     1     143.707 131.399 115.836  1.00  0.00     0.119 A 
ATOM      4  C   UNL     1     144.867 132.014 116.322  1.00  0.00     0.046 A 
ATOM      5  C   UNL     1     146.109 131.408 116.152  1.00  0.00     0.004 A 
ATOM      6  C   UNL     1     146.204 130.178 115.506  1.00  0.00     0.004 A 
ENDROOT
BRANCH   1   7
ATOM      7  C   UNL     1     145.235 128.200 114.319  1.00  0.00     0.036 C 
BRANCH   7   8
ATOM      8  C   UNL     1     145.941 127.194 115.236  1.00  0.00     0.004 C 
BRANCH   8   9
ATOM      9  C   UNL     1     145.091 126.888 116.475  1.00  0.00    -0.003 C 
ATOM     10  C   UNL     1     145.883 127.124 117.757  1.00  0.00     0.004 C 
ENDBRANCH   8   9
ENDBRANCH   7   8
ENDBRANCH   1   7
BRANCH   2  11
ATOM     11  C   UNL     1     142.509 129.516 114.658  1.00  0.00     0.040 C 
BRANCH  11  12
ATOM     12  C   UNL     1     141.957 128.530 115.698  1.00  0.00     0.005 C 
BRANCH  12  13
ATOM     13  C   UNL     1     141.647 127.150 115.097  1.00  0.00    -0.003 C 
ATOM     14  C   UNL     1     140.240 127.065 114.508  1.00  0.00     0.004 C 
ENDBRANCH  12  13
ENDBRANCH  11  12
ENDBRANCH   2  11
BRANCH   3  15
ATOM     15  O   UNL     1     142.471 132.019 116.027  1.00  0.00    -0.508 OA
ATOM     16  H   UNL     1     142.300 132.640 116.808  1.00  0.00     0.293 HD
ENDBRANCH   3  15
TORSDOF 7
ENDMDL
MODEL 3
REMARK VINA RESULT:    -4.188      1.953      3.477
REMARK INTER + INTRA:          -7.111
REMARK INTER:                  -5.679
REMARK INTRA:                  -1.432
REMARK UNBOUND:                -1.331
REMARK SMILES CCCCc1cccc(O)c1CCCC
REMARK SMILES IDX 5 1 11 2 9 3 8 4 7 5 6 6 4 7 3 8 2 9 1 10 12 11 13 12 14 13
REMARK SMILES IDX 15 14 10 15
REMARK H PARENT 10 16
REMARK Flexibility Score: inf
ROOT
ATOM      1  C   UNL     1     143.246 127.946 117.674  1.00  0.00    -0.041 A 
ATOM      2  C   UNL     1     144.589 128.367 117.887  1.00  0.00    -0.003 A 
ATOM      3  C   UNL     1     144.933 128.968 119.118  1.00  0.00     0.119 A 
ATOM      4  C   UNL     1     143.975 129.107 120.129  1.00  0.00     0.046 A 
ATOM      5  C   UNL     1     142.671 128.661 119.928  1.00  0.00     0.004 A 
ATOM      6  C   UNL     1     142.309 128.085 118.712  1.00  0.00     0.004 A 
ENDROOT
BRANCH   1   7
ATOM      7  C   UNL     1     142.785 127.300 116.385  1.00  0.00     0.036 C 
BRANCH   7   8
ATOM      8  C   UNL     1     141.581 128.050 115.803  1.00  0.00     0.004 C 
BRANCH   8   9
ATOM      9  C   UNL     1     142.033 129.140 114.824  1.00  0.00    -0.003 C 
ATOM     10  C   UNL     1     141.963 130.522 115.468  1.00  0.00     0.004 C 
ENDBRANCH   8   9
ENDBRANCH   7   8
ENDBRANCH   1   7
BRANCH   2  11
ATOM     11  C   UNL     1     145.649 128.246 116.809  1.00  0.00     0.040 C 
BRANCH  11  12
ATOM     12  C   UNL     1     145.617 129.466 115.878  1.00  0.00     0.005 C 
BRANCH  12  13
ATOM     13  C   UNL     1     145.568 129.076 114.393  1.00  0.00    -0.003 C 
ATOM     14  C   UNL     1     145.599 127.564 114.179  1.00  0.00     0.004 C 
ENDBRANCH  12  13
ENDBRANCH  11  12
ENDBRANCH   2  11
BRANCH   3  15
ATOM     15  O   UNL     1     146.232 129.431 119.337  1.00  0.00    -0.508 OA
ATOM     16  H   UNL     1     146.856 128.977 119.994  1.00  0.00     0.293 HD
ENDBRANCH   3  15
TORSDOF 7
ENDMDL
MODEL 4
REMARK VINA RESULT:    -4.183      2.393      5.105
REMARK INTER + INTRA:          -7.104
REMARK INTER:                  -6.343
REMARK INTRA:                  -0.760
REMARK UNBOUND:                -1.331
REMARK SMILES CCCCc1cccc(O)c1CCCC
REMARK SMILES IDX 5 1 11 2 9 3 8 4 7 5 6 6 4 7 3 8 2 9 1 10 12 11 13 12 14 13
REMARK SMILES IDX 15 14 10 15
REMARK H PARENT 10 16
REMARK Flexibility Score: inf
ROOT
ATOM      1  C   UNL     1     144.984 127.490 116.169  1.00  0.00    -0.041 A 
ATOM      2  C   UNL     1     143.574 127.373 116.324  1.00  0.00    -0.003 A 
ATOM      3  C   UNL     1     143.037 127.201 117.619  1.00  0.00     0.119 A 
ATOM      4  C   UNL     1     143.879 127.192 118.738  1.00  0.00     0.046 A 
ATOM      5  C   UNL     1     145.254 127.342 118.583  1.00  0.00     0.004 A 
ATOM      6  C   UNL     1     145.803 127.491 117.312  1.00  0.00     0.004 A 
ENDROOT
BRANCH   1   7
ATOM      7  C   UNL     1     145.648 127.668 114.821  1.00  0.00     0.036 C 
BRANCH   7   8
ATOM      8  C   UNL     1     145.518 129.118 114.339  1.00  0.00     0.004 C 
BRANCH   8   9
ATOM      9  C   UNL     1     146.023 130.099 115.404  1.00  0.00    -0.003 C 
ATOM     10  C   UNL     1     144.942 131.109 115.777  1.00  0.00     0.004 C 
ENDBRANCH   8   9
ENDBRANCH   7   8
ENDBRANCH   1   7
BRANCH   2  11
ATOM     11  C   UNL     1     142.633 127.365 115.134  1.00  0.00     0.040 C 
BRANCH  11  12
ATOM     12  C   UNL     1     141.965 128.736 114.963  1.00  0.00     0.005 C 
BRANCH  12  13
ATOM     13  C   UNL     1     140.455 128.629 114.700  1.00  0.00    -0.003 C 
ATOM     14  C   UNL     1     139.976 127.183 114.587  1.00  0.00     0.004 C 
ENDBRANCH  12  13
ENDBRANCH  11  12
ENDBRANCH   2  11
BRANCH   3  15
ATOM     15  O   UNL     1     141.661 127.038 117.795  1.00  0.00    -0.508 OA
ATOM     16  H   UNL     1     141.181 126.198 117.496  1.00  0.00     0.293 HD
ENDBRANCH   3  15
TORSDOF 7
ENDMDL
MODEL 5
REMARK VINA RESULT:    -4.182      3.310      4.845
REMARK INTER + INTRA:          -7.102
REMARK INTER:                  -6.527
REMARK INTRA:                  -0.575
REMARK UNBOUND:                -1.331
REMARK SMILES CCCCc1cccc(O)c1CCCC
REMARK SMILES IDX 5 1 11 2 9 3 8 4 7 5 6 6 4 7 3 8 2 9 1 10 12 11 13 12 14 13
REMARK SMILES IDX 15 14 10 15
REMARK H PARENT 10 16
REMARK Flexibility Score: inf
ROOT
ATOM      1  C   UNL     1     143.232 127.382 116.126  1.00  0.00    -0.041 A 
ATOM      2  C   UNL     1     144.081 127.213 117.256  1.00  0.00    -0.003 A 
ATOM      3  C   UNL     1     145.481 127.171 117.064  1.00  0.00     0.119 A 
ATOM      4  C   UNL     1     146.024 127.340 115.785  1.00  0.00     0.046 A 
ATOM      5  C   UNL     1     145.189 127.541 114.688  1.00  0.00     0.004 A 
ATOM      6  C   UNL     1     143.807 127.563 114.856  1.00  0.00     0.004 A 
ENDROOT
BRANCH   1   7
ATOM      7  C   UNL     1     141.724 127.429 116.234  1.00  0.00     0.036 C 
BRANCH   7   8
ATOM      8  C   UNL     1     141.070 126.965 114.927  1.00  0.00     0.004 C 
BRANCH   8   9
ATOM      9  C   UNL     1     139.546 127.126 114.987  1.00  0.00    -0.003 C 
ATOM     10  C   UNL     1     138.942 127.166 113.587  1.00  0.00     0.004 C 
ENDBRANCH   8   9
ENDBRANCH   7   8
ENDBRANCH   1   7
BRANCH   2  11
ATOM     11  C   UNL     1     143.528 127.013 118.654  1.00  0.00     0.040 C 
BRANCH  11  12
ATOM     12  C   UNL     1     143.379 128.360 119.375  1.00  0.00     0.005 C 
BRANCH  12  13
ATOM     13  C   UNL     1     144.279 128.470 120.615  1.00  0.00    -0.003 C 
ATOM     14  C   UNL     1     143.485 128.514 121.919  1.00  0.00     0.004 C 
ENDBRANCH  12  13
ENDBRANCH  11  12
ENDBRANCH   2  11
BRANCH   3  15
ATOM     15  O   UNL     1     146.334 126.961 118.149  1.00  0.00    -0.508 OA
ATOM     16  H   UNL     1     146.631 126.032 118.422  1.00  0.00     0.293 HD
ENDBRANCH   3  15
TORSDOF 7
ENDMDL
MODEL 6
REMARK VINA RESULT:    -4.181      2.184      4.075
REMARK INTER + INTRA:          -7.101
REMARK INTER:                  -6.421
REMARK INTRA:                  -0.680
REMARK UNBOUND:                -1.331
REMARK SMILES CCCCc1cccc(O)c1CCCC
REMARK SMILES IDX 5 1 11 2 9 3 8 4 7 5 6 6 4 7 3 8 2 9 1 10 12 11 13 12 14 13
REMARK SMILES IDX 15 14 10 15
REMARK H PARENT 10 16
REMARK Flexibility Score: inf
ROOT
ATOM      1  C   UNL     1     142.995 127.471 116.326  1.00  0.00    -0.041 A 
ATOM      2  C   UNL     1     144.397 127.250 116.434  1.00  0.00    -0.003 A 
ATOM      3  C   UNL     1     144.996 127.247 117.714  1.00  0.00     0.119 A 
ATOM      4  C   UNL     1     144.211 127.415 118.861  1.00  0.00     0.046 A 
ATOM      5  C   UNL     1     142.834 127.595 118.751  1.00  0.00     0.004 A 
ATOM      6  C   UNL     1     142.231 127.622 117.496  1.00  0.00     0.004 A 
ENDROOT
BRANCH   1   7
ATOM      7  C   UNL     1     142.270 127.499 114.998  1.00  0.00     0.036 C 
BRANCH   7   8
ATOM      8  C   UNL     1     140.876 126.875 115.127  1.00  0.00     0.004 C 
BRANCH   8   9
ATOM      9  C   UNL     1     139.793 127.840 114.629  1.00  0.00    -0.003 C 
ATOM     10  C   UNL     1     138.880 127.165 113.610  1.00  0.00     0.004 C 
ENDBRANCH   8   9
ENDBRANCH   7   8
ENDBRANCH   1   7
BRANCH   2  11
ATOM     11  C   UNL     1     145.280 127.079 115.212  1.00  0.00     0.040 C 
BRANCH  11  12
ATOM     12  C   UNL     1     145.398 128.401 114.441  1.00  0.00     0.005 C 
BRANCH  12  13
ATOM     13  C   UNL     1     145.981 129.535 115.298  1.00  0.00    -0.003 C 
ATOM     14  C   UNL     1     144.997 130.686 115.503  1.00  0.00     0.004 C 
ENDBRANCH  12  13
ENDBRANCH  11  12
ENDBRANCH   2  11
BRANCH   3  15
ATOM     15  O   UNL     1     146.375 127.077 117.846  1.00  0.00    -0.508 OA
ATOM     16  H   UNL     1     147.006 127.212 117.065  1.00  0.00     0.293 HD
ENDBRANCH   3  15
TORSDOF 7
ENDMDL
MODEL 7
REMARK VINA RESULT:    -4.095      2.671      4.910
REMARK INTER + INTRA:          -6.983
REMARK INTER:                  -5.884
REMARK INTRA:                  -1.099
REMARK UNBOUND:                -1.331
REMARK SMILES CCCCc1cccc(O)c1CCCC
REMARK SMILES IDX 5 1 11 2 9 3 8 4 7 5 6 6 4 7 3 8 2 9 1 10 12 11 13 12 14 13
REMARK SMILES IDX 15 14 10 15
REMARK H PARENT 10 16
REMARK Flexibility Score: inf
ROOT
ATOM      1  C   UNL     1     143.704 127.606 115.609  1.00  0.00    -0.041 A 
ATOM      2  C   UNL     1     143.532 127.266 116.981  1.00  0.00    -0.003 A 
ATOM      3  C   UNL     1     142.230 127.268 117.531  1.00  0.00     0.119 A 
ATOM      4  C   UNL     1     141.123 127.556 116.724  1.00  0.00     0.046 A 
ATOM      5  C   UNL     1     141.294 127.852 115.374  1.00  0.00     0.004 A 
ATOM      6  C   UNL     1     142.572 127.876 114.820  1.00  0.00     0.004 A 
ENDROOT
BRANCH   1   7
ATOM      7  C   UNL     1     145.059 127.638 114.937  1.00  0.00     0.036 C 
BRANCH   7   8
ATOM      8  C   UNL     1     145.345 129.028 114.356  1.00  0.00     0.004 C 
BRANCH   8   9
ATOM      9  C   UNL     1     145.972 129.947 115.412  1.00  0.00    -0.003 C 
ATOM     10  C   UNL     1     145.033 131.097 115.767  1.00  0.00     0.004 C 
ENDBRANCH   8   9
ENDBRANCH   7   8
ENDBRANCH   1   7
BRANCH   2  11
ATOM     11  C   UNL     1     144.709 126.964 117.887  1.00  0.00     0.040 C 
BRANCH  11  12
ATOM     12  C   UNL     1     145.235 128.250 118.539  1.00  0.00     0.005 C 
BRANCH  12  13
ATOM     13  C   UNL     1     145.541 128.072 120.034  1.00  0.00    -0.003 C 
ATOM     14  C   UNL     1     144.388 128.519 120.931  1.00  0.00     0.004 C 
ENDBRANCH  12  13
ENDBRANCH  11  12
ENDBRANCH   2  11
BRANCH   3  15
ATOM     15  O   UNL     1     142.037 126.984 118.884  1.00  0.00    -0.508 OA
ATOM     16  H   UNL     1     142.212 126.062 119.265  1.00  0.00     0.293 HD
ENDBRANCH   3  15
TORSDOF 7
ENDMDL
MODEL 8
REMARK VINA RESULT:    -4.057     13.350     15.550
REMARK INTER + INTRA:          -6.930
REMARK INTER:                  -5.956
REMARK INTRA:                  -0.974
REMARK UNBOUND:                -1.331
REMARK SMILES CCCCc1cccc(O)c1CCCC
REMARK SMILES IDX 5 1 11 2 9 3 8 4 7 5 6 6 4 7 3 8 2 9 1 10 12 11 13 12 14 13
REMARK SMILES IDX 15 14 10 15
REMARK H PARENT 10 16
REMARK Flexibility Score: inf
ROOT
ATOM      1  C   UNL     1     129.215 129.894 116.223  1.00  0.00    -0.041 A 
ATOM      2  C   UNL     1     128.495 131.121 116.156  1.00  0.00    -0.003 A 
ATOM      3  C   UNL     1     128.070 131.734 117.357  1.00  0.00     0.119 A 
ATOM      4  C   UNL     1     128.393 131.163 118.594  1.00  0.00     0.046 A 
ATOM      5  C   UNL     1     129.128 129.982 118.653  1.00  0.00     0.004 A 
ATOM      6  C   UNL     1     129.537 129.353 117.480  1.00  0.00     0.004 A 
ENDROOT
BRANCH   1   7
ATOM      7  C   UNL     1     129.702 129.163 114.991  1.00  0.00     0.036 C 
BRANCH   7   8
ATOM      8  C   UNL     1     130.008 127.696 115.315  1.00  0.00     0.004 C 
BRANCH   8   9
ATOM      9  C   UNL     1     131.379 127.285 114.764  1.00  0.00    -0.003 C 
ATOM     10  C   UNL     1     132.314 128.487 114.665  1.00  0.00     0.004 C 
ENDBRANCH   8   9
ENDBRANCH   7   8
ENDBRANCH   1   7
BRANCH   2  11
ATOM     11  C   UNL     1     128.116 131.759 114.834  1.00  0.00     0.040 C 
BRANCH  11  12
ATOM     12  C   UNL     1     129.091 132.892 114.481  1.00  0.00     0.005 C 
BRANCH  12  13
ATOM     13  C   UNL     1     129.865 132.622 113.182  1.00  0.00    -0.003 C 
ATOM     14  C   UNL     1     131.281 132.107 113.435  1.00  0.00     0.004 C 
ENDBRANCH  12  13
ENDBRANCH  11  12
ENDBRANCH   2  11
BRANCH   3  15
ATOM     15  O   UNL     1     127.324 132.913 117.320  1.00  0.00    -0.508 OA
ATOM     16  H   UNL     1     126.981 133.354 118.164  1.00  0.00     0.293 HD
ENDBRANCH   3  15
TORSDOF 7
ENDMDL
MODEL 9
REMARK VINA RESULT:    -4.012     17.898     19.983
REMARK INTER + INTRA:          -6.868
REMARK INTER:                  -5.662
REMARK INTRA:                  -1.206
REMARK UNBOUND:                -1.331
REMARK SMILES CCCCc1cccc(O)c1CCCC
REMARK SMILES IDX 5 1 11 2 9 3 8 4 7 5 6 6 4 7 3 8 2 9 1 10 12 11 13 12 14 13
REMARK SMILES IDX 15 14 10 15
REMARK H PARENT 10 16
REMARK Flexibility Score: inf
ROOT
ATOM      1  C   UNL     1     127.814 142.118 116.262  1.00  0.00    -0.041 A 
ATOM      2  C   UNL     1     128.756 143.184 116.207  1.00  0.00    -0.003 A 
ATOM      3  C   UNL     1     129.220 143.753 117.415  1.00  0.00     0.119 A 
ATOM      4  C   UNL     1     128.792 143.243 118.646  1.00  0.00     0.046 A 
ATOM      5  C   UNL     1     127.898 142.176 118.693  1.00  0.00     0.004 A 
ATOM      6  C   UNL     1     127.414 141.617 117.513  1.00  0.00     0.004 A 
ENDROOT
BRANCH   1   7
ATOM      7  C   UNL     1     127.257 141.454 115.022  1.00  0.00     0.036 C 
BRANCH   7   8
ATOM      8  C   UNL     1     127.237 139.929 115.184  1.00  0.00     0.004 C 
BRANCH   8   9
ATOM      9  C   UNL     1     128.415 139.282 114.447  1.00  0.00    -0.003 C 
ATOM     10  C   UNL     1     129.542 138.930 115.414  1.00  0.00     0.004 C 
ENDBRANCH   8   9
ENDBRANCH   7   8
ENDBRANCH   1   7
BRANCH   2  11
ATOM     11  C   UNL     1     129.230 143.771 114.892  1.00  0.00     0.040 C 
BRANCH  11  12
ATOM     12  C   UNL     1     130.590 143.180 114.494  1.00  0.00     0.005 C 
BRANCH  12  13
ATOM     13  C   UNL     1     130.629 142.722 113.028  1.00  0.00    -0.003 C 
ATOM     14  C   UNL     1     131.054 141.263 112.875  1.00  0.00     0.004 C 
ENDBRANCH  12  13
ENDBRANCH  11  12
ENDBRANCH   2  11
BRANCH   3  15
ATOM     15  O   UNL     1     130.108 144.830 117.390  1.00  0.00    -0.508 OA
ATOM     16  H   UNL     1     130.974 144.794 116.866  1.00  0.00     0.293 HD
ENDBRANCH   3  15
TORSDOF 7
ENDMDL
