MODEL 1
REMARK VINA RESULT:    -3.799      0.000      0.000
REMARK INTER + INTRA:          -5.462
REMARK INTER:                  -5.132
REMARK INTRA:                  -0.330
REMARK UNBOUND:                -0.330
REMARK SMILES CCCCCCCC(=O)[O-]
REMARK SMILES IDX 5 1 6 2 7 3 8 4 9 5 10 6 4 7 3 8 2 9 1 10
REMARK H PARENT
REMARK Flexibility Score: inf
ROOT
ATOM      1  C   UNL     1    -115.776 -96.911  33.353  1.00  0.00     0.000 C 
ENDROOT
BRANCH   1   2
ATOM      2  C   UNL     1    -115.710 -98.378  33.806  1.00  0.00     0.006 C 
BRANCH   2   3
ATOM      3  C   UNL     1    -115.333 -98.513  35.288  1.00  0.00     0.053 C 
BRANCH   3   4
ATOM      4  C   UNL     1    -116.492 -98.972  36.117  1.00  0.00     0.041 C 
ATOM      5  O   UNL     1    -116.392 -99.022  37.372  1.00  0.00    -0.550 OA
ATOM      6  O   UNL     1    -117.671 -99.379  35.504  1.00  0.00    -0.550 OA
ENDBRANCH   3   4
ENDBRANCH   2   3
ENDBRANCH   1   2
BRANCH   1   7
ATOM      7  C   UNL     1    -117.025 -96.655  32.500  1.00  0.00     0.000 C 
BRANCH   7   8
ATOM      8  C   UNL     1    -117.738 -97.950  32.079  1.00  0.00    -0.000 C 
BRANCH   8   9
ATOM      9  C   UNL     1    -118.595 -97.800  30.805  1.00  0.00    -0.003 C 
ATOM     10  C   UNL     1    -118.823 -96.337  30.425  1.00  0.00     0.004 C 
ENDBRANCH   8   9
ENDBRANCH   7   8
ENDBRANCH   1   7
TORSDOF 6
ENDMDL
MODEL 2
REMARK VINA RESULT:    -3.721      7.268     10.328
REMARK INTER + INTRA:          -5.356
REMARK INTER:                  -5.176
REMARK INTRA:                  -0.180
REMARK UNBOUND:                -0.330
REMARK SMILES CCCCCCCC(=O)[O-]
REMARK SMILES IDX 5 1 6 2 7 3 8 4 9 5 10 6 4 7 3 8 2 9 1 10
REMARK H PARENT
REMARK Flexibility Score: inf
ROOT
ATOM      1  C   UNL     1    -117.565 -98.278  43.230  1.00  0.00     0.000 C 
ENDROOT
BRANCH   1   2
ATOM      2  C   UNL     1    -116.466 -98.697  42.241  1.00  0.00     0.006 C 
BRANCH   2   3
ATOM      3  C   UNL     1    -117.010 -99.574  41.105  1.00  0.00     0.053 C 
BRANCH   3   4
ATOM      4  C   UNL     1    -117.259 -98.781  39.860  1.00  0.00     0.041 C 
ATOM      5  O   UNL     1    -117.920 -97.710  39.914  1.00  0.00    -0.550 OA
ATOM      6  O   UNL     1    -116.794 -99.243  38.635  1.00  0.00    -0.550 OA
ENDBRANCH   3   4
ENDBRANCH   2   3
ENDBRANCH   1   2
BRANCH   1   7
ATOM      7  C   UNL     1    -117.553 -99.171  44.477  1.00  0.00     0.000 C 
BRANCH   7   8
ATOM      8  C   UNL     1    -118.249 -98.520  45.685  1.00  0.00    -0.000 C 
BRANCH   8   9
ATOM      9  C   UNL     1    -118.572 -97.025  45.482  1.00  0.00    -0.003 C 
ATOM     10  C   UNL     1    -118.362 -96.206  46.756  1.00  0.00     0.004 C 
ENDBRANCH   8   9
ENDBRANCH   7   8
ENDBRANCH   1   7
TORSDOF 6
ENDMDL
MODEL 3
REMARK VINA RESULT:    -3.655      8.317     11.358
REMARK INTER + INTRA:          -5.266
REMARK INTER:                  -5.021
REMARK INTRA:                  -0.245
REMARK UNBOUND:                -0.330
REMARK SMILES CCCCCCCC(=O)[O-]
REMARK SMILES IDX 5 1 6 2 7 3 8 4 9 5 10 6 4 7 3 8 2 9 1 10
REMARK H PARENT
REMARK Flexibility Score: inf
ROOT
ATOM      1  C   UNL     1    -117.980 -98.715  44.738  1.00  0.00     0.000 C 
ENDROOT
BRANCH   1   2
ATOM      2  C   UNL     1    -117.093 -99.044  43.528  1.00  0.00     0.006 C 
BRANCH   2   3
ATOM      3  C   UNL     1    -117.611 -98.400  42.235  1.00  0.00     0.053 C 
BRANCH   3   4
ATOM      4  C   UNL     1    -116.905 -98.933  41.026  1.00  0.00     0.041 C 
ATOM      5  O   UNL     1    -115.842 -99.596  41.155  1.00  0.00    -0.550 OA
ATOM      6  O   UNL     1    -117.401 -98.667  39.756  1.00  0.00    -0.550 OA
ENDBRANCH   3   4
ENDBRANCH   2   3
ENDBRANCH   1   2
BRANCH   1   7
ATOM      7  C   UNL     1    -118.478 -97.265  44.677  1.00  0.00     0.000 C 
BRANCH   7   8
ATOM      8  C   UNL     1    -118.617 -96.621  46.067  1.00  0.00    -0.000 C 
BRANCH   8   9
ATOM      9  C   UNL     1    -118.292 -97.582  47.230  1.00  0.00    -0.003 C 
ATOM     10  C   UNL     1    -117.643 -96.865  48.414  1.00  0.00     0.004 C 
ENDBRANCH   8   9
ENDBRANCH   7   8
ENDBRANCH   1   7
TORSDOF 6
ENDMDL
MODEL 4
REMARK VINA RESULT:    -3.645      3.131      5.136
REMARK INTER + INTRA:          -5.254
REMARK INTER:                  -4.908
REMARK INTRA:                  -0.346
REMARK UNBOUND:                -0.330
REMARK SMILES CCCCCCCC(=O)[O-]
REMARK SMILES IDX 5 1 6 2 7 3 8 4 9 5 10 6 4 7 3 8 2 9 1 10
REMARK H PARENT
REMARK Flexibility Score: inf
ROOT
ATOM      1  C   UNL     1    -115.815 -97.526  33.125  1.00  0.00     0.000 C 
ENDROOT
BRANCH   1   2
ATOM      2  C   UNL     1    -116.981 -96.714  32.541  1.00  0.00     0.006 C 
BRANCH   2   3
ATOM      3  C   UNL     1    -118.164 -97.605  32.137  1.00  0.00     0.053 C 
BRANCH   3   4
ATOM      4  C   UNL     1    -118.477 -97.487  30.678  1.00  0.00     0.041 C 
ATOM      5  O   UNL     1    -118.435 -96.363  30.110  1.00  0.00    -0.550 OA
ATOM      6  O   UNL     1    -118.851 -98.611  29.952  1.00  0.00    -0.550 OA
ENDBRANCH   3   4
ENDBRANCH   2   3
ENDBRANCH   1   2
BRANCH   1   7
ATOM      7  C   UNL     1    -116.121 -99.029  33.097  1.00  0.00     0.000 C 
BRANCH   7   8
ATOM      8  C   UNL     1    -115.423 -99.803  34.227  1.00  0.00    -0.000 C 
BRANCH   8   9
ATOM      9  C   UNL     1    -115.124 -98.944  35.473  1.00  0.00    -0.003 C 
ATOM     10  C   UNL     1    -116.249 -99.004  36.506  1.00  0.00     0.004 C 
ENDBRANCH   8   9
ENDBRANCH   7   8
ENDBRANCH   1   7
TORSDOF 6
ENDMDL
MODEL 5
REMARK VINA RESULT:    -3.625      9.654     12.268
REMARK INTER + INTRA:          -5.227
REMARK INTER:                  -4.939
REMARK INTRA:                  -0.288
REMARK UNBOUND:                -0.330
REMARK SMILES CCCCCCCC(=O)[O-]
REMARK SMILES IDX 5 1 6 2 7 3 8 4 9 5 10 6 4 7 3 8 2 9 1 10
REMARK H PARENT
REMARK Flexibility Score: inf
ROOT
ATOM      1  C   UNL     1    -117.666 -99.132  46.387  1.00  0.00     0.000 C 
ENDROOT
BRANCH   1   2
ATOM      2  C   UNL     1    -118.693 -98.293  47.163  1.00  0.00     0.006 C 
BRANCH   2   3
ATOM      3  C   UNL     1    -118.093 -96.982  47.691  1.00  0.00     0.053 C 
BRANCH   3   4
ATOM      4  C   UNL     1    -118.444 -95.818  46.818  1.00  0.00     0.041 C 
ATOM      5  O   UNL     1    -119.125 -95.992  45.773  1.00  0.00    -0.550 OA
ATOM      6  O   UNL     1    -117.990 -94.544  47.139  1.00  0.00    -0.550 OA
ENDBRANCH   3   4
ENDBRANCH   2   3
ENDBRANCH   1   2
BRANCH   1   7
ATOM      7  C   UNL     1    -118.203 -99.517  45.003  1.00  0.00     0.000 C 
BRANCH   7   8
ATOM      8  C   UNL     1    -117.699 -98.588  43.886  1.00  0.00    -0.000 C 
BRANCH   8   9
ATOM      9  C   UNL     1    -117.074 -99.338  42.691  1.00  0.00    -0.003 C 
ATOM     10  C   UNL     1    -115.895 -98.580  42.081  1.00  0.00     0.004 C 
ENDBRANCH   8   9
ENDBRANCH   7   8
ENDBRANCH   1   7
TORSDOF 6
ENDMDL
MODEL 6
REMARK VINA RESULT:    -3.504      1.331      1.802
REMARK INTER + INTRA:          -5.064
REMARK INTER:                  -4.572
REMARK INTRA:                  -0.492
REMARK UNBOUND:                -0.330
REMARK SMILES CCCCCCCC(=O)[O-]
REMARK SMILES IDX 5 1 6 2 7 3 8 4 9 5 10 6 4 7 3 8 2 9 1 10
REMARK H PARENT
REMARK Flexibility Score: inf
ROOT
ATOM      1  C   UNL     1    -116.965 -99.927  32.878  1.00  0.00     0.000 C 
ENDROOT
BRANCH   1   2
ATOM      2  C   UNL     1    -115.670 -99.134  33.115  1.00  0.00     0.006 C 
BRANCH   2   3
ATOM      3  C   UNL     1    -115.820 -98.097  34.235  1.00  0.00     0.053 C 
BRANCH   3   4
ATOM      4  C   UNL     1    -115.691 -98.718  35.591  1.00  0.00     0.041 C 
ATOM      5  O   UNL     1    -114.571 -99.131  35.994  1.00  0.00    -0.550 OA
ATOM      6  O   UNL     1    -116.812 -98.874  36.396  1.00  0.00    -0.550 OA
ENDBRANCH   3   4
ENDBRANCH   2   3
ENDBRANCH   1   2
BRANCH   1   7
ATOM      7  C   UNL     1    -118.150 -98.984  32.634  1.00  0.00     0.000 C 
BRANCH   7   8
ATOM      8  C   UNL     1    -118.559 -98.909  31.153  1.00  0.00    -0.000 C 
BRANCH   8   9
ATOM      9  C   UNL     1    -118.721 -97.468  30.627  1.00  0.00    -0.003 C 
ATOM     10  C   UNL     1    -118.009 -96.443  31.509  1.00  0.00     0.004 C 
ENDBRANCH   8   9
ENDBRANCH   7   8
ENDBRANCH   1   7
TORSDOF 6
ENDMDL
MODEL 7
REMARK VINA RESULT:    -3.464      1.267      2.012
REMARK INTER + INTRA:          -5.009
REMARK INTER:                  -4.540
REMARK INTRA:                  -0.470
REMARK UNBOUND:                -0.330
REMARK SMILES CCCCCCCC(=O)[O-]
REMARK SMILES IDX 5 1 6 2 7 3 8 4 9 5 10 6 4 7 3 8 2 9 1 10
REMARK H PARENT
REMARK Flexibility Score: inf
ROOT
ATOM      1  C   UNL     1    -115.862 -98.090  33.371  1.00  0.00     0.000 C 
ENDROOT
BRANCH   1   2
ATOM      2  C   UNL     1    -115.394 -97.937  34.827  1.00  0.00     0.006 C 
BRANCH   2   3
ATOM      3  C   UNL     1    -115.368 -99.278  35.573  1.00  0.00     0.053 C 
BRANCH   3   4
ATOM      4  C   UNL     1    -116.595 -99.472  36.410  1.00  0.00     0.041 C 
ATOM      5  O   UNL     1    -117.657 -99.900  35.887  1.00  0.00    -0.550 OA
ATOM      6  O   UNL     1    -116.575 -99.148  37.761  1.00  0.00    -0.550 OA
ENDBRANCH   3   4
ENDBRANCH   2   3
ENDBRANCH   1   2
BRANCH   1   7
ATOM      7  C   UNL     1    -115.724 -99.543  32.899  1.00  0.00     0.000 C 
BRANCH   7   8
ATOM      8  C   UNL     1    -117.042-100.125  32.361  1.00  0.00    -0.000 C 
BRANCH   8   9
ATOM      9  C   UNL     1    -118.204 -99.110  32.339  1.00  0.00    -0.003 C 
ATOM     10  C   UNL     1    -118.640 -98.755  30.917  1.00  0.00     0.004 C 
ENDBRANCH   8   9
ENDBRANCH   7   8
ENDBRANCH   1   7
TORSDOF 6
ENDMDL
MODEL 8
REMARK VINA RESULT:    -3.282      3.261      4.944
REMARK INTER + INTRA:          -4.763
REMARK INTER:                  -4.186
REMARK INTRA:                  -0.576
REMARK UNBOUND:                -0.330
REMARK SMILES CCCCCCCC(=O)[O-]
REMARK SMILES IDX 5 1 6 2 7 3 8 4 9 5 10 6 4 7 3 8 2 9 1 10
REMARK H PARENT
REMARK Flexibility Score: inf
ROOT
ATOM      1  C   UNL     1    -116.988-100.055  32.264  1.00  0.00     0.000 C 
ENDROOT
BRANCH   1   2
ATOM      2  C   UNL     1    -118.496-100.028  31.967  1.00  0.00     0.006 C 
BRANCH   2   3
ATOM      3  C   UNL     1    -119.030 -98.598  31.804  1.00  0.00     0.053 C 
BRANCH   3   4
ATOM      4  C   UNL     1    -118.778 -98.063  30.428  1.00  0.00     0.041 C 
ATOM      5  O   UNL     1    -119.052 -98.763  29.417  1.00  0.00    -0.550 OA
ATOM      6  O   UNL     1    -118.207 -96.808  30.263  1.00  0.00    -0.550 OA
ENDBRANCH   3   4
ENDBRANCH   2   3
ENDBRANCH   1   2
BRANCH   1   7
ATOM      7  C   UNL     1    -116.724 -99.982  33.774  1.00  0.00     0.000 C 
BRANCH   7   8
ATOM      8  C   UNL     1    -115.879 -98.761  34.174  1.00  0.00    -0.000 C 
BRANCH   8   9
ATOM      9  C   UNL     1    -115.683 -97.742  33.033  1.00  0.00    -0.003 C 
ATOM     10  C   UNL     1    -116.382 -96.412  33.313  1.00  0.00     0.004 C 
ENDBRANCH   8   9
ENDBRANCH   7   8
ENDBRANCH   1   7
TORSDOF 6
ENDMDL
MODEL 9
REMARK VINA RESULT:    -3.240      3.160      5.100
REMARK INTER + INTRA:          -4.706
REMARK INTER:                  -4.342
REMARK INTRA:                  -0.364
REMARK UNBOUND:                -0.330
REMARK SMILES CCCCCCCC(=O)[O-]
REMARK SMILES IDX 5 1 6 2 7 3 8 4 9 5 10 6 4 7 3 8 2 9 1 10
REMARK H PARENT
REMARK Flexibility Score: inf
ROOT
ATOM      1  C   UNL     1    -116.813 -96.936  33.063  1.00  0.00     0.000 C 
ENDROOT
BRANCH   1   2
ATOM      2  C   UNL     1    -118.036 -97.863  32.991  1.00  0.00     0.006 C 
BRANCH   2   3
ATOM      3  C   UNL     1    -119.125 -97.318  32.058  1.00  0.00     0.053 C 
BRANCH   3   4
ATOM      4  C   UNL     1    -118.701 -97.359  30.623  1.00  0.00     0.041 C 
ATOM      5  O   UNL     1    -118.738 -98.444  29.983  1.00  0.00    -0.550 OA
ATOM      6  O   UNL     1    -118.230 -96.210  30.001  1.00  0.00    -0.550 OA
ENDBRANCH   3   4
ENDBRANCH   2   3
ENDBRANCH   1   2
BRANCH   1   7
ATOM      7  C   UNL     1    -115.528 -97.737  33.311  1.00  0.00     0.000 C 
BRANCH   7   8
ATOM      8  C   UNL     1    -115.731 -99.254  33.157  1.00  0.00    -0.000 C 
BRANCH   8   9
ATOM      9  C   UNL     1    -115.509-100.045  34.463  1.00  0.00    -0.003 C 
ATOM     10  C   UNL     1    -115.108 -99.142  35.629  1.00  0.00     0.004 C 
ENDBRANCH   8   9
ENDBRANCH   7   8
ENDBRANCH   1   7
TORSDOF 6
ENDMDL
