MODEL 1
REMARK VINA RESULT:    -0.845      0.000      0.000
REMARK INTER + INTRA:          -3.300
REMARK INTER:                  -2.228
REMARK INTRA:                  -1.072
REMARK UNBOUND:                -1.072
REMARK SMILES CCCCCCCCCCCCCCCCCCCCCCCCCCCCCC(=O)[O-]
REMARK SMILES IDX 16 1 17 2 18 3 19 4 20 5 21 6 22 7 23 8 24 9 25 10 26 11
REMARK SMILES IDX 27 12 28 13 29 14 30 15 31 16 32 17 15 18 14 19 13 20 12 21
REMARK SMILES IDX 11 22 10 23 9 24 8 25 7 26 6 27 5 28 4 29 3 30 2 31 1 32
REMARK H PARENT
REMARK Flexibility Score: inf
ROOT
ATOM      1  C   UNL     1       5.784  -8.046  -2.192  1.00  0.00     0.000 C 
ENDROOT
BRANCH   1   2
ATOM      2  C   UNL     1       6.580  -7.892  -3.495  1.00  0.00     0.000 C 
BRANCH   2   3
ATOM      3  C   UNL     1       7.951  -8.575  -3.379  1.00  0.00     0.000 C 
BRANCH   3   4
ATOM      4  C   UNL     1       9.067  -7.791  -4.088  1.00  0.00     0.000 C 
BRANCH   4   5
ATOM      5  C   UNL     1       9.086  -8.032  -5.606  1.00  0.00     0.000 C 
BRANCH   5   6
ATOM      6  C   UNL     1       8.078  -9.119  -5.998  1.00  0.00     0.000 C 
BRANCH   6   7
ATOM      7  C   UNL     1       7.050  -8.582  -7.006  1.00  0.00     0.000 C 
BRANCH   7   8
ATOM      8  C   UNL     1       7.290  -9.122  -8.426  1.00  0.00     0.000 C 
BRANCH   8   9
ATOM      9  C   UNL     1       8.704  -8.799  -8.942  1.00  0.00     0.000 C 
BRANCH   9  10
ATOM     10  C   UNL     1       8.830  -7.363  -9.483  1.00  0.00     0.000 C 
BRANCH  10  11
ATOM     11  C   UNL     1       8.453  -6.259  -8.477  1.00  0.00     0.000 C 
BRANCH  11  12
ATOM     12  C   UNL     1       7.626  -5.127  -9.112  1.00  0.00     0.000 C 
BRANCH  12  13
ATOM     13  C   UNL     1       6.117  -5.429  -9.124  1.00  0.00     0.006 C 
BRANCH  13  14
ATOM     14  C   UNL     1       5.306  -4.544 -10.084  1.00  0.00     0.053 C 
BRANCH  14  15
ATOM     15  C   UNL     1       4.534  -3.485  -9.358  1.00  0.00     0.041 C 
ATOM     16  O   UNL     1       4.342  -3.580  -8.118  1.00  0.00    -0.550 OA
ATOM     17  O   UNL     1       4.048  -2.380 -10.046  1.00  0.00    -0.550 OA
ENDBRANCH  14  15
ENDBRANCH  13  14
ENDBRANCH  12  13
ENDBRANCH  11  12
ENDBRANCH  10  11
ENDBRANCH   9  10
ENDBRANCH   8   9
ENDBRANCH   7   8
ENDBRANCH   6   7
ENDBRANCH   5   6
ENDBRANCH   4   5
ENDBRANCH   3   4
ENDBRANCH   2   3
ENDBRANCH   1   2
BRANCH   1  18
ATOM     18  C   UNL     1       6.702  -8.431  -1.021  1.00  0.00     0.000 C 
BRANCH  18  19
ATOM     19  C   UNL     1       5.934  -9.100   0.131  1.00  0.00     0.000 C 
BRANCH  19  20
ATOM     20  C   UNL     1       5.528  -8.102   1.229  1.00  0.00     0.000 C 
BRANCH  20  21
ATOM     21  C   UNL     1       5.934  -8.565   2.640  1.00  0.00     0.000 C 
BRANCH  21  22
ATOM     22  C   UNL     1       6.016  -7.449   3.698  1.00  0.00     0.000 C 
BRANCH  22  23
ATOM     23  C   UNL     1       7.352  -7.440   4.462  1.00  0.00     0.000 C 
BRANCH  23  24
ATOM     24  C   UNL     1       7.338  -8.365   5.690  1.00  0.00    -0.000 C 
BRANCH  24  25
ATOM     25  C   UNL     1       5.948  -8.470   6.340  1.00  0.00    -0.000 C 
BRANCH  25  26
ATOM     26  C   UNL     1       5.963  -8.113   7.837  1.00  0.00    -0.000 C 
BRANCH  26  27
ATOM     27  C   UNL     1       4.965  -8.903   8.704  1.00  0.00    -0.000 C 
BRANCH  27  28
ATOM     28  C   UNL     1       4.365  -8.060   9.843  1.00  0.00    -0.000 C 
BRANCH  28  29
ATOM     29  C   UNL     1       4.715  -6.565   9.713  1.00  0.00    -0.000 C 
BRANCH  29  30
ATOM     30  C   UNL     1       3.576  -5.609  10.125  1.00  0.00    -0.000 C 
BRANCH  30  31
ATOM     31  C   UNL     1       3.451  -4.354   9.239  1.00  0.00    -0.003 C 
ATOM     32  C   UNL     1       2.821  -3.175   9.982  1.00  0.00     0.004 C 
ENDBRANCH  30  31
ENDBRANCH  29  30
ENDBRANCH  28  29
ENDBRANCH  27  28
ENDBRANCH  26  27
ENDBRANCH  25  26
ENDBRANCH  24  25
ENDBRANCH  23  24
ENDBRANCH  22  23
ENDBRANCH  21  22
ENDBRANCH  20  21
ENDBRANCH  19  20
ENDBRANCH  18  19
ENDBRANCH   1  18
TORSDOF 28
ENDMDL
MODEL 2
REMARK VINA RESULT:    -0.811      1.993      2.760
REMARK INTER + INTRA:          -3.210
REMARK INTER:                  -3.416
REMARK INTRA:                   0.205
REMARK UNBOUND:                -1.072
REMARK SMILES CCCCCCCCCCCCCCCCCCCCCCCCCCCCCC(=O)[O-]
REMARK SMILES IDX 16 1 17 2 18 3 19 4 20 5 21 6 22 7 23 8 24 9 25 10 26 11
REMARK SMILES IDX 27 12 28 13 29 14 30 15 31 16 32 17 15 18 14 19 13 20 12 21
REMARK SMILES IDX 11 22 10 23 9 24 8 25 7 26 6 27 5 28 4 29 3 30 2 31 1 32
REMARK H PARENT
REMARK Flexibility Score: inf
ROOT
ATOM      1  C   UNL     1       5.595  -8.372  -1.684  1.00  0.00     0.000 C 
ENDROOT
BRANCH   1   2
ATOM      2  C   UNL     1       6.607  -8.036  -2.788  1.00  0.00     0.000 C 
BRANCH   2   3
ATOM      3  C   UNL     1       7.919  -8.806  -2.577  1.00  0.00     0.000 C 
BRANCH   3   4
ATOM      4  C   UNL     1       9.124  -8.116  -3.234  1.00  0.00     0.000 C 
BRANCH   4   5
ATOM      5  C   UNL     1       9.015  -8.067  -4.766  1.00  0.00     0.000 C 
BRANCH   5   6
ATOM      6  C   UNL     1       7.638  -8.557  -5.230  1.00  0.00     0.000 C 
BRANCH   6   7
ATOM      7  C   UNL     1       7.272  -7.963  -6.599  1.00  0.00     0.000 C 
BRANCH   7   8
ATOM      8  C   UNL     1       8.208  -6.812  -7.004  1.00  0.00     0.000 C 
BRANCH   8   9
ATOM      9  C   UNL     1       8.106  -5.611  -6.046  1.00  0.00     0.000 C 
BRANCH   9  10
ATOM     10  C   UNL     1       6.917  -4.688  -6.369  1.00  0.00     0.000 C 
BRANCH  10  11
ATOM     11  C   UNL     1       6.036  -5.156  -7.543  1.00  0.00     0.000 C 
BRANCH  11  12
ATOM     12  C   UNL     1       6.108  -4.214  -8.758  1.00  0.00     0.000 C 
BRANCH  12  13
ATOM     13  C   UNL     1       5.804  -4.932 -10.085  1.00  0.00     0.006 C 
BRANCH  13  14
ATOM     14  C   UNL     1       6.180  -6.424 -10.093  1.00  0.00     0.053 C 
BRANCH  14  15
ATOM     15  C   UNL     1       5.000  -7.302  -9.812  1.00  0.00     0.041 C 
ATOM     16  O   UNL     1       3.831  -6.859  -9.956  1.00  0.00    -0.550 OA
ATOM     17  O   UNL     1       5.190  -8.620  -9.414  1.00  0.00    -0.550 OA
ENDBRANCH  14  15
ENDBRANCH  13  14
ENDBRANCH  12  13
ENDBRANCH  11  12
ENDBRANCH  10  11
ENDBRANCH   9  10
ENDBRANCH   8   9
ENDBRANCH   7   8
ENDBRANCH   6   7
ENDBRANCH   5   6
ENDBRANCH   4   5
ENDBRANCH   3   4
ENDBRANCH   2   3
ENDBRANCH   1   2
BRANCH   1  18
ATOM     18  C   UNL     1       6.291  -8.549  -0.325  1.00  0.00     0.000 C 
BRANCH  18  19
ATOM     19  C   UNL     1       5.340  -9.087   0.756  1.00  0.00     0.000 C 
BRANCH  19  20
ATOM     20  C   UNL     1       5.091  -8.071   1.882  1.00  0.00     0.000 C 
BRANCH  20  21
ATOM     21  C   UNL     1       5.917  -8.364   3.149  1.00  0.00     0.000 C 
BRANCH  21  22
ATOM     22  C   UNL     1       5.640  -7.431   4.343  1.00  0.00     0.000 C 
BRANCH  22  23
ATOM     23  C   UNL     1       6.450  -6.124   4.285  1.00  0.00     0.000 C 
BRANCH  23  24
ATOM     24  C   UNL     1       7.927  -6.325   4.661  1.00  0.00    -0.000 C 
BRANCH  24  25
ATOM     25  C   UNL     1       8.109  -7.234   5.889  1.00  0.00    -0.000 C 
BRANCH  25  26
ATOM     26  C   UNL     1       7.966  -6.471   7.219  1.00  0.00    -0.000 C 
BRANCH  26  27
ATOM     27  C   UNL     1       9.125  -6.673   8.212  1.00  0.00    -0.000 C 
BRANCH  27  28
ATOM     28  C   UNL     1       8.697  -6.481   9.678  1.00  0.00    -0.000 C 
BRANCH  28  29
ATOM     29  C   UNL     1       7.193  -6.174   9.814  1.00  0.00    -0.000 C 
BRANCH  29  30
ATOM     30  C   UNL     1       6.270  -7.362   9.473  1.00  0.00    -0.000 C 
BRANCH  30  31
ATOM     31  C   UNL     1       4.805  -7.172   9.911  1.00  0.00    -0.003 C 
ATOM     32  C   UNL     1       4.307  -5.744   9.681  1.00  0.00     0.004 C 
ENDBRANCH  30  31
ENDBRANCH  29  30
ENDBRANCH  28  29
ENDBRANCH  27  28
ENDBRANCH  26  27
ENDBRANCH  25  26
ENDBRANCH  24  25
ENDBRANCH  23  24
ENDBRANCH  22  23
ENDBRANCH  21  22
ENDBRANCH  20  21
ENDBRANCH  19  20
ENDBRANCH  18  19
ENDBRANCH   1  18
TORSDOF 28
ENDMDL
MODEL 3
REMARK VINA RESULT:    -0.208      1.593      2.149
REMARK INTER + INTRA:          -1.620
REMARK INTER:                  -0.902
REMARK INTRA:                  -0.718
REMARK UNBOUND:                -1.072
REMARK SMILES CCCCCCCCCCCCCCCCCCCCCCCCCCCCCC(=O)[O-]
REMARK SMILES IDX 16 1 17 2 18 3 19 4 20 5 21 6 22 7 23 8 24 9 25 10 26 11
REMARK SMILES IDX 27 12 28 13 29 14 30 15 31 16 32 17 15 18 14 19 13 20 12 21
REMARK SMILES IDX 11 22 10 23 9 24 8 25 7 26 6 27 5 28 4 29 3 30 2 31 1 32
REMARK H PARENT
REMARK Flexibility Score: inf
ROOT
ATOM      1  C   UNL     1       5.819  -8.027  -2.250  1.00  0.00     0.000 C 
ENDROOT
BRANCH   1   2
ATOM      2  C   UNL     1       6.546  -7.866  -3.592  1.00  0.00     0.000 C 
BRANCH   2   3
ATOM      3  C   UNL     1       7.627  -8.945  -3.757  1.00  0.00     0.000 C 
BRANCH   3   4
ATOM      4  C   UNL     1       8.979  -8.367  -4.204  1.00  0.00     0.000 C 
BRANCH   4   5
ATOM      5  C   UNL     1       9.125  -8.318  -5.732  1.00  0.00     0.000 C 
BRANCH   5   6
ATOM      6  C   UNL     1       7.928  -8.991  -6.416  1.00  0.00     0.000 C 
BRANCH   6   7
ATOM      7  C   UNL     1       7.013  -7.951  -7.080  1.00  0.00     0.000 C 
BRANCH   7   8
ATOM      8  C   UNL     1       6.226  -8.539  -8.264  1.00  0.00     0.000 C 
BRANCH   8   9
ATOM      9  C   UNL     1       7.151  -9.109  -9.355  1.00  0.00     0.000 C 
BRANCH   9  10
ATOM     10  C   UNL     1       7.936  -8.017 -10.105  1.00  0.00     0.000 C 
BRANCH  10  11
ATOM     11  C   UNL     1       8.535  -6.919  -9.204  1.00  0.00     0.000 C 
BRANCH  11  12
ATOM     12  C   UNL     1       8.296  -5.500  -9.749  1.00  0.00     0.000 C 
BRANCH  12  13
ATOM     13  C   UNL     1       7.349  -4.674  -8.859  1.00  0.00     0.006 C 
BRANCH  13  14
ATOM     14  C   UNL     1       7.457  -4.994  -7.359  1.00  0.00     0.053 C 
BRANCH  14  15
ATOM     15  C   UNL     1       6.149  -4.820  -6.651  1.00  0.00     0.041 C 
ATOM     16  O   UNL     1       6.111  -4.285  -5.512  1.00  0.00    -0.550 OA
ATOM     17  O   UNL     1       4.967  -5.226  -7.259  1.00  0.00    -0.550 OA
ENDBRANCH  14  15
ENDBRANCH  13  14
ENDBRANCH  12  13
ENDBRANCH  11  12
ENDBRANCH  10  11
ENDBRANCH   9  10
ENDBRANCH   8   9
ENDBRANCH   7   8
ENDBRANCH   6   7
ENDBRANCH   5   6
ENDBRANCH   4   5
ENDBRANCH   3   4
ENDBRANCH   2   3
ENDBRANCH   1   2
BRANCH   1  18
ATOM     18  C   UNL     1       6.725  -8.688  -1.201  1.00  0.00     0.000 C 
BRANCH  18  19
ATOM     19  C   UNL     1       5.949  -9.125   0.053  1.00  0.00     0.000 C 
BRANCH  19  20
ATOM     20  C   UNL     1       5.941  -8.047   1.149  1.00  0.00     0.000 C 
BRANCH  20  21
ATOM     21  C   UNL     1       6.505  -8.550   2.491  1.00  0.00     0.000 C 
BRANCH  21  22
ATOM     22  C   UNL     1       6.964  -7.448   3.464  1.00  0.00     0.000 C 
BRANCH  22  23
ATOM     23  C   UNL     1       8.494  -7.364   3.599  1.00  0.00     0.000 C 
BRANCH  23  24
ATOM     24  C   UNL     1       9.033  -8.205   4.769  1.00  0.00    -0.000 C 
BRANCH  24  25
ATOM     25  C   UNL     1       8.001  -8.388   5.894  1.00  0.00    -0.000 C 
BRANCH  25  26
ATOM     26  C   UNL     1       8.504  -7.867   7.253  1.00  0.00    -0.000 C 
BRANCH  26  27
ATOM     27  C   UNL     1       8.378  -8.864   8.419  1.00  0.00    -0.000 C 
BRANCH  27  28
ATOM     28  C   UNL     1       8.140  -8.173   9.773  1.00  0.00    -0.000 C 
BRANCH  28  29
ATOM     29  C   UNL     1       8.128  -6.636   9.653  1.00  0.00    -0.000 C 
BRANCH  29  30
ATOM     30  C   UNL     1       6.818  -5.974  10.125  1.00  0.00    -0.000 C 
BRANCH  30  31
ATOM     31  C   UNL     1       5.544  -6.568   9.493  1.00  0.00    -0.003 C 
ATOM     32  C   UNL     1       4.282  -5.797   9.882  1.00  0.00     0.004 C 
ENDBRANCH  30  31
ENDBRANCH  29  30
ENDBRANCH  28  29
ENDBRANCH  27  28
ENDBRANCH  26  27
ENDBRANCH  25  26
ENDBRANCH  24  25
ENDBRANCH  23  24
ENDBRANCH  22  23
ENDBRANCH  21  22
ENDBRANCH  20  21
ENDBRANCH  19  20
ENDBRANCH  18  19
ENDBRANCH   1  18
TORSDOF 28
ENDMDL
MODEL 4
REMARK VINA RESULT:     0.577     10.034     17.152
REMARK INTER + INTRA:           0.450
REMARK INTER:                   1.063
REMARK INTRA:                  -0.613
REMARK UNBOUND:                -1.072
REMARK SMILES CCCCCCCCCCCCCCCCCCCCCCCCCCCCCC(=O)[O-]
REMARK SMILES IDX 16 1 17 2 18 3 19 4 20 5 21 6 22 7 23 8 24 9 25 10 26 11
REMARK SMILES IDX 27 12 28 13 29 14 30 15 31 16 32 17 15 18 14 19 13 20 12 21
REMARK SMILES IDX 11 22 10 23 9 24 8 25 7 26 6 27 5 28 4 29 3 30 2 31 1 32
REMARK H PARENT
REMARK Flexibility Score: inf
ROOT
ATOM      1  C   UNL     1       5.047   2.995  10.056  1.00  0.00     0.000 C 
ENDROOT
BRANCH   1   2
ATOM      2  C   UNL     1       5.684   1.603   9.937  1.00  0.00     0.000 C 
BRANCH   2   3
ATOM      3  C   UNL     1       4.697   0.604   9.317  1.00  0.00     0.000 C 
BRANCH   3   4
ATOM      4  C   UNL     1       4.880  -0.823   9.856  1.00  0.00     0.000 C 
BRANCH   4   5
ATOM      5  C   UNL     1       3.685  -1.735   9.533  1.00  0.00     0.000 C 
BRANCH   5   6
ATOM      6  C   UNL     1       3.892  -3.134  10.125  1.00  0.00     0.000 C 
BRANCH   6   7
ATOM      7  C   UNL     1       3.068  -4.184   9.363  1.00  0.00     0.000 C 
BRANCH   7   8
ATOM      8  C   UNL     1       3.702  -5.584   9.431  1.00  0.00     0.000 C 
BRANCH   8   9
ATOM      9  C   UNL     1       5.129  -5.551  10.008  1.00  0.00     0.000 C 
BRANCH   9  10
ATOM     10  C   UNL     1       6.102  -6.475   9.252  1.00  0.00     0.000 C 
BRANCH  10  11
ATOM     11  C   UNL     1       5.886  -7.981   9.500  1.00  0.00     0.000 C 
BRANCH  11  12
ATOM     12  C   UNL     1       4.967  -8.635   8.453  1.00  0.00     0.000 C 
BRANCH  12  13
ATOM     13  C   UNL     1       5.593  -8.660   7.047  1.00  0.00     0.006 C 
BRANCH  13  14
ATOM     14  C   UNL     1       7.029  -8.113   6.988  1.00  0.00     0.053 C 
BRANCH  14  15
ATOM     15  C   UNL     1       7.230  -7.184   5.831  1.00  0.00     0.041 C 
ATOM     16  O   UNL     1       6.256  -6.858   5.103  1.00  0.00    -0.550 OA
ATOM     17  O   UNL     1       8.489  -6.658   5.569  1.00  0.00    -0.550 OA
ENDBRANCH  14  15
ENDBRANCH  13  14
ENDBRANCH  12  13
ENDBRANCH  11  12
ENDBRANCH  10  11
ENDBRANCH   9  10
ENDBRANCH   8   9
ENDBRANCH   7   8
ENDBRANCH   6   7
ENDBRANCH   5   6
ENDBRANCH   4   5
ENDBRANCH   3   4
ENDBRANCH   2   3
ENDBRANCH   1   2
BRANCH   1  18
ATOM     18  C   UNL     1       6.118   4.094  10.124  1.00  0.00     0.000 C 
BRANCH  18  19
ATOM     19  C   UNL     1       5.692   5.375   9.387  1.00  0.00     0.000 C 
BRANCH  19  20
ATOM     20  C   UNL     1       6.866   6.062   8.670  1.00  0.00     0.000 C 
BRANCH  20  21
ATOM     21  C   UNL     1       7.946   6.574   9.641  1.00  0.00     0.000 C 
BRANCH  21  22
ATOM     22  C   UNL     1       7.848   8.069  10.001  1.00  0.00     0.000 C 
BRANCH  22  23
ATOM     23  C   UNL     1       6.969   8.867   9.021  1.00  0.00     0.000 C 
BRANCH  23  24
ATOM     24  C   UNL     1       6.510  10.215   9.601  1.00  0.00    -0.000 C 
BRANCH  24  25
ATOM     25  C   UNL     1       5.615  11.006   8.632  1.00  0.00    -0.000 C 
BRANCH  25  26
ATOM     26  C   UNL     1       5.949  10.728   7.155  1.00  0.00    -0.000 C 
BRANCH  26  27
ATOM     27  C   UNL     1       7.377  11.111   6.728  1.00  0.00    -0.000 C 
BRANCH  27  28
ATOM     28  C   UNL     1       7.905  10.252   5.566  1.00  0.00    -0.000 C 
BRANCH  28  29
ATOM     29  C   UNL     1       6.808   9.927   4.532  1.00  0.00    -0.000 C 
BRANCH  29  30
ATOM     30  C   UNL     1       6.473   8.427   4.413  1.00  0.00    -0.000 C 
BRANCH  30  31
ATOM     31  C   UNL     1       6.083   7.757   5.745  1.00  0.00    -0.003 C 
ATOM     32  C   UNL     1       6.169   6.231   5.680  1.00  0.00     0.004 C 
ENDBRANCH  30  31
ENDBRANCH  29  30
ENDBRANCH  28  29
ENDBRANCH  27  28
ENDBRANCH  26  27
ENDBRANCH  25  26
ENDBRANCH  24  25
ENDBRANCH  23  24
ENDBRANCH  22  23
ENDBRANCH  21  22
ENDBRANCH  20  21
ENDBRANCH  19  20
ENDBRANCH  18  19
ENDBRANCH   1  18
TORSDOF 28
ENDMDL
MODEL 5
REMARK VINA RESULT:     1.090      7.191     13.283
REMARK INTER + INTRA:           1.802
REMARK INTER:                   2.572
REMARK INTRA:                  -0.770
REMARK UNBOUND:                -1.072
REMARK SMILES CCCCCCCCCCCCCCCCCCCCCCCCCCCCCC(=O)[O-]
REMARK SMILES IDX 16 1 17 2 18 3 19 4 20 5 21 6 22 7 23 8 24 9 25 10 26 11
REMARK SMILES IDX 27 12 28 13 29 14 30 15 31 16 32 17 15 18 14 19 13 20 12 21
REMARK SMILES IDX 11 22 10 23 9 24 8 25 7 26 6 27 5 28 4 29 3 30 2 31 1 32
REMARK H PARENT
REMARK Flexibility Score: inf
ROOT
ATOM      1  C   UNL     1       3.166  -4.861   9.529  1.00  0.00     0.000 C 
ENDROOT
BRANCH   1   2
ATOM      2  C   UNL     1       4.087  -6.089   9.548  1.00  0.00     0.000 C 
BRANCH   2   3
ATOM      3  C   UNL     1       5.552  -5.673   9.345  1.00  0.00     0.000 C 
BRANCH   3   4
ATOM      4  C   UNL     1       6.536  -6.573  10.109  1.00  0.00     0.000 C 
BRANCH   4   5
ATOM      5  C   UNL     1       6.167  -8.062  10.018  1.00  0.00     0.000 C 
BRANCH   5   6
ATOM      6  C   UNL     1       6.825  -8.712   8.794  1.00  0.00     0.000 C 
BRANCH   6   7
ATOM      7  C   UNL     1       5.801  -8.936   7.670  1.00  0.00     0.000 C 
BRANCH   7   8
ATOM      8  C   UNL     1       5.490  -7.642   6.899  1.00  0.00     0.000 C 
BRANCH   8   9
ATOM      9  C   UNL     1       6.101  -7.642   5.486  1.00  0.00     0.000 C 
BRANCH   9  10
ATOM     10  C   UNL     1       7.598  -7.285   5.481  1.00  0.00     0.000 C 
BRANCH  10  11
ATOM     11  C   UNL     1       8.451  -8.092   4.483  1.00  0.00     0.000 C 
BRANCH  11  12
ATOM     12  C   UNL     1       7.625  -9.106   3.673  1.00  0.00     0.000 C 
BRANCH  12  13
ATOM     13  C   UNL     1       7.086  -8.516   2.357  1.00  0.00     0.006 C 
BRANCH  13  14
ATOM     14  C   UNL     1       5.716  -7.830   2.490  1.00  0.00     0.053 C 
BRANCH  14  15
ATOM     15  C   UNL     1       4.731  -8.341   1.485  1.00  0.00     0.041 C 
ATOM     16  O   UNL     1       3.512  -8.044   1.586  1.00  0.00    -0.550 OA
ATOM     17  O   UNL     1       5.161  -9.125   0.422  1.00  0.00    -0.550 OA
ENDBRANCH  14  15
ENDBRANCH  13  14
ENDBRANCH  12  13
ENDBRANCH  11  12
ENDBRANCH  10  11
ENDBRANCH   9  10
ENDBRANCH   8   9
ENDBRANCH   7   8
ENDBRANCH   6   7
ENDBRANCH   5   6
ENDBRANCH   4   5
ENDBRANCH   3   4
ENDBRANCH   2   3
ENDBRANCH   1   2
BRANCH   1  18
ATOM     18  C   UNL     1       3.868  -3.628  10.119  1.00  0.00     0.000 C 
BRANCH  18  19
ATOM     19  C   UNL     1       3.024  -2.351   9.981  1.00  0.00     0.000 C 
BRANCH  19  20
ATOM     20  C   UNL     1       3.863  -1.070  10.123  1.00  0.00     0.000 C 
BRANCH  20  21
ATOM     21  C   UNL     1       4.257  -0.457   8.766  1.00  0.00     0.000 C 
BRANCH  21  22
ATOM     22  C   UNL     1       5.430   0.541   8.814  1.00  0.00     0.000 C 
BRANCH  22  23
ATOM     23  C   UNL     1       5.453   1.380  10.104  1.00  0.00     0.000 C 
BRANCH  23  24
ATOM     24  C   UNL     1       5.028   2.840   9.869  1.00  0.00    -0.000 C 
BRANCH  24  25
ATOM     25  C   UNL     1       6.182   3.835  10.076  1.00  0.00    -0.000 C 
BRANCH  25  26
ATOM     26  C   UNL     1       5.718   5.303  10.020  1.00  0.00    -0.000 C 
BRANCH  26  27
ATOM     27  C   UNL     1       6.604   6.232   9.171  1.00  0.00    -0.000 C 
BRANCH  27  28
ATOM     28  C   UNL     1       5.866   6.813   7.953  1.00  0.00    -0.000 C 
BRANCH  28  29
ATOM     29  C   UNL     1       6.561   6.459   6.623  1.00  0.00    -0.000 C 
BRANCH  29  30
ATOM     30  C   UNL     1       6.268   7.443   5.473  1.00  0.00    -0.000 C 
BRANCH  30  31
ATOM     31  C   UNL     1       6.960   8.812   5.619  1.00  0.00    -0.003 C 
ATOM     32  C   UNL     1       6.037   9.873   6.220  1.00  0.00     0.004 C 
ENDBRANCH  30  31
ENDBRANCH  29  30
ENDBRANCH  28  29
ENDBRANCH  27  28
ENDBRANCH  26  27
ENDBRANCH  25  26
ENDBRANCH  24  25
ENDBRANCH  23  24
ENDBRANCH  22  23
ENDBRANCH  21  22
ENDBRANCH  20  21
ENDBRANCH  19  20
ENDBRANCH  18  19
ENDBRANCH   1  18
TORSDOF 28
ENDMDL
MODEL 6
REMARK VINA RESULT:     1.905     13.383     18.386
REMARK INTER + INTRA:           3.952
REMARK INTER:                   5.848
REMARK INTRA:                  -1.896
REMARK UNBOUND:                -1.072
REMARK SMILES CCCCCCCCCCCCCCCCCCCCCCCCCCCCCC(=O)[O-]
REMARK SMILES IDX 16 1 17 2 18 3 19 4 20 5 21 6 22 7 23 8 24 9 25 10 26 11
REMARK SMILES IDX 27 12 28 13 29 14 30 15 31 16 32 17 15 18 14 19 13 20 12 21
REMARK SMILES IDX 11 22 10 23 9 24 8 25 7 26 6 27 5 28 4 29 3 30 2 31 1 32
REMARK H PARENT
REMARK Flexibility Score: inf
ROOT
ATOM      1  C   UNL     1       5.285   4.174  10.121  1.00  0.00     0.000 C 
ENDROOT
BRANCH   1   2
ATOM      2  C   UNL     1       6.108   5.230   9.369  1.00  0.00     0.000 C 
BRANCH   2   3
ATOM      3  C   UNL     1       7.421   5.524  10.109  1.00  0.00     0.000 C 
BRANCH   3   4
ATOM      4  C   UNL     1       7.772   7.020  10.121  1.00  0.00     0.000 C 
BRANCH   4   5
ATOM      5  C   UNL     1       6.528   7.920  10.068  1.00  0.00     0.000 C 
BRANCH   5   6
ATOM      6  C   UNL     1       6.927   9.392   9.900  1.00  0.00     0.000 C 
BRANCH   6   7
ATOM      7  C   UNL     1       5.840  10.177   9.149  1.00  0.00     0.000 C 
BRANCH   7   8
ATOM      8  C   UNL     1       6.326  10.678   7.778  1.00  0.00     0.000 C 
BRANCH   8   9
ATOM      9  C   UNL     1       7.857  10.828   7.720  1.00  0.00     0.000 C 
BRANCH   9  10
ATOM     10  C   UNL     1       8.400  10.872   6.280  1.00  0.00     0.000 C 
BRANCH  10  11
ATOM     11  C   UNL     1       7.334  11.123   5.196  1.00  0.00     0.000 C 
BRANCH  11  12
ATOM     12  C   UNL     1       7.231   9.972   4.180  1.00  0.00     0.000 C 
BRANCH  12  13
ATOM     13  C   UNL     1       6.337   8.821   4.675  1.00  0.00     0.006 C 
BRANCH  13  14
ATOM     14  C   UNL     1       7.114   7.606   5.208  1.00  0.00     0.053 C 
BRANCH  14  15
ATOM     15  C   UNL     1       6.329   6.840   6.229  1.00  0.00     0.041 C 
ATOM     16  O   UNL     1       6.547   5.612   6.404  1.00  0.00    -0.550 OA
ATOM     17  O   UNL     1       5.374   7.486   7.004  1.00  0.00    -0.550 OA
ENDBRANCH  14  15
ENDBRANCH  13  14
ENDBRANCH  12  13
ENDBRANCH  11  12
ENDBRANCH  10  11
ENDBRANCH   9  10
ENDBRANCH   8   9
ENDBRANCH   7   8
ENDBRANCH   6   7
ENDBRANCH   5   6
ENDBRANCH   4   5
ENDBRANCH   3   4
ENDBRANCH   2   3
ENDBRANCH   1   2
BRANCH   1  18
ATOM     18  C   UNL     1       5.768   2.753   9.792  1.00  0.00     0.000 C 
BRANCH  18  19
ATOM     19  C   UNL     1       4.946   2.099   8.669  1.00  0.00     0.000 C 
BRANCH  19  20
ATOM     20  C   UNL     1       5.466   2.462   7.268  1.00  0.00     0.000 C 
BRANCH  20  21
ATOM     21  C   UNL     1       4.336   2.651   6.239  1.00  0.00     0.000 C 
BRANCH  21  22
ATOM     22  C   UNL     1       4.756   3.331   4.922  1.00  0.00     0.000 C 
BRANCH  22  23
ATOM     23  C   UNL     1       3.585   4.022   4.202  1.00  0.00     0.000 C 
BRANCH  23  24
ATOM     24  C   UNL     1       3.672   3.895   2.672  1.00  0.00    -0.000 C 
BRANCH  24  25
ATOM     25  C   UNL     1       3.433   5.232   1.950  1.00  0.00    -0.000 C 
BRANCH  25  26
ATOM     26  C   UNL     1       1.949   5.467   1.611  1.00  0.00    -0.000 C 
BRANCH  26  27
ATOM     27  C   UNL     1       1.583   5.276   0.128  1.00  0.00    -0.000 C 
BRANCH  27  28
ATOM     28  C   UNL     1       0.065   5.299  -0.122  1.00  0.00    -0.000 C 
BRANCH  28  29
ATOM     29  C   UNL     1      -0.444   3.991  -0.760  1.00  0.00    -0.000 C 
BRANCH  29  30
ATOM     30  C   UNL     1      -1.873   3.595  -0.338  1.00  0.00    -0.000 C 
BRANCH  30  31
ATOM     31  C   UNL     1      -2.313   4.164   1.025  1.00  0.00    -0.003 C 
ATOM     32  C   UNL     1      -3.503   5.117   0.904  1.00  0.00     0.004 C 
ENDBRANCH  30  31
ENDBRANCH  29  30
ENDBRANCH  28  29
ENDBRANCH  27  28
ENDBRANCH  26  27
ENDBRANCH  25  26
ENDBRANCH  24  25
ENDBRANCH  23  24
ENDBRANCH  22  23
ENDBRANCH  21  22
ENDBRANCH  20  21
ENDBRANCH  19  20
ENDBRANCH  18  19
ENDBRANCH   1  18
TORSDOF 28
ENDMDL
