MODEL 1
REMARK VINA RESULT:    -5.065      0.000      0.000
REMARK INTER + INTRA:         -15.738
REMARK INTER:                 -12.762
REMARK INTRA:                  -2.975
REMARK UNBOUND:                -2.975
REMARK SMILES CCCCCCCCCCCCCCCCCCCCCCCCCCCC(=O)[O-]
REMARK SMILES IDX 15 1 16 2 17 3 18 4 19 5 20 6 21 7 22 8 23 9 24 10 25 11
REMARK SMILES IDX 26 12 27 13 28 14 29 15 30 16 14 17 13 18 12 19 11 20 10 21
REMARK SMILES IDX 9 22 8 23 7 24 6 25 5 26 4 27 3 28 2 29 1 30
REMARK H PARENT
REMARK Flexibility Score: inf
ROOT
ATOM      1  C   UNL     1     -15.490 -11.993  18.512  1.00  0.00     0.000 C 
ENDROOT
BRANCH   1   2
ATOM      2  C   UNL     1     -16.659 -12.601  19.316  1.00  0.00     0.000 C 
BRANCH   2   3
ATOM      3  C   UNL     1     -16.544 -12.334  20.827  1.00  0.00     0.000 C 
BRANCH   3   4
ATOM      4  C   UNL     1     -16.377 -10.839  21.159  1.00  0.00     0.000 C 
BRANCH   4   5
ATOM      5  C   UNL     1     -15.158 -10.495  22.037  1.00  0.00     0.000 C 
BRANCH   5   6
ATOM      6  C   UNL     1     -13.991  -9.907  21.226  1.00  0.00     0.000 C 
BRANCH   6   7
ATOM      7  C   UNL     1     -12.731 -10.793  21.251  1.00  0.00     0.000 C 
BRANCH   7   8
ATOM      8  C   UNL     1     -12.975 -12.276  21.585  1.00  0.00     0.000 C 
BRANCH   8   9
ATOM      9  C   UNL     1     -12.228 -12.741  22.846  1.00  0.00     0.000 C 
BRANCH   9  10
ATOM     10  C   UNL     1     -10.873 -12.033  23.013  1.00  0.00     0.000 C 
BRANCH  10  11
ATOM     11  C   UNL     1      -9.738 -12.779  22.296  1.00  0.00     0.000 C 
BRANCH  11  12
ATOM     12  C   UNL     1      -9.090 -11.896  21.222  1.00  0.00     0.006 C 
BRANCH  12  13
ATOM     13  C   UNL     1      -7.569 -11.847  21.399  1.00  0.00     0.053 C 
BRANCH  13  14
ATOM     14  C   UNL     1      -6.876 -12.474  20.230  1.00  0.00     0.041 C 
ATOM     15  O   UNL     1      -6.722 -13.723  20.183  1.00  0.00    -0.550 OA
ATOM     16  O   UNL     1      -6.401 -11.682  19.191  1.00  0.00    -0.550 OA
ENDBRANCH  13  14
ENDBRANCH  12  13
ENDBRANCH  11  12
ENDBRANCH  10  11
ENDBRANCH   9  10
ENDBRANCH   8   9
ENDBRANCH   7   8
ENDBRANCH   6   7
ENDBRANCH   5   6
ENDBRANCH   4   5
ENDBRANCH   3   4
ENDBRANCH   2   3
ENDBRANCH   1   2
BRANCH   1  17
ATOM     17  C   UNL     1     -15.100 -12.800  17.258  1.00  0.00     0.000 C 
BRANCH  17  18
ATOM     18  C   UNL     1     -16.172 -13.779  16.745  1.00  0.00     0.000 C 
BRANCH  18  19
ATOM     19  C   UNL     1     -16.537 -13.633  15.253  1.00  0.00     0.000 C 
BRANCH  19  20
ATOM     20  C   UNL     1     -15.901 -12.425  14.542  1.00  0.00     0.000 C 
BRANCH  20  21
ATOM     21  C   UNL     1     -15.479 -12.734  13.099  1.00  0.00     0.000 C 
BRANCH  21  22
ATOM     22  C   UNL     1     -14.254 -11.898  12.703  1.00  0.00    -0.000 C 
BRANCH  22  23
ATOM     23  C   UNL     1     -13.088 -12.027  13.701  1.00  0.00    -0.000 C 
BRANCH  23  24
ATOM     24  C   UNL     1     -12.738 -13.470  14.119  1.00  0.00    -0.000 C 
BRANCH  24  25
ATOM     25  C   UNL     1     -12.231 -13.624  15.564  1.00  0.00    -0.000 C 
BRANCH  25  26
ATOM     26  C   UNL     1     -10.971 -12.788  15.846  1.00  0.00    -0.000 C 
BRANCH  26  27
ATOM     27  C   UNL     1      -9.678 -13.495  15.400  1.00  0.00    -0.000 C 
BRANCH  27  28
ATOM     28  C   UNL     1      -8.652 -12.587  14.691  1.00  0.00    -0.000 C 
BRANCH  28  29
ATOM     29  C   UNL     1      -9.244 -11.328  14.032  1.00  0.00    -0.003 C 
ATOM     30  C   UNL     1      -8.301 -10.126  14.088  1.00  0.00     0.004 C 
ENDBRANCH  28  29
ENDBRANCH  27  28
ENDBRANCH  26  27
ENDBRANCH  25  26
ENDBRANCH  24  25
ENDBRANCH  23  24
ENDBRANCH  22  23
ENDBRANCH  21  22
ENDBRANCH  20  21
ENDBRANCH  19  20
ENDBRANCH  18  19
ENDBRANCH  17  18
ENDBRANCH   1  17
TORSDOF 26
ENDMDL
MODEL 2
REMARK VINA RESULT:    -5.057      2.676      3.905
REMARK INTER + INTRA:         -15.720
REMARK INTER:                 -12.536
REMARK INTRA:                  -3.184
REMARK UNBOUND:                -2.975
REMARK SMILES CCCCCCCCCCCCCCCCCCCCCCCCCCCC(=O)[O-]
REMARK SMILES IDX 15 1 16 2 17 3 18 4 19 5 20 6 21 7 22 8 23 9 24 10 25 11
REMARK SMILES IDX 26 12 27 13 28 14 29 15 30 16 14 17 13 18 12 19 11 20 10 21
REMARK SMILES IDX 9 22 8 23 7 24 6 25 5 26 4 27 3 28 2 29 1 30
REMARK H PARENT
REMARK Flexibility Score: inf
ROOT
ATOM      1  C   UNL     1     -15.412 -12.203  18.407  1.00  0.00     0.000 C 
ENDROOT
BRANCH   1   2
ATOM      2  C   UNL     1     -16.658 -12.749  19.139  1.00  0.00     0.000 C 
BRANCH   2   3
ATOM      3  C   UNL     1     -16.818 -12.167  20.555  1.00  0.00     0.000 C 
BRANCH   3   4
ATOM      4  C   UNL     1     -16.954 -10.633  20.560  1.00  0.00     0.000 C 
BRANCH   4   5
ATOM      5  C   UNL     1     -18.354 -10.101  20.921  1.00  0.00     0.000 C 
BRANCH   5   6
ATOM      6  C   UNL     1     -19.139 -11.063  21.830  1.00  0.00     0.000 C 
BRANCH   6   7
ATOM      7  C   UNL     1     -19.315 -10.531  23.264  1.00  0.00     0.000 C 
BRANCH   7   8
ATOM      8  C   UNL     1     -18.016 -10.102  23.971  1.00  0.00     0.000 C 
BRANCH   8   9
ATOM      9  C   UNL     1     -17.334 -11.253  24.730  1.00  0.00     0.000 C 
BRANCH   9  10
ATOM     10  C   UNL     1     -15.802 -11.202  24.607  1.00  0.00     0.000 C 
BRANCH  10  11
ATOM     11  C   UNL     1     -15.331 -10.053  23.705  1.00  0.00     0.000 C 
BRANCH  11  12
ATOM     12  C   UNL     1     -13.831 -10.166  23.404  1.00  0.00     0.006 C 
BRANCH  12  13
ATOM     13  C   UNL     1     -13.596 -10.779  22.020  1.00  0.00     0.053 C 
BRANCH  13  14
ATOM     14  C   UNL     1     -13.179 -12.211  22.136  1.00  0.00     0.041 C 
ATOM     15  O   UNL     1     -13.357 -13.000  21.171  1.00  0.00    -0.550 OA
ATOM     16  O   UNL     1     -12.593 -12.677  23.308  1.00  0.00    -0.550 OA
ENDBRANCH  13  14
ENDBRANCH  12  13
ENDBRANCH  11  12
ENDBRANCH  10  11
ENDBRANCH   9  10
ENDBRANCH   8   9
ENDBRANCH   7   8
ENDBRANCH   6   7
ENDBRANCH   5   6
ENDBRANCH   4   5
ENDBRANCH   3   4
ENDBRANCH   2   3
ENDBRANCH   1   2
BRANCH   1  17
ATOM     17  C   UNL     1     -15.027 -12.996  17.143  1.00  0.00     0.000 C 
BRANCH  17  18
ATOM     18  C   UNL     1     -16.082 -14.002  16.649  1.00  0.00     0.000 C 
BRANCH  18  19
ATOM     19  C   UNL     1     -16.767 -13.636  15.315  1.00  0.00     0.000 C 
BRANCH  19  20
ATOM     20  C   UNL     1     -16.061 -12.538  14.501  1.00  0.00     0.000 C 
BRANCH  20  21
ATOM     21  C   UNL     1     -15.735 -12.974  13.065  1.00  0.00     0.000 C 
BRANCH  21  22
ATOM     22  C   UNL     1     -14.534 -13.929  13.049  1.00  0.00    -0.000 C 
BRANCH  22  23
ATOM     23  C   UNL     1     -13.330 -13.398  13.847  1.00  0.00    -0.000 C 
BRANCH  23  24
ATOM     24  C   UNL     1     -12.637 -14.434  14.756  1.00  0.00    -0.000 C 
BRANCH  24  25
ATOM     25  C   UNL     1     -11.140 -14.178  15.013  1.00  0.00    -0.000 C 
BRANCH  25  26
ATOM     26  C   UNL     1     -10.885 -12.894  15.820  1.00  0.00    -0.000 C 
BRANCH  26  27
ATOM     27  C   UNL     1      -9.446 -12.371  15.663  1.00  0.00    -0.000 C 
BRANCH  27  28
ATOM     28  C   UNL     1      -9.199 -11.515  14.404  1.00  0.00    -0.000 C 
BRANCH  28  29
ATOM     29  C   UNL     1      -7.872 -10.733  14.399  1.00  0.00    -0.003 C 
ATOM     30  C   UNL     1      -6.669 -11.601  14.031  1.00  0.00     0.004 C 
ENDBRANCH  28  29
ENDBRANCH  27  28
ENDBRANCH  26  27
ENDBRANCH  25  26
ENDBRANCH  24  25
ENDBRANCH  23  24
ENDBRANCH  22  23
ENDBRANCH  21  22
ENDBRANCH  20  21
ENDBRANCH  19  20
ENDBRANCH  18  19
ENDBRANCH  17  18
ENDBRANCH   1  17
TORSDOF 26
ENDMDL
MODEL 3
REMARK VINA RESULT:    -5.041      2.717      8.013
REMARK INTER + INTRA:         -15.679
REMARK INTER:                 -12.579
REMARK INTRA:                  -3.101
REMARK UNBOUND:                -2.975
REMARK SMILES CCCCCCCCCCCCCCCCCCCCCCCCCCCC(=O)[O-]
REMARK SMILES IDX 15 1 16 2 17 3 18 4 19 5 20 6 21 7 22 8 23 9 24 10 25 11
REMARK SMILES IDX 26 12 27 13 28 14 29 15 30 16 14 17 13 18 12 19 11 20 10 21
REMARK SMILES IDX 9 22 8 23 7 24 6 25 5 26 4 27 3 28 2 29 1 30
REMARK H PARENT
REMARK Flexibility Score: inf
ROOT
ATOM      1  C   UNL     1     -17.908 -10.838  20.888  1.00  0.00     0.000 C 
ENDROOT
BRANCH   1   2
ATOM      2  C   UNL     1     -17.098 -12.144  20.742  1.00  0.00     0.000 C 
BRANCH   2   3
ATOM      3  C   UNL     1     -16.861 -12.536  19.272  1.00  0.00     0.000 C 
BRANCH   3   4
ATOM      4  C   UNL     1     -15.484 -12.086  18.748  1.00  0.00     0.000 C 
BRANCH   4   5
ATOM      5  C   UNL     1     -14.909 -12.939  17.601  1.00  0.00     0.000 C 
BRANCH   5   6
ATOM      6  C   UNL     1     -15.967 -13.846  16.948  1.00  0.00     0.000 C 
BRANCH   6   7
ATOM      7  C   UNL     1     -16.155 -13.569  15.445  1.00  0.00     0.000 C 
BRANCH   7   8
ATOM      8  C   UNL     1     -15.107 -12.635  14.811  1.00  0.00     0.000 C 
BRANCH   8   9
ATOM      9  C   UNL     1     -14.158 -13.362  13.843  1.00  0.00     0.000 C 
BRANCH   9  10
ATOM     10  C   UNL     1     -13.120 -14.222  14.583  1.00  0.00     0.000 C 
BRANCH  10  11
ATOM     11  C   UNL     1     -12.077 -13.366  15.316  1.00  0.00     0.000 C 
BRANCH  11  12
ATOM     12  C   UNL     1     -10.653 -13.844  15.005  1.00  0.00     0.006 C 
BRANCH  12  13
ATOM     13  C   UNL     1      -9.615 -12.977  15.723  1.00  0.00     0.053 C 
BRANCH  13  14
ATOM     14  C   UNL     1      -8.837 -12.156  14.744  1.00  0.00     0.041 C 
ATOM     15  O   UNL     1      -9.362 -11.143  14.211  1.00  0.00    -0.550 OA
ATOM     16  O   UNL     1      -7.532 -12.507  14.417  1.00  0.00    -0.550 OA
ENDBRANCH  13  14
ENDBRANCH  12  13
ENDBRANCH  11  12
ENDBRANCH  10  11
ENDBRANCH   9  10
ENDBRANCH   8   9
ENDBRANCH   7   8
ENDBRANCH   6   7
ENDBRANCH   5   6
ENDBRANCH   4   5
ENDBRANCH   3   4
ENDBRANCH   2   3
ENDBRANCH   1   2
BRANCH   1  17
ATOM     17  C   UNL     1     -19.360 -10.938  20.381  1.00  0.00     0.000 C 
BRANCH  17  18
ATOM     18  C   UNL     1     -20.429 -10.356  21.324  1.00  0.00     0.000 C 
BRANCH  18  19
ATOM     19  C   UNL     1     -20.574 -11.077  22.680  1.00  0.00     0.000 C 
BRANCH  19  20
ATOM     20  C   UNL     1     -21.105 -10.204  23.829  1.00  0.00     0.000 C 
BRANCH  20  21
ATOM     21  C   UNL     1     -20.001  -9.741  24.789  1.00  0.00     0.000 C 
BRANCH  21  22
ATOM     22  C   UNL     1     -18.697 -10.504  24.522  1.00  0.00    -0.000 C 
BRANCH  22  23
ATOM     23  C   UNL     1     -17.484  -9.576  24.325  1.00  0.00    -0.000 C 
BRANCH  23  24
ATOM     24  C   UNL     1     -16.110 -10.228  24.584  1.00  0.00    -0.000 C 
BRANCH  24  25
ATOM     25  C   UNL     1     -14.900  -9.416  24.089  1.00  0.00    -0.000 C 
BRANCH  25  26
ATOM     26  C   UNL     1     -14.316  -9.959  22.774  1.00  0.00    -0.000 C 
BRANCH  26  27
ATOM     27  C   UNL     1     -13.484 -11.238  22.978  1.00  0.00    -0.000 C 
BRANCH  27  28
ATOM     28  C   UNL     1     -13.870 -12.418  22.062  1.00  0.00    -0.000 C 
BRANCH  28  29
ATOM     29  C   UNL     1     -12.724 -12.973  21.198  1.00  0.00    -0.003 C 
ATOM     30  C   UNL     1     -11.962 -11.882  20.446  1.00  0.00     0.004 C 
ENDBRANCH  28  29
ENDBRANCH  27  28
ENDBRANCH  26  27
ENDBRANCH  25  26
ENDBRANCH  24  25
ENDBRANCH  23  24
ENDBRANCH  22  23
ENDBRANCH  21  22
ENDBRANCH  20  21
ENDBRANCH  19  20
ENDBRANCH  18  19
ENDBRANCH  17  18
ENDBRANCH   1  17
TORSDOF 26
ENDMDL
MODEL 4
REMARK VINA RESULT:    -5.022      2.273      7.711
REMARK INTER + INTRA:         -15.632
REMARK INTER:                 -12.651
REMARK INTRA:                  -2.981
REMARK UNBOUND:                -2.975
REMARK SMILES CCCCCCCCCCCCCCCCCCCCCCCCCCCC(=O)[O-]
REMARK SMILES IDX 15 1 16 2 17 3 18 4 19 5 20 6 21 7 22 8 23 9 24 10 25 11
REMARK SMILES IDX 26 12 27 13 28 14 29 15 30 16 14 17 13 18 12 19 11 20 10 21
REMARK SMILES IDX 9 22 8 23 7 24 6 25 5 26 4 27 3 28 2 29 1 30
REMARK H PARENT
REMARK Flexibility Score: inf
ROOT
ATOM      1  C   UNL     1     -16.019 -11.166  19.876  1.00  0.00     0.000 C 
ENDROOT
BRANCH   1   2
ATOM      2  C   UNL     1     -15.414 -12.221  18.924  1.00  0.00     0.000 C 
BRANCH   2   3
ATOM      3  C   UNL     1     -16.485 -13.090  18.242  1.00  0.00     0.000 C 
BRANCH   3   4
ATOM      4  C   UNL     1     -16.027 -13.644  16.880  1.00  0.00     0.000 C 
BRANCH   4   5
ATOM      5  C   UNL     1     -14.564 -13.339  16.507  1.00  0.00     0.000 C 
BRANCH   5   6
ATOM      6  C   UNL     1     -14.441 -12.275  15.404  1.00  0.00     0.000 C 
BRANCH   6   7
ATOM      7  C   UNL     1     -13.829 -12.822  14.100  1.00  0.00     0.000 C 
BRANCH   7   8
ATOM      8  C   UNL     1     -13.359 -14.287  14.159  1.00  0.00     0.000 C 
BRANCH   8   9
ATOM      9  C   UNL     1     -11.911 -14.437  14.655  1.00  0.00     0.000 C 
BRANCH   9  10
ATOM     10  C   UNL     1     -11.105 -13.137  14.493  1.00  0.00     0.000 C 
BRANCH  10  11
ATOM     11  C   UNL     1     -10.435 -12.704  15.805  1.00  0.00     0.000 C 
BRANCH  11  12
ATOM     12  C   UNL     1      -8.935 -13.027  15.793  1.00  0.00     0.006 C 
BRANCH  12  13
ATOM     13  C   UNL     1      -8.268 -12.476  14.529  1.00  0.00     0.053 C 
BRANCH  13  14
ATOM     14  C   UNL     1      -7.997 -11.010  14.665  1.00  0.00     0.041 C 
ATOM     15  O   UNL     1      -8.770 -10.174  14.128  1.00  0.00    -0.550 OA
ATOM     16  O   UNL     1      -6.894 -10.566  15.384  1.00  0.00    -0.550 OA
ENDBRANCH  13  14
ENDBRANCH  12  13
ENDBRANCH  11  12
ENDBRANCH  10  11
ENDBRANCH   9  10
ENDBRANCH   8   9
ENDBRANCH   7   8
ENDBRANCH   6   7
ENDBRANCH   5   6
ENDBRANCH   4   5
ENDBRANCH   3   4
ENDBRANCH   2   3
ENDBRANCH   1   2
BRANCH   1  17
ATOM     17  C   UNL     1     -17.376 -11.571  20.484  1.00  0.00     0.000 C 
BRANCH  17  18
ATOM     18  C   UNL     1     -18.266 -10.403  20.946  1.00  0.00     0.000 C 
BRANCH  18  19
ATOM     19  C   UNL     1     -19.709 -10.788  21.332  1.00  0.00     0.000 C 
BRANCH  19  20
ATOM     20  C   UNL     1     -19.953 -10.972  22.840  1.00  0.00     0.000 C 
BRANCH  20  21
ATOM     21  C   UNL     1     -19.021 -10.112  23.706  1.00  0.00     0.000 C 
BRANCH  21  22
ATOM     22  C   UNL     1     -18.084 -11.000  24.537  1.00  0.00    -0.000 C 
BRANCH  22  23
ATOM     23  C   UNL     1     -16.607 -10.577  24.436  1.00  0.00    -0.000 C 
BRANCH  23  24
ATOM     24  C   UNL     1     -16.344  -9.300  23.612  1.00  0.00    -0.000 C 
BRANCH  24  25
ATOM     25  C   UNL     1     -14.872  -8.853  23.556  1.00  0.00    -0.000 C 
BRANCH  25  26
ATOM     26  C   UNL     1     -13.887 -10.016  23.760  1.00  0.00    -0.000 C 
BRANCH  26  27
ATOM     27  C   UNL     1     -13.441 -10.656  22.434  1.00  0.00    -0.000 C 
BRANCH  27  28
ATOM     28  C   UNL     1     -13.556 -12.194  22.382  1.00  0.00    -0.000 C 
BRANCH  28  29
ATOM     29  C   UNL     1     -12.759 -12.868  21.250  1.00  0.00    -0.003 C 
ATOM     30  C   UNL     1     -11.860 -11.892  20.490  1.00  0.00     0.004 C 
ENDBRANCH  28  29
ENDBRANCH  27  28
ENDBRANCH  26  27
ENDBRANCH  25  26
ENDBRANCH  24  25
ENDBRANCH  23  24
ENDBRANCH  22  23
ENDBRANCH  21  22
ENDBRANCH  20  21
ENDBRANCH  19  20
ENDBRANCH  18  19
ENDBRANCH  17  18
ENDBRANCH   1  17
TORSDOF 26
ENDMDL
MODEL 5
REMARK VINA RESULT:    -4.988      2.532      4.185
REMARK INTER + INTRA:         -15.545
REMARK INTER:                 -11.952
REMARK INTRA:                  -3.594
REMARK UNBOUND:                -2.975
REMARK SMILES CCCCCCCCCCCCCCCCCCCCCCCCCCCC(=O)[O-]
REMARK SMILES IDX 15 1 16 2 17 3 18 4 19 5 20 6 21 7 22 8 23 9 24 10 25 11
REMARK SMILES IDX 26 12 27 13 28 14 29 15 30 16 14 17 13 18 12 19 11 20 10 21
REMARK SMILES IDX 9 22 8 23 7 24 6 25 5 26 4 27 3 28 2 29 1 30
REMARK H PARENT
REMARK Flexibility Score: inf
ROOT
ATOM      1  C   UNL     1     -16.492 -12.350  20.022  1.00  0.00     0.000 C 
ENDROOT
BRANCH   1   2
ATOM      2  C   UNL     1     -17.968 -11.903  20.091  1.00  0.00     0.000 C 
BRANCH   2   3
ATOM      3  C   UNL     1     -18.159 -10.605  20.897  1.00  0.00     0.000 C 
BRANCH   3   4
ATOM      4  C   UNL     1     -19.634 -10.333  21.250  1.00  0.00     0.000 C 
BRANCH   4   5
ATOM      5  C   UNL     1     -20.111 -10.942  22.582  1.00  0.00     0.000 C 
BRANCH   5   6
ATOM      6  C   UNL     1     -20.246  -9.894  23.700  1.00  0.00     0.000 C 
BRANCH   6   7
ATOM      7  C   UNL     1     -18.940  -9.676  24.486  1.00  0.00     0.000 C 
BRANCH   7   8
ATOM      8  C   UNL     1     -18.047 -10.923  24.637  1.00  0.00     0.000 C 
BRANCH   8   9
ATOM      9  C   UNL     1     -16.595 -10.682  24.190  1.00  0.00     0.000 C 
BRANCH   9  10
ATOM     10  C   UNL     1     -16.328  -9.205  23.855  1.00  0.00     0.000 C 
BRANCH  10  11
ATOM     11  C   UNL     1     -15.285  -9.045  22.739  1.00  0.00     0.000 C 
BRANCH  11  12
ATOM     12  C   UNL     1     -14.662 -10.396  22.367  1.00  0.00     0.006 C 
BRANCH  12  13
ATOM     13  C   UNL     1     -13.580 -10.224  21.297  1.00  0.00     0.053 C 
BRANCH  13  14
ATOM     14  C   UNL     1     -12.750 -11.463  21.173  1.00  0.00     0.041 C 
ATOM     15  O   UNL     1     -13.163 -12.549  21.657  1.00  0.00    -0.550 OA
ATOM     16  O   UNL     1     -11.522 -11.420  20.525  1.00  0.00    -0.550 OA
ENDBRANCH  13  14
ENDBRANCH  12  13
ENDBRANCH  11  12
ENDBRANCH  10  11
ENDBRANCH   9  10
ENDBRANCH   8   9
ENDBRANCH   7   8
ENDBRANCH   6   7
ENDBRANCH   5   6
ENDBRANCH   4   5
ENDBRANCH   3   4
ENDBRANCH   2   3
ENDBRANCH   1   2
BRANCH   1  17
ATOM     17  C   UNL     1     -15.733 -11.828  18.787  1.00  0.00     0.000 C 
BRANCH  17  18
ATOM     18  C   UNL     1     -14.689 -12.795  18.198  1.00  0.00     0.000 C 
BRANCH  18  19
ATOM     19  C   UNL     1     -15.194 -13.682  17.041  1.00  0.00     0.000 C 
BRANCH  19  20
ATOM     20  C   UNL     1     -16.139 -12.983  16.048  1.00  0.00     0.000 C 
BRANCH  20  21
ATOM     21  C   UNL     1     -16.627 -13.913  14.929  1.00  0.00     0.000 C 
BRANCH  21  22
ATOM     22  C   UNL     1     -16.165 -13.400  13.559  1.00  0.00    -0.000 C 
BRANCH  22  23
ATOM     23  C   UNL     1     -14.646 -13.533  13.346  1.00  0.00    -0.000 C 
BRANCH  23  24
ATOM     24  C   UNL     1     -13.890 -12.201  13.163  1.00  0.00    -0.000 C 
BRANCH  24  25
ATOM     25  C   UNL     1     -12.578 -12.081  13.959  1.00  0.00    -0.000 C 
BRANCH  25  26
ATOM     26  C   UNL     1     -12.360 -13.255  14.929  1.00  0.00    -0.000 C 
BRANCH  26  27
ATOM     27  C   UNL     1     -11.022 -13.978  14.695  1.00  0.00    -0.000 C 
BRANCH  27  28
ATOM     28  C   UNL     1     -10.002 -13.199  13.840  1.00  0.00    -0.000 C 
BRANCH  28  29
ATOM     29  C   UNL     1      -9.033 -12.306  14.637  1.00  0.00    -0.003 C 
ATOM     30  C   UNL     1      -8.985 -10.868  14.121  1.00  0.00     0.004 C 
ENDBRANCH  28  29
ENDBRANCH  27  28
ENDBRANCH  26  27
ENDBRANCH  25  26
ENDBRANCH  24  25
ENDBRANCH  23  24
ENDBRANCH  22  23
ENDBRANCH  21  22
ENDBRANCH  20  21
ENDBRANCH  19  20
ENDBRANCH  18  19
ENDBRANCH  17  18
ENDBRANCH   1  17
TORSDOF 26
ENDMDL
MODEL 6
REMARK VINA RESULT:    -4.982      3.022      8.944
REMARK INTER + INTRA:         -15.529
REMARK INTER:                 -12.501
REMARK INTRA:                  -3.028
REMARK UNBOUND:                -2.975
REMARK SMILES CCCCCCCCCCCCCCCCCCCCCCCCCCCC(=O)[O-]
REMARK SMILES IDX 15 1 16 2 17 3 18 4 19 5 20 6 21 7 22 8 23 9 24 10 25 11
REMARK SMILES IDX 26 12 27 13 28 14 29 15 30 16 14 17 13 18 12 19 11 20 10 21
REMARK SMILES IDX 9 22 8 23 7 24 6 25 5 26 4 27 3 28 2 29 1 30
REMARK H PARENT
REMARK Flexibility Score: inf
ROOT
ATOM      1  C   UNL     1     -16.775 -12.399  19.183  1.00  0.00     0.000 C 
ENDROOT
BRANCH   1   2
ATOM      2  C   UNL     1     -15.295 -12.241  18.773  1.00  0.00     0.000 C 
BRANCH   2   3
ATOM      3  C   UNL     1     -14.913 -13.121  17.569  1.00  0.00     0.000 C 
BRANCH   3   4
ATOM      4  C   UNL     1     -15.301 -12.489  16.219  1.00  0.00     0.000 C 
BRANCH   4   5
ATOM      5  C   UNL     1     -16.186 -13.367  15.315  1.00  0.00     0.000 C 
BRANCH   5   6
ATOM      6  C   UNL     1     -16.252 -12.851  13.867  1.00  0.00     0.000 C 
BRANCH   6   7
ATOM      7  C   UNL     1     -14.962 -13.120  13.070  1.00  0.00     0.000 C 
BRANCH   7   8
ATOM      8  C   UNL     1     -14.153 -11.867  12.686  1.00  0.00     0.000 C 
BRANCH   8   9
ATOM      9  C   UNL     1     -13.016 -11.557  13.674  1.00  0.00     0.000 C 
BRANCH   9  10
ATOM     10  C   UNL     1     -12.196 -12.808  14.028  1.00  0.00     0.000 C 
BRANCH  10  11
ATOM     11  C   UNL     1     -11.718 -12.794  15.487  1.00  0.00     0.000 C 
BRANCH  11  12
ATOM     12  C   UNL     1     -10.186 -12.768  15.566  1.00  0.00     0.006 C 
BRANCH  12  13
ATOM     13  C   UNL     1      -9.565 -12.817  14.166  1.00  0.00     0.053 C 
BRANCH  13  14
ATOM     14  C   UNL     1      -8.331 -11.973  14.100  1.00  0.00     0.041 C 
ATOM     15  O   UNL     1      -8.333 -10.814  14.591  1.00  0.00    -0.550 OA
ATOM     16  O   UNL     1      -7.179 -12.464  13.498  1.00  0.00    -0.550 OA
ENDBRANCH  13  14
ENDBRANCH  12  13
ENDBRANCH  11  12
ENDBRANCH  10  11
ENDBRANCH   9  10
ENDBRANCH   8   9
ENDBRANCH   7   8
ENDBRANCH   6   7
ENDBRANCH   5   6
ENDBRANCH   4   5
ENDBRANCH   3   4
ENDBRANCH   2   3
ENDBRANCH   1   2
BRANCH   1  17
ATOM     17  C   UNL     1     -17.054 -12.089  20.666  1.00  0.00     0.000 C 
BRANCH  17  18
ATOM     18  C   UNL     1     -17.941 -10.858  20.927  1.00  0.00     0.000 C 
BRANCH  18  19
ATOM     19  C   UNL     1     -19.406 -10.992  20.463  1.00  0.00     0.000 C 
BRANCH  19  20
ATOM     20  C   UNL     1     -20.430 -10.215  21.308  1.00  0.00     0.000 C 
BRANCH  20  21
ATOM     21  C   UNL     1     -20.610 -10.798  22.717  1.00  0.00     0.000 C 
BRANCH  21  22
ATOM     22  C   UNL     1     -21.036  -9.703  23.705  1.00  0.00    -0.000 C 
BRANCH  22  23
ATOM     23  C   UNL     1     -20.936 -10.146  25.176  1.00  0.00    -0.000 C 
BRANCH  23  24
ATOM     24  C   UNL     1     -19.518 -10.096  25.781  1.00  0.00    -0.000 C 
BRANCH  24  25
ATOM     25  C   UNL     1     -18.609  -8.987  25.221  1.00  0.00    -0.000 C 
BRANCH  25  26
ATOM     26  C   UNL     1     -17.364  -9.542  24.507  1.00  0.00    -0.000 C 
BRANCH  26  27
ATOM     27  C   UNL     1     -17.309 -11.080  24.519  1.00  0.00    -0.000 C 
BRANCH  27  28
ATOM     28  C   UNL     1     -15.910 -11.682  24.277  1.00  0.00    -0.000 C 
BRANCH  28  29
ATOM     29  C   UNL     1     -14.961 -10.807  23.438  1.00  0.00    -0.003 C 
ATOM     30  C   UNL     1     -13.943 -11.623  22.642  1.00  0.00     0.004 C 
ENDBRANCH  28  29
ENDBRANCH  27  28
ENDBRANCH  26  27
ENDBRANCH  25  26
ENDBRANCH  24  25
ENDBRANCH  23  24
ENDBRANCH  22  23
ENDBRANCH  21  22
ENDBRANCH  20  21
ENDBRANCH  19  20
ENDBRANCH  18  19
ENDBRANCH  17  18
ENDBRANCH   1  17
TORSDOF 26
ENDMDL
MODEL 7
REMARK VINA RESULT:    -4.963      2.680      8.620
REMARK INTER + INTRA:         -15.482
REMARK INTER:                 -12.482
REMARK INTRA:                  -3.000
REMARK UNBOUND:                -2.975
REMARK SMILES CCCCCCCCCCCCCCCCCCCCCCCCCCCC(=O)[O-]
REMARK SMILES IDX 15 1 16 2 17 3 18 4 19 5 20 6 21 7 22 8 23 9 24 10 25 11
REMARK SMILES IDX 26 12 27 13 28 14 29 15 30 16 14 17 13 18 12 19 11 20 10 21
REMARK SMILES IDX 9 22 8 23 7 24 6 25 5 26 4 27 3 28 2 29 1 30
REMARK H PARENT
REMARK Flexibility Score: inf
ROOT
ATOM      1  C   UNL     1     -17.281 -11.926  19.846  1.00  0.00     0.000 C 
ENDROOT
BRANCH   1   2
ATOM      2  C   UNL     1     -16.585 -12.852  18.824  1.00  0.00     0.000 C 
BRANCH   2   3
ATOM      3  C   UNL     1     -15.388 -12.179  18.130  1.00  0.00     0.000 C 
BRANCH   3   4
ATOM      4  C   UNL     1     -14.497 -13.179  17.370  1.00  0.00     0.000 C 
BRANCH   4   5
ATOM      5  C   UNL     1     -15.015 -13.592  15.979  1.00  0.00     0.000 C 
BRANCH   5   6
ATOM      6  C   UNL     1     -15.117 -12.404  15.007  1.00  0.00     0.000 C 
BRANCH   6   7
ATOM      7  C   UNL     1     -14.190 -12.542  13.784  1.00  0.00     0.000 C 
BRANCH   7   8
ATOM      8  C   UNL     1     -12.760 -12.005  13.980  1.00  0.00     0.000 C 
BRANCH   8   9
ATOM      9  C   UNL     1     -11.701 -13.118  14.047  1.00  0.00     0.000 C 
BRANCH   9  10
ATOM     10  C   UNL     1     -11.216 -13.372  15.483  1.00  0.00     0.000 C 
BRANCH  10  11
ATOM     11  C   UNL     1     -10.080 -12.422  15.887  1.00  0.00     0.000 C 
BRANCH  11  12
ATOM     12  C   UNL     1      -8.830 -12.659  15.030  1.00  0.00     0.006 C 
BRANCH  12  13
ATOM     13  C   UNL     1      -7.799 -11.547  15.246  1.00  0.00     0.053 C 
BRANCH  13  14
ATOM     14  C   UNL     1      -6.913 -11.401  14.049  1.00  0.00     0.041 C 
ATOM     15  O   UNL     1      -6.857 -12.320  13.190  1.00  0.00    -0.550 OA
ATOM     16  O   UNL     1      -6.150 -10.252  13.880  1.00  0.00    -0.550 OA
ENDBRANCH  13  14
ENDBRANCH  12  13
ENDBRANCH  11  12
ENDBRANCH  10  11
ENDBRANCH   9  10
ENDBRANCH   8   9
ENDBRANCH   7   8
ENDBRANCH   6   7
ENDBRANCH   5   6
ENDBRANCH   4   5
ENDBRANCH   3   4
ENDBRANCH   2   3
ENDBRANCH   1   2
BRANCH   1  17
ATOM     17  C   UNL     1     -16.344 -11.382  20.942  1.00  0.00     0.000 C 
BRANCH  17  18
ATOM     18  C   UNL     1     -15.602 -12.451  21.765  1.00  0.00     0.000 C 
BRANCH  18  19
ATOM     19  C   UNL     1     -14.068 -12.462  21.599  1.00  0.00     0.000 C 
BRANCH  19  20
ATOM     20  C   UNL     1     -13.315 -11.410  22.432  1.00  0.00     0.000 C 
BRANCH  20  21
ATOM     21  C   UNL     1     -13.196 -10.055  21.721  1.00  0.00     0.000 C 
BRANCH  21  22
ATOM     22  C   UNL     1     -13.943  -8.966  22.503  1.00  0.00    -0.000 C 
BRANCH  22  23
ATOM     23  C   UNL     1     -14.332  -9.405  23.927  1.00  0.00    -0.000 C 
BRANCH  23  24
ATOM     24  C   UNL     1     -15.843  -9.366  24.236  1.00  0.00    -0.000 C 
BRANCH  24  25
ATOM     25  C   UNL     1     -16.390 -10.604  24.968  1.00  0.00    -0.000 C 
BRANCH  25  26
ATOM     26  C   UNL     1     -17.927 -10.662  24.974  1.00  0.00    -0.000 C 
BRANCH  26  27
ATOM     27  C   UNL     1     -18.520 -10.820  23.562  1.00  0.00    -0.000 C 
BRANCH  27  28
ATOM     28  C   UNL     1     -20.003 -10.416  23.430  1.00  0.00    -0.000 C 
BRANCH  28  29
ATOM     29  C   UNL     1     -20.735 -11.019  22.217  1.00  0.00    -0.003 C 
ATOM     30  C   UNL     1     -20.570 -10.186  20.946  1.00  0.00     0.004 C 
ENDBRANCH  28  29
ENDBRANCH  27  28
ENDBRANCH  26  27
ENDBRANCH  25  26
ENDBRANCH  24  25
ENDBRANCH  23  24
ENDBRANCH  22  23
ENDBRANCH  21  22
ENDBRANCH  20  21
ENDBRANCH  19  20
ENDBRANCH  18  19
ENDBRANCH  17  18
ENDBRANCH   1  17
TORSDOF 26
ENDMDL
MODEL 8
REMARK VINA RESULT:    -4.855      3.139      8.843
REMARK INTER + INTRA:         -15.211
REMARK INTER:                 -11.489
REMARK INTRA:                  -3.722
REMARK UNBOUND:                -2.975
REMARK SMILES CCCCCCCCCCCCCCCCCCCCCCCCCCCC(=O)[O-]
REMARK SMILES IDX 15 1 16 2 17 3 18 4 19 5 20 6 21 7 22 8 23 9 24 10 25 11
REMARK SMILES IDX 26 12 27 13 28 14 29 15 30 16 14 17 13 18 12 19 11 20 10 21
REMARK SMILES IDX 9 22 8 23 7 24 6 25 5 26 4 27 3 28 2 29 1 30
REMARK H PARENT
REMARK Flexibility Score: inf
ROOT
ATOM      1  C   UNL     1     -17.746 -10.893  21.891  1.00  0.00     0.000 C 
ENDROOT
BRANCH   1   2
ATOM      2  C   UNL     1     -16.763 -11.891  21.241  1.00  0.00     0.000 C 
BRANCH   2   3
ATOM      3  C   UNL     1     -17.019 -12.083  19.735  1.00  0.00     0.000 C 
BRANCH   3   4
ATOM      4  C   UNL     1     -15.831 -11.633  18.864  1.00  0.00     0.000 C 
BRANCH   4   5
ATOM      5  C   UNL     1     -14.754 -12.708  18.621  1.00  0.00     0.000 C 
BRANCH   5   6
ATOM      6  C   UNL     1     -14.627 -13.097  17.138  1.00  0.00     0.000 C 
BRANCH   6   7
ATOM      7  C   UNL     1     -15.892 -13.777  16.582  1.00  0.00     0.000 C 
BRANCH   7   8
ATOM      8  C   UNL     1     -16.435 -13.183  15.269  1.00  0.00     0.000 C 
BRANCH   8   9
ATOM      9  C   UNL     1     -16.199 -14.093  14.052  1.00  0.00     0.000 C 
BRANCH   9  10
ATOM     10  C   UNL     1     -14.896 -13.748  13.312  1.00  0.00     0.000 C 
BRANCH  10  11
ATOM     11  C   UNL     1     -14.616 -12.238  13.306  1.00  0.00     0.000 C 
BRANCH  11  12
ATOM     12  C   UNL     1     -13.113 -11.954  13.428  1.00  0.00     0.006 C 
BRANCH  12  13
ATOM     13  C   UNL     1     -12.396 -13.101  14.146  1.00  0.00     0.053 C 
BRANCH  13  14
ATOM     14  C   UNL     1     -11.232 -12.591  14.935  1.00  0.00     0.041 C 
ATOM     15  O   UNL     1     -11.133 -12.861  16.160  1.00  0.00    -0.550 OA
ATOM     16  O   UNL     1     -10.255 -11.817  14.319  1.00  0.00    -0.550 OA
ENDBRANCH  13  14
ENDBRANCH  12  13
ENDBRANCH  11  12
ENDBRANCH  10  11
ENDBRANCH   9  10
ENDBRANCH   8   9
ENDBRANCH   7   8
ENDBRANCH   6   7
ENDBRANCH   5   6
ENDBRANCH   4   5
ENDBRANCH   3   4
ENDBRANCH   2   3
ENDBRANCH   1   2
BRANCH   1  17
ATOM     17  C   UNL     1     -18.632 -10.135  20.883  1.00  0.00     0.000 C 
BRANCH  17  18
ATOM     18  C   UNL     1     -20.142 -10.165  21.181  1.00  0.00     0.000 C 
BRANCH  18  19
ATOM     19  C   UNL     1     -20.598 -11.264  22.162  1.00  0.00     0.000 C 
BRANCH  19  20
ATOM     20  C   UNL     1     -21.191 -10.751  23.485  1.00  0.00     0.000 C 
BRANCH  20  21
ATOM     21  C   UNL     1     -21.019  -9.237  23.671  1.00  0.00     0.000 C 
BRANCH  21  22
ATOM     22  C   UNL     1     -20.157  -8.938  24.906  1.00  0.00    -0.000 C 
BRANCH  22  23
ATOM     23  C   UNL     1     -19.496 -10.195  25.499  1.00  0.00    -0.000 C 
BRANCH  23  24
ATOM     24  C   UNL     1     -17.953 -10.183  25.509  1.00  0.00    -0.000 C 
BRANCH  24  25
ATOM     25  C   UNL     1     -17.307  -8.977  24.803  1.00  0.00    -0.000 C 
BRANCH  25  26
ATOM     26  C   UNL     1     -15.770  -9.035  24.814  1.00  0.00    -0.000 C 
BRANCH  26  27
ATOM     27  C   UNL     1     -15.152  -8.645  23.459  1.00  0.00    -0.000 C 
BRANCH  27  28
ATOM     28  C   UNL     1     -13.883  -9.432  23.072  1.00  0.00    -0.000 C 
BRANCH  28  29
ATOM     29  C   UNL     1     -13.717  -9.696  21.564  1.00  0.00    -0.003 C 
ATOM     30  C   UNL     1     -12.930 -10.973  21.265  1.00  0.00     0.004 C 
ENDBRANCH  28  29
ENDBRANCH  27  28
ENDBRANCH  26  27
ENDBRANCH  25  26
ENDBRANCH  24  25
ENDBRANCH  23  24
ENDBRANCH  22  23
ENDBRANCH  21  22
ENDBRANCH  20  21
ENDBRANCH  19  20
ENDBRANCH  18  19
ENDBRANCH  17  18
ENDBRANCH   1  17
TORSDOF 26
ENDMDL
MODEL 9
REMARK VINA RESULT:    -4.769      3.092      8.547
REMARK INTER + INTRA:         -14.993
REMARK INTER:                 -12.391
REMARK INTRA:                  -2.602
REMARK UNBOUND:                -2.975
REMARK SMILES CCCCCCCCCCCCCCCCCCCCCCCCCCCC(=O)[O-]
REMARK SMILES IDX 15 1 16 2 17 3 18 4 19 5 20 6 21 7 22 8 23 9 24 10 25 11
REMARK SMILES IDX 26 12 27 13 28 14 29 15 30 16 14 17 13 18 12 19 11 20 10 21
REMARK SMILES IDX 9 22 8 23 7 24 6 25 5 26 4 27 3 28 2 29 1 30
REMARK H PARENT
REMARK Flexibility Score: inf
ROOT
ATOM      1  C   UNL     1     -15.082 -12.007  20.172  1.00  0.00     0.000 C 
ENDROOT
BRANCH   1   2
ATOM      2  C   UNL     1     -15.397 -11.972  18.661  1.00  0.00     0.000 C 
BRANCH   2   3
ATOM      3  C   UNL     1     -16.337 -13.110  18.223  1.00  0.00     0.000 C 
BRANCH   3   4
ATOM      4  C   UNL     1     -16.120 -13.534  16.758  1.00  0.00     0.000 C 
BRANCH   4   5
ATOM      5  C   UNL     1     -14.912 -12.882  16.059  1.00  0.00     0.000 C 
BRANCH   5   6
ATOM      6  C   UNL     1     -14.256 -13.808  15.021  1.00  0.00     0.000 C 
BRANCH   6   7
ATOM      7  C   UNL     1     -13.677 -13.047  13.813  1.00  0.00     0.000 C 
BRANCH   7   8
ATOM      8  C   UNL     1     -12.518 -12.086  14.134  1.00  0.00     0.000 C 
BRANCH   8   9
ATOM      9  C   UNL     1     -11.144 -12.776  14.134  1.00  0.00     0.000 C 
BRANCH   9  10
ATOM     10  C   UNL     1     -10.709 -13.206  15.545  1.00  0.00     0.000 C 
BRANCH  10  11
ATOM     11  C   UNL     1      -9.504 -12.400  16.050  1.00  0.00     0.000 C 
BRANCH  11  12
ATOM     12  C   UNL     1      -8.986 -11.444  14.968  1.00  0.00     0.006 C 
BRANCH  12  13
ATOM     13  C   UNL     1      -7.461 -11.317  15.035  1.00  0.00     0.053 C 
BRANCH  13  14
ATOM     14  C   UNL     1      -6.829 -11.817  13.773  1.00  0.00     0.041 C 
ATOM     15  O   UNL     1      -5.637 -11.515  13.502  1.00  0.00    -0.550 OA
ATOM     16  O   UNL     1      -7.554 -12.616  12.897  1.00  0.00    -0.550 OA
ENDBRANCH  13  14
ENDBRANCH  12  13
ENDBRANCH  11  12
ENDBRANCH  10  11
ENDBRANCH   9  10
ENDBRANCH   8   9
ENDBRANCH   7   8
ENDBRANCH   6   7
ENDBRANCH   5   6
ENDBRANCH   4   5
ENDBRANCH   3   4
ENDBRANCH   2   3
ENDBRANCH   1   2
BRANCH   1  17
ATOM     17  C   UNL     1     -15.208 -10.640  20.873  1.00  0.00     0.000 C 
BRANCH  17  18
ATOM     18  C   UNL     1     -16.646 -10.127  21.065  1.00  0.00     0.000 C 
BRANCH  18  19
ATOM     19  C   UNL     1     -17.683 -11.203  21.452  1.00  0.00     0.000 C 
BRANCH  19  20
ATOM     20  C   UNL     1     -18.993 -11.165  20.647  1.00  0.00     0.000 C 
BRANCH  20  21
ATOM     21  C   UNL     1     -20.041 -10.222  21.253  1.00  0.00     0.000 C 
BRANCH  21  22
ATOM     22  C   UNL     1     -20.916 -10.969  22.270  1.00  0.00    -0.000 C 
BRANCH  22  23
ATOM     23  C   UNL     1     -20.883 -10.337  23.674  1.00  0.00    -0.000 C 
BRANCH  23  24
ATOM     24  C   UNL     1     -19.540 -10.467  24.420  1.00  0.00    -0.000 C 
BRANCH  24  25
ATOM     25  C   UNL     1     -18.878  -9.133  24.809  1.00  0.00    -0.000 C 
BRANCH  25  26
ATOM     26  C   UNL     1     -17.342  -9.199  24.782  1.00  0.00    -0.000 C 
BRANCH  26  27
ATOM     27  C   UNL     1     -16.685  -7.821  24.983  1.00  0.00    -0.000 C 
BRANCH  27  28
ATOM     28  C   UNL     1     -15.635  -7.440  23.920  1.00  0.00    -0.000 C 
BRANCH  28  29
ATOM     29  C   UNL     1     -14.490  -8.454  23.744  1.00  0.00    -0.003 C 
ATOM     30  C   UNL     1     -13.424  -7.985  22.754  1.00  0.00     0.004 C 
ENDBRANCH  28  29
ENDBRANCH  27  28
ENDBRANCH  26  27
ENDBRANCH  25  26
ENDBRANCH  24  25
ENDBRANCH  23  24
ENDBRANCH  22  23
ENDBRANCH  21  22
ENDBRANCH  20  21
ENDBRANCH  19  20
ENDBRANCH  18  19
ENDBRANCH  17  18
ENDBRANCH   1  17
TORSDOF 26
ENDMDL
