MODEL 1
REMARK VINA RESULT:    -4.161      0.000      0.000
REMARK INTER + INTRA:          -6.585
REMARK INTER:                  -5.864
REMARK INTRA:                  -0.721
REMARK UNBOUND:                -0.721
REMARK SMILES CCCCCCCCC(=O)[O-]
REMARK SMILES IDX 6 1 7 2 8 3 9 4 10 5 11 6 5 7 4 8 3 9 2 10 1 11
REMARK H PARENT
REMARK Flexibility Score: inf
ROOT
ATOM      1  C   UNL     1       5.221  10.894   5.516  1.00  0.00     0.000 C 
ENDROOT
BRANCH   1   2
ATOM      2  C   UNL     1       5.477  11.464   6.922  1.00  0.00     0.006 C 
BRANCH   2   3
ATOM      3  C   UNL     1       5.869  10.373   7.927  1.00  0.00     0.053 C 
BRANCH   3   4
ATOM      4  C   UNL     1       4.669   9.764   8.586  1.00  0.00     0.041 C 
ATOM      5  O   UNL     1       4.175   8.697   8.138  1.00  0.00    -0.550 OA
ATOM      6  O   UNL     1       4.080  10.391   9.677  1.00  0.00    -0.550 OA
ENDBRANCH   3   4
ENDBRANCH   2   3
ENDBRANCH   1   2
BRANCH   1   7
ATOM      7  C   UNL     1       5.957  11.671   4.409  1.00  0.00     0.000 C 
BRANCH   7   8
ATOM      8  C   UNL     1       7.172  12.492   4.883  1.00  0.00    -0.000 C 
BRANCH   8   9
ATOM      9  C   UNL     1       8.512  11.785   4.622  1.00  0.00    -0.000 C 
BRANCH   9  10
ATOM     10  C   UNL     1       9.007  10.993   5.843  1.00  0.00    -0.003 C 
ATOM     11  C   UNL     1       9.211  11.873   7.077  1.00  0.00     0.004 C 
ENDBRANCH   9  10
ENDBRANCH   8   9
ENDBRANCH   7   8
ENDBRANCH   1   7
TORSDOF 7
ENDMDL
MODEL 2
REMARK VINA RESULT:    -4.026      1.423      2.395
REMARK INTER + INTRA:          -6.395
REMARK INTER:                  -5.892
REMARK INTRA:                  -0.503
REMARK UNBOUND:                -0.721
REMARK SMILES CCCCCCCCC(=O)[O-]
REMARK SMILES IDX 6 1 7 2 8 3 9 4 10 5 11 6 5 7 4 8 3 9 2 10 1 11
REMARK H PARENT
REMARK Flexibility Score: inf
ROOT
ATOM      1  C   UNL     1       6.794  10.842   8.043  1.00  0.00     0.000 C 
ENDROOT
BRANCH   1   2
ATOM      2  C   UNL     1       5.602  11.728   8.447  1.00  0.00     0.006 C 
BRANCH   2   3
ATOM      3  C   UNL     1       4.551  10.953   9.252  1.00  0.00     0.053 C 
BRANCH   3   4
ATOM      4  C   UNL     1       3.722  10.063   8.376  1.00  0.00     0.041 C 
ATOM      5  O   UNL     1       2.733  10.531   7.755  1.00  0.00    -0.550 OA
ATOM      6  O   UNL     1       4.027   8.712   8.269  1.00  0.00    -0.550 OA
ENDBRANCH   3   4
ENDBRANCH   2   3
ENDBRANCH   1   2
BRANCH   1   7
ATOM      7  C   UNL     1       6.976  10.740   6.518  1.00  0.00     0.000 C 
BRANCH   7   8
ATOM      8  C   UNL     1       5.779  11.230   5.681  1.00  0.00    -0.000 C 
BRANCH   8   9
ATOM      9  C   UNL     1       6.202  11.861   4.343  1.00  0.00    -0.000 C 
BRANCH   9  10
ATOM     10  C   UNL     1       7.454  12.742   4.478  1.00  0.00    -0.003 C 
ATOM     11  C   UNL     1       8.571  12.335   3.516  1.00  0.00     0.004 C 
ENDBRANCH   9  10
ENDBRANCH   8   9
ENDBRANCH   7   8
ENDBRANCH   1   7
TORSDOF 7
ENDMDL
MODEL 3
REMARK VINA RESULT:    -4.025      1.707      2.937
REMARK INTER + INTRA:          -6.393
REMARK INTER:                  -5.662
REMARK INTRA:                  -0.731
REMARK UNBOUND:                -0.721
REMARK SMILES CCCCCCCCC(=O)[O-]
REMARK SMILES IDX 6 1 7 2 8 3 9 4 10 5 11 6 5 7 4 8 3 9 2 10 1 11
REMARK H PARENT
REMARK Flexibility Score: inf
ROOT
ATOM      1  C   UNL     1       6.050  12.316   9.234  1.00  0.00     0.000 C 
ENDROOT
BRANCH   1   2
ATOM      2  C   UNL     1       4.579  12.406   8.791  1.00  0.00     0.006 C 
BRANCH   2   3
ATOM      3  C   UNL     1       3.753  11.208   9.278  1.00  0.00     0.053 C 
BRANCH   3   4
ATOM      4  C   UNL     1       3.656  10.136   8.235  1.00  0.00     0.041 C 
ATOM      5  O   UNL     1       4.412   9.131   8.289  1.00  0.00    -0.550 OA
ATOM      6  O   UNL     1       2.750  10.261   7.190  1.00  0.00    -0.550 OA
ENDBRANCH   3   4
ENDBRANCH   2   3
ENDBRANCH   1   2
BRANCH   1   7
ATOM      7  C   UNL     1       7.031  12.243   8.049  1.00  0.00     0.000 C 
BRANCH   7   8
ATOM      8  C   UNL     1       7.476  10.822   7.654  1.00  0.00    -0.000 C 
BRANCH   8   9
ATOM      9  C   UNL     1       7.314  10.540   6.150  1.00  0.00    -0.000 C 
BRANCH   9  10
ATOM     10  C   UNL     1       5.977  11.055   5.596  1.00  0.00    -0.003 C 
ATOM     11  C   UNL     1       6.147  11.930   4.353  1.00  0.00     0.004 C 
ENDBRANCH   9  10
ENDBRANCH   8   9
ENDBRANCH   7   8
ENDBRANCH   1   7
TORSDOF 7
ENDMDL
MODEL 4
REMARK VINA RESULT:    -4.016      3.425      5.939
REMARK INTER + INTRA:          -6.381
REMARK INTER:                  -6.107
REMARK INTRA:                  -0.274
REMARK UNBOUND:                -0.721
REMARK SMILES CCCCCCCCC(=O)[O-]
REMARK SMILES IDX 6 1 7 2 8 3 9 4 10 5 11 6 5 7 4 8 3 9 2 10 1 11
REMARK H PARENT
REMARK Flexibility Score: inf
ROOT
ATOM      1  C   UNL     1       4.380   9.499   7.773  1.00  0.00     0.000 C 
ENDROOT
BRANCH   1   2
ATOM      2  C   UNL     1       4.755  10.506   6.672  1.00  0.00     0.006 C 
BRANCH   2   3
ATOM      3  C   UNL     1       6.248  10.860   6.695  1.00  0.00     0.053 C 
BRANCH   3   4
ATOM      4  C   UNL     1       6.761  11.200   5.328  1.00  0.00     0.041 C 
ATOM      5  O   UNL     1       7.992  11.125   5.077  1.00  0.00    -0.550 OA
ATOM      6  O   UNL     1       5.882  11.626   4.341  1.00  0.00    -0.550 OA
ENDBRANCH   3   4
ENDBRANCH   2   3
ENDBRANCH   1   2
BRANCH   1   7
ATOM      7  C   UNL     1       4.209  10.156   9.155  1.00  0.00     0.000 C 
BRANCH   7   8
ATOM      8  C   UNL     1       3.382  11.455   9.165  1.00  0.00    -0.000 C 
BRANCH   8   9
ATOM      9  C   UNL     1       1.871  11.205   9.024  1.00  0.00    -0.000 C 
BRANCH   9  10
ATOM     10  C   UNL     1       1.037  12.108   9.947  1.00  0.00    -0.003 C 
ATOM     11  C   UNL     1       0.051  12.990   9.180  1.00  0.00     0.004 C 
ENDBRANCH   9  10
ENDBRANCH   8   9
ENDBRANCH   7   8
ENDBRANCH   1   7
TORSDOF 7
ENDMDL
MODEL 5
REMARK VINA RESULT:    -3.995      1.321      2.597
REMARK INTER + INTRA:          -6.351
REMARK INTER:                  -5.625
REMARK INTRA:                  -0.726
REMARK UNBOUND:                -0.721
REMARK SMILES CCCCCCCCC(=O)[O-]
REMARK SMILES IDX 6 1 7 2 8 3 9 4 10 5 11 6 5 7 4 8 3 9 2 10 1 11
REMARK H PARENT
REMARK Flexibility Score: inf
ROOT
ATOM      1  C   UNL     1       6.908  10.754   8.123  1.00  0.00     0.000 C 
ENDROOT
BRANCH   1   2
ATOM      2  C   UNL     1       6.402  12.048   8.783  1.00  0.00     0.006 C 
BRANCH   2   3
ATOM      3  C   UNL     1       4.921  12.313   8.480  1.00  0.00     0.053 C 
BRANCH   3   4
ATOM      4  C   UNL     1       4.075  11.102   8.731  1.00  0.00     0.041 C 
ATOM      5  O   UNL     1       3.398  10.599   7.798  1.00  0.00    -0.550 OA
ATOM      6  O   UNL     1       4.015  10.546  10.003  1.00  0.00    -0.550 OA
ENDBRANCH   3   4
ENDBRANCH   2   3
ENDBRANCH   1   2
BRANCH   1   7
ATOM      7  C   UNL     1       8.239  10.942   7.374  1.00  0.00     0.000 C 
BRANCH   7   8
ATOM      8  C   UNL     1       8.148  10.842   5.840  1.00  0.00    -0.000 C 
BRANCH   8   9
ATOM      9  C   UNL     1       7.955  12.208   5.161  1.00  0.00    -0.000 C 
BRANCH   9  10
ATOM     10  C   UNL     1       6.483  12.501   4.834  1.00  0.00    -0.003 C 
ATOM     11  C   UNL     1       5.636  11.231   4.728  1.00  0.00     0.004 C 
ENDBRANCH   9  10
ENDBRANCH   8   9
ENDBRANCH   7   8
ENDBRANCH   1   7
TORSDOF 7
ENDMDL
MODEL 6
REMARK VINA RESULT:    -3.932      3.371      5.568
REMARK INTER + INTRA:          -6.262
REMARK INTER:                  -5.925
REMARK INTRA:                  -0.337
REMARK UNBOUND:                -0.721
REMARK SMILES CCCCCCCCC(=O)[O-]
REMARK SMILES IDX 6 1 7 2 8 3 9 4 10 5 11 6 5 7 4 8 3 9 2 10 1 11
REMARK H PARENT
REMARK Flexibility Score: inf
ROOT
ATOM      1  C   UNL     1       5.090  10.865   6.238  1.00  0.00     0.000 C 
ENDROOT
BRANCH   1   2
ATOM      2  C   UNL     1       5.607  11.241   4.838  1.00  0.00     0.006 C 
BRANCH   2   3
ATOM      3  C   UNL     1       6.642  12.373   4.887  1.00  0.00     0.053 C 
BRANCH   3   4
ATOM      4  C   UNL     1       8.009  11.894   4.500  1.00  0.00     0.041 C 
ATOM      5  O   UNL     1       8.602  11.036   5.204  1.00  0.00    -0.550 OA
ATOM      6  O   UNL     1       8.638  12.417   3.377  1.00  0.00    -0.550 OA
ENDBRANCH   3   4
ENDBRANCH   2   3
ENDBRANCH   1   2
BRANCH   1   7
ATOM      7  C   UNL     1       5.704  11.727   7.356  1.00  0.00     0.000 C 
BRANCH   7   8
ATOM      8  C   UNL     1       5.088  11.523   8.753  1.00  0.00    -0.000 C 
BRANCH   8   9
ATOM      9  C   UNL     1       3.720  12.206   8.911  1.00  0.00    -0.000 C 
BRANCH   9  10
ATOM     10  C   UNL     1       2.574  11.197   9.085  1.00  0.00    -0.003 C 
ATOM     11  C   UNL     1       1.308  11.830   9.665  1.00  0.00     0.004 C 
ENDBRANCH   9  10
ENDBRANCH   8   9
ENDBRANCH   7   8
ENDBRANCH   1   7
TORSDOF 7
ENDMDL
MODEL 7
REMARK VINA RESULT:    -3.884      2.211      3.105
REMARK INTER + INTRA:          -6.194
REMARK INTER:                  -5.602
REMARK INTRA:                  -0.592
REMARK UNBOUND:                -0.721
REMARK SMILES CCCCCCCCC(=O)[O-]
REMARK SMILES IDX 6 1 7 2 8 3 9 4 10 5 11 6 5 7 4 8 3 9 2 10 1 11
REMARK H PARENT
REMARK Flexibility Score: inf
ROOT
ATOM      1  C   UNL     1       4.548   9.735   8.297  1.00  0.00     0.000 C 
ENDROOT
BRANCH   1   2
ATOM      2  C   UNL     1       4.138  10.640   9.472  1.00  0.00     0.006 C 
BRANCH   2   3
ATOM      3  C   UNL     1       2.906  11.493   9.143  1.00  0.00     0.053 C 
BRANCH   3   4
ATOM      4  C   UNL     1       1.733  11.135  10.006  1.00  0.00     0.041 C 
ATOM      5  O   UNL     1       0.714  11.873  10.026  1.00  0.00    -0.550 OA
ATOM      6  O   UNL     1       1.779  10.002  10.807  1.00  0.00    -0.550 OA
ENDBRANCH   3   4
ENDBRANCH   2   3
ENDBRANCH   1   2
BRANCH   1   7
ATOM      7  C   UNL     1       4.414  10.428   6.929  1.00  0.00     0.000 C 
BRANCH   7   8
ATOM      8  C   UNL     1       5.633  11.266   6.498  1.00  0.00    -0.000 C 
BRANCH   8   9
ATOM      9  C   UNL     1       6.904  10.422   6.307  1.00  0.00    -0.000 C 
BRANCH   9  10
ATOM     10  C   UNL     1       8.033  10.834   7.265  1.00  0.00    -0.003 C 
ATOM     11  C   UNL     1       7.588  11.878   8.291  1.00  0.00     0.004 C 
ENDBRANCH   9  10
ENDBRANCH   8   9
ENDBRANCH   7   8
ENDBRANCH   1   7
TORSDOF 7
ENDMDL
MODEL 8
REMARK VINA RESULT:    -3.594      2.806      4.454
REMARK INTER + INTRA:          -5.786
REMARK INTER:                  -5.092
REMARK INTRA:                  -0.694
REMARK UNBOUND:                -0.721
REMARK SMILES CCCCCCCCC(=O)[O-]
REMARK SMILES IDX 6 1 7 2 8 3 9 4 10 5 11 6 5 7 4 8 3 9 2 10 1 11
REMARK H PARENT
REMARK Flexibility Score: inf
ROOT
ATOM      1  C   UNL     1       6.369  12.587   4.700  1.00  0.00     0.000 C 
ENDROOT
BRANCH   1   2
ATOM      2  C   UNL     1       7.861  12.591   4.327  1.00  0.00     0.006 C 
BRANCH   2   3
ATOM      3  C   UNL     1       8.747  13.063   5.488  1.00  0.00     0.053 C 
BRANCH   3   4
ATOM      4  C   UNL     1       9.270  11.912   6.293  1.00  0.00     0.041 C 
ATOM      5  O   UNL     1       9.807  12.115   7.413  1.00  0.00    -0.550 OA
ATOM      6  O   UNL     1       9.188  10.618   5.794  1.00  0.00    -0.550 OA
ENDBRANCH   3   4
ENDBRANCH   2   3
ENDBRANCH   1   2
BRANCH   1   7
ATOM      7  C   UNL     1       5.761  11.173   4.729  1.00  0.00     0.000 C 
BRANCH   7   8
ATOM      8  C   UNL     1       5.029  10.802   6.033  1.00  0.00    -0.000 C 
BRANCH   8   9
ATOM      9  C   UNL     1       5.990  10.405   7.167  1.00  0.00    -0.000 C 
BRANCH   9  10
ATOM     10  C   UNL     1       6.081  11.479   8.263  1.00  0.00    -0.003 C 
ATOM     11  C   UNL     1       4.730  11.777   8.915  1.00  0.00     0.004 C 
ENDBRANCH   9  10
ENDBRANCH   8   9
ENDBRANCH   7   8
ENDBRANCH   1   7
TORSDOF 7
ENDMDL
