MODEL 1
REMARK VINA RESULT:    -4.753      0.000      0.000
REMARK INTER + INTRA:          -7.691
REMARK INTER:                  -7.254
REMARK INTRA:                  -0.437
REMARK UNBOUND:                -0.437
REMARK SMILES CCCCCCCCCCC(=O)[O-]
REMARK SMILES IDX 7 1 8 2 9 3 10 4 11 5 12 6 13 7 6 8 5 9 4 10 3 11 2 12 1 13
REMARK H PARENT
REMARK Flexibility Score: inf
ROOT
ATOM      1  C   UNL     1      -5.186  36.450  20.053  1.00  0.00     0.000 C 
ENDROOT
BRANCH   1   2
ATOM      2  C   UNL     1      -4.977  37.466  21.189  1.00  0.00     0.000 C 
BRANCH   2   3
ATOM      3  C   UNL     1      -4.948  36.806  22.580  1.00  0.00     0.006 C 
BRANCH   3   4
ATOM      4  C   UNL     1      -5.703  37.585  23.669  1.00  0.00     0.053 C 
BRANCH   4   5
ATOM      5  C   UNL     1      -4.808  38.537  24.400  1.00  0.00     0.041 C 
ATOM      6  O   UNL     1      -4.275  38.198  25.489  1.00  0.00    -0.550 OA
ATOM      7  O   UNL     1      -4.538  39.789  23.863  1.00  0.00    -0.550 OA
ENDBRANCH   4   5
ENDBRANCH   3   4
ENDBRANCH   2   3
ENDBRANCH   1   2
BRANCH   1   8
ATOM      8  C   UNL     1      -4.044  36.474  19.024  1.00  0.00     0.000 C 
BRANCH   8   9
ATOM      9  C   UNL     1      -3.493  37.887  18.781  1.00  0.00    -0.000 C 
BRANCH   9  10
ATOM     10  C   UNL     1      -2.281  37.851  17.842  1.00  0.00    -0.000 C 
BRANCH  10  11
ATOM     11  C   UNL     1      -2.466  36.799  16.742  1.00  0.00    -0.000 C 
BRANCH  11  12
ATOM     12  C   UNL     1      -2.067  37.359  15.373  1.00  0.00    -0.003 C 
ATOM     13  C   UNL     1      -3.291  37.826  14.589  1.00  0.00     0.004 C 
ENDBRANCH  11  12
ENDBRANCH  10  11
ENDBRANCH   9  10
ENDBRANCH   8   9
ENDBRANCH   1   8
TORSDOF 9
ENDMDL
MODEL 2
REMARK VINA RESULT:    -4.656      4.074      7.380
REMARK INTER + INTRA:          -7.543
REMARK INTER:                  -7.064
REMARK INTRA:                  -0.479
REMARK UNBOUND:                -0.437
REMARK SMILES CCCCCCCCCCC(=O)[O-]
REMARK SMILES IDX 7 1 8 2 9 3 10 4 11 5 12 6 13 7 6 8 5 9 4 10 3 11 2 12 1 13
REMARK H PARENT
REMARK Flexibility Score: inf
ROOT
ATOM      1  C   UNL     1      -3.860  38.106  19.153  1.00  0.00     0.000 C 
ENDROOT
BRANCH   1   2
ATOM      2  C   UNL     1      -3.575  36.679  18.655  1.00  0.00     0.000 C 
BRANCH   2   3
ATOM      3  C   UNL     1      -3.032  36.649  17.214  1.00  0.00     0.006 C 
BRANCH   3   4
ATOM      4  C   UNL     1      -2.803  38.037  16.592  1.00  0.00     0.053 C 
BRANCH   4   5
ATOM      5  C   UNL     1      -3.187  38.073  15.145  1.00  0.00     0.041 C 
ATOM      6  O   UNL     1      -3.062  37.043  14.430  1.00  0.00    -0.550 OA
ATOM      7  O   UNL     1      -3.712  39.234  14.593  1.00  0.00    -0.550 OA
ENDBRANCH   4   5
ENDBRANCH   3   4
ENDBRANCH   2   3
ENDBRANCH   1   2
BRANCH   1   8
ATOM      8  C   UNL     1      -4.910  38.140  20.276  1.00  0.00     0.000 C 
BRANCH   8   9
ATOM      9  C   UNL     1      -5.324  36.737  20.744  1.00  0.00    -0.000 C 
BRANCH   9  10
ATOM     10  C   UNL     1      -5.495  36.694  22.268  1.00  0.00    -0.000 C 
BRANCH  10  11
ATOM     11  C   UNL     1      -4.952  37.970  22.920  1.00  0.00    -0.000 C 
BRANCH  11  12
ATOM     12  C   UNL     1      -5.606  38.212  24.285  1.00  0.00    -0.003 C 
ATOM     13  C   UNL     1      -4.576  38.158  25.409  1.00  0.00     0.004 C 
ENDBRANCH  11  12
ENDBRANCH  10  11
ENDBRANCH   9  10
ENDBRANCH   8   9
ENDBRANCH   1   8
TORSDOF 9
ENDMDL
MODEL 3
REMARK VINA RESULT:    -4.630      3.702      6.762
REMARK INTER + INTRA:          -7.504
REMARK INTER:                  -6.798
REMARK INTRA:                  -0.705
REMARK UNBOUND:                -0.437
REMARK SMILES CCCCCCCCCCC(=O)[O-]
REMARK SMILES IDX 7 1 8 2 9 3 10 4 11 5 12 6 13 7 6 8 5 9 4 10 3 11 2 12 1 13
REMARK H PARENT
REMARK Flexibility Score: inf
ROOT
ATOM      1  C   UNL     1      -4.579  36.642  21.108  1.00  0.00     0.000 C 
ENDROOT
BRANCH   1   2
ATOM      2  C   UNL     1      -4.547  37.442  19.795  1.00  0.00     0.000 C 
BRANCH   2   3
ATOM      3  C   UNL     1      -3.503  36.905  18.797  1.00  0.00     0.006 C 
BRANCH   3   4
ATOM      4  C   UNL     1      -2.633  37.991  18.143  1.00  0.00     0.053 C 
BRANCH   4   5
ATOM      5  C   UNL     1      -2.381  37.710  16.694  1.00  0.00     0.041 C 
ATOM      6  O   UNL     1      -1.568  36.809  16.355  1.00  0.00    -0.550 OA
ATOM      7  O   UNL     1      -3.066  38.421  15.718  1.00  0.00    -0.550 OA
ENDBRANCH   4   5
ENDBRANCH   3   4
ENDBRANCH   2   3
ENDBRANCH   1   2
BRANCH   1   8
ATOM      8  C   UNL     1      -6.010  36.370  21.598  1.00  0.00     0.000 C 
BRANCH   8   9
ATOM      9  C   UNL     1      -6.102  36.246  23.127  1.00  0.00    -0.000 C 
BRANCH   9  10
ATOM     10  C   UNL     1      -5.024  37.095  23.812  1.00  0.00    -0.000 C 
BRANCH  10  11
ATOM     11  C   UNL     1      -5.592  38.442  24.273  1.00  0.00    -0.000 C 
BRANCH  11  12
ATOM     12  C   UNL     1      -4.689  39.600  23.832  1.00  0.00    -0.003 C 
ATOM     13  C   UNL     1      -5.070  40.098  22.441  1.00  0.00     0.004 C 
ENDBRANCH  11  12
ENDBRANCH  10  11
ENDBRANCH   9  10
ENDBRANCH   8   9
ENDBRANCH   1   8
TORSDOF 9
ENDMDL
MODEL 4
REMARK VINA RESULT:    -4.619      1.268      1.909
REMARK INTER + INTRA:          -7.486
REMARK INTER:                  -6.857
REMARK INTRA:                  -0.630
REMARK UNBOUND:                -0.437
REMARK SMILES CCCCCCCCCCC(=O)[O-]
REMARK SMILES IDX 7 1 8 2 9 3 10 4 11 5 12 6 13 7 6 8 5 9 4 10 3 11 2 12 1 13
REMARK H PARENT
REMARK Flexibility Score: inf
ROOT
ATOM      1  C   UNL     1      -4.980  38.031  20.994  1.00  0.00     0.000 C 
ENDROOT
BRANCH   1   2
ATOM      2  C   UNL     1      -5.382  36.640  21.514  1.00  0.00     0.000 C 
BRANCH   2   3
ATOM      3  C   UNL     1      -4.986  36.418  22.986  1.00  0.00     0.006 C 
BRANCH   3   4
ATOM      4  C   UNL     1      -5.760  37.287  23.990  1.00  0.00     0.053 C 
BRANCH   4   5
ATOM      5  C   UNL     1      -4.872  38.279  24.675  1.00  0.00     0.041 C 
ATOM      6  O   UNL     1      -4.268  37.965  25.735  1.00  0.00    -0.550 OA
ATOM      7  O   UNL     1      -4.685  39.541  24.126  1.00  0.00    -0.550 OA
ENDBRANCH   4   5
ENDBRANCH   3   4
ENDBRANCH   2   3
ENDBRANCH   1   2
BRANCH   1   8
ATOM      8  C   UNL     1      -4.299  37.971  19.616  1.00  0.00     0.000 C 
BRANCH   8   9
ATOM      9  C   UNL     1      -4.184  36.539  19.073  1.00  0.00    -0.000 C 
BRANCH   9  10
ATOM     10  C   UNL     1      -3.367  36.507  17.775  1.00  0.00    -0.000 C 
BRANCH  10  11
ATOM     11  C   UNL     1      -2.678  37.853  17.524  1.00  0.00    -0.000 C 
BRANCH  11  12
ATOM     12  C   UNL     1      -1.157  37.727  17.665  1.00  0.00    -0.003 C 
ATOM     13  C   UNL     1      -0.658  38.445  18.916  1.00  0.00     0.004 C 
ENDBRANCH  11  12
ENDBRANCH  10  11
ENDBRANCH   9  10
ENDBRANCH   8   9
ENDBRANCH   1   8
TORSDOF 9
ENDMDL
MODEL 5
REMARK VINA RESULT:    -4.540      3.790      7.393
REMARK INTER + INTRA:          -7.366
REMARK INTER:                  -6.907
REMARK INTRA:                  -0.460
REMARK UNBOUND:                -0.437
REMARK SMILES CCCCCCCCCCC(=O)[O-]
REMARK SMILES IDX 7 1 8 2 9 3 10 4 11 5 12 6 13 7 6 8 5 9 4 10 3 11 2 12 1 13
REMARK H PARENT
REMARK Flexibility Score: inf
ROOT
ATOM      1  C   UNL     1      -3.942  36.742  19.615  1.00  0.00     0.000 C 
ENDROOT
BRANCH   1   2
ATOM      2  C   UNL     1      -3.657  38.037  18.834  1.00  0.00     0.000 C 
BRANCH   2   3
ATOM      3  C   UNL     1      -2.348  37.968  18.025  1.00  0.00     0.006 C 
BRANCH   3   4
ATOM      4  C   UNL     1      -2.363  36.943  16.879  1.00  0.00     0.053 C 
BRANCH   4   5
ATOM      5  C   UNL     1      -2.429  37.603  15.537  1.00  0.00     0.041 C 
ATOM      6  O   UNL     1      -1.751  37.154  14.575  1.00  0.00    -0.550 OA
ATOM      7  O   UNL     1      -3.264  38.695  15.339  1.00  0.00    -0.550 OA
ENDBRANCH   4   5
ENDBRANCH   3   4
ENDBRANCH   2   3
ENDBRANCH   1   2
BRANCH   1   8
ATOM      8  C   UNL     1      -4.818  36.983  20.855  1.00  0.00     0.000 C 
BRANCH   8   9
ATOM      9  C   UNL     1      -4.644  38.393  21.440  1.00  0.00    -0.000 C 
BRANCH   9  10
ATOM     10  C   UNL     1      -5.192  38.465  22.871  1.00  0.00    -0.000 C 
BRANCH  10  11
ATOM     11  C   UNL     1      -5.174  37.086  23.540  1.00  0.00    -0.000 C 
BRANCH  11  12
ATOM     12  C   UNL     1      -5.057  37.214  25.062  1.00  0.00    -0.003 C 
ATOM     13  C   UNL     1      -5.270  38.656  25.513  1.00  0.00     0.004 C 
ENDBRANCH  11  12
ENDBRANCH  10  11
ENDBRANCH   9  10
ENDBRANCH   8   9
ENDBRANCH   1   8
TORSDOF 9
ENDMDL
MODEL 6
REMARK VINA RESULT:    -4.495      1.101      1.926
REMARK INTER + INTRA:          -7.297
REMARK INTER:                  -6.806
REMARK INTRA:                  -0.491
REMARK UNBOUND:                -0.437
REMARK SMILES CCCCCCCCCCC(=O)[O-]
REMARK SMILES IDX 7 1 8 2 9 3 10 4 11 5 12 6 13 7 6 8 5 9 4 10 3 11 2 12 1 13
REMARK H PARENT
REMARK Flexibility Score: inf
ROOT
ATOM      1  C   UNL     1      -3.504  38.109  19.667  1.00  0.00     0.000 C 
ENDROOT
BRANCH   1   2
ATOM      2  C   UNL     1      -4.500  36.947  19.829  1.00  0.00     0.000 C 
BRANCH   2   3
ATOM      3  C   UNL     1      -4.982  36.775  21.282  1.00  0.00     0.006 C 
BRANCH   3   4
ATOM      4  C   UNL     1      -4.803  38.023  22.163  1.00  0.00     0.053 C 
BRANCH   4   5
ATOM      5  C   UNL     1      -5.342  37.816  23.544  1.00  0.00     0.041 C 
ATOM      6  O   UNL     1      -6.125  38.662  24.053  1.00  0.00    -0.550 OA
ATOM      7  O   UNL     1      -5.005  36.674  24.259  1.00  0.00    -0.550 OA
ENDBRANCH   4   5
ENDBRANCH   3   4
ENDBRANCH   2   3
ENDBRANCH   1   2
BRANCH   1   8
ATOM      8  C   UNL     1      -2.721  38.033  18.346  1.00  0.00     0.000 C 
BRANCH   8   9
ATOM      9  C   UNL     1      -3.121  36.825  17.486  1.00  0.00    -0.000 C 
BRANCH   9  10
ATOM     10  C   UNL     1      -2.029  36.494  16.462  1.00  0.00    -0.000 C 
BRANCH  10  11
ATOM     11  C   UNL     1      -1.986  37.540  15.342  1.00  0.00    -0.000 C 
BRANCH  11  12
ATOM     12  C   UNL     1      -3.265  37.498  14.501  1.00  0.00    -0.003 C 
ATOM     13  C   UNL     1      -3.807  38.902  14.249  1.00  0.00     0.004 C 
ENDBRANCH  11  12
ENDBRANCH  10  11
ENDBRANCH   9  10
ENDBRANCH   8   9
ENDBRANCH   1   8
TORSDOF 9
ENDMDL
MODEL 7
REMARK VINA RESULT:    -4.438      1.489      2.288
REMARK INTER + INTRA:          -7.210
REMARK INTER:                  -6.607
REMARK INTRA:                  -0.603
REMARK UNBOUND:                -0.437
REMARK SMILES CCCCCCCCCCC(=O)[O-]
REMARK SMILES IDX 7 1 8 2 9 3 10 4 11 5 12 6 13 7 6 8 5 9 4 10 3 11 2 12 1 13
REMARK H PARENT
REMARK Flexibility Score: inf
ROOT
ATOM      1  C   UNL     1      -5.032  36.175  22.140  1.00  0.00     0.000 C 
ENDROOT
BRANCH   1   2
ATOM      2  C   UNL     1      -5.815  36.877  23.263  1.00  0.00     0.000 C 
BRANCH   2   3
ATOM      3  C   UNL     1      -4.911  37.722  24.181  1.00  0.00     0.006 C 
BRANCH   3   4
ATOM      4  C   UNL     1      -5.216  39.229  24.160  1.00  0.00     0.053 C 
BRANCH   4   5
ATOM      5  C   UNL     1      -4.949  39.836  22.817  1.00  0.00     0.041 C 
ATOM      6  O   UNL     1      -5.879  40.391  22.175  1.00  0.00    -0.550 OA
ATOM      7  O   UNL     1      -3.665  39.817  22.289  1.00  0.00    -0.550 OA
ENDBRANCH   4   5
ENDBRANCH   3   4
ENDBRANCH   2   3
ENDBRANCH   1   2
BRANCH   1   8
ATOM      8  C   UNL     1      -5.354  36.749  20.751  1.00  0.00     0.000 C 
BRANCH   8   9
ATOM      9  C   UNL     1      -4.166  36.657  19.781  1.00  0.00    -0.000 C 
BRANCH   9  10
ATOM     10  C   UNL     1      -3.832  38.033  19.191  1.00  0.00    -0.000 C 
BRANCH  10  11
ATOM     11  C   UNL     1      -2.612  37.955  18.265  1.00  0.00    -0.000 C 
BRANCH  11  12
ATOM     12  C   UNL     1      -2.842  36.943  17.137  1.00  0.00    -0.003 C 
ATOM     13  C   UNL     1      -1.636  36.873  16.204  1.00  0.00     0.004 C 
ENDBRANCH  11  12
ENDBRANCH  10  11
ENDBRANCH   9  10
ENDBRANCH   8   9
ENDBRANCH   1   8
TORSDOF 9
ENDMDL
MODEL 8
REMARK VINA RESULT:    -4.320      3.521      6.286
REMARK INTER + INTRA:          -7.031
REMARK INTER:                  -6.034
REMARK INTRA:                  -0.996
REMARK UNBOUND:                -0.437
REMARK SMILES CCCCCCCCCCC(=O)[O-]
REMARK SMILES IDX 7 1 8 2 9 3 10 4 11 5 12 6 13 7 6 8 5 9 4 10 3 11 2 12 1 13
REMARK H PARENT
REMARK Flexibility Score: inf
ROOT
ATOM      1  C   UNL     1      -5.508  35.640  23.185  1.00  0.00     0.000 C 
ENDROOT
BRANCH   1   2
ATOM      2  C   UNL     1      -5.633  36.359  21.831  1.00  0.00     0.000 C 
BRANCH   2   3
ATOM      3  C   UNL     1      -4.342  36.282  20.995  1.00  0.00     0.006 C 
BRANCH   3   4
ATOM      4  C   UNL     1      -4.332  37.191  19.755  1.00  0.00     0.053 C 
BRANCH   4   5
ATOM      5  C   UNL     1      -3.940  36.446  18.516  1.00  0.00     0.041 C 
ATOM      6  O   UNL     1      -3.098  36.940  17.719  1.00  0.00    -0.550 OA
ATOM      7  O   UNL     1      -4.479  35.193  18.258  1.00  0.00    -0.550 OA
ENDBRANCH   4   5
ENDBRANCH   3   4
ENDBRANCH   2   3
ENDBRANCH   1   2
BRANCH   1   8
ATOM      8  C   UNL     1      -6.068  36.473  24.349  1.00  0.00     0.000 C 
BRANCH   8   9
ATOM      9  C   UNL     1      -5.021  37.414  24.964  1.00  0.00    -0.000 C 
BRANCH   9  10
ATOM     10  C   UNL     1      -5.388  38.882  24.716  1.00  0.00    -0.000 C 
BRANCH  10  11
ATOM     11  C   UNL     1      -4.217  39.645  24.085  1.00  0.00    -0.000 C 
BRANCH  11  12
ATOM     12  C   UNL     1      -4.298  39.609  22.555  1.00  0.00    -0.003 C 
ATOM     13  C   UNL     1      -5.566  40.292  22.053  1.00  0.00     0.004 C 
ENDBRANCH  11  12
ENDBRANCH  10  11
ENDBRANCH   9  10
ENDBRANCH   8   9
ENDBRANCH   1   8
TORSDOF 9
ENDMDL
MODEL 9
REMARK VINA RESULT:    -4.217      3.579      6.702
REMARK INTER + INTRA:          -6.873
REMARK INTER:                  -6.084
REMARK INTRA:                  -0.789
REMARK UNBOUND:                -0.437
REMARK SMILES CCCCCCCCCCC(=O)[O-]
REMARK SMILES IDX 7 1 8 2 9 3 10 4 11 5 12 6 13 7 6 8 5 9 4 10 3 11 2 12 1 13
REMARK H PARENT
REMARK Flexibility Score: inf
ROOT
ATOM      1  C   UNL     1      -4.478  39.355  22.293  1.00  0.00     0.000 C 
ENDROOT
BRANCH   1   2
ATOM      2  C   UNL     1      -5.146  38.366  21.323  1.00  0.00     0.000 C 
BRANCH   2   3
ATOM      3  C   UNL     1      -4.318  38.134  20.045  1.00  0.00     0.006 C 
BRANCH   3   4
ATOM      4  C   UNL     1      -3.787  36.700  19.882  1.00  0.00     0.053 C 
BRANCH   4   5
ATOM      5  C   UNL     1      -3.779  36.264  18.450  1.00  0.00     0.041 C 
ATOM      6  O   UNL     1      -3.034  36.842  17.615  1.00  0.00    -0.550 OA
ATOM      7  O   UNL     1      -4.571  35.198  18.043  1.00  0.00    -0.550 OA
ENDBRANCH   4   5
ENDBRANCH   3   4
ENDBRANCH   2   3
ENDBRANCH   1   2
BRANCH   1   8
ATOM      8  C   UNL     1      -5.323  39.606  23.552  1.00  0.00     0.000 C 
BRANCH   8   9
ATOM      9  C   UNL     1      -4.713  38.975  24.813  1.00  0.00    -0.000 C 
BRANCH   9  10
ATOM     10  C   UNL     1      -4.638  37.449  24.682  1.00  0.00    -0.000 C 
BRANCH  10  11
ATOM     11  C   UNL     1      -6.028  36.815  24.816  1.00  0.00    -0.000 C 
BRANCH  11  12
ATOM     12  C   UNL     1      -6.084  35.459  24.103  1.00  0.00    -0.003 C 
ATOM     13  C   UNL     1      -4.901  35.283  23.156  1.00  0.00     0.004 C 
ENDBRANCH  11  12
ENDBRANCH  10  11
ENDBRANCH   9  10
ENDBRANCH   8   9
ENDBRANCH   1   8
TORSDOF 9
ENDMDL
