MODEL 1
REMARK VINA RESULT:    -2.116      0.000      0.000
REMARK INTER + INTRA:          -5.557
REMARK INTER:                  -3.972
REMARK INTRA:                  -1.585
REMARK UNBOUND:                -1.585
REMARK SMILES O=C([O-])CCCCCCCCCCCCCCC(=O)[O-]
REMARK SMILES IDX 10 1 9 2 8 3 7 4 6 5 5 6 4 7 2 8 1 9 3 10 11 11 12 12 13 13
REMARK SMILES IDX 14 14 15 15 16 16 17 17 18 18 19 19 20 20
REMARK H PARENT
REMARK Flexibility Score: inf
ROOT
ATOM      1  C   UNL     1      -4.169  -8.262   1.564  1.00  0.00     0.000 C 
ENDROOT
BRANCH   1   2
ATOM      2  C   UNL     1      -3.857  -9.410   2.540  1.00  0.00     0.000 C 
BRANCH   2   3
ATOM      3  C   UNL     1      -3.118  -8.987   3.822  1.00  0.00     0.000 C 
BRANCH   3   4
ATOM      4  C   UNL     1      -2.400 -10.160   4.512  1.00  0.00     0.000 C 
BRANCH   4   5
ATOM      5  C   UNL     1      -1.028  -9.763   5.081  1.00  0.00     0.000 C 
BRANCH   5   6
ATOM      6  C   UNL     1      -0.277  -8.776   4.172  1.00  0.00     0.006 C 
BRANCH   6   7
ATOM      7  C   UNL     1       0.414  -7.664   4.972  1.00  0.00     0.053 C 
BRANCH   7   8
ATOM      8  C   UNL     1       0.319  -6.338   4.279  1.00  0.00     0.041 C 
ATOM      9  O   UNL     1      -0.373  -5.412   4.777  1.00  0.00    -0.550 OA
ATOM     10  O   UNL     1       1.017  -6.118   3.098  1.00  0.00    -0.550 OA
ENDBRANCH   7   8
ENDBRANCH   6   7
ENDBRANCH   5   6
ENDBRANCH   4   5
ENDBRANCH   3   4
ENDBRANCH   2   3
ENDBRANCH   1   2
BRANCH   1  11
ATOM     11  C   UNL     1      -5.359  -8.567   0.640  1.00  0.00     0.000 C 
BRANCH  11  12
ATOM     12  C   UNL     1      -5.923  -9.968   0.918  1.00  0.00     0.000 C 
BRANCH  12  13
ATOM     13  C   UNL     1      -7.117  -9.945   1.886  1.00  0.00     0.000 C 
BRANCH  13  14
ATOM     14  C   UNL     1      -6.845 -10.728   3.178  1.00  0.00     0.000 C 
BRANCH  14  15
ATOM     15  C   UNL     1      -6.930  -9.811   4.404  1.00  0.00     0.000 C 
BRANCH  15  16
ATOM     16  C   UNL     1      -7.121  -8.348   3.986  1.00  0.00     0.006 C 
BRANCH  16  17
ATOM     17  C   UNL     1      -6.282  -7.412   4.862  1.00  0.00     0.053 C 
BRANCH  17  18
ATOM     18  C   UNL     1      -6.025  -6.120   4.153  1.00  0.00     0.041 C 
ATOM     19  O   UNL     1      -4.861  -5.827   3.776  1.00  0.00    -0.550 OA
ATOM     20  O   UNL     1      -7.062  -5.219   3.951  1.00  0.00    -0.550 OA
ENDBRANCH  17  18
ENDBRANCH  16  17
ENDBRANCH  15  16
ENDBRANCH  14  15
ENDBRANCH  13  14
ENDBRANCH  12  13
ENDBRANCH  11  12
ENDBRANCH   1  11
TORSDOF 15
ENDMDL
MODEL 2
REMARK VINA RESULT:    -1.710      2.211      3.251
REMARK INTER + INTRA:          -4.794
REMARK INTER:                  -3.271
REMARK INTRA:                  -1.523
REMARK UNBOUND:                -1.585
REMARK SMILES O=C([O-])CCCCCCCCCCCCCCC(=O)[O-]
REMARK SMILES IDX 10 1 9 2 8 3 7 4 6 5 5 6 4 7 2 8 1 9 3 10 11 11 12 12 13 13
REMARK SMILES IDX 14 14 15 15 16 16 17 17 18 18 19 19 20 20
REMARK H PARENT
REMARK Flexibility Score: inf
ROOT
ATOM      1  C   UNL     1      -3.774  -7.474   4.189  1.00  0.00     0.000 C 
ENDROOT
BRANCH   1   2
ATOM      2  C   UNL     1      -3.769  -8.875   4.828  1.00  0.00     0.000 C 
BRANCH   2   3
ATOM      3  C   UNL     1      -2.559  -9.751   4.459  1.00  0.00     0.000 C 
BRANCH   3   4
ATOM      4  C   UNL     1      -1.384  -8.937   3.889  1.00  0.00     0.000 C 
BRANCH   4   5
ATOM      5  C   UNL     1      -0.062  -9.211   4.625  1.00  0.00     0.000 C 
BRANCH   5   6
ATOM      6  C   UNL     1       0.612  -7.923   5.125  1.00  0.00     0.006 C 
BRANCH   6   7
ATOM      7  C   UNL     1      -0.264  -6.685   4.895  1.00  0.00     0.053 C 
BRANCH   7   8
ATOM      8  C   UNL     1       0.435  -5.654   4.061  1.00  0.00     0.041 C 
ATOM      9  O   UNL     1       0.286  -4.430   4.312  1.00  0.00    -0.550 OA
ATOM     10  O   UNL     1       1.271  -6.047   3.024  1.00  0.00    -0.550 OA
ENDBRANCH   7   8
ENDBRANCH   6   7
ENDBRANCH   5   6
ENDBRANCH   4   5
ENDBRANCH   3   4
ENDBRANCH   2   3
ENDBRANCH   1   2
BRANCH   1  11
ATOM     11  C   UNL     1      -4.835  -7.320   3.088  1.00  0.00     0.000 C 
BRANCH  11  12
ATOM     12  C   UNL     1      -6.244  -7.247   3.693  1.00  0.00     0.000 C 
BRANCH  12  13
ATOM     13  C   UNL     1      -7.125  -8.442   3.293  1.00  0.00     0.000 C 
BRANCH  13  14
ATOM     14  C   UNL     1      -7.072  -9.585   4.317  1.00  0.00     0.000 C 
BRANCH  14  15
ATOM     15  C   UNL     1      -6.790 -10.926   3.628  1.00  0.00     0.000 C 
BRANCH  15  16
ATOM     16  C   UNL     1      -6.984 -10.818   2.111  1.00  0.00     0.006 C 
BRANCH  16  17
ATOM     17  C   UNL     1      -5.648 -10.962   1.375  1.00  0.00     0.053 C 
BRANCH  17  18
ATOM     18  C   UNL     1      -5.749 -10.406  -0.010  1.00  0.00     0.041 C 
ATOM     19  O   UNL     1      -5.392 -11.100  -0.998  1.00  0.00    -0.550 OA
ATOM     20  O   UNL     1      -6.193  -9.104  -0.207  1.00  0.00    -0.550 OA
ENDBRANCH  17  18
ENDBRANCH  16  17
ENDBRANCH  15  16
ENDBRANCH  14  15
ENDBRANCH  13  14
ENDBRANCH  12  13
ENDBRANCH  11  12
ENDBRANCH   1  11
TORSDOF 15
ENDMDL
MODEL 3
REMARK VINA RESULT:    -1.686      2.414      4.711
REMARK INTER + INTRA:          -4.749
REMARK INTER:                  -3.202
REMARK INTRA:                  -1.547
REMARK UNBOUND:                -1.585
REMARK SMILES O=C([O-])CCCCCCCCCCCCCCC(=O)[O-]
REMARK SMILES IDX 10 1 9 2 8 3 7 4 6 5 5 6 4 7 2 8 1 9 3 10 11 11 12 12 13 13
REMARK SMILES IDX 14 14 15 15 16 16 17 17 18 18 19 19 20 20
REMARK H PARENT
REMARK Flexibility Score: inf
ROOT
ATOM      1  C   UNL     1      -0.781 -10.359   3.080  1.00  0.00     0.000 C 
ENDROOT
BRANCH   1   2
ATOM      2  C   UNL     1      -1.012  -8.842   2.962  1.00  0.00     0.000 C 
BRANCH   2   3
ATOM      3  C   UNL     1      -0.113  -7.977   3.863  1.00  0.00     0.000 C 
BRANCH   3   4
ATOM      4  C   UNL     1      -0.911  -6.977   4.718  1.00  0.00     0.000 C 
BRANCH   4   5
ATOM      5  C   UNL     1      -2.382  -7.388   4.892  1.00  0.00     0.000 C 
BRANCH   5   6
ATOM      6  C   UNL     1      -3.336  -6.539   4.036  1.00  0.00     0.006 C 
BRANCH   6   7
ATOM      7  C   UNL     1      -4.437  -7.385   3.384  1.00  0.00     0.053 C 
BRANCH   7   8
ATOM      8  C   UNL     1      -5.777  -6.721   3.470  1.00  0.00     0.041 C 
ATOM      9  O   UNL     1      -6.810  -7.326   3.083  1.00  0.00    -0.550 OA
ATOM     10  O   UNL     1      -5.888  -5.442   4.003  1.00  0.00    -0.550 OA
ENDBRANCH   7   8
ENDBRANCH   6   7
ENDBRANCH   5   6
ENDBRANCH   4   5
ENDBRANCH   3   4
ENDBRANCH   2   3
ENDBRANCH   1   2
BRANCH   1  11
ATOM     11  C   UNL     1      -2.035 -11.125   3.528  1.00  0.00     0.000 C 
BRANCH  11  12
ATOM     12  C   UNL     1      -2.765 -10.371   4.649  1.00  0.00     0.000 C 
BRANCH  12  13
ATOM     13  C   UNL     1      -4.250 -10.755   4.753  1.00  0.00     0.000 C 
BRANCH  13  14
ATOM     14  C   UNL     1      -4.862 -11.125   3.394  1.00  0.00     0.000 C 
BRANCH  14  15
ATOM     15  C   UNL     1      -6.364 -10.815   3.366  1.00  0.00     0.000 C 
BRANCH  15  16
ATOM     16  C   UNL     1      -6.875 -10.697   1.926  1.00  0.00     0.006 C 
BRANCH  16  17
ATOM     17  C   UNL     1      -5.712 -10.544   0.940  1.00  0.00     0.053 C 
BRANCH  17  18
ATOM     18  C   UNL     1      -6.069  -9.582  -0.148  1.00  0.00     0.041 C 
ATOM     19  O   UNL     1      -6.695  -9.981  -1.164  1.00  0.00    -0.550 OA
ATOM     20  O   UNL     1      -5.668  -8.255  -0.063  1.00  0.00    -0.550 OA
ENDBRANCH  17  18
ENDBRANCH  16  17
ENDBRANCH  15  16
ENDBRANCH  14  15
ENDBRANCH  13  14
ENDBRANCH  12  13
ENDBRANCH  11  12
ENDBRANCH   1  11
TORSDOF 15
ENDMDL
MODEL 4
REMARK VINA RESULT:    -1.297      1.383      2.029
REMARK INTER + INTRA:          -4.019
REMARK INTER:                  -3.259
REMARK INTRA:                  -0.760
REMARK UNBOUND:                -1.585
REMARK SMILES O=C([O-])CCCCCCCCCCCCCCC(=O)[O-]
REMARK SMILES IDX 10 1 9 2 8 3 7 4 6 5 5 6 4 7 2 8 1 9 3 10 11 11 12 12 13 13
REMARK SMILES IDX 14 14 15 15 16 16 17 17 18 18 19 19 20 20
REMARK H PARENT
REMARK Flexibility Score: inf
ROOT
ATOM      1  C   UNL     1      -3.121 -10.544   2.815  1.00  0.00     0.000 C 
ENDROOT
BRANCH   1   2
ATOM      2  C   UNL     1      -2.391  -9.313   3.382  1.00  0.00     0.000 C 
BRANCH   2   3
ATOM      3  C   UNL     1      -1.712  -9.533   4.745  1.00  0.00     0.000 C 
BRANCH   3   4
ATOM      4  C   UNL     1      -0.752  -8.393   5.125  1.00  0.00     0.000 C 
BRANCH   4   5
ATOM      5  C   UNL     1      -1.432  -7.014   5.107  1.00  0.00     0.000 C 
BRANCH   5   6
ATOM      6  C   UNL     1      -0.545  -5.927   4.478  1.00  0.00     0.006 C 
BRANCH   6   7
ATOM      7  C   UNL     1       0.826  -6.471   4.058  1.00  0.00     0.053 C 
BRANCH   7   8
ATOM      8  C   UNL     1       1.203  -6.030   2.676  1.00  0.00     0.041 C 
ATOM      9  O   UNL     1       1.904  -4.998   2.510  1.00  0.00    -0.550 OA
ATOM     10  O   UNL     1       0.801  -6.774   1.574  1.00  0.00    -0.550 OA
ENDBRANCH   7   8
ENDBRANCH   6   7
ENDBRANCH   5   6
ENDBRANCH   4   5
ENDBRANCH   3   4
ENDBRANCH   2   3
ENDBRANCH   1   2
BRANCH   1  11
ATOM     11  C   UNL     1      -4.348 -10.176   1.966  1.00  0.00     0.000 C 
BRANCH  11  12
ATOM     12  C   UNL     1      -5.533 -11.097   2.289  1.00  0.00     0.000 C 
BRANCH  12  13
ATOM     13  C   UNL     1      -6.871 -10.342   2.356  1.00  0.00     0.000 C 
BRANCH  13  14
ATOM     14  C   UNL     1      -7.118  -9.696   3.726  1.00  0.00     0.000 C 
BRANCH  14  15
ATOM     15  C   UNL     1      -5.796  -9.439   4.459  1.00  0.00     0.000 C 
BRANCH  15  16
ATOM     16  C   UNL     1      -5.656  -7.960   4.840  1.00  0.00     0.006 C 
BRANCH  16  17
ATOM     17  C   UNL     1      -6.358  -7.060   3.818  1.00  0.00     0.053 C 
BRANCH  17  18
ATOM     18  C   UNL     1      -5.971  -5.630   4.025  1.00  0.00     0.041 C 
ATOM     19  O   UNL     1      -6.723  -4.859   4.677  1.00  0.00    -0.550 OA
ATOM     20  O   UNL     1      -4.803  -5.136   3.458  1.00  0.00    -0.550 OA
ENDBRANCH  17  18
ENDBRANCH  16  17
ENDBRANCH  15  16
ENDBRANCH  14  15
ENDBRANCH  13  14
ENDBRANCH  12  13
ENDBRANCH  11  12
ENDBRANCH   1  11
TORSDOF 15
ENDMDL
MODEL 5
REMARK VINA RESULT:    -1.224      2.676      4.165
REMARK INTER + INTRA:          -3.881
REMARK INTER:                  -2.606
REMARK INTRA:                  -1.276
REMARK UNBOUND:                -1.585
REMARK SMILES O=C([O-])CCCCCCCCCCCCCCC(=O)[O-]
REMARK SMILES IDX 10 1 9 2 8 3 7 4 6 5 5 6 4 7 2 8 1 9 3 10 11 11 12 12 13 13
REMARK SMILES IDX 14 14 15 15 16 16 17 17 18 18 19 19 20 20
REMARK H PARENT
REMARK Flexibility Score: inf
ROOT
ATOM      1  C   UNL     1      -4.103  -5.191   3.650  1.00  0.00     0.000 C 
ENDROOT
BRANCH   1   2
ATOM      2  C   UNL     1      -3.985  -6.724   3.579  1.00  0.00     0.000 C 
BRANCH   2   3
ATOM      3  C   UNL     1      -3.299  -7.377   4.791  1.00  0.00     0.000 C 
BRANCH   3   4
ATOM      4  C   UNL     1      -2.691  -8.752   4.463  1.00  0.00     0.000 C 
BRANCH   4   5
ATOM      5  C   UNL     1      -3.180  -9.310   3.117  1.00  0.00     0.000 C 
BRANCH   5   6
ATOM      6  C   UNL     1      -2.739 -10.765   2.887  1.00  0.00     0.006 C 
BRANCH   6   7
ATOM      7  C   UNL     1      -1.486 -11.125   3.695  1.00  0.00     0.053 C 
BRANCH   7   8
ATOM      8  C   UNL     1      -0.239 -10.584   3.063  1.00  0.00     0.041 C 
ATOM      9  O   UNL     1       0.077 -10.925   1.894  1.00  0.00    -0.550 OA
ATOM     10  O   UNL     1       0.560  -9.684   3.758  1.00  0.00    -0.550 OA
ENDBRANCH   7   8
ENDBRANCH   6   7
ENDBRANCH   5   6
ENDBRANCH   4   5
ENDBRANCH   3   4
ENDBRANCH   2   3
ENDBRANCH   1   2
BRANCH   1  11
ATOM     11  C   UNL     1      -5.559  -4.700   3.646  1.00  0.00     0.000 C 
BRANCH  11  12
ATOM     12  C   UNL     1      -6.422  -5.539   4.600  1.00  0.00     0.000 C 
BRANCH  12  13
ATOM     13  C   UNL     1      -7.110  -6.719   3.894  1.00  0.00     0.000 C 
BRANCH  13  14
ATOM     14  C   UNL     1      -6.980  -8.034   4.676  1.00  0.00     0.000 C 
BRANCH  14  15
ATOM     15  C   UNL     1      -7.125  -9.243   3.745  1.00  0.00     0.000 C 
BRANCH  15  16
ATOM     16  C   UNL     1      -6.743  -8.879   2.305  1.00  0.00     0.006 C 
BRANCH  16  17
ATOM     17  C   UNL     1      -6.223 -10.106   1.548  1.00  0.00     0.053 C 
BRANCH  17  18
ATOM     18  C   UNL     1      -6.074  -9.799   0.092  1.00  0.00     0.041 C 
ATOM     19  O   UNL     1      -5.953 -10.733  -0.743  1.00  0.00    -0.550 OA
ATOM     20  O   UNL     1      -6.020  -8.479  -0.339  1.00  0.00    -0.550 OA
ENDBRANCH  17  18
ENDBRANCH  16  17
ENDBRANCH  15  16
ENDBRANCH  14  15
ENDBRANCH  13  14
ENDBRANCH  12  13
ENDBRANCH  11  12
ENDBRANCH   1  11
TORSDOF 15
ENDMDL
MODEL 6
REMARK VINA RESULT:    -1.115      2.781      5.272
REMARK INTER + INTRA:          -3.677
REMARK INTER:                  -2.585
REMARK INTRA:                  -1.091
REMARK UNBOUND:                -1.585
REMARK SMILES O=C([O-])CCCCCCCCCCCCCCC(=O)[O-]
REMARK SMILES IDX 10 1 9 2 8 3 7 4 6 5 5 6 4 7 2 8 1 9 3 10 11 11 12 12 13 13
REMARK SMILES IDX 14 14 15 15 16 16 17 17 18 18 19 19 20 20
REMARK H PARENT
REMARK Flexibility Score: inf
ROOT
ATOM      1  C   UNL     1       0.172  -7.369   2.783  1.00  0.00     0.000 C 
ENDROOT
BRANCH   1   2
ATOM      2  C   UNL     1       0.526  -6.966   4.226  1.00  0.00     0.000 C 
BRANCH   2   3
ATOM      3  C   UNL     1      -0.681  -6.640   5.122  1.00  0.00     0.000 C 
BRANCH   3   4
ATOM      4  C   UNL     1      -2.011  -6.620   4.349  1.00  0.00     0.000 C 
BRANCH   4   5
ATOM      5  C   UNL     1      -3.005  -7.680   4.851  1.00  0.00     0.000 C 
BRANCH   5   6
ATOM      6  C   UNL     1      -4.392  -7.543   4.202  1.00  0.00     0.006 C 
BRANCH   6   7
ATOM      7  C   UNL     1      -4.758  -6.079   3.924  1.00  0.00     0.053 C 
BRANCH   7   8
ATOM      8  C   UNL     1      -6.235  -5.845   4.019  1.00  0.00     0.041 C 
ATOM      9  O   UNL     1      -6.676  -4.770   4.502  1.00  0.00    -0.550 OA
ATOM     10  O   UNL     1      -7.124  -6.805   3.549  1.00  0.00    -0.550 OA
ENDBRANCH   7   8
ENDBRANCH   6   7
ENDBRANCH   5   6
ENDBRANCH   4   5
ENDBRANCH   3   4
ENDBRANCH   2   3
ENDBRANCH   1   2
BRANCH   1  11
ATOM     11  C   UNL     1      -0.120  -8.870   2.633  1.00  0.00     0.000 C 
BRANCH  11  12
ATOM     12  C   UNL     1      -0.275  -9.538   4.007  1.00  0.00     0.000 C 
BRANCH  12  13
ATOM     13  C   UNL     1      -1.225 -10.746   3.975  1.00  0.00     0.000 C 
BRANCH  13  14
ATOM     14  C   UNL     1      -2.228 -10.680   2.815  1.00  0.00     0.000 C 
BRANCH  14  15
ATOM     15  C   UNL     1      -3.635 -11.074   3.281  1.00  0.00     0.000 C 
BRANCH  15  16
ATOM     16  C   UNL     1      -4.613 -11.125   2.101  1.00  0.00     0.006 C 
BRANCH  16  17
ATOM     17  C   UNL     1      -4.695  -9.766   1.397  1.00  0.00     0.053 C 
BRANCH  17  18
ATOM     18  C   UNL     1      -6.039  -9.582   0.768  1.00  0.00     0.041 C 
ATOM     19  O   UNL     1      -6.922  -8.899   1.350  1.00  0.00    -0.550 OA
ATOM     20  O   UNL     1      -6.334 -10.203  -0.439  1.00  0.00    -0.550 OA
ENDBRANCH  17  18
ENDBRANCH  16  17
ENDBRANCH  15  16
ENDBRANCH  14  15
ENDBRANCH  13  14
ENDBRANCH  12  13
ENDBRANCH  11  12
ENDBRANCH   1  11
TORSDOF 15
ENDMDL
MODEL 7
REMARK VINA RESULT:    -0.899      2.235      3.511
REMARK INTER + INTRA:          -3.271
REMARK INTER:                  -2.518
REMARK INTRA:                  -0.753
REMARK UNBOUND:                -1.585
REMARK SMILES O=C([O-])CCCCCCCCCCCCCCC(=O)[O-]
REMARK SMILES IDX 10 1 9 2 8 3 7 4 6 5 5 6 4 7 2 8 1 9 3 10 11 11 12 12 13 13
REMARK SMILES IDX 14 14 15 15 16 16 17 17 18 18 19 19 20 20
REMARK H PARENT
REMARK Flexibility Score: inf
ROOT
ATOM      1  C   UNL     1      -2.655  -8.621   4.138  1.00  0.00     0.000 C 
ENDROOT
BRANCH   1   2
ATOM      2  C   UNL     1      -2.457  -7.251   4.812  1.00  0.00     0.000 C 
BRANCH   2   3
ATOM      3  C   UNL     1      -1.126  -6.553   4.480  1.00  0.00     0.000 C 
BRANCH   3   4
ATOM      4  C   UNL     1       0.093  -7.277   5.076  1.00  0.00     0.000 C 
BRANCH   4   5
ATOM      5  C   UNL     1       0.520  -8.499   4.245  1.00  0.00     0.000 C 
BRANCH   5   6
ATOM      6  C   UNL     1       0.848  -9.720   5.120  1.00  0.00     0.006 C 
BRANCH   6   7
ATOM      7  C   UNL     1       0.220 -11.009   4.573  1.00  0.00     0.053 C 
BRANCH   7   8
ATOM      8  C   UNL     1       0.272 -11.064   3.076  1.00  0.00     0.041 C 
ATOM      9  O   UNL     1       1.381 -11.125   2.483  1.00  0.00    -0.550 OA
ATOM     10  O   UNL     1      -0.905 -11.074   2.338  1.00  0.00    -0.550 OA
ENDBRANCH   7   8
ENDBRANCH   6   7
ENDBRANCH   5   6
ENDBRANCH   4   5
ENDBRANCH   3   4
ENDBRANCH   2   3
ENDBRANCH   1   2
BRANCH   1  11
ATOM     11  C   UNL     1      -3.531  -9.575   4.965  1.00  0.00     0.000 C 
BRANCH  11  12
ATOM     12  C   UNL     1      -3.626 -10.952   4.292  1.00  0.00     0.000 C 
BRANCH  12  13
ATOM     13  C   UNL     1      -4.577 -10.958   3.084  1.00  0.00     0.000 C 
BRANCH  13  14
ATOM     14  C   UNL     1      -4.389  -9.733   2.177  1.00  0.00     0.000 C 
BRANCH  14  15
ATOM     15  C   UNL     1      -5.712  -9.333   1.513  1.00  0.00     0.000 C 
BRANCH  15  16
ATOM     16  C   UNL     1      -6.773  -8.984   2.563  1.00  0.00     0.006 C 
BRANCH  16  17
ATOM     17  C   UNL     1      -6.783  -7.480   2.854  1.00  0.00     0.053 C 
BRANCH  17  18
ATOM     18  C   UNL     1      -6.614  -7.227   4.319  1.00  0.00     0.041 C 
ATOM     19  O   UNL     1      -6.546  -8.192   5.124  1.00  0.00    -0.550 OA
ATOM     20  O   UNL     1      -6.580  -5.925   4.801  1.00  0.00    -0.550 OA
ENDBRANCH  17  18
ENDBRANCH  16  17
ENDBRANCH  15  16
ENDBRANCH  14  15
ENDBRANCH  13  14
ENDBRANCH  12  13
ENDBRANCH  11  12
ENDBRANCH   1  11
TORSDOF 15
ENDMDL
MODEL 8
REMARK VINA RESULT:    -0.885      2.862      4.822
REMARK INTER + INTRA:          -3.245
REMARK INTER:                  -1.955
REMARK INTRA:                  -1.291
REMARK UNBOUND:                -1.585
REMARK SMILES O=C([O-])CCCCCCCCCCCCCCC(=O)[O-]
REMARK SMILES IDX 10 1 9 2 8 3 7 4 6 5 5 6 4 7 2 8 1 9 3 10 11 11 12 12 13 13
REMARK SMILES IDX 14 14 15 15 16 16 17 17 18 18 19 19 20 20
REMARK H PARENT
REMARK Flexibility Score: inf
ROOT
ATOM      1  C   UNL     1       0.043  -5.731   4.033  1.00  0.00     0.000 C 
ENDROOT
BRANCH   1   2
ATOM      2  C   UNL     1       0.779  -7.068   3.834  1.00  0.00     0.000 C 
BRANCH   2   3
ATOM      3  C   UNL     1       1.041  -7.863   5.125  1.00  0.00     0.000 C 
BRANCH   3   4
ATOM      4  C   UNL     1       0.365  -9.245   5.122  1.00  0.00     0.000 C 
BRANCH   4   5
ATOM      5  C   UNL     1       0.324  -9.882   3.723  1.00  0.00     0.000 C 
BRANCH   5   6
ATOM      6  C   UNL     1      -0.603 -11.107   3.660  1.00  0.00     0.006 C 
BRANCH   6   7
ATOM      7  C   UNL     1      -1.716 -11.045   4.714  1.00  0.00     0.053 C 
BRANCH   7   8
ATOM      8  C   UNL     1      -3.074 -10.950   4.088  1.00  0.00     0.041 C 
ATOM      9  O   UNL     1      -3.188 -10.803   2.843  1.00  0.00    -0.550 OA
ATOM     10  O   UNL     1      -4.213 -11.048   4.877  1.00  0.00    -0.550 OA
ENDBRANCH   7   8
ENDBRANCH   6   7
ENDBRANCH   5   6
ENDBRANCH   4   5
ENDBRANCH   3   4
ENDBRANCH   2   3
ENDBRANCH   1   2
BRANCH   1  11
ATOM     11  C   UNL     1      -1.303  -5.889   4.758  1.00  0.00     0.000 C 
BRANCH  11  12
ATOM     12  C   UNL     1      -2.111  -7.052   4.164  1.00  0.00     0.000 C 
BRANCH  12  13
ATOM     13  C   UNL     1      -3.612  -6.951   4.476  1.00  0.00     0.000 C 
BRANCH  13  14
ATOM     14  C   UNL     1      -4.480  -7.704   3.457  1.00  0.00     0.000 C 
BRANCH  14  15
ATOM     15  C   UNL     1      -5.968  -7.589   3.812  1.00  0.00     0.000 C 
BRANCH  15  16
ATOM     16  C   UNL     1      -6.850  -7.958   2.613  1.00  0.00     0.006 C 
BRANCH  16  17
ATOM     17  C   UNL     1      -6.649  -9.424   2.214  1.00  0.00     0.053 C 
BRANCH  17  18
ATOM     18  C   UNL     1      -6.231  -9.525   0.781  1.00  0.00     0.041 C 
ATOM     19  O   UNL     1      -5.292  -8.810   0.343  1.00  0.00    -0.550 OA
ATOM     20  O   UNL     1      -6.910 -10.375  -0.083  1.00  0.00    -0.550 OA
ENDBRANCH  17  18
ENDBRANCH  16  17
ENDBRANCH  15  16
ENDBRANCH  14  15
ENDBRANCH  13  14
ENDBRANCH  12  13
ENDBRANCH  11  12
ENDBRANCH   1  11
TORSDOF 15
ENDMDL
