MODEL 1
REMARK VINA RESULT:    -4.914      0.000      0.000
REMARK INTER + INTRA:          -5.993
REMARK INTER:                  -5.919
REMARK INTRA:                  -0.074
REMARK UNBOUND:                -0.074
REMARK SMILES CC[C@H](C)[C@@H]([NH3+])C(=O)[O-]
REMARK SMILES IDX 3 1 4 2 5 3 6 4 7 8 8 9 9 10 2 11 1 12
REMARK H PARENT 6 5 6 6 6 7
REMARK Flexibility Score: inf
ROOT
ATOM      1  C   UNL     1      20.463  23.310  27.400  1.00  0.00     0.050 C 
ATOM      2  C   UNL     1      21.749  22.797  26.727  1.00  0.00     0.014 C 
ENDROOT
BRANCH   1   3
ATOM      3  C   UNL     1      20.390  22.856  28.895  1.00  0.00     0.230 C 
BRANCH   3   4
ATOM      4  N   UNL     1      21.718  22.828  29.530  1.00  0.00    -0.350 N 
ATOM      5  H   UNL     1      21.798  23.597  30.235  1.00  0.00     0.345 HD
ATOM      6  H   UNL     1      22.474  22.943  28.814  1.00  0.00     0.345 HD
ATOM      7  H   UNL     1      21.854  21.928  30.043  1.00  0.00     0.345 HD
ENDBRANCH   3   4
BRANCH   3   8
ATOM      8  C   UNL     1      19.474  23.751  29.691  1.00  0.00     0.099 C 
ATOM      9  O   UNL     1      19.461  24.995  29.486  1.00  0.00    -0.544 OA
ATOM     10  O   UNL     1      18.627  23.205  30.646  1.00  0.00    -0.544 OA
ENDBRANCH   3   8
ENDBRANCH   1   3
BRANCH   1  11
ATOM     11  C   UNL     1      19.224  22.827  26.587  1.00  0.00     0.006 C 
ATOM     12  C   UNL     1      19.467  22.831  25.076  1.00  0.00     0.004 C 
ENDBRANCH   1  11
TORSDOF 4
ENDMDL
MODEL 2
REMARK VINA RESULT:    -4.864      3.590      4.444
REMARK INTER + INTRA:          -5.933
REMARK INTER:                  -5.831
REMARK INTRA:                  -0.102
REMARK UNBOUND:                -0.074
REMARK SMILES CC[C@H](C)[C@@H]([NH3+])C(=O)[O-]
REMARK SMILES IDX 3 1 4 2 5 3 6 4 7 8 8 9 9 10 2 11 1 12
REMARK H PARENT 6 5 6 6 6 7
REMARK Flexibility Score: inf
ROOT
ATOM      1  C   UNL     1      22.448  23.831  30.554  1.00  0.00     0.050 C 
ATOM      2  C   UNL     1      21.030  23.777  29.955  1.00  0.00     0.014 C 
ENDROOT
BRANCH   1   3
ATOM      3  C   UNL     1      22.881  25.306  30.843  1.00  0.00     0.230 C 
BRANCH   3   4
ATOM      4  N   UNL     1      22.251  26.259  29.916  1.00  0.00    -0.350 N 
ATOM      5  H   UNL     1      22.218  25.856  28.951  1.00  0.00     0.345 HD
ATOM      6  H   UNL     1      22.785  27.160  29.890  1.00  0.00     0.345 HD
ATOM      7  H   UNL     1      21.264  26.444  30.203  1.00  0.00     0.345 HD
ENDBRANCH   3   4
BRANCH   3   8
ATOM      8  C   UNL     1      22.557  25.699  32.262  1.00  0.00     0.099 C 
ATOM      9  O   UNL     1      22.316  24.816  33.129  1.00  0.00    -0.544 OA
ATOM     10  O   UNL     1      22.537  27.039  32.624  1.00  0.00    -0.544 OA
ENDBRANCH   3   8
ENDBRANCH   1   3
BRANCH   1  11
ATOM     11  C   UNL     1      23.444  23.112  29.594  1.00  0.00     0.006 C 
ATOM     12  C   UNL     1      22.875  22.912  28.188  1.00  0.00     0.004 C 
ENDBRANCH   1  11
TORSDOF 4
ENDMDL
MODEL 3
REMARK VINA RESULT:    -4.857      0.121      1.083
REMARK INTER + INTRA:          -5.924
REMARK INTER:                  -5.845
REMARK INTRA:                  -0.079
REMARK UNBOUND:                -0.074
REMARK SMILES CC[C@H](C)[C@@H]([NH3+])C(=O)[O-]
REMARK SMILES IDX 3 1 4 2 5 3 6 4 7 8 8 9 9 10 2 11 1 12
REMARK H PARENT 6 5 6 6 6 7
REMARK Flexibility Score: inf
ROOT
ATOM      1  C   UNL     1      20.512  23.284  27.379  1.00  0.00     0.050 C 
ATOM      2  C   UNL     1      21.762  22.768  26.643  1.00  0.00     0.014 C 
ENDROOT
BRANCH   1   3
ATOM      3  C   UNL     1      20.499  22.807  28.870  1.00  0.00     0.230 C 
BRANCH   3   4
ATOM      4  N   UNL     1      21.835  22.879  29.484  1.00  0.00    -0.350 N 
ATOM      5  H   UNL     1      21.780  23.353  30.415  1.00  0.00     0.345 HD
ATOM      6  H   UNL     1      22.498  23.411  28.871  1.00  0.00     0.345 HD
ATOM      7  H   UNL     1      22.208  21.918  29.653  1.00  0.00     0.345 HD
ENDBRANCH   3   4
BRANCH   3   8
ATOM      8  C   UNL     1      19.527  23.616  29.690  1.00  0.00     0.099 C 
ATOM      9  O   UNL     1      18.788  23.052  30.541  1.00  0.00    -0.544 OA
ATOM     10  O   UNL     1      19.452  24.992  29.522  1.00  0.00    -0.544 OA
ENDBRANCH   3   8
ENDBRANCH   1   3
BRANCH   1  11
ATOM     11  C   UNL     1      19.234  22.826  26.614  1.00  0.00     0.006 C 
ATOM     12  C   UNL     1      19.413  22.841  25.095  1.00  0.00     0.004 C 
ENDBRANCH   1  11
TORSDOF 4
ENDMDL
MODEL 4
REMARK VINA RESULT:    -4.746      2.949      3.522
REMARK INTER + INTRA:          -5.790
REMARK INTER:                  -5.667
REMARK INTRA:                  -0.124
REMARK UNBOUND:                -0.074
REMARK SMILES CC[C@H](C)[C@@H]([NH3+])C(=O)[O-]
REMARK SMILES IDX 3 1 4 2 5 3 6 4 7 8 8 9 9 10 2 11 1 12
REMARK H PARENT 6 5 6 6 6 7
REMARK Flexibility Score: inf
ROOT
ATOM      1  C   UNL     1      21.233  24.502  29.537  1.00  0.00     0.050 C 
ATOM      2  C   UNL     1      22.186  24.245  28.356  1.00  0.00     0.014 C 
ENDROOT
BRANCH   1   3
ATOM      3  C   UNL     1      21.849  23.987  30.880  1.00  0.00     0.230 C 
BRANCH   3   4
ATOM      4  N   UNL     1      22.985  23.079  30.655  1.00  0.00    -0.350 N 
ATOM      5  H   UNL     1      23.633  23.482  29.940  1.00  0.00     0.345 HD
ATOM      6  H   UNL     1      22.652  22.143  30.323  1.00  0.00     0.345 HD
ATOM      7  H   UNL     1      23.536  22.963  31.535  1.00  0.00     0.345 HD
ENDBRANCH   3   4
BRANCH   3   8
ATOM      8  C   UNL     1      22.291  25.135  31.751  1.00  0.00     0.099 C 
ATOM      9  O   UNL     1      22.624  26.235  31.235  1.00  0.00    -0.544 OA
ATOM     10  O   UNL     1      22.318  24.989  33.132  1.00  0.00    -0.544 OA
ENDBRANCH   3   8
ENDBRANCH   1   3
BRANCH   1  11
ATOM     11  C   UNL     1      19.852  23.842  29.242  1.00  0.00     0.006 C 
ATOM     12  C   UNL     1      19.182  23.279  30.497  1.00  0.00     0.004 C 
ENDBRANCH   1  11
TORSDOF 4
ENDMDL
MODEL 5
REMARK VINA RESULT:    -4.700      2.104      2.496
REMARK INTER + INTRA:          -5.736
REMARK INTER:                  -5.675
REMARK INTRA:                  -0.061
REMARK UNBOUND:                -0.074
REMARK SMILES CC[C@H](C)[C@@H]([NH3+])C(=O)[O-]
REMARK SMILES IDX 3 1 4 2 5 3 6 4 7 8 8 9 9 10 2 11 1 12
REMARK H PARENT 6 5 6 6 6 7
REMARK Flexibility Score: inf
ROOT
ATOM      1  C   UNL     1      21.848  23.576  27.440  1.00  0.00     0.050 C 
ATOM      2  C   UNL     1      23.043  22.785  26.875  1.00  0.00     0.014 C 
ENDROOT
BRANCH   1   3
ATOM      3  C   UNL     1      21.878  23.600  29.004  1.00  0.00     0.230 C 
BRANCH   3   4
ATOM      4  N   UNL     1      22.735  22.539  29.557  1.00  0.00    -0.350 N 
ATOM      5  H   UNL     1      23.218  22.878  30.420  1.00  0.00     0.345 HD
ATOM      6  H   UNL     1      23.457  22.243  28.858  1.00  0.00     0.345 HD
ATOM      7  H   UNL     1      22.157  21.714  29.835  1.00  0.00     0.345 HD
ENDBRANCH   3   4
BRANCH   3   8
ATOM      8  C   UNL     1      22.343  24.939  29.518  1.00  0.00     0.099 C 
ATOM      9  O   UNL     1      21.507  25.809  29.878  1.00  0.00    -0.544 OA
ATOM     10  O   UNL     1      23.702  25.212  29.611  1.00  0.00    -0.544 OA
ENDBRANCH   3   8
ENDBRANCH   1   3
BRANCH   1  11
ATOM     11  C   UNL     1      20.521  22.969  26.894  1.00  0.00     0.006 C 
ATOM     12  C   UNL     1      20.511  22.834  25.370  1.00  0.00     0.004 C 
ENDBRANCH   1  11
TORSDOF 4
ENDMDL
MODEL 6
REMARK VINA RESULT:    -4.581      2.613      3.132
REMARK INTER + INTRA:          -5.593
REMARK INTER:                  -5.521
REMARK INTRA:                  -0.072
REMARK UNBOUND:                -0.074
REMARK SMILES CC[C@H](C)[C@@H]([NH3+])C(=O)[O-]
REMARK SMILES IDX 3 1 4 2 5 3 6 4 7 8 8 9 9 10 2 11 1 12
REMARK H PARENT 6 5 6 6 6 7
REMARK Flexibility Score: inf
ROOT
ATOM      1  C   UNL     1      21.128  23.090  27.745  1.00  0.00     0.050 C 
ATOM      2  C   UNL     1      19.597  23.167  27.889  1.00  0.00     0.014 C 
ENDROOT
BRANCH   1   3
ATOM      3  C   UNL     1      21.827  24.243  28.538  1.00  0.00     0.230 C 
BRANCH   3   4
ATOM      4  N   UNL     1      20.933  24.845  29.540  1.00  0.00    -0.350 N 
ATOM      5  H   UNL     1      20.710  25.833  29.278  1.00  0.00     0.345 HD
ATOM      6  H   UNL     1      21.378  24.838  30.488  1.00  0.00     0.345 HD
ATOM      7  H   UNL     1      20.026  24.327  29.574  1.00  0.00     0.345 HD
ENDBRANCH   3   4
BRANCH   3   8
ATOM      8  C   UNL     1      23.081  23.753  29.216  1.00  0.00     0.099 C 
ATOM      9  O   UNL     1      23.245  22.524  29.442  1.00  0.00    -0.544 OA
ATOM     10  O   UNL     1      24.071  24.656  29.582  1.00  0.00    -0.544 OA
ENDBRANCH   3   8
ENDBRANCH   1   3
BRANCH   1  11
ATOM     11  C   UNL     1      21.508  23.113  26.233  1.00  0.00     0.006 C 
ATOM     12  C   UNL     1      20.316  22.830  25.316  1.00  0.00     0.004 C 
ENDBRANCH   1  11
TORSDOF 4
ENDMDL
MODEL 7
REMARK VINA RESULT:    -4.571      1.544      2.148
REMARK INTER + INTRA:          -5.580
REMARK INTER:                  -5.578
REMARK INTRA:                  -0.002
REMARK UNBOUND:                -0.074
REMARK SMILES CC[C@H](C)[C@@H]([NH3+])C(=O)[O-]
REMARK SMILES IDX 3 1 4 2 5 3 6 4 7 8 8 9 9 10 2 11 1 12
REMARK H PARENT 6 5 6 6 6 7
REMARK Flexibility Score: inf
ROOT
ATOM      1  C   UNL     1      20.438  22.882  28.195  1.00  0.00     0.050 C 
ATOM      2  C   UNL     1      19.256  23.279  27.291  1.00  0.00     0.014 C 
ENDROOT
BRANCH   1   3
ATOM      3  C   UNL     1      20.345  23.589  29.588  1.00  0.00     0.230 C 
BRANCH   3   4
ATOM      4  N   UNL     1      20.288  25.054  29.461  1.00  0.00    -0.350 N 
ATOM      5  H   UNL     1      20.199  25.495  30.406  1.00  0.00     0.345 HD
ATOM      6  H   UNL     1      19.471  25.345  28.873  1.00  0.00     0.345 HD
ATOM      7  H   UNL     1      21.172  25.415  29.037  1.00  0.00     0.345 HD
ENDBRANCH   3   4
BRANCH   3   8
ATOM      8  C   UNL     1      19.145  23.106  30.363  1.00  0.00     0.099 C 
ATOM      9  O   UNL     1      18.764  21.909  30.267  1.00  0.00    -0.544 OA
ATOM     10  O   UNL     1      18.462  23.978  31.200  1.00  0.00    -0.544 OA
ENDBRANCH   3   8
ENDBRANCH   1   3
BRANCH   1  11
ATOM     11  C   UNL     1      21.778  23.207  27.469  1.00  0.00     0.006 C 
ATOM     12  C   UNL     1      21.736  22.889  25.973  1.00  0.00     0.004 C 
ENDBRANCH   1  11
TORSDOF 4
ENDMDL
MODEL 8
REMARK VINA RESULT:    -4.549      1.926      2.377
REMARK INTER + INTRA:          -5.553
REMARK INTER:                  -5.470
REMARK INTRA:                  -0.083
REMARK UNBOUND:                -0.074
REMARK SMILES CC[C@H](C)[C@@H]([NH3+])C(=O)[O-]
REMARK SMILES IDX 3 1 4 2 5 3 6 4 7 8 8 9 9 10 2 11 1 12
REMARK H PARENT 6 5 6 6 6 7
REMARK Flexibility Score: inf
ROOT
ATOM      1  C   UNL     1      20.330  23.113  28.028  1.00  0.00     0.050 C 
ATOM      2  C   UNL     1      19.157  22.856  27.063  1.00  0.00     0.014 C 
ENDROOT
BRANCH   1   3
ATOM      3  C   UNL     1      20.051  24.356  28.936  1.00  0.00     0.230 C 
BRANCH   3   4
ATOM      4  N   UNL     1      18.867  24.162  29.788  1.00  0.00    -0.350 N 
ATOM      5  H   UNL     1      18.647  23.143  29.875  1.00  0.00     0.345 HD
ATOM      6  H   UNL     1      18.035  24.656  29.386  1.00  0.00     0.345 HD
ATOM      7  H   UNL     1      19.053  24.517  30.753  1.00  0.00     0.345 HD
ENDBRANCH   3   4
BRANCH   3   8
ATOM      8  C   UNL     1      21.243  24.675  29.801  1.00  0.00     0.099 C 
ATOM      9  O   UNL     1      21.785  25.812  29.746  1.00  0.00    -0.544 OA
ATOM     10  O   UNL     1      21.742  23.720  30.677  1.00  0.00    -0.544 OA
ENDBRANCH   3   8
ENDBRANCH   1   3
BRANCH   1  11
ATOM     11  C   UNL     1      21.647  23.276  27.210  1.00  0.00     0.006 C 
ATOM     12  C   UNL     1      21.512  22.797  25.764  1.00  0.00     0.004 C 
ENDBRANCH   1  11
TORSDOF 4
ENDMDL
MODEL 9
REMARK VINA RESULT:    -4.494      2.755      3.517
REMARK INTER + INTRA:          -5.487
REMARK INTER:                  -5.373
REMARK INTRA:                  -0.114
REMARK UNBOUND:                -0.074
REMARK SMILES CC[C@H](C)[C@@H]([NH3+])C(=O)[O-]
REMARK SMILES IDX 3 1 4 2 5 3 6 4 7 8 8 9 9 10 2 11 1 12
REMARK H PARENT 6 5 6 6 6 7
REMARK Flexibility Score: inf
ROOT
ATOM      1  C   UNL     1      20.263  22.859  27.332  1.00  0.00     0.050 C 
ATOM      2  C   UNL     1      19.675  23.101  28.734  1.00  0.00     0.014 C 
ENDROOT
BRANCH   1   3
ATOM      3  C   UNL     1      21.529  23.746  27.090  1.00  0.00     0.230 C 
BRANCH   3   4
ATOM      4  N   UNL     1      21.809  24.631  28.232  1.00  0.00    -0.350 N 
ATOM      5  H   UNL     1      21.827  25.630  27.920  1.00  0.00     0.345 HD
ATOM      6  H   UNL     1      22.732  24.395  28.667  1.00  0.00     0.345 HD
ATOM      7  H   UNL     1      21.053  24.549  28.948  1.00  0.00     0.345 HD
ENDBRANCH   3   4
BRANCH   3   8
ATOM      8  C   UNL     1      22.742  22.897  26.805  1.00  0.00     0.099 C 
ATOM      9  O   UNL     1      23.409  22.401  27.752  1.00  0.00    -0.544 OA
ATOM     10  O   UNL     1      23.120  22.644  25.493  1.00  0.00    -0.544 OA
ENDBRANCH   3   8
ENDBRANCH   1   3
BRANCH   1  11
ATOM     11  C   UNL     1      19.163  23.114  26.258  1.00  0.00     0.006 C 
ATOM     12  C   UNL     1      19.611  22.732  24.845  1.00  0.00     0.004 C 
ENDBRANCH   1  11
TORSDOF 4
ENDMDL
