MODEL 1
REMARK VINA RESULT:    -3.373      0.000      0.000
REMARK INTER + INTRA:          -9.038
REMARK INTER:                  -6.331
REMARK INTRA:                  -2.706
REMARK UNBOUND:                -2.706
REMARK SMILES CCCCCCCCC=CCCCCCCCC(=O)[O-]
REMARK SMILES IDX 10 1 9 2 11 3 12 4 13 5 14 6 15 7 16 8 17 9 18 10 19 11
REMARK SMILES IDX 20 12 8 13 7 14 6 15 5 16 4 17 3 18 2 19 1 20
REMARK H PARENT
REMARK Flexibility Score: inf
ROOT
ATOM      1  C   UNL     1      -7.510  28.416 -22.520  1.00  0.00    -0.031 C 
ATOM      2  C   UNL     1      -8.385  28.353 -21.505  1.00  0.00    -0.031 C 
ENDROOT
BRANCH   1   3
ATOM      3  C   UNL     1      -6.517  29.540 -22.633  1.00  0.00     0.027 C 
BRANCH   3   4
ATOM      4  C   UNL     1      -5.093  29.053 -22.336  1.00  0.00     0.004 C 
BRANCH   4   5
ATOM      5  C   UNL     1      -4.726  27.861 -23.231  1.00  0.00     0.000 C 
BRANCH   5   6
ATOM      6  C   UNL     1      -4.210  26.652 -22.432  1.00  0.00     0.000 C 
BRANCH   6   7
ATOM      7  C   UNL     1      -5.162  25.440 -22.402  1.00  0.00     0.000 C 
BRANCH   7   8
ATOM      8  C   UNL     1      -5.225  24.733 -21.032  1.00  0.00     0.006 C 
BRANCH   8   9
ATOM      9  C   UNL     1      -6.047  23.438 -21.082  1.00  0.00     0.053 C 
BRANCH   9  10
ATOM     10  C   UNL     1      -6.253  22.894 -19.703  1.00  0.00     0.041 C 
ATOM     11  O   UNL     1      -5.527  21.959 -19.276  1.00  0.00    -0.550 OA
ATOM     12  O   UNL     1      -7.214  23.454 -18.871  1.00  0.00    -0.550 OA
ENDBRANCH   9  10
ENDBRANCH   8   9
ENDBRANCH   7   8
ENDBRANCH   6   7
ENDBRANCH   5   6
ENDBRANCH   4   5
ENDBRANCH   3   4
ENDBRANCH   1   3
BRANCH   2  13
ATOM     13  C   UNL     1      -9.393  27.241 -21.402  1.00  0.00     0.027 C 
BRANCH  13  14
ATOM     14  C   UNL     1      -8.766  25.891 -21.782  1.00  0.00     0.004 C 
BRANCH  14  15
ATOM     15  C   UNL     1      -9.356  25.309 -23.084  1.00  0.00     0.000 C 
BRANCH  15  16
ATOM     16  C   UNL     1      -8.343  25.228 -24.243  1.00  0.00     0.000 C 
BRANCH  16  17
ATOM     17  C   UNL     1      -8.573  26.242 -25.378  1.00  0.00    -0.000 C 
BRANCH  17  18
ATOM     18  C   UNL     1      -7.303  26.958 -25.885  1.00  0.00    -0.000 C 
BRANCH  18  19
ATOM     19  C   UNL     1      -7.488  28.446 -26.226  1.00  0.00    -0.003 C 
ATOM     20  C   UNL     1      -6.164  29.184 -26.421  1.00  0.00     0.004 C 
ENDBRANCH  18  19
ENDBRANCH  17  18
ENDBRANCH  16  17
ENDBRANCH  15  16
ENDBRANCH  14  15
ENDBRANCH  13  14
ENDBRANCH   2  13
TORSDOF 15
ENDMDL
MODEL 2
REMARK VINA RESULT:    -3.258      1.848      4.954
REMARK INTER + INTRA:          -8.821
REMARK INTER:                  -6.759
REMARK INTRA:                  -2.062
REMARK UNBOUND:                -2.706
REMARK SMILES CCCCCCCCC=CCCCCCCCC(=O)[O-]
REMARK SMILES IDX 10 1 9 2 11 3 12 4 13 5 14 6 15 7 16 8 17 9 18 10 19 11
REMARK SMILES IDX 20 12 8 13 7 14 6 15 5 16 4 17 3 18 2 19 1 20
REMARK H PARENT
REMARK Flexibility Score: inf
ROOT
ATOM      1  C   UNL     1      -8.302  28.033 -21.697  1.00  0.00    -0.031 C 
ATOM      2  C   UNL     1      -7.408  28.380 -22.635  1.00  0.00    -0.031 C 
ENDROOT
BRANCH   1   3
ATOM      3  C   UNL     1      -9.283  26.915 -21.921  1.00  0.00     0.027 C 
BRANCH   3   4
ATOM      4  C   UNL     1      -9.039  26.225 -23.268  1.00  0.00     0.004 C 
BRANCH   4   5
ATOM      5  C   UNL     1      -9.509  24.764 -23.227  1.00  0.00     0.000 C 
BRANCH   5   6
ATOM      6  C   UNL     1      -8.355  23.773 -22.994  1.00  0.00     0.000 C 
BRANCH   6   7
ATOM      7  C   UNL     1      -8.523  22.859 -21.764  1.00  0.00     0.000 C 
BRANCH   7   8
ATOM      8  C   UNL     1      -7.741  23.336 -20.522  1.00  0.00     0.006 C 
BRANCH   8   9
ATOM      9  C   UNL     1      -8.603  24.190 -19.583  1.00  0.00     0.053 C 
BRANCH   9  10
ATOM     10  C   UNL     1      -8.390  23.782 -18.160  1.00  0.00     0.041 C 
ATOM     11  O   UNL     1      -8.645  24.586 -17.225  1.00  0.00    -0.550 OA
ATOM     12  O   UNL     1      -7.958  22.495 -17.862  1.00  0.00    -0.550 OA
ENDBRANCH   9  10
ENDBRANCH   8   9
ENDBRANCH   7   8
ENDBRANCH   6   7
ENDBRANCH   5   6
ENDBRANCH   4   5
ENDBRANCH   3   4
ENDBRANCH   1   3
BRANCH   2  13
ATOM     13  C   UNL     1      -6.442  29.512 -22.421  1.00  0.00     0.027 C 
BRANCH  13  14
ATOM     14  C   UNL     1      -5.193  29.346 -23.299  1.00  0.00     0.004 C 
BRANCH  14  15
ATOM     15  C   UNL     1      -3.912  29.867 -22.614  1.00  0.00     0.000 C 
BRANCH  15  16
ATOM     16  C   UNL     1      -3.909  29.687 -21.083  1.00  0.00     0.000 C 
BRANCH  16  17
ATOM     17  C   UNL     1      -3.022  28.541 -20.565  1.00  0.00    -0.000 C 
BRANCH  17  18
ATOM     18  C   UNL     1      -2.890  27.334 -21.517  1.00  0.00    -0.000 C 
BRANCH  18  19
ATOM     19  C   UNL     1      -3.618  26.060 -21.056  1.00  0.00    -0.003 C 
ATOM     20  C   UNL     1      -5.022  25.928 -21.646  1.00  0.00     0.004 C 
ENDBRANCH  18  19
ENDBRANCH  17  18
ENDBRANCH  16  17
ENDBRANCH  15  16
ENDBRANCH  14  15
ENDBRANCH  13  14
ENDBRANCH   2  13
TORSDOF 15
ENDMDL
MODEL 3
REMARK VINA RESULT:    -3.218      1.057      1.380
REMARK INTER + INTRA:          -8.745
REMARK INTER:                  -6.195
REMARK INTRA:                  -2.551
REMARK UNBOUND:                -2.706
REMARK SMILES CCCCCCCCC=CCCCCCCCC(=O)[O-]
REMARK SMILES IDX 10 1 9 2 11 3 12 4 13 5 14 6 15 7 16 8 17 9 18 10 19 11
REMARK SMILES IDX 20 12 8 13 7 14 6 15 5 16 4 17 3 18 2 19 1 20
REMARK H PARENT
REMARK Flexibility Score: inf
ROOT
ATOM      1  C   UNL     1      -7.355  28.153 -22.392  1.00  0.00    -0.031 C 
ATOM      2  C   UNL     1      -8.440  28.331 -21.625  1.00  0.00    -0.031 C 
ENDROOT
BRANCH   1   3
ATOM      3  C   UNL     1      -6.433  29.294 -22.728  1.00  0.00     0.027 C 
BRANCH   3   4
ATOM      4  C   UNL     1      -4.969  28.841 -22.730  1.00  0.00     0.004 C 
BRANCH   4   5
ATOM      5  C   UNL     1      -4.799  27.538 -21.936  1.00  0.00     0.000 C 
BRANCH   5   6
ATOM      6  C   UNL     1      -4.288  26.373 -22.802  1.00  0.00     0.000 C 
BRANCH   6   7
ATOM      7  C   UNL     1      -5.026  25.036 -22.594  1.00  0.00     0.000 C 
BRANCH   7   8
ATOM      8  C   UNL     1      -5.201  24.647 -21.111  1.00  0.00     0.006 C 
BRANCH   8   9
ATOM      9  C   UNL     1      -3.878  24.224 -20.459  1.00  0.00     0.053 C 
BRANCH   9  10
ATOM     10  C   UNL     1      -3.943  22.795 -20.022  1.00  0.00     0.041 C 
ATOM     11  O   UNL     1      -2.979  22.278 -19.399  1.00  0.00    -0.550 OA
ATOM     12  O   UNL     1      -5.090  22.046 -20.258  1.00  0.00    -0.550 OA
ENDBRANCH   9  10
ENDBRANCH   8   9
ENDBRANCH   7   8
ENDBRANCH   6   7
ENDBRANCH   5   6
ENDBRANCH   4   5
ENDBRANCH   3   4
ENDBRANCH   1   3
BRANCH   2  13
ATOM     13  C   UNL     1      -9.374  27.195 -21.306  1.00  0.00     0.027 C 
BRANCH  13  14
ATOM     14  C   UNL     1      -8.674  25.839 -21.482  1.00  0.00     0.004 C 
BRANCH  14  15
ATOM     15  C   UNL     1      -9.336  24.968 -22.571  1.00  0.00     0.000 C 
BRANCH  15  16
ATOM     16  C   UNL     1      -8.402  24.630 -23.750  1.00  0.00     0.000 C 
BRANCH  16  17
ATOM     17  C   UNL     1      -8.930  25.041 -25.135  1.00  0.00    -0.000 C 
BRANCH  17  18
ATOM     18  C   UNL     1      -8.733  26.529 -25.497  1.00  0.00    -0.000 C 
BRANCH  18  19
ATOM     19  C   UNL     1      -7.284  26.933 -25.817  1.00  0.00    -0.003 C 
ATOM     20  C   UNL     1      -7.157  28.383 -26.282  1.00  0.00     0.004 C 
ENDBRANCH  18  19
ENDBRANCH  17  18
ENDBRANCH  16  17
ENDBRANCH  15  16
ENDBRANCH  14  15
ENDBRANCH  13  14
ENDBRANCH   2  13
TORSDOF 15
ENDMDL
MODEL 4
REMARK VINA RESULT:    -3.178      4.224      6.364
REMARK INTER + INTRA:          -8.671
REMARK INTER:                  -6.391
REMARK INTRA:                  -2.280
REMARK UNBOUND:                -2.706
REMARK SMILES CCCCCCCCC=CCCCCCCCC(=O)[O-]
REMARK SMILES IDX 10 1 9 2 11 3 12 4 13 5 14 6 15 7 16 8 17 9 18 10 19 11
REMARK SMILES IDX 20 12 8 13 7 14 6 15 5 16 4 17 3 18 2 19 1 20
REMARK H PARENT
REMARK Flexibility Score: inf
ROOT
ATOM      1  C   UNL     1      -7.265  28.111 -22.341  1.00  0.00    -0.031 C 
ATOM      2  C   UNL     1      -8.478  27.941 -21.793  1.00  0.00    -0.031 C 
ENDROOT
BRANCH   1   3
ATOM      3  C   UNL     1      -6.738  29.480 -22.675  1.00  0.00     0.027 C 
BRANCH   3   4
ATOM      4  C   UNL     1      -6.457  29.615 -24.176  1.00  0.00     0.004 C 
BRANCH   4   5
ATOM      5  C   UNL     1      -5.756  30.946 -24.483  1.00  0.00     0.000 C 
BRANCH   5   6
ATOM      6  C   UNL     1      -6.703  32.155 -24.384  1.00  0.00     0.000 C 
BRANCH   6   7
ATOM      7  C   UNL     1      -6.449  33.265 -25.422  1.00  0.00     0.000 C 
BRANCH   7   8
ATOM      8  C   UNL     1      -6.736  32.836 -26.875  1.00  0.00     0.006 C 
BRANCH   8   9
ATOM      9  C   UNL     1      -8.168  32.315 -27.057  1.00  0.00     0.053 C 
BRANCH   9  10
ATOM     10  C   UNL     1      -8.163  31.006 -27.781  1.00  0.00     0.041 C 
ATOM     11  O   UNL     1      -8.054  29.928 -27.139  1.00  0.00    -0.550 OA
ATOM     12  O   UNL     1      -8.329  30.973 -29.160  1.00  0.00    -0.550 OA
ENDBRANCH   9  10
ENDBRANCH   8   9
ENDBRANCH   7   8
ENDBRANCH   6   7
ENDBRANCH   5   6
ENDBRANCH   4   5
ENDBRANCH   3   4
ENDBRANCH   1   3
BRANCH   2  13
ATOM     13  C   UNL     1      -9.014  26.571 -21.479  1.00  0.00     0.027 C 
BRANCH  13  14
ATOM     14  C   UNL     1      -7.936  25.496 -21.683  1.00  0.00     0.004 C 
BRANCH  14  15
ATOM     15  C   UNL     1      -8.461  24.271 -22.462  1.00  0.00     0.000 C 
BRANCH  15  16
ATOM     16  C   UNL     1      -9.635  24.592 -23.408  1.00  0.00     0.000 C 
BRANCH  16  17
ATOM     17  C   UNL     1      -9.239  24.823 -24.878  1.00  0.00    -0.000 C 
BRANCH  17  18
ATOM     18  C   UNL     1      -8.970  26.293 -25.260  1.00  0.00    -0.000 C 
BRANCH  18  19
ATOM     19  C   UNL     1      -7.622  26.546 -25.957  1.00  0.00    -0.003 C 
ATOM     20  C   UNL     1      -6.433  25.979 -25.183  1.00  0.00     0.004 C 
ENDBRANCH  18  19
ENDBRANCH  17  18
ENDBRANCH  16  17
ENDBRANCH  15  16
ENDBRANCH  14  15
ENDBRANCH  13  14
ENDBRANCH   2  13
TORSDOF 15
ENDMDL
MODEL 5
REMARK VINA RESULT:    -3.169      1.892      4.356
REMARK INTER + INTRA:          -8.655
REMARK INTER:                  -6.088
REMARK INTRA:                  -2.567
REMARK UNBOUND:                -2.706
REMARK SMILES CCCCCCCCC=CCCCCCCCC(=O)[O-]
REMARK SMILES IDX 10 1 9 2 11 3 12 4 13 5 14 6 15 7 16 8 17 9 18 10 19 11
REMARK SMILES IDX 20 12 8 13 7 14 6 15 5 16 4 17 3 18 2 19 1 20
REMARK H PARENT
REMARK Flexibility Score: inf
ROOT
ATOM      1  C   UNL     1      -8.376  28.338 -21.594  1.00  0.00    -0.031 C 
ATOM      2  C   UNL     1      -7.408  28.382 -22.521  1.00  0.00    -0.031 C 
ENDROOT
BRANCH   1   3
ATOM      3  C   UNL     1      -9.261  27.131 -21.437  1.00  0.00     0.027 C 
BRANCH   3   4
ATOM      4  C   UNL     1      -9.029  26.123 -22.569  1.00  0.00     0.004 C 
BRANCH   4   5
ATOM      5  C   UNL     1      -8.925  24.695 -22.015  1.00  0.00     0.000 C 
BRANCH   5   6
ATOM      6  C   UNL     1      -8.610  24.660 -20.509  1.00  0.00     0.000 C 
BRANCH   6   7
ATOM      7  C   UNL     1      -8.538  23.249 -19.894  1.00  0.00     0.000 C 
BRANCH   7   8
ATOM      8  C   UNL     1      -7.236  22.977 -19.112  1.00  0.00     0.006 C 
BRANCH   8   9
ATOM      9  C   UNL     1      -5.996  23.519 -19.837  1.00  0.00     0.053 C 
BRANCH   9  10
ATOM     10  C   UNL     1      -5.303  22.422 -20.582  1.00  0.00     0.041 C 
ATOM     11  O   UNL     1      -5.867  21.867 -21.562  1.00  0.00    -0.550 OA
ATOM     12  O   UNL     1      -4.014  22.045 -20.225  1.00  0.00    -0.550 OA
ENDBRANCH   9  10
ENDBRANCH   8   9
ENDBRANCH   7   8
ENDBRANCH   6   7
ENDBRANCH   5   6
ENDBRANCH   4   5
ENDBRANCH   3   4
ENDBRANCH   1   3
BRANCH   2  13
ATOM     13  C   UNL     1      -6.537  29.596 -22.694  1.00  0.00     0.027 C 
BRANCH  13  14
ATOM     14  C   UNL     1      -5.086  29.196 -22.999  1.00  0.00     0.004 C 
BRANCH  14  15
ATOM     15  C   UNL     1      -4.199  29.173 -21.737  1.00  0.00     0.000 C 
BRANCH  15  16
ATOM     16  C   UNL     1      -3.345  27.897 -21.600  1.00  0.00     0.000 C 
BRANCH  16  17
ATOM     17  C   UNL     1      -4.137  26.619 -21.272  1.00  0.00    -0.000 C 
BRANCH  17  18
ATOM     18  C   UNL     1      -4.115  25.535 -22.371  1.00  0.00    -0.000 C 
BRANCH  18  19
ATOM     19  C   UNL     1      -5.469  25.275 -23.054  1.00  0.00    -0.003 C 
ATOM     20  C   UNL     1      -5.531  25.812 -24.484  1.00  0.00     0.004 C 
ENDBRANCH  18  19
ENDBRANCH  17  18
ENDBRANCH  16  17
ENDBRANCH  15  16
ENDBRANCH  14  15
ENDBRANCH  13  14
ENDBRANCH   2  13
TORSDOF 15
ENDMDL
MODEL 6
REMARK VINA RESULT:    -3.152      1.750      3.816
REMARK INTER + INTRA:          -8.622
REMARK INTER:                  -6.761
REMARK INTRA:                  -1.861
REMARK UNBOUND:                -2.706
REMARK SMILES CCCCCCCCC=CCCCCCCCC(=O)[O-]
REMARK SMILES IDX 10 1 9 2 11 3 12 4 13 5 14 6 15 7 16 8 17 9 18 10 19 11
REMARK SMILES IDX 20 12 8 13 7 14 6 15 5 16 4 17 3 18 2 19 1 20
REMARK H PARENT
REMARK Flexibility Score: inf
ROOT
ATOM      1  C   UNL     1      -8.356  28.252 -21.608  1.00  0.00    -0.031 C 
ATOM      2  C   UNL     1      -7.319  28.362 -22.451  1.00  0.00    -0.031 C 
ENDROOT
BRANCH   1   3
ATOM      3  C   UNL     1      -9.340  27.119 -21.714  1.00  0.00     0.027 C 
BRANCH   3   4
ATOM      4  C   UNL     1      -9.168  26.357 -23.033  1.00  0.00     0.004 C 
BRANCH   4   5
ATOM      5  C   UNL     1      -9.046  24.848 -22.781  1.00  0.00     0.000 C 
BRANCH   5   6
ATOM      6  C   UNL     1      -8.583  24.517 -21.351  1.00  0.00     0.000 C 
BRANCH   6   7
ATOM      7  C   UNL     1      -7.345  23.603 -21.265  1.00  0.00     0.000 C 
BRANCH   7   8
ATOM      8  C   UNL     1      -7.625  22.238 -20.603  1.00  0.00     0.006 C 
BRANCH   8   9
ATOM      9  C   UNL     1      -6.826  22.043 -19.307  1.00  0.00     0.053 C 
BRANCH   9  10
ATOM     10  C   UNL     1      -7.710  22.225 -18.114  1.00  0.00     0.041 C 
ATOM     11  O   UNL     1      -7.904  21.269 -17.318  1.00  0.00    -0.550 OA
ATOM     12  O   UNL     1      -8.281  23.465 -17.853  1.00  0.00    -0.550 OA
ENDBRANCH   9  10
ENDBRANCH   8   9
ENDBRANCH   7   8
ENDBRANCH   6   7
ENDBRANCH   5   6
ENDBRANCH   4   5
ENDBRANCH   3   4
ENDBRANCH   1   3
BRANCH   2  13
ATOM     13  C   UNL     1      -6.348  29.506 -22.360  1.00  0.00     0.027 C 
BRANCH  13  14
ATOM     14  C   UNL     1      -5.813  29.888 -23.748  1.00  0.00     0.004 C 
BRANCH  14  15
ATOM     15  C   UNL     1      -6.591  31.061 -24.382  1.00  0.00     0.000 C 
BRANCH  15  16
ATOM     16  C   UNL     1      -7.333  30.686 -25.679  1.00  0.00     0.000 C 
BRANCH  16  17
ATOM     17  C   UNL     1      -6.479  29.947 -26.725  1.00  0.00    -0.000 C 
BRANCH  17  18
ATOM     18  C   UNL     1      -7.082  28.626 -27.248  1.00  0.00    -0.000 C 
BRANCH  18  19
ATOM     19  C   UNL     1      -7.597  27.671 -26.158  1.00  0.00    -0.003 C 
ATOM     20  C   UNL     1      -6.527  26.699 -25.661  1.00  0.00     0.004 C 
ENDBRANCH  18  19
ENDBRANCH  17  18
ENDBRANCH  16  17
ENDBRANCH  15  16
ENDBRANCH  14  15
ENDBRANCH  13  14
ENDBRANCH   2  13
TORSDOF 15
ENDMDL
MODEL 7
REMARK VINA RESULT:    -3.111      4.413      5.994
REMARK INTER + INTRA:          -8.546
REMARK INTER:                  -6.043
REMARK INTRA:                  -2.503
REMARK UNBOUND:                -2.706
REMARK SMILES CCCCCCCCC=CCCCCCCCC(=O)[O-]
REMARK SMILES IDX 10 1 9 2 11 3 12 4 13 5 14 6 15 7 16 8 17 9 18 10 19 11
REMARK SMILES IDX 20 12 8 13 7 14 6 15 5 16 4 17 3 18 2 19 1 20
REMARK H PARENT
REMARK Flexibility Score: inf
ROOT
ATOM      1  C   UNL     1      -9.020  26.575 -21.587  1.00  0.00    -0.031 C 
ATOM      2  C   UNL     1      -8.183  25.535 -21.714  1.00  0.00    -0.031 C 
ENDROOT
BRANCH   1   3
ATOM      3  C   UNL     1      -8.525  27.995 -21.643  1.00  0.00     0.027 C 
BRANCH   3   4
ATOM      4  C   UNL     1      -7.126  28.069 -22.266  1.00  0.00     0.004 C 
BRANCH   4   5
ATOM      5  C   UNL     1      -6.720  29.527 -22.524  1.00  0.00     0.000 C 
BRANCH   5   6
ATOM      6  C   UNL     1      -5.643  29.663 -23.614  1.00  0.00     0.000 C 
BRANCH   6   7
ATOM      7  C   UNL     1      -5.733  30.949 -24.458  1.00  0.00     0.000 C 
BRANCH   7   8
ATOM      8  C   UNL     1      -7.137  31.215 -25.039  1.00  0.00     0.006 C 
BRANCH   8   9
ATOM      9  C   UNL     1      -7.444  30.326 -26.251  1.00  0.00     0.053 C 
BRANCH   9  10
ATOM     10  C   UNL     1      -7.581  31.155 -27.489  1.00  0.00     0.041 C 
ATOM     11  O   UNL     1      -8.648  31.124 -28.158  1.00  0.00    -0.550 OA
ATOM     12  O   UNL     1      -6.550  32.001 -27.878  1.00  0.00    -0.550 OA
ENDBRANCH   9  10
ENDBRANCH   8   9
ENDBRANCH   7   8
ENDBRANCH   6   7
ENDBRANCH   5   6
ENDBRANCH   4   5
ENDBRANCH   3   4
ENDBRANCH   1   3
BRANCH   2  13
ATOM     13  C   UNL     1      -8.674  24.115 -21.636  1.00  0.00     0.027 C 
BRANCH  13  14
ATOM     14  C   UNL     1      -8.617  23.435 -23.012  1.00  0.00     0.004 C 
BRANCH  14  15
ATOM     15  C   UNL     1      -9.750  23.900 -23.951  1.00  0.00     0.000 C 
BRANCH  15  16
ATOM     16  C   UNL     1      -9.250  24.500 -25.280  1.00  0.00     0.000 C 
BRANCH  16  17
ATOM     17  C   UNL     1      -9.300  26.036 -25.358  1.00  0.00    -0.000 C 
BRANCH  17  18
ATOM     18  C   UNL     1      -7.933  26.726 -25.554  1.00  0.00    -0.000 C 
BRANCH  18  19
ATOM     19  C   UNL     1      -6.713  25.869 -25.176  1.00  0.00    -0.003 C 
ATOM     20  C   UNL     1      -5.383  26.576 -25.436  1.00  0.00     0.004 C 
ENDBRANCH  18  19
ENDBRANCH  17  18
ENDBRANCH  16  17
ENDBRANCH  15  16
ENDBRANCH  14  15
ENDBRANCH  13  14
ENDBRANCH   2  13
TORSDOF 15
ENDMDL
MODEL 8
REMARK VINA RESULT:    -3.089      3.802      6.573
REMARK INTER + INTRA:          -8.504
REMARK INTER:                  -5.982
REMARK INTRA:                  -2.521
REMARK UNBOUND:                -2.706
REMARK SMILES CCCCCCCCC=CCCCCCCCC(=O)[O-]
REMARK SMILES IDX 10 1 9 2 11 3 12 4 13 5 14 6 15 7 16 8 17 9 18 10 19 11
REMARK SMILES IDX 20 12 8 13 7 14 6 15 5 16 4 17 3 18 2 19 1 20
REMARK H PARENT
REMARK Flexibility Score: inf
ROOT
ATOM      1  C   UNL     1      -8.707  25.569 -23.682  1.00  0.00    -0.031 C 
ATOM      2  C   UNL     1      -9.232  25.451 -22.454  1.00  0.00    -0.031 C 
ENDROOT
BRANCH   1   3
ATOM      3  C   UNL     1      -9.161  24.694 -24.819  1.00  0.00     0.027 C 
BRANCH   3   4
ATOM      4  C   UNL     1      -8.696  25.253 -26.168  1.00  0.00     0.004 C 
BRANCH   4   5
ATOM      5  C   UNL     1      -7.387  26.041 -26.011  1.00  0.00     0.000 C 
BRANCH   5   6
ATOM      6  C   UNL     1      -7.523  27.514 -26.435  1.00  0.00     0.000 C 
BRANCH   6   7
ATOM      7  C   UNL     1      -6.846  27.869 -27.773  1.00  0.00     0.000 C 
BRANCH   7   8
ATOM      8  C   UNL     1      -6.575  29.377 -27.953  1.00  0.00     0.006 C 
BRANCH   8   9
ATOM      9  C   UNL     1      -6.628  30.141 -26.623  1.00  0.00     0.053 C 
BRANCH   9  10
ATOM     10  C   UNL     1      -7.745  31.137 -26.635  1.00  0.00     0.041 C 
ATOM     11  O   UNL     1      -8.538  31.188 -27.611  1.00  0.00    -0.550 OA
ATOM     12  O   UNL     1      -7.940  31.976 -25.544  1.00  0.00    -0.550 OA
ENDBRANCH   9  10
ENDBRANCH   8   9
ENDBRANCH   7   8
ENDBRANCH   6   7
ENDBRANCH   5   6
ENDBRANCH   4   5
ENDBRANCH   3   4
ENDBRANCH   1   3
BRANCH   2  13
ATOM     13  C   UNL     1      -8.763  26.310 -21.311  1.00  0.00     0.027 C 
BRANCH  13  14
ATOM     14  C   UNL     1      -9.137  27.782 -21.538  1.00  0.00     0.004 C 
BRANCH  14  15
ATOM     15  C   UNL     1      -7.903  28.708 -21.584  1.00  0.00     0.000 C 
BRANCH  15  16
ATOM     16  C   UNL     1      -7.228  28.775 -22.969  1.00  0.00     0.000 C 
BRANCH  16  17
ATOM     17  C   UNL     1      -5.707  28.538 -22.961  1.00  0.00    -0.000 C 
BRANCH  17  18
ATOM     18  C   UNL     1      -5.271  27.074 -23.182  1.00  0.00    -0.000 C 
BRANCH  18  19
ATOM     19  C   UNL     1      -5.075  26.254 -21.896  1.00  0.00    -0.003 C 
ATOM     20  C   UNL     1      -5.414  24.774 -22.074  1.00  0.00     0.004 C 
ENDBRANCH  18  19
ENDBRANCH  17  18
ENDBRANCH  16  17
ENDBRANCH  15  16
ENDBRANCH  14  15
ENDBRANCH  13  14
ENDBRANCH   2  13
TORSDOF 15
ENDMDL
MODEL 9
REMARK VINA RESULT:    -3.064      1.435      4.709
REMARK INTER + INTRA:          -8.457
REMARK INTER:                  -6.184
REMARK INTRA:                  -2.273
REMARK UNBOUND:                -2.706
REMARK SMILES CCCCCCCCC=CCCCCCCCC(=O)[O-]
REMARK SMILES IDX 10 1 9 2 11 3 12 4 13 5 14 6 15 7 16 8 17 9 18 10 19 11
REMARK SMILES IDX 20 12 8 13 7 14 6 15 5 16 4 17 3 18 2 19 1 20
REMARK H PARENT
REMARK Flexibility Score: inf
ROOT
ATOM      1  C   UNL     1      -6.873  27.159 -25.992  1.00  0.00    -0.031 C 
ATOM      2  C   UNL     1      -7.629  28.267 -25.981  1.00  0.00    -0.031 C 
ENDROOT
BRANCH   1   3
ATOM      3  C   UNL     1      -7.438  25.817 -25.617  1.00  0.00     0.027 C 
BRANCH   3   4
ATOM      4  C   UNL     1      -8.932  25.918 -25.286  1.00  0.00     0.004 C 
BRANCH   4   5
ATOM      5  C   UNL     1      -9.250  25.189 -23.972  1.00  0.00     0.000 C 
BRANCH   5   6
ATOM      6  C   UNL     1      -9.358  26.145 -22.771  1.00  0.00     0.000 C 
BRANCH   6   7
ATOM      7  C   UNL     1      -8.545  25.723 -21.532  1.00  0.00     0.000 C 
BRANCH   7   8
ATOM      8  C   UNL     1      -8.669  24.225 -21.186  1.00  0.00     0.006 C 
BRANCH   8   9
ATOM      9  C   UNL     1      -7.874  23.848 -19.929  1.00  0.00     0.053 C 
BRANCH   9  10
ATOM     10  C   UNL     1      -8.748  23.127 -18.952  1.00  0.00     0.041 C 
ATOM     11  O   UNL     1      -8.271  22.710 -17.864  1.00  0.00    -0.550 OA
ATOM     12  O   UNL     1     -10.101  22.961 -19.220  1.00  0.00    -0.550 OA
ENDBRANCH   9  10
ENDBRANCH   8   9
ENDBRANCH   7   8
ENDBRANCH   6   7
ENDBRANCH   5   6
ENDBRANCH   4   5
ENDBRANCH   3   4
ENDBRANCH   1   3
BRANCH   2  13
ATOM     13  C   UNL     1      -7.059  29.613 -26.334  1.00  0.00     0.027 C 
BRANCH  13  14
ATOM     14  C   UNL     1      -7.043  30.545 -25.113  1.00  0.00     0.004 C 
BRANCH  14  15
ATOM     15  C   UNL     1      -5.818  30.310 -24.204  1.00  0.00     0.000 C 
BRANCH  15  16
ATOM     16  C   UNL     1      -6.181  29.871 -22.772  1.00  0.00     0.000 C 
BRANCH  16  17
ATOM     17  C   UNL     1      -6.368  28.355 -22.586  1.00  0.00    -0.000 C 
BRANCH  17  18
ATOM     18  C   UNL     1      -5.076  27.568 -22.280  1.00  0.00    -0.000 C 
BRANCH  18  19
ATOM     19  C   UNL     1      -5.159  26.055 -22.543  1.00  0.00    -0.003 C 
ATOM     20  C   UNL     1      -4.728  25.215 -21.341  1.00  0.00     0.004 C 
ENDBRANCH  18  19
ENDBRANCH  17  18
ENDBRANCH  16  17
ENDBRANCH  15  16
ENDBRANCH  14  15
ENDBRANCH  13  14
ENDBRANCH   2  13
TORSDOF 15
ENDMDL
