MODEL 1
REMARK VINA RESULT:    -3.891      0.000      0.000
REMARK INTER + INTRA:          -7.312
REMARK INTER:                  -5.938
REMARK INTRA:                  -1.374
REMARK UNBOUND:                -1.374
REMARK SMILES CCCCCCCCCCC(=O)[O-]
REMARK SMILES IDX 7 1 8 2 9 3 10 4 11 5 12 6 13 7 6 8 5 9 4 10 3 11 2 12 1 13
REMARK H PARENT
REMARK Flexibility Score: inf
ROOT
ATOM      1  C   UNL     1      -6.942  38.064  19.646  1.00  0.00     0.000 C 
ENDROOT
BRANCH   1   2
ATOM      2  C   UNL     1      -5.655  38.022  18.804  1.00  0.00     0.000 C 
BRANCH   2   3
ATOM      3  C   UNL     1      -4.620  39.073  19.241  1.00  0.00     0.006 C 
BRANCH   3   4
ATOM      4  C   UNL     1      -3.300  38.943  18.469  1.00  0.00     0.053 C 
BRANCH   4   5
ATOM      5  C   UNL     1      -2.394  37.921  19.087  1.00  0.00     0.041 C 
ATOM      6  O   UNL     1      -1.636  38.241  20.039  1.00  0.00    -0.550 OA
ATOM      7  O   UNL     1      -2.363  36.625  18.587  1.00  0.00    -0.550 OA
ENDBRANCH   4   5
ENDBRANCH   3   4
ENDBRANCH   2   3
ENDBRANCH   1   2
BRANCH   1   8
ATOM      8  C   UNL     1      -7.069  39.281  20.579  1.00  0.00     0.000 C 
BRANCH   8   9
ATOM      9  C   UNL     1      -7.518  38.904  22.000  1.00  0.00    -0.000 C 
BRANCH   9  10
ATOM     10  C   UNL     1      -6.501  37.963  22.664  1.00  0.00    -0.000 C 
BRANCH  10  11
ATOM     11  C   UNL     1      -5.144  38.638  22.914  1.00  0.00    -0.000 C 
BRANCH  11  12
ATOM     12  C   UNL     1      -3.959  37.690  22.676  1.00  0.00    -0.003 C 
ATOM     13  C   UNL     1      -4.403  36.431  21.937  1.00  0.00     0.004 C 
ENDBRANCH  11  12
ENDBRANCH  10  11
ENDBRANCH   9  10
ENDBRANCH   8   9
ENDBRANCH   1   8
TORSDOF 9
ENDMDL
MODEL 2
REMARK VINA RESULT:    -3.694      2.482      4.201
REMARK INTER + INTRA:          -7.012
REMARK INTER:                  -5.736
REMARK INTRA:                  -1.276
REMARK UNBOUND:                -1.374
REMARK SMILES CCCCCCCCCCC(=O)[O-]
REMARK SMILES IDX 7 1 8 2 9 3 10 4 11 5 12 6 13 7 6 8 5 9 4 10 3 11 2 12 1 13
REMARK H PARENT
REMARK Flexibility Score: inf
ROOT
ATOM      1  C   UNL     1      -7.060  39.609  20.590  1.00  0.00     0.000 C 
ENDROOT
BRANCH   1   2
ATOM      2  C   UNL     1      -7.662  39.204  21.947  1.00  0.00     0.000 C 
BRANCH   2   3
ATOM      3  C   UNL     1      -6.592  38.863  22.999  1.00  0.00     0.006 C 
BRANCH   3   4
ATOM      4  C   UNL     1      -5.553  39.983  23.152  1.00  0.00     0.053 C 
BRANCH   4   5
ATOM      5  C   UNL     1      -4.634  39.732  24.309  1.00  0.00     0.041 C 
ATOM      6  O   UNL     1      -3.679  38.921  24.193  1.00  0.00    -0.550 OA
ATOM      7  O   UNL     1      -4.854  40.369  25.524  1.00  0.00    -0.550 OA
ENDBRANCH   4   5
ENDBRANCH   3   4
ENDBRANCH   2   3
ENDBRANCH   1   2
BRANCH   1   8
ATOM      8  C   UNL     1      -7.139  38.530  19.496  1.00  0.00     0.000 C 
BRANCH   8   9
ATOM      9  C   UNL     1      -5.793  37.834  19.241  1.00  0.00    -0.000 C 
BRANCH   9  10
ATOM     10  C   UNL     1      -4.624  38.712  19.714  1.00  0.00    -0.000 C 
BRANCH  10  11
ATOM     11  C   UNL     1      -3.683  37.975  20.680  1.00  0.00    -0.000 C 
BRANCH  11  12
ATOM     12  C   UNL     1      -4.043  36.490  20.838  1.00  0.00    -0.003 C 
ATOM     13  C   UNL     1      -4.212  36.120  22.309  1.00  0.00     0.004 C 
ENDBRANCH  11  12
ENDBRANCH  10  11
ENDBRANCH   9  10
ENDBRANCH   8   9
ENDBRANCH   1   8
TORSDOF 9
ENDMDL
MODEL 3
REMARK VINA RESULT:    -3.637      1.700      3.086
REMARK INTER + INTRA:          -6.924
REMARK INTER:                  -6.021
REMARK INTRA:                  -0.903
REMARK UNBOUND:                -1.374
REMARK SMILES CCCCCCCCCCC(=O)[O-]
REMARK SMILES IDX 7 1 8 2 9 3 10 4 11 5 12 6 13 7 6 8 5 9 4 10 3 11 2 12 1 13
REMARK H PARENT
REMARK Flexibility Score: inf
ROOT
ATOM      1  C   UNL     1      -4.120  36.529  20.963  1.00  0.00     0.000 C 
ENDROOT
BRANCH   1   2
ATOM      2  C   UNL     1      -3.303  37.680  20.348  1.00  0.00     0.000 C 
BRANCH   2   3
ATOM      3  C   UNL     1      -3.260  37.629  18.811  1.00  0.00     0.006 C 
BRANCH   3   4
ATOM      4  C   UNL     1      -1.912  37.116  18.286  1.00  0.00     0.053 C 
BRANCH   4   5
ATOM      5  C   UNL     1      -2.090  36.066  17.232  1.00  0.00     0.041 C 
ATOM      6  O   UNL     1      -2.425  36.393  16.064  1.00  0.00    -0.550 OA
ATOM      7  O   UNL     1      -1.919  34.724  17.550  1.00  0.00    -0.550 OA
ENDBRANCH   4   5
ENDBRANCH   3   4
ENDBRANCH   2   3
ENDBRANCH   1   2
BRANCH   1   8
ATOM      8  C   UNL     1      -4.693  36.815  22.363  1.00  0.00     0.000 C 
BRANCH   8   9
ATOM      9  C   UNL     1      -6.220  36.983  22.364  1.00  0.00    -0.000 C 
BRANCH   9  10
ATOM     10  C   UNL     1      -6.609  38.458  22.546  1.00  0.00    -0.000 C 
BRANCH  10  11
ATOM     11  C   UNL     1      -7.483  38.986  21.398  1.00  0.00    -0.000 C 
BRANCH  11  12
ATOM     12  C   UNL     1      -6.676  39.271  20.122  1.00  0.00    -0.003 C 
ATOM     13  C   UNL     1      -6.914  38.193  19.069  1.00  0.00     0.004 C 
ENDBRANCH  11  12
ENDBRANCH  10  11
ENDBRANCH   9  10
ENDBRANCH   8   9
ENDBRANCH   1   8
TORSDOF 9
ENDMDL
MODEL 4
REMARK VINA RESULT:    -3.625      1.756      3.922
REMARK INTER + INTRA:          -6.906
REMARK INTER:                  -5.700
REMARK INTRA:                  -1.206
REMARK UNBOUND:                -1.374
REMARK SMILES CCCCCCCCCCC(=O)[O-]
REMARK SMILES IDX 7 1 8 2 9 3 10 4 11 5 12 6 13 7 6 8 5 9 4 10 3 11 2 12 1 13
REMARK H PARENT
REMARK Flexibility Score: inf
ROOT
ATOM      1  C   UNL     1      -6.987  39.210  20.141  1.00  0.00     0.000 C 
ENDROOT
BRANCH   1   2
ATOM      2  C   UNL     1      -7.565  39.235  21.567  1.00  0.00     0.000 C 
BRANCH   2   3
ATOM      3  C   UNL     1      -6.881  38.226  22.507  1.00  0.00     0.006 C 
BRANCH   3   4
ATOM      4  C   UNL     1      -5.500  38.711  22.970  1.00  0.00     0.053 C 
BRANCH   4   5
ATOM      5  C   UNL     1      -4.459  37.644  22.821  1.00  0.00     0.041 C 
ATOM      6  O   UNL     1      -4.729  36.578  22.209  1.00  0.00    -0.550 OA
ATOM      7  O   UNL     1      -3.202  37.813  23.389  1.00  0.00    -0.550 OA
ENDBRANCH   4   5
ENDBRANCH   3   4
ENDBRANCH   2   3
ENDBRANCH   1   2
BRANCH   1   8
ATOM      8  C   UNL     1      -6.800  37.806  19.539  1.00  0.00     0.000 C 
BRANCH   8   9
ATOM      9  C   UNL     1      -5.620  37.726  18.559  1.00  0.00    -0.000 C 
BRANCH   9  10
ATOM     10  C   UNL     1      -4.420  38.533  19.077  1.00  0.00    -0.000 C 
BRANCH  10  11
ATOM     11  C   UNL     1      -3.174  37.664  19.303  1.00  0.00    -0.000 C 
BRANCH  11  12
ATOM     12  C   UNL     1      -2.053  38.417  20.037  1.00  0.00    -0.003 C 
ATOM     13  C   UNL     1      -2.528  39.790  20.503  1.00  0.00     0.004 C 
ENDBRANCH  11  12
ENDBRANCH  10  11
ENDBRANCH   9  10
ENDBRANCH   8   9
ENDBRANCH   1   8
TORSDOF 9
ENDMDL
MODEL 5
REMARK VINA RESULT:    -3.614      1.610      2.033
REMARK INTER + INTRA:          -6.890
REMARK INTER:                  -5.573
REMARK INTRA:                  -1.317
REMARK UNBOUND:                -1.374
REMARK SMILES CCCCCCCCCCC(=O)[O-]
REMARK SMILES IDX 7 1 8 2 9 3 10 4 11 5 12 6 13 7 6 8 5 9 4 10 3 11 2 12 1 13
REMARK H PARENT
REMARK Flexibility Score: inf
ROOT
ATOM      1  C   UNL     1      -5.908  40.532  20.971  1.00  0.00     0.000 C 
ENDROOT
BRANCH   1   2
ATOM      2  C   UNL     1      -4.735  40.079  20.084  1.00  0.00     0.000 C 
BRANCH   2   3
ATOM      3  C   UNL     1      -5.056  38.816  19.265  1.00  0.00     0.006 C 
BRANCH   3   4
ATOM      4  C   UNL     1      -3.789  38.137  18.726  1.00  0.00     0.053 C 
BRANCH   4   5
ATOM      5  C   UNL     1      -3.599  38.401  17.263  1.00  0.00     0.041 C 
ATOM      6  O   UNL     1      -2.978  39.427  16.881  1.00  0.00    -0.550 OA
ATOM      7  O   UNL     1      -4.137  37.532  16.323  1.00  0.00    -0.550 OA
ENDBRANCH   4   5
ENDBRANCH   3   4
ENDBRANCH   2   3
ENDBRANCH   1   2
BRANCH   1   8
ATOM      8  C   UNL     1      -7.135  39.603  20.948  1.00  0.00     0.000 C 
BRANCH   8   9
ATOM      9  C   UNL     1      -7.565  39.143  22.350  1.00  0.00    -0.000 C 
BRANCH   9  10
ATOM     10  C   UNL     1      -6.463  38.301  23.012  1.00  0.00    -0.000 C 
BRANCH  10  11
ATOM     11  C   UNL     1      -6.207  36.976  22.277  1.00  0.00    -0.000 C 
BRANCH  11  12
ATOM     12  C   UNL     1      -4.717  36.606  22.226  1.00  0.00    -0.003 C 
ATOM     13  C   UNL     1      -3.852  37.739  22.771  1.00  0.00     0.004 C 
ENDBRANCH  11  12
ENDBRANCH  10  11
ENDBRANCH   9  10
ENDBRANCH   8   9
ENDBRANCH   1   8
TORSDOF 9
ENDMDL
MODEL 6
REMARK VINA RESULT:    -3.590      1.360      3.026
REMARK INTER + INTRA:          -6.852
REMARK INTER:                  -5.654
REMARK INTRA:                  -1.198
REMARK UNBOUND:                -1.374
REMARK SMILES CCCCCCCCCCC(=O)[O-]
REMARK SMILES IDX 7 1 8 2 9 3 10 4 11 5 12 6 13 7 6 8 5 9 4 10 3 11 2 12 1 13
REMARK H PARENT
REMARK Flexibility Score: inf
ROOT
ATOM      1  C   UNL     1      -4.430  36.701  22.173  1.00  0.00     0.000 C 
ENDROOT
BRANCH   1   2
ATOM      2  C   UNL     1      -3.874  36.603  20.741  1.00  0.00     0.000 C 
BRANCH   2   3
ATOM      3  C   UNL     1      -3.032  37.827  20.341  1.00  0.00     0.006 C 
BRANCH   3   4
ATOM      4  C   UNL     1      -2.401  37.667  18.951  1.00  0.00     0.053 C 
BRANCH   4   5
ATOM      5  C   UNL     1      -3.307  38.170  17.869  1.00  0.00     0.041 C 
ATOM      6  O   UNL     1      -4.004  37.362  17.201  1.00  0.00    -0.550 OA
ATOM      7  O   UNL     1      -3.354  39.527  17.575  1.00  0.00    -0.550 OA
ENDBRANCH   4   5
ENDBRANCH   3   4
ENDBRANCH   2   3
ENDBRANCH   1   2
BRANCH   1   8
ATOM      8  C   UNL     1      -4.129  38.025  22.897  1.00  0.00     0.000 C 
BRANCH   8   9
ATOM      9  C   UNL     1      -5.349  38.957  22.975  1.00  0.00    -0.000 C 
BRANCH   9  10
ATOM     10  C   UNL     1      -6.638  38.203  22.614  1.00  0.00    -0.000 C 
BRANCH  10  11
ATOM     11  C   UNL     1      -7.475  38.936  21.555  1.00  0.00    -0.000 C 
BRANCH  11  12
ATOM     12  C   UNL     1      -6.670  39.267  20.289  1.00  0.00    -0.003 C 
ATOM     13  C   UNL     1      -6.821  38.170  19.240  1.00  0.00     0.004 C 
ENDBRANCH  11  12
ENDBRANCH  10  11
ENDBRANCH   9  10
ENDBRANCH   8   9
ENDBRANCH   1   8
TORSDOF 9
ENDMDL
MODEL 7
REMARK VINA RESULT:    -3.483      2.554      4.132
REMARK INTER + INTRA:          -6.689
REMARK INTER:                  -5.403
REMARK INTRA:                  -1.286
REMARK UNBOUND:                -1.374
REMARK SMILES CCCCCCCCCCC(=O)[O-]
REMARK SMILES IDX 7 1 8 2 9 3 10 4 11 5 12 6 13 7 6 8 5 9 4 10 3 11 2 12 1 13
REMARK H PARENT
REMARK Flexibility Score: inf
ROOT
ATOM      1  C   UNL     1      -5.813  37.724  18.491  1.00  0.00     0.000 C 
ENDROOT
BRANCH   1   2
ATOM      2  C   UNL     1      -6.873  37.697  19.607  1.00  0.00     0.000 C 
BRANCH   2   3
ATOM      3  C   UNL     1      -7.229  39.101  20.128  1.00  0.00     0.006 C 
BRANCH   3   4
ATOM      4  C   UNL     1      -7.474  39.111  21.643  1.00  0.00     0.053 C 
BRANCH   4   5
ATOM      5  C   UNL     1      -6.535  40.039  22.351  1.00  0.00     0.041 C 
ATOM      6  O   UNL     1      -6.107  41.070  21.770  1.00  0.00    -0.550 OA
ATOM      7  O   UNL     1      -6.106  39.746  23.640  1.00  0.00    -0.550 OA
ENDBRANCH   4   5
ENDBRANCH   3   4
ENDBRANCH   2   3
ENDBRANCH   1   2
BRANCH   1   8
ATOM      8  C   UNL     1      -4.630  38.676  18.742  1.00  0.00     0.000 C 
BRANCH   8   9
ATOM      9  C   UNL     1      -3.265  37.984  18.608  1.00  0.00    -0.000 C 
BRANCH   9  10
ATOM     10  C   UNL     1      -2.615  37.782  19.985  1.00  0.00    -0.000 C 
BRANCH  10  11
ATOM     11  C   UNL     1      -3.338  38.553  21.100  1.00  0.00    -0.000 C 
BRANCH  11  12
ATOM     12  C   UNL     1      -3.759  37.648  22.268  1.00  0.00    -0.003 C 
ATOM     13  C   UNL     1      -4.191  36.272  21.768  1.00  0.00     0.004 C 
ENDBRANCH  11  12
ENDBRANCH  10  11
ENDBRANCH   9  10
ENDBRANCH   8   9
ENDBRANCH   1   8
TORSDOF 9
ENDMDL
MODEL 8
REMARK VINA RESULT:    -3.463     10.781     12.749
REMARK INTER + INTRA:          -6.658
REMARK INTER:                  -6.157
REMARK INTRA:                  -0.501
REMARK UNBOUND:                -1.374
REMARK SMILES CCCCCCCCCCC(=O)[O-]
REMARK SMILES IDX 7 1 8 2 9 3 10 4 11 5 12 6 13 7 6 8 5 9 4 10 3 11 2 12 1 13
REMARK H PARENT
REMARK Flexibility Score: inf
ROOT
ATOM      1  C   UNL     1      -0.213  25.656  16.208  1.00  0.00     0.000 C 
ENDROOT
BRANCH   1   2
ATOM      2  C   UNL     1       0.380  25.396  17.604  1.00  0.00     0.000 C 
BRANCH   2   3
ATOM      3  C   UNL     1      -0.697  25.180  18.681  1.00  0.00     0.006 C 
BRANCH   3   4
ATOM      4  C   UNL     1      -0.276  25.747  20.044  1.00  0.00     0.053 C 
BRANCH   4   5
ATOM      5  C   UNL     1      -1.163  25.256  21.147  1.00  0.00     0.041 C 
ATOM      6  O   UNL     1      -1.941  26.052  21.735  1.00  0.00    -0.550 OA
ATOM      7  O   UNL     1      -1.103  23.927  21.550  1.00  0.00    -0.550 OA
ENDBRANCH   4   5
ENDBRANCH   3   4
ENDBRANCH   2   3
ENDBRANCH   1   2
BRANCH   1   8
ATOM      8  C   UNL     1      -0.681  27.102  15.960  1.00  0.00     0.000 C 
BRANCH   8   9
ATOM      9  C   UNL     1       0.402  28.145  16.274  1.00  0.00    -0.000 C 
BRANCH   9  10
ATOM     10  C   UNL     1      -0.070  29.112  17.372  1.00  0.00    -0.000 C 
BRANCH  10  11
ATOM     11  C   UNL     1       0.240  30.580  17.042  1.00  0.00    -0.000 C 
BRANCH  11  12
ATOM     12  C   UNL     1      -0.894  31.531  17.453  1.00  0.00    -0.003 C 
ATOM     13  C   UNL     1      -0.452  32.988  17.356  1.00  0.00     0.004 C 
ENDBRANCH  11  12
ENDBRANCH  10  11
ENDBRANCH   9  10
ENDBRANCH   8   9
ENDBRANCH   1   8
TORSDOF 9
ENDMDL
MODEL 9
REMARK VINA RESULT:    -3.458     17.082     19.002
REMARK INTER + INTRA:          -6.651
REMARK INTER:                  -5.969
REMARK INTRA:                  -0.682
REMARK UNBOUND:                -1.374
REMARK SMILES CCCCCCCCCCC(=O)[O-]
REMARK SMILES IDX 7 1 8 2 9 3 10 4 11 5 12 6 13 7 6 8 5 9 4 10 3 11 2 12 1 13
REMARK H PARENT
REMARK Flexibility Score: inf
ROOT
ATOM      1  C   UNL     1      -7.512  23.128  34.049  1.00  0.00     0.000 C 
ENDROOT
BRANCH   1   2
ATOM      2  C   UNL     1      -6.400  24.093  33.602  1.00  0.00     0.000 C 
BRANCH   2   3
ATOM      3  C   UNL     1      -6.434  25.436  34.353  1.00  0.00     0.006 C 
BRANCH   3   4
ATOM      4  C   UNL     1      -5.101  26.189  34.254  1.00  0.00     0.053 C 
BRANCH   4   5
ATOM      5  C   UNL     1      -5.173  27.317  33.270  1.00  0.00     0.041 C 
ATOM      6  O   UNL     1      -5.851  28.344  33.534  1.00  0.00    -0.550 OA
ATOM      7  O   UNL     1      -4.521  27.218  32.048  1.00  0.00    -0.550 OA
ENDBRANCH   4   5
ENDBRANCH   3   4
ENDBRANCH   2   3
ENDBRANCH   1   2
BRANCH   1   8
ATOM      8  C   UNL     1      -7.454  21.729  33.409  1.00  0.00     0.000 C 
BRANCH   8   9
ATOM      9  C   UNL     1      -8.622  21.461  32.447  1.00  0.00    -0.000 C 
BRANCH   9  10
ATOM     10  C   UNL     1      -8.112  21.240  31.015  1.00  0.00    -0.000 C 
BRANCH  10  11
ATOM     11  C   UNL     1      -7.763  22.555  30.301  1.00  0.00    -0.000 C 
BRANCH  11  12
ATOM     12  C   UNL     1      -6.250  22.743  30.113  1.00  0.00    -0.003 C 
ATOM     13  C   UNL     1      -5.626  21.526  29.437  1.00  0.00     0.004 C 
ENDBRANCH  11  12
ENDBRANCH  10  11
ENDBRANCH   9  10
ENDBRANCH   8   9
ENDBRANCH   1   8
TORSDOF 9
ENDMDL
