MODEL 1
REMARK VINA RESULT:    -4.978      0.000      0.000
REMARK INTER + INTRA:          -8.044
REMARK INTER:                  -6.579
REMARK INTRA:                  -1.465
REMARK UNBOUND:                -1.465
REMARK SMILES CC[C@@H](C=C[C@H](C)[C@@H]1CC[C@@H]2C3=CC[C@@H]4C[C@@H](O)CC[C@]4(C)[C@@H]3CC[C@]21C)C(C)C
REMARK SMILES IDX 6 1 7 2 5 3 4 4 3 5 2 6 1 7 28 8 29 9 30 10 8 11 9 12 26 13
REMARK SMILES IDX 10 14 11 15 25 16 27 17 12 18 24 19 23 20 13 21 21 22 14 23
REMARK SMILES IDX 15 24 20 25 22 26 16 27 19 28 17 29 18 30
REMARK H PARENT 18 31
REMARK Flexibility Score: inf
ROOT
ATOM      1  C   UNL     1     -10.160  22.161  11.874  1.00  0.00     0.012 C 
ATOM      2  C   UNL     1     -11.140  20.977  11.880  1.00  0.00     0.012 C 
ENDROOT
BRANCH   1   3
ATOM      3  C   UNL     1     -10.174  22.829  13.234  1.00  0.00    -0.028 C 
ATOM      4  C   UNL     1     -10.146  24.165  13.389  1.00  0.00    -0.027 C 
BRANCH   4   5
ATOM      5  C   UNL     1     -10.117  24.798  14.766  1.00  0.00     0.014 C 
BRANCH   5   6
ATOM      6  C   UNL     1     -10.983  26.085  14.816  1.00  0.00     0.004 C 
ATOM      7  C   UNL     1     -10.486  27.189  15.752  1.00  0.00     0.004 C 
ENDBRANCH   5   6
BRANCH   5   8
ATOM      8  C   UNL     1      -8.662  24.912  15.330  1.00  0.00    -0.011 C 
ATOM      9  C   UNL     1      -7.635  25.249  14.239  1.00  0.00     0.008 C 
ATOM     10  C   UNL     1      -8.190  23.706  16.165  1.00  0.00     0.008 C 
ENDBRANCH   5   8
ENDBRANCH   4   5
ENDBRANCH   1   3
BRANCH   1  11
ATOM     11  C   UNL     1      -8.709  21.754  11.456  1.00  0.00     0.002 C 
ATOM     12  C   UNL     1      -7.711  21.857  12.641  1.00  0.00     0.005 C 
ATOM     13  C   UNL     1      -8.024  22.568  10.319  1.00  0.00    -0.023 C 
ATOM     14  C   UNL     1      -6.366  22.321  12.063  1.00  0.00     0.009 C 
ATOM     15  C   UNL     1      -6.554  22.203  10.555  1.00  0.00     0.021 C 
ATOM     16  C   UNL     1      -8.365  22.107   8.880  1.00  0.00     0.008 C 
ATOM     17  C   UNL     1      -8.281  24.100  10.490  1.00  0.00     0.012 C 
ATOM     18  C   UNL     1      -5.629  22.936   9.604  1.00  0.00    -0.067 C 
ATOM     19  C   UNL     1      -7.496  22.844   7.837  1.00  0.00     0.009 C 
ATOM     20  C   UNL     1      -5.955  22.784   8.117  1.00  0.00     0.021 C 
ATOM     21  C   UNL     1      -4.408  23.327  10.011  1.00  0.00    -0.027 C 
ATOM     22  C   UNL     1      -5.093  23.697   7.155  1.00  0.00    -0.023 C 
ATOM     23  C   UNL     1      -3.423  24.001   9.111  1.00  0.00     0.031 C 
ATOM     24  C   UNL     1      -3.597  23.648   7.615  1.00  0.00     0.002 C 
ATOM     25  C   UNL     1      -5.568  25.183   7.148  1.00  0.00     0.010 C 
ATOM     26  C   UNL     1      -5.219  23.111   5.716  1.00  0.00     0.012 C 
ATOM     27  C   UNL     1      -2.684  24.567   6.763  1.00  0.00     0.036 C 
ATOM     28  C   UNL     1      -4.667  26.105   6.305  1.00  0.00     0.032 C 
ATOM     29  C   UNL     1      -3.186  26.027   6.699  1.00  0.00     0.114 C 
BRANCH  29  30
ATOM     30  O   UNL     1      -2.432  26.744   5.757  1.00  0.00    -0.393 OA
ATOM     31  H   UNL     1      -3.067  27.324   5.261  1.00  0.00     0.210 HD
ENDBRANCH  29  30
ENDBRANCH   1  11
TORSDOF 6
ENDMDL
MODEL 2
REMARK VINA RESULT:    -4.835      1.481      2.297
REMARK INTER + INTRA:          -7.855
REMARK INTER:                  -6.620
REMARK INTRA:                  -1.235
REMARK UNBOUND:                -1.465
REMARK SMILES CC[C@@H](C=C[C@H](C)[C@@H]1CC[C@@H]2C3=CC[C@@H]4C[C@@H](O)CC[C@]4(C)[C@@H]3CC[C@]21C)C(C)C
REMARK SMILES IDX 6 1 7 2 5 3 4 4 3 5 2 6 1 7 28 8 29 9 30 10 8 11 9 12 26 13
REMARK SMILES IDX 10 14 11 15 25 16 27 17 12 18 24 19 23 20 13 21 21 22 14 23
REMARK SMILES IDX 15 24 20 25 22 26 16 27 19 28 17 29 18 30
REMARK H PARENT 18 31
REMARK Flexibility Score: inf
ROOT
ATOM      1  C   UNL     1      -9.171  22.116  11.264  1.00  0.00     0.012 C 
ATOM      2  C   UNL     1     -10.035  21.013  10.633  1.00  0.00     0.012 C 
ENDROOT
BRANCH   1   3
ATOM      3  C   UNL     1      -9.369  22.109  12.767  1.00  0.00    -0.028 C 
ATOM      4  C   UNL     1     -10.269  22.894  13.386  1.00  0.00    -0.027 C 
BRANCH   4   5
ATOM      5  C   UNL     1     -10.410  22.893  14.896  1.00  0.00     0.014 C 
BRANCH   5   6
ATOM      6  C   UNL     1      -9.081  22.491  15.589  1.00  0.00     0.004 C 
ATOM      7  C   UNL     1      -8.109  23.634  15.884  1.00  0.00     0.004 C 
ENDBRANCH   5   6
BRANCH   5   8
ATOM      8  C   UNL     1     -11.699  22.141  15.365  1.00  0.00    -0.011 C 
ATOM      9  C   UNL     1     -11.380  20.845  16.124  1.00  0.00     0.008 C 
ATOM     10  C   UNL     1     -12.740  21.879  14.258  1.00  0.00     0.008 C 
ENDBRANCH   5   8
ENDBRANCH   4   5
ENDBRANCH   1   3
BRANCH   1  11
ATOM     11  C   UNL     1      -7.656  21.997  10.892  1.00  0.00     0.002 C 
ATOM     12  C   UNL     1      -6.732  22.452  12.054  1.00  0.00     0.005 C 
ATOM     13  C   UNL     1      -7.142  22.809   9.666  1.00  0.00    -0.023 C 
ATOM     14  C   UNL     1      -5.511  23.134  11.422  1.00  0.00     0.009 C 
ATOM     15  C   UNL     1      -5.634  22.809   9.939  1.00  0.00     0.021 C 
ATOM     16  C   UNL     1      -7.341  22.125   8.292  1.00  0.00     0.008 C 
ATOM     17  C   UNL     1      -7.735  24.255   9.661  1.00  0.00     0.012 C 
ATOM     18  C   UNL     1      -4.872  23.617   8.907  1.00  0.00    -0.067 C 
ATOM     19  C   UNL     1      -6.633  22.914   7.168  1.00  0.00     0.009 C 
ATOM     20  C   UNL     1      -5.124  23.230   7.448  1.00  0.00     0.021 C 
ATOM     21  C   UNL     1      -3.777  24.312   9.262  1.00  0.00    -0.027 C 
ATOM     22  C   UNL     1      -4.462  24.197   6.385  1.00  0.00    -0.023 C 
ATOM     23  C   UNL     1      -2.945  25.081   8.288  1.00  0.00     0.031 C 
ATOM     24  C   UNL     1      -3.003  24.532   6.843  1.00  0.00     0.002 C 
ATOM     25  C   UNL     1      -5.253  25.530   6.209  1.00  0.00     0.010 C 
ATOM     26  C   UNL     1      -4.424  23.439   5.023  1.00  0.00     0.012 C 
ATOM     27  C   UNL     1      -2.297  25.529   5.888  1.00  0.00     0.036 C 
ATOM     28  C   UNL     1      -4.560  26.527   5.263  1.00  0.00     0.032 C 
ATOM     29  C   UNL     1      -3.107  26.825   5.659  1.00  0.00     0.114 C 
BRANCH  29  30
ATOM     30  O   UNL     1      -2.508  27.580   4.638  1.00  0.00    -0.393 OA
ATOM     31  H   UNL     1      -2.810  27.190   3.776  1.00  0.00     0.210 HD
ENDBRANCH  29  30
ENDBRANCH   1  11
TORSDOF 6
ENDMDL
MODEL 3
REMARK VINA RESULT:    -4.809      1.540      3.236
REMARK INTER + INTRA:          -7.820
REMARK INTER:                  -7.257
REMARK INTRA:                  -0.563
REMARK UNBOUND:                -1.465
REMARK SMILES CC[C@@H](C=C[C@H](C)[C@@H]1CC[C@@H]2C3=CC[C@@H]4C[C@@H](O)CC[C@]4(C)[C@@H]3CC[C@]21C)C(C)C
REMARK SMILES IDX 6 1 7 2 5 3 4 4 3 5 2 6 1 7 28 8 29 9 30 10 8 11 9 12 26 13
REMARK SMILES IDX 10 14 11 15 25 16 27 17 12 18 24 19 23 20 13 21 21 22 14 23
REMARK SMILES IDX 15 24 20 25 22 26 16 27 19 28 17 29 18 30
REMARK H PARENT 18 31
REMARK Flexibility Score: inf
ROOT
ATOM      1  C   UNL     1     -10.029  22.209  14.296  1.00  0.00     0.012 C 
ATOM      2  C   UNL     1      -9.353  20.875  14.652  1.00  0.00     0.012 C 
ENDROOT
BRANCH   1   3
ATOM      3  C   UNL     1      -9.366  23.329  15.073  1.00  0.00    -0.028 C 
ATOM      4  C   UNL     1      -8.409  23.111  15.992  1.00  0.00    -0.027 C 
BRANCH   4   5
ATOM      5  C   UNL     1      -7.799  24.252  16.781  1.00  0.00     0.014 C 
BRANCH   5   6
ATOM      6  C   UNL     1      -7.852  23.978  18.308  1.00  0.00     0.004 C 
ATOM      7  C   UNL     1      -6.620  23.297  18.908  1.00  0.00     0.004 C 
ENDBRANCH   5   6
BRANCH   5   8
ATOM      8  C   UNL     1      -8.325  25.645  16.302  1.00  0.00    -0.011 C 
ATOM      9  C   UNL     1      -7.344  26.349  15.353  1.00  0.00     0.008 C 
ATOM     10  C   UNL     1      -8.765  26.599  17.431  1.00  0.00     0.008 C 
ENDBRANCH   5   8
ENDBRANCH   4   5
ENDBRANCH   1   3
BRANCH   1  11
ATOM     11  C   UNL     1     -10.028  22.506  12.760  1.00  0.00     0.002 C 
ATOM     12  C   UNL     1     -10.457  21.269  11.927  1.00  0.00     0.005 C 
ATOM     13  C   UNL     1      -8.687  22.951  12.105  1.00  0.00    -0.023 C 
ATOM     14  C   UNL     1      -9.641  21.292  10.626  1.00  0.00     0.009 C 
ATOM     15  C   UNL     1      -8.984  22.667  10.629  1.00  0.00     0.021 C 
ATOM     16  C   UNL     1      -8.372  24.463  12.208  1.00  0.00     0.008 C 
ATOM     17  C   UNL     1      -7.491  22.095  12.636  1.00  0.00     0.012 C 
ATOM     18  C   UNL     1      -7.785  22.950   9.745  1.00  0.00    -0.067 C 
ATOM     19  C   UNL     1      -7.128  24.833  11.371  1.00  0.00     0.009 C 
ATOM     20  C   UNL     1      -7.181  24.349   9.881  1.00  0.00     0.021 C 
ATOM     21  C   UNL     1      -7.549  22.193   8.659  1.00  0.00    -0.027 C 
ATOM     22  C   UNL     1      -5.829  24.564   9.088  1.00  0.00    -0.023 C 
ATOM     23  C   UNL     1      -6.422  22.451   7.712  1.00  0.00     0.031 C 
ATOM     24  C   UNL     1      -5.971  23.930   7.663  1.00  0.00     0.002 C 
ATOM     25  C   UNL     1      -4.602  23.922   9.805  1.00  0.00     0.010 C 
ATOM     26  C   UNL     1      -5.602  26.101   8.958  1.00  0.00     0.012 C 
ATOM     27  C   UNL     1      -4.665  24.040   6.833  1.00  0.00     0.036 C 
ATOM     28  C   UNL     1      -3.300  24.024   8.988  1.00  0.00     0.032 C 
ATOM     29  C   UNL     1      -3.433  23.463   7.566  1.00  0.00     0.114 C 
BRANCH  29  30
ATOM     30  O   UNL     1      -2.268  23.777   6.848  1.00  0.00    -0.393 OA
ATOM     31  H   UNL     1      -2.150  23.064   6.165  1.00  0.00     0.210 HD
ENDBRANCH  29  30
ENDBRANCH   1  11
TORSDOF 6
ENDMDL
MODEL 4
REMARK VINA RESULT:    -4.569      3.308      8.839
REMARK INTER + INTRA:          -7.503
REMARK INTER:                  -6.398
REMARK INTRA:                  -1.106
REMARK UNBOUND:                -1.465
REMARK SMILES CC[C@@H](C=C[C@H](C)[C@@H]1CC[C@@H]2C3=CC[C@@H]4C[C@@H](O)CC[C@]4(C)[C@@H]3CC[C@]21C)C(C)C
REMARK SMILES IDX 6 1 7 2 5 3 4 4 3 5 2 6 1 7 28 8 29 9 30 10 8 11 9 12 26 13
REMARK SMILES IDX 10 14 11 15 25 16 27 17 12 18 24 19 23 20 13 21 21 22 14 23
REMARK SMILES IDX 15 24 20 25 22 26 16 27 19 28 17 29 18 30
REMARK H PARENT 18 31
REMARK Flexibility Score: inf
ROOT
ATOM      1  C   UNL     1      -4.263  25.223   8.957  1.00  0.00     0.012 C 
ATOM      2  C   UNL     1      -2.996  25.137   9.822  1.00  0.00     0.012 C 
ENDROOT
BRANCH   1   3
ATOM      3  C   UNL     1      -3.891  25.714   7.571  1.00  0.00    -0.028 C 
ATOM      4  C   UNL     1      -2.777  25.316   6.933  1.00  0.00    -0.027 C 
BRANCH   4   5
ATOM      5  C   UNL     1      -2.414  25.861   5.565  1.00  0.00     0.014 C 
BRANCH   5   6
ATOM      6  C   UNL     1      -3.405  26.968   5.115  1.00  0.00     0.004 C 
ATOM      7  C   UNL     1      -2.772  28.251   4.573  1.00  0.00     0.004 C 
ENDBRANCH   5   6
BRANCH   5   8
ATOM      8  C   UNL     1      -2.126  24.720   4.535  1.00  0.00    -0.011 C 
ATOM      9  C   UNL     1      -2.906  23.435   4.849  1.00  0.00     0.008 C 
ATOM     10  C   UNL     1      -0.633  24.406   4.311  1.00  0.00     0.008 C 
ENDBRANCH   5   8
ENDBRANCH   4   5
ENDBRANCH   1   3
BRANCH   1  11
ATOM     11  C   UNL     1      -5.051  23.873   8.887  1.00  0.00     0.002 C 
ATOM     12  C   UNL     1      -5.835  23.724   7.556  1.00  0.00     0.005 C 
ATOM     13  C   UNL     1      -6.123  23.600   9.984  1.00  0.00    -0.023 C 
ATOM     14  C   UNL     1      -7.141  22.985   7.878  1.00  0.00     0.009 C 
ATOM     15  C   UNL     1      -6.944  22.497   9.308  1.00  0.00     0.021 C 
ATOM     16  C   UNL     1      -5.579  22.997  11.302  1.00  0.00     0.008 C 
ATOM     17  C   UNL     1      -6.979  24.877  10.265  1.00  0.00     0.012 C 
ATOM     18  C   UNL     1      -8.134  22.079  10.150  1.00  0.00    -0.067 C 
ATOM     19  C   UNL     1      -6.731  22.586  12.246  1.00  0.00     0.009 C 
ATOM     20  C   UNL     1      -7.812  21.663  11.586  1.00  0.00     0.021 C 
ATOM     21  C   UNL     1      -9.287  21.714   9.562  1.00  0.00    -0.027 C 
ATOM     22  C   UNL     1      -9.078  21.405  12.499  1.00  0.00    -0.023 C 
ATOM     23  C   UNL     1     -10.479  21.236  10.327  1.00  0.00     0.031 C 
ATOM     24  C   UNL     1     -10.131  20.580  11.685  1.00  0.00     0.002 C 
ATOM     25  C   UNL     1      -9.745  22.727  12.990  1.00  0.00     0.010 C 
ATOM     26  C   UNL     1      -8.605  20.579  13.733  1.00  0.00     0.012 C 
ATOM     27  C   UNL     1     -11.437  20.334  12.484  1.00  0.00     0.036 C 
ATOM     28  C   UNL     1     -11.044  22.493  13.784  1.00  0.00     0.032 C 
ATOM     29  C   UNL     1     -12.068  21.635  13.028  1.00  0.00     0.114 C 
BRANCH  29  30
ATOM     30  O   UNL     1     -13.121  21.318  13.900  1.00  0.00    -0.393 OA
ATOM     31  H   UNL     1     -12.709  20.980  14.739  1.00  0.00     0.210 HD
ENDBRANCH  29  30
ENDBRANCH   1  11
TORSDOF 6
ENDMDL
MODEL 5
REMARK VINA RESULT:    -4.553      3.361      8.856
REMARK INTER + INTRA:          -7.482
REMARK INTER:                  -6.334
REMARK INTRA:                  -1.148
REMARK UNBOUND:                -1.465
REMARK SMILES CC[C@@H](C=C[C@H](C)[C@@H]1CC[C@@H]2C3=CC[C@@H]4C[C@@H](O)CC[C@]4(C)[C@@H]3CC[C@]21C)C(C)C
REMARK SMILES IDX 6 1 7 2 5 3 4 4 3 5 2 6 1 7 28 8 29 9 30 10 8 11 9 12 26 13
REMARK SMILES IDX 10 14 11 15 25 16 27 17 12 18 24 19 23 20 13 21 21 22 14 23
REMARK SMILES IDX 15 24 20 25 22 26 16 27 19 28 17 29 18 30
REMARK H PARENT 18 31
REMARK Flexibility Score: inf
ROOT
ATOM      1  C   UNL     1      -5.716  25.715   9.305  1.00  0.00     0.012 C 
ATOM      2  C   UNL     1      -5.117  26.994   9.909  1.00  0.00     0.012 C 
ENDROOT
BRANCH   1   3
ATOM      3  C   UNL     1      -5.029  25.412   7.988  1.00  0.00    -0.028 C 
ATOM      4  C   UNL     1      -3.717  25.623   7.787  1.00  0.00    -0.027 C 
BRANCH   4   5
ATOM      5  C   UNL     1      -3.071  25.350   6.443  1.00  0.00     0.014 C 
BRANCH   5   6
ATOM      6  C   UNL     1      -2.767  26.668   5.681  1.00  0.00     0.004 C 
ATOM      7  C   UNL     1      -2.990  27.960   6.469  1.00  0.00     0.004 C 
ENDBRANCH   5   6
BRANCH   5   8
ATOM      8  C   UNL     1      -3.828  24.239   5.643  1.00  0.00    -0.011 C 
ATOM      9  C   UNL     1      -3.486  22.825   6.135  1.00  0.00     0.008 C 
ATOM     10  C   UNL     1      -3.687  24.328   4.110  1.00  0.00     0.008 C 
ENDBRANCH   5   8
ENDBRANCH   4   5
ENDBRANCH   1   3
BRANCH   1  11
ATOM     11  C   UNL     1      -5.649  24.488  10.275  1.00  0.00     0.002 C 
ATOM     12  C   UNL     1      -5.589  23.141   9.506  1.00  0.00     0.005 C 
ATOM     13  C   UNL     1      -6.820  24.292  11.282  1.00  0.00    -0.023 C 
ATOM     14  C   UNL     1      -6.378  22.113  10.330  1.00  0.00     0.009 C 
ATOM     15  C   UNL     1      -6.627  22.819  11.657  1.00  0.00     0.021 C 
ATOM     16  C   UNL     1      -6.701  25.100  12.598  1.00  0.00     0.008 C 
ATOM     17  C   UNL     1      -8.201  24.544  10.595  1.00  0.00     0.012 C 
ATOM     18  C   UNL     1      -7.709  22.328  12.600  1.00  0.00    -0.067 C 
ATOM     19  C   UNL     1      -7.802  24.695  13.603  1.00  0.00     0.009 C 
ATOM     20  C   UNL     1      -7.899  23.154  13.873  1.00  0.00     0.021 C 
ATOM     21  C   UNL     1      -8.156  21.062  12.519  1.00  0.00    -0.027 C 
ATOM     22  C   UNL     1      -9.146  22.734  14.752  1.00  0.00    -0.023 C 
ATOM     23  C   UNL     1      -9.176  20.495  13.452  1.00  0.00     0.031 C 
ATOM     24  C   UNL     1      -9.200  21.172  14.843  1.00  0.00     0.002 C 
ATOM     25  C   UNL     1     -10.497  23.251  14.167  1.00  0.00     0.010 C 
ATOM     26  C   UNL     1      -8.938  23.336  16.175  1.00  0.00     0.012 C 
ATOM     27  C   UNL     1     -10.432  20.667  15.638  1.00  0.00     0.036 C 
ATOM     28  C   UNL     1     -11.727  22.754  14.950  1.00  0.00     0.032 C 
ATOM     29  C   UNL     1     -11.768  21.228  15.103  1.00  0.00     0.114 C 
BRANCH  29  30
ATOM     30  O   UNL     1     -12.807  20.892  15.986  1.00  0.00    -0.393 OA
ATOM     31  H   UNL     1     -12.390  20.736  16.874  1.00  0.00     0.210 HD
ENDBRANCH  29  30
ENDBRANCH   1  11
TORSDOF 6
ENDMDL
MODEL 6
REMARK VINA RESULT:    -4.479      3.201      7.323
REMARK INTER + INTRA:          -7.384
REMARK INTER:                  -6.401
REMARK INTRA:                  -0.984
REMARK UNBOUND:                -1.465
REMARK SMILES CC[C@@H](C=C[C@H](C)[C@@H]1CC[C@@H]2C3=CC[C@@H]4C[C@@H](O)CC[C@]4(C)[C@@H]3CC[C@]21C)C(C)C
REMARK SMILES IDX 6 1 7 2 5 3 4 4 3 5 2 6 1 7 28 8 29 9 30 10 8 11 9 12 26 13
REMARK SMILES IDX 10 14 11 15 25 16 27 17 12 18 24 19 23 20 13 21 21 22 14 23
REMARK SMILES IDX 15 24 20 25 22 26 16 27 19 28 17 29 18 30
REMARK H PARENT 18 31
REMARK Flexibility Score: inf
ROOT
ATOM      1  C   UNL     1      -3.186  25.020   7.805  1.00  0.00     0.012 C 
ATOM      2  C   UNL     1      -3.585  25.872   6.590  1.00  0.00     0.012 C 
ENDROOT
BRANCH   1   3
ATOM      3  C   UNL     1      -3.230  25.876   9.055  1.00  0.00    -0.028 C 
ATOM      4  C   UNL     1      -2.268  25.842   9.994  1.00  0.00    -0.027 C 
BRANCH   4   5
ATOM      5  C   UNL     1      -2.366  26.681  11.253  1.00  0.00     0.014 C 
BRANCH   5   6
ATOM      6  C   UNL     1      -1.913  25.881  12.504  1.00  0.00     0.004 C 
ATOM      7  C   UNL     1      -1.505  24.428  12.256  1.00  0.00     0.004 C 
ENDBRANCH   5   6
BRANCH   5   8
ATOM      8  C   UNL     1      -3.737  27.426  11.358  1.00  0.00    -0.011 C 
ATOM      9  C   UNL     1      -3.574  28.909  11.721  1.00  0.00     0.008 C 
ATOM     10  C   UNL     1      -4.775  26.754  12.279  1.00  0.00     0.008 C 
ENDBRANCH   5   8
ENDBRANCH   4   5
ENDBRANCH   1   3
BRANCH   1  11
ATOM     11  C   UNL     1      -4.064  23.734   7.967  1.00  0.00     0.002 C 
ATOM     12  C   UNL     1      -4.849  23.398   6.671  1.00  0.00     0.005 C 
ATOM     13  C   UNL     1      -5.157  23.735   9.076  1.00  0.00    -0.023 C 
ATOM     14  C   UNL     1      -6.204  22.817   7.099  1.00  0.00     0.009 C 
ATOM     15  C   UNL     1      -6.047  22.584   8.597  1.00  0.00     0.021 C 
ATOM     16  C   UNL     1      -4.661  23.347  10.491  1.00  0.00     0.008 C 
ATOM     17  C   UNL     1      -5.925  25.095   9.108  1.00  0.00     0.012 C 
ATOM     18  C   UNL     1      -7.267  22.406   9.481  1.00  0.00    -0.067 C 
ATOM     19  C   UNL     1      -5.842  23.191  11.473  1.00  0.00     0.009 C 
ATOM     20  C   UNL     1      -6.980  22.236  10.974  1.00  0.00     0.021 C 
ATOM     21  C   UNL     1      -8.439  22.016   8.949  1.00  0.00    -0.027 C 
ATOM     22  C   UNL     1      -8.265  22.232  11.896  1.00  0.00    -0.023 C 
ATOM     23  C   UNL     1      -9.664  21.763   9.768  1.00  0.00     0.031 C 
ATOM     24  C   UNL     1      -9.367  21.344  11.227  1.00  0.00     0.002 C 
ATOM     25  C   UNL     1      -8.844  23.662  12.129  1.00  0.00     0.010 C 
ATOM     26  C   UNL     1      -7.855  21.614  13.267  1.00  0.00     0.012 C 
ATOM     27  C   UNL     1     -10.691  21.332  12.035  1.00  0.00     0.036 C 
ATOM     28  C   UNL     1     -10.159  23.661  12.930  1.00  0.00     0.032 C 
ATOM     29  C   UNL     1     -11.235  22.749  12.325  1.00  0.00     0.114 C 
BRANCH  29  30
ATOM     30  O   UNL     1     -12.311  22.666  13.222  1.00  0.00    -0.393 OA
ATOM     31  H   UNL     1     -12.325  23.517  13.735  1.00  0.00     0.210 HD
ENDBRANCH  29  30
ENDBRANCH   1  11
TORSDOF 6
ENDMDL
MODEL 7
REMARK VINA RESULT:    -4.476      3.674      7.981
REMARK INTER + INTRA:          -7.380
REMARK INTER:                  -6.034
REMARK INTRA:                  -1.346
REMARK UNBOUND:                -1.465
REMARK SMILES CC[C@@H](C=C[C@H](C)[C@@H]1CC[C@@H]2C3=CC[C@@H]4C[C@@H](O)CC[C@]4(C)[C@@H]3CC[C@]21C)C(C)C
REMARK SMILES IDX 6 1 7 2 5 3 4 4 3 5 2 6 1 7 28 8 29 9 30 10 8 11 9 12 26 13
REMARK SMILES IDX 10 14 11 15 25 16 27 17 12 18 24 19 23 20 13 21 21 22 14 23
REMARK SMILES IDX 15 24 20 25 22 26 16 27 19 28 17 29 18 30
REMARK H PARENT 18 31
REMARK Flexibility Score: inf
ROOT
ATOM      1  C   UNL     1      -3.886  24.607   8.808  1.00  0.00     0.012 C 
ATOM      2  C   UNL     1      -3.446  24.102   7.425  1.00  0.00     0.012 C 
ENDROOT
BRANCH   1   3
ATOM      3  C   UNL     1      -3.245  25.954   9.077  1.00  0.00    -0.028 C 
ATOM      4  C   UNL     1      -2.534  26.213  10.188  1.00  0.00    -0.027 C 
BRANCH   4   5
ATOM      5  C   UNL     1      -1.944  27.586  10.444  1.00  0.00     0.014 C 
BRANCH   5   6
ATOM      6  C   UNL     1      -1.506  27.748  11.925  1.00  0.00     0.004 C 
ATOM      7  C   UNL     1      -1.938  26.628  12.874  1.00  0.00     0.004 C 
ENDBRANCH   5   6
BRANCH   5   8
ATOM      8  C   UNL     1      -2.832  28.728   9.849  1.00  0.00    -0.011 C 
ATOM      9  C   UNL     1      -2.061  29.616   8.861  1.00  0.00     0.008 C 
ATOM     10  C   UNL     1      -3.570  29.590  10.891  1.00  0.00     0.008 C 
ENDBRANCH   5   8
ENDBRANCH   4   5
ENDBRANCH   1   3
BRANCH   1  11
ATOM     11  C   UNL     1      -5.440  24.675   8.970  1.00  0.00     0.002 C 
ATOM     12  C   UNL     1      -5.940  26.129   9.186  1.00  0.00     0.005 C 
ATOM     13  C   UNL     1      -6.085  23.881  10.144  1.00  0.00    -0.023 C 
ATOM     14  C   UNL     1      -7.132  26.060  10.151  1.00  0.00     0.009 C 
ATOM     15  C   UNL     1      -7.448  24.573  10.240  1.00  0.00     0.021 C 
ATOM     16  C   UNL     1      -6.369  22.387   9.853  1.00  0.00     0.008 C 
ATOM     17  C   UNL     1      -5.253  24.044  11.458  1.00  0.00     0.012 C 
ATOM     18  C   UNL     1      -8.281  24.029  11.385  1.00  0.00    -0.067 C 
ATOM     19  C   UNL     1      -7.176  21.738  10.998  1.00  0.00     0.009 C 
ATOM     20  C   UNL     1      -8.481  22.512  11.393  1.00  0.00     0.021 C 
ATOM     21  C   UNL     1      -9.102  24.842  12.073  1.00  0.00    -0.027 C 
ATOM     22  C   UNL     1      -9.195  21.948  12.686  1.00  0.00    -0.023 C 
ATOM     23  C   UNL     1      -9.993  24.363  13.173  1.00  0.00     0.031 C 
ATOM     24  C   UNL     1     -10.404  22.877  13.045  1.00  0.00     0.002 C 
ATOM     25  C   UNL     1      -8.239  21.868  13.917  1.00  0.00     0.010 C 
ATOM     26  C   UNL     1      -9.716  20.518  12.347  1.00  0.00     0.012 C 
ATOM     27  C   UNL     1     -11.128  22.433  14.342  1.00  0.00     0.036 C 
ATOM     28  C   UNL     1      -8.950  21.428  15.210  1.00  0.00     0.032 C 
ATOM     29  C   UNL     1     -10.175  22.289  15.549  1.00  0.00     0.114 C 
BRANCH  29  30
ATOM     30  O   UNL     1     -10.858  21.696  16.622  1.00  0.00    -0.393 OA
ATOM     31  H   UNL     1     -10.278  21.793  17.422  1.00  0.00     0.210 HD
ENDBRANCH  29  30
ENDBRANCH   1  11
TORSDOF 6
ENDMDL
MODEL 8
REMARK VINA RESULT:    -4.476      3.362      8.812
REMARK INTER + INTRA:          -7.380
REMARK INTER:                  -6.273
REMARK INTRA:                  -1.107
REMARK UNBOUND:                -1.465
REMARK SMILES CC[C@@H](C=C[C@H](C)[C@@H]1CC[C@@H]2C3=CC[C@@H]4C[C@@H](O)CC[C@]4(C)[C@@H]3CC[C@]21C)C(C)C
REMARK SMILES IDX 6 1 7 2 5 3 4 4 3 5 2 6 1 7 28 8 29 9 30 10 8 11 9 12 26 13
REMARK SMILES IDX 10 14 11 15 25 16 27 17 12 18 24 19 23 20 13 21 21 22 14 23
REMARK SMILES IDX 15 24 20 25 22 26 16 27 19 28 17 29 18 30
REMARK H PARENT 18 31
REMARK Flexibility Score: inf
ROOT
ATOM      1  C   UNL     1      -5.749  25.790   9.468  1.00  0.00     0.012 C 
ATOM      2  C   UNL     1      -4.752  26.889   9.866  1.00  0.00     0.012 C 
ENDROOT
BRANCH   1   3
ATOM      3  C   UNL     1      -5.526  25.412   8.017  1.00  0.00    -0.028 C 
ATOM      4  C   UNL     1      -4.361  25.626   7.380  1.00  0.00    -0.027 C 
BRANCH   4   5
ATOM      5  C   UNL     1      -4.186  25.275   5.916  1.00  0.00     0.014 C 
BRANCH   5   6
ATOM      6  C   UNL     1      -5.556  25.070   5.215  1.00  0.00     0.004 C 
ATOM      7  C   UNL     1      -5.910  23.627   4.848  1.00  0.00     0.004 C 
ENDBRANCH   5   6
BRANCH   5   8
ATOM      8  C   UNL     1      -3.118  24.152   5.704  1.00  0.00    -0.011 C 
ATOM      9  C   UNL     1      -3.045  23.180   6.890  1.00  0.00     0.008 C 
ATOM     10  C   UNL     1      -1.710  24.654   5.328  1.00  0.00     0.008 C 
ENDBRANCH   5   8
ENDBRANCH   4   5
ENDBRANCH   1   3
BRANCH   1  11
ATOM     11  C   UNL     1      -5.682  24.534  10.398  1.00  0.00     0.002 C 
ATOM     12  C   UNL     1      -5.603  23.213   9.587  1.00  0.00     0.005 C 
ATOM     13  C   UNL     1      -6.862  24.296  11.386  1.00  0.00    -0.023 C 
ATOM     14  C   UNL     1      -6.392  22.153  10.369  1.00  0.00     0.009 C 
ATOM     15  C   UNL     1      -6.661  22.814  11.716  1.00  0.00     0.021 C 
ATOM     16  C   UNL     1      -6.763  25.062  12.728  1.00  0.00     0.008 C 
ATOM     17  C   UNL     1      -8.237  24.560  10.693  1.00  0.00     0.012 C 
ATOM     18  C   UNL     1      -7.747  22.284  12.631  1.00  0.00    -0.067 C 
ATOM     19  C   UNL     1      -7.870  24.617  13.708  1.00  0.00     0.009 C 
ATOM     20  C   UNL     1      -7.957  23.067  13.928  1.00  0.00     0.021 C 
ATOM     21  C   UNL     1      -8.184  21.018  12.505  1.00  0.00    -0.027 C 
ATOM     22  C   UNL     1      -9.209  22.610  14.780  1.00  0.00    -0.023 C 
ATOM     23  C   UNL     1      -9.209  20.413  13.408  1.00  0.00     0.031 C 
ATOM     24  C   UNL     1      -9.252  21.045  14.820  1.00  0.00     0.002 C 
ATOM     25  C   UNL     1     -10.558  23.135  14.198  1.00  0.00     0.010 C 
ATOM     26  C   UNL     1      -9.021  23.167  16.224  1.00  0.00     0.012 C 
ATOM     27  C   UNL     1     -10.487  20.505  15.585  1.00  0.00     0.036 C 
ATOM     28  C   UNL     1     -11.792  22.603  14.951  1.00  0.00     0.032 C 
ATOM     29  C   UNL     1     -11.823  21.072  15.055  1.00  0.00     0.114 C 
BRANCH  29  30
ATOM     30  O   UNL     1     -12.868  20.701  15.915  1.00  0.00    -0.393 OA
ATOM     31  H   UNL     1     -12.706  19.755  16.172  1.00  0.00     0.210 HD
ENDBRANCH  29  30
ENDBRANCH   1  11
TORSDOF 6
ENDMDL
MODEL 9
REMARK VINA RESULT:    -4.443      3.261      8.459
REMARK INTER + INTRA:          -7.337
REMARK INTER:                  -6.108
REMARK INTRA:                  -1.229
REMARK UNBOUND:                -1.465
REMARK SMILES CC[C@@H](C=C[C@H](C)[C@@H]1CC[C@@H]2C3=CC[C@@H]4C[C@@H](O)CC[C@]4(C)[C@@H]3CC[C@]21C)C(C)C
REMARK SMILES IDX 6 1 7 2 5 3 4 4 3 5 2 6 1 7 28 8 29 9 30 10 8 11 9 12 26 13
REMARK SMILES IDX 10 14 11 15 25 16 27 17 12 18 24 19 23 20 13 21 21 22 14 23
REMARK SMILES IDX 15 24 20 25 22 26 16 27 19 28 17 29 18 30
REMARK H PARENT 18 31
REMARK Flexibility Score: inf
ROOT
ATOM      1  C   UNL     1      -8.431  21.335  13.284  1.00  0.00     0.012 C 
ATOM      2  C   UNL     1      -8.993  19.907  13.355  1.00  0.00     0.012 C 
ENDROOT
BRANCH   1   3
ATOM      3  C   UNL     1      -8.179  21.704  11.835  1.00  0.00    -0.028 C 
ATOM      4  C   UNL     1      -6.943  21.853  11.327  1.00  0.00    -0.027 C 
BRANCH   4   5
ATOM      5  C   UNL     1      -6.729  22.264   9.883  1.00  0.00     0.014 C 
BRANCH   5   6
ATOM      6  C   UNL     1      -5.546  23.261   9.747  1.00  0.00     0.004 C 
ATOM      7  C   UNL     1      -4.819  23.615  11.046  1.00  0.00     0.004 C 
ENDBRANCH   5   6
BRANCH   5   8
ATOM      8  C   UNL     1      -8.068  22.667   9.182  1.00  0.00    -0.011 C 
ATOM      9  C   UNL     1      -8.166  22.127   7.749  1.00  0.00     0.008 C 
ATOM     10  C   UNL     1      -8.394  24.174   9.218  1.00  0.00     0.008 C 
ENDBRANCH   5   8
ENDBRANCH   4   5
ENDBRANCH   1   3
BRANCH   1  11
ATOM     11  C   UNL     1      -9.348  22.391  13.987  1.00  0.00     0.002 C 
ATOM     12  C   UNL     1     -10.262  23.133  12.975  1.00  0.00     0.005 C 
ATOM     13  C   UNL     1      -8.659  23.540  14.780  1.00  0.00    -0.023 C 
ATOM     14  C   UNL     1     -10.406  24.579  13.469  1.00  0.00     0.009 C 
ATOM     15  C   UNL     1      -9.808  24.550  14.870  1.00  0.00     0.021 C 
ATOM     16  C   UNL     1      -8.264  23.192  16.236  1.00  0.00     0.008 C 
ATOM     17  C   UNL     1      -7.437  24.114  13.992  1.00  0.00     0.012 C 
ATOM     18  C   UNL     1      -9.380  25.835  15.552  1.00  0.00    -0.067 C 
ATOM     19  C   UNL     1      -7.768  24.443  16.994  1.00  0.00     0.009 C 
ATOM     20  C   UNL     1      -8.743  25.669  16.933  1.00  0.00     0.021 C 
ATOM     21  C   UNL     1      -9.896  27.014  15.162  1.00  0.00    -0.027 C 
ATOM     22  C   UNL     1      -8.142  26.997  17.547  1.00  0.00    -0.023 C 
ATOM     23  C   UNL     1      -9.564  28.311  15.827  1.00  0.00     0.031 C 
ATOM     24  C   UNL     1      -9.155  28.168  17.312  1.00  0.00     0.002 C 
ATOM     25  C   UNL     1      -6.769  27.386  16.915  1.00  0.00     0.010 C 
ATOM     26  C   UNL     1      -7.956  26.763  19.076  1.00  0.00     0.012 C 
ATOM     27  C   UNL     1      -8.619  29.528  17.829  1.00  0.00     0.036 C 
ATOM     28  C   UNL     1      -6.229  28.736  17.422  1.00  0.00     0.032 C 
ATOM     29  C   UNL     1      -7.230  29.888  17.257  1.00  0.00     0.114 C 
BRANCH  29  30
ATOM     30  O   UNL     1      -6.727  31.019  17.918  1.00  0.00    -0.393 OA
ATOM     31  H   UNL     1      -7.267  31.795  17.612  1.00  0.00     0.210 HD
ENDBRANCH  29  30
ENDBRANCH   1  11
TORSDOF 6
ENDMDL
