MODEL 1
REMARK VINA RESULT:    19.033      0.000      0.000
REMARK INTER + INTRA:          29.518
REMARK INTER:                  29.048
REMARK INTRA:                   0.470
REMARK UNBOUND:                 0.470
REMARK SMILES CC1=CCC[C@@H](C)C(=O)C[C@H](C(C)C)C(=O)C1
REMARK SMILES IDX 8 1 9 2 6 3 7 4 5 5 4 6 3 7 2 8 1 9 10 11 11 12 15 13 16 14
REMARK SMILES IDX 17 15 12 17 13 18 14 19
REMARK H PARENT
REMARK Flexibility Score: 70.00
ROOT
ATOM      1  C   UNL     1      34.616  13.283  40.576  1.00  0.00     0.136 C 
ATOM      2  O   UNL     1      34.327  14.469  40.663  1.00  0.00    -0.299 OA
ENDROOT
BRANCH   1   3
ATOM      3  C   UNL     1      35.711  12.708  41.485  1.00  0.00     0.053 C 
ATOM      4  C   UNL     1      35.988  13.615  42.696  1.00  0.00     0.016 C 
BRANCH   3   5
ATOM      5  C   UNL     1      37.037  12.435  40.718  1.00  0.00     0.015 C 
BRANCH   5   6
ATOM      6  C   UNL     1      37.124  11.101  39.946  1.00  0.00     0.028 C 
BRANCH   6   7
ATOM      7  C   UNL     1      36.548   9.847  40.577  1.00  0.00    -0.028 C 
ATOM      8  C   UNL     1      35.461   9.135  40.183  1.00  0.00    -0.070 CG0
ATOM      9  C   UNL     1      35.224   7.803  40.852  1.00  0.00     0.039 C 
ATOM     10  G   UNL     1      34.393   9.645  39.228  1.00  0.00     0.000 G0
ENDBRANCH   6   7
ENDBRANCH   5   6
ENDBRANCH   3   5
ENDBRANCH   1   3
BRANCH   1  11
ATOM     11  C   UNL     1      33.797  12.425  39.621  1.00  0.00     0.087 C 
BRANCH  11  12
ATOM     12  C   UNL     1      32.784  11.465  40.300  1.00  0.00     0.066 C 
BRANCH  12  13
ATOM     13  C   UNL     1      33.108  10.010  39.969  1.00  0.00     0.140 C 
ATOM     14  O   UNL     1      32.335   9.127  40.321  1.00  0.00    -0.299 OA
BRANCH  13  15
ATOM     15  C   UNL     1      34.374   9.621  39.223  1.00  0.00     0.106 CG0
ATOM     16  G   UNL     1      35.440   9.120  40.185  1.00  0.00     0.000 G0
ENDBRANCH  13  15
ENDBRANCH  12  13
BRANCH  12  17
ATOM     17  C   UNL     1      32.622  11.704  41.844  1.00  0.00    -0.006 C 
ATOM     18  C   UNL     1      31.183  11.481  42.349  1.00  0.00     0.008 C 
ATOM     19  C   UNL     1      33.561  10.779  42.644  1.00  0.00     0.008 C 
ENDBRANCH  12  17
ENDBRANCH  11  12
ENDBRANCH   1  11
TORSDOF 1
ENDMDL
MODEL 2
REMARK VINA RESULT:    19.290      1.837      4.081
REMARK INTER + INTRA:          29.910
REMARK INTER:                  25.336
REMARK INTRA:                   4.574
REMARK UNBOUND:                 0.470
REMARK SMILES CC1=CCC[C@@H](C)C(=O)C[C@H](C(C)C)C(=O)C1
REMARK SMILES IDX 8 1 9 2 6 3 7 4 5 5 4 6 3 7 2 8 1 9 10 11 11 12 15 13 16 14
REMARK SMILES IDX 17 15 12 17 13 18 14 19
REMARK H PARENT
REMARK Flexibility Score: 70.00
ROOT
ATOM      1  C   UNL     1      34.982  11.882  40.152  1.00  0.00     0.136 C 
ATOM      2  O   UNL     1      34.009  12.247  39.507  1.00  0.00    -0.299 OA
ENDROOT
BRANCH   1   3
ATOM      3  C   UNL     1      35.422  10.413  40.086  1.00  0.00     0.053 C 
ATOM      4  C   UNL     1      36.800  10.257  39.419  1.00  0.00     0.016 C 
BRANCH   3   5
ATOM      5  C   UNL     1      34.381   9.513  39.360  1.00  0.00     0.015 C 
BRANCH   5   6
ATOM      6  C   UNL     1      33.233   8.954  40.226  1.00  0.00     0.028 C 
BRANCH   6   7
ATOM      7  C   UNL     1      32.237   9.920  40.841  1.00  0.00    -0.028 C 
ATOM      8  C   UNL     1      32.493  11.005  41.616  1.00  0.00    -0.070 CG0
ATOM      9  C   UNL     1      31.339  11.927  41.923  1.00  0.00     0.039 C 
ATOM     10  G   UNL     1      33.818  11.278  42.312  1.00  0.00     0.000 G0
ENDBRANCH   6   7
ENDBRANCH   5   6
ENDBRANCH   3   5
ENDBRANCH   1   3
BRANCH   1  11
ATOM     11  C   UNL     1      35.756  12.944  40.921  1.00  0.00     0.087 C 
BRANCH  11  12
ATOM     12  C   UNL     1      34.928  13.736  41.969  1.00  0.00     0.066 C 
BRANCH  12  13
ATOM     13  C   UNL     1      33.919  12.826  42.664  1.00  0.00     0.140 C 
ATOM     14  O   UNL     1      33.170  13.296  43.513  1.00  0.00    -0.299 OA
BRANCH  13  15
ATOM     15  C   UNL     1      33.822  11.343  42.343  1.00  0.00     0.106 CG0
ATOM     16  G   UNL     1      32.513  11.024  41.638  1.00  0.00     0.000 G0
ENDBRANCH  13  15
ENDBRANCH  12  13
BRANCH  12  17
ATOM     17  C   UNL     1      35.806  14.545  42.990  1.00  0.00    -0.006 C 
ATOM     18  C   UNL     1      35.044  15.695  43.675  1.00  0.00     0.008 C 
ATOM     19  C   UNL     1      36.364  13.617  44.089  1.00  0.00     0.008 C 
ENDBRANCH  12  17
ENDBRANCH  11  12
ENDBRANCH   1  11
TORSDOF 1
ENDMDL
MODEL 3
REMARK VINA RESULT:    20.665      2.809      4.876
REMARK INTER + INTRA:          32.007
REMARK INTER:                  32.102
REMARK INTRA:                  -0.095
REMARK UNBOUND:                 0.470
REMARK SMILES CC1=CCC[C@@H](C)C(=O)C[C@H](C(C)C)C(=O)C1
REMARK SMILES IDX 8 1 9 2 6 3 7 4 5 5 4 6 3 7 2 8 1 9 10 11 11 12 15 13 16 14
REMARK SMILES IDX 17 15 12 17 13 18 14 19
REMARK H PARENT
REMARK Flexibility Score: 70.00
ROOT
ATOM      1  C   UNL     1      35.270  13.151  42.781  1.00  0.00     0.136 C 
ATOM      2  O   UNL     1      34.463  12.714  43.590  1.00  0.00    -0.299 OA
ENDROOT
BRANCH   1   3
ATOM      3  C   UNL     1      36.261  14.238  43.218  1.00  0.00     0.053 C 
ATOM      4  C   UNL     1      36.865  13.941  44.602  1.00  0.00     0.016 C 
BRANCH   3   5
ATOM      5  C   UNL     1      35.625  15.658  43.215  1.00  0.00     0.015 C 
BRANCH   5   6
ATOM      6  C   UNL     1      34.174  15.762  42.699  1.00  0.00     0.028 C 
BRANCH   6   7
ATOM      7  C   UNL     1      33.902  16.525  41.416  1.00  0.00    -0.028 C 
ATOM      8  C   UNL     1      33.913  16.053  40.144  1.00  0.00    -0.070 CG0
ATOM      9  C   UNL     1      33.397  16.968  39.060  1.00  0.00     0.039 C 
ATOM     10  G   UNL     1      34.539  14.735  39.715  1.00  0.00     0.000 G0
ENDBRANCH   6   7
ENDBRANCH   5   6
ENDBRANCH   3   5
ENDBRANCH   1   3
BRANCH   1  11
ATOM     11  C   UNL     1      35.296  12.515  41.397  1.00  0.00     0.087 C 
BRANCH  11  12
ATOM     12  C   UNL     1      33.908  12.334  40.727  1.00  0.00     0.066 C 
BRANCH  12  13
ATOM     13  C   UNL     1      33.578  13.524  39.829  1.00  0.00     0.140 C 
ATOM     14  O   UNL     1      32.523  13.534  39.207  1.00  0.00    -0.299 OA
BRANCH  13  15
ATOM     15  C   UNL     1      34.532  14.698  39.673  1.00  0.00     0.106 CG0
ATOM     16  G   UNL     1      33.892  15.988  40.165  1.00  0.00     0.000 G0
ENDBRANCH  13  15
ENDBRANCH  12  13
BRANCH  12  17
ATOM     17  C   UNL     1      33.737  10.960  39.984  1.00  0.00    -0.006 C 
ATOM     18  C   UNL     1      34.879   9.966  40.269  1.00  0.00     0.008 C 
ATOM     19  C   UNL     1      32.405  10.287  40.375  1.00  0.00     0.008 C 
ENDBRANCH  12  17
ENDBRANCH  11  12
ENDBRANCH   1  11
TORSDOF 1
ENDMDL
MODEL 4
REMARK VINA RESULT:    20.683      1.738      4.249
REMARK INTER + INTRA:          32.036
REMARK INTER:                  27.361
REMARK INTRA:                   4.675
REMARK UNBOUND:                 0.470
REMARK SMILES CC1=CCC[C@@H](C)C(=O)C[C@H](C(C)C)C(=O)C1
REMARK SMILES IDX 8 1 9 2 6 3 7 4 5 5 4 6 3 7 2 8 1 9 10 11 11 12 15 13 16 14
REMARK SMILES IDX 17 15 12 17 13 18 14 19
REMARK H PARENT
REMARK Flexibility Score: 70.00
ROOT
ATOM      1  C   UNL     1      33.564  11.001  41.951  1.00  0.00     0.136 C 
ATOM      2  O   UNL     1      32.358  10.902  41.765  1.00  0.00    -0.299 OA
ENDROOT
BRANCH   1   3
ATOM      3  C   UNL     1      34.498   9.902  41.427  1.00  0.00     0.053 C 
ATOM      4  C   UNL     1      35.789  10.485  40.826  1.00  0.00     0.016 C 
BRANCH   3   5
ATOM      5  C   UNL     1      33.803   8.977  40.386  1.00  0.00     0.015 C 
BRANCH   5   6
ATOM      6  C   UNL     1      33.209   9.667  39.140  1.00  0.00     0.028 C 
BRANCH   6   7
ATOM      7  C   UNL     1      32.382  10.927  39.321  1.00  0.00    -0.028 C 
ATOM      8  C   UNL     1      32.799  12.217  39.257  1.00  0.00    -0.070 CG0
ATOM      9  C   UNL     1      31.738  13.290  39.258  1.00  0.00     0.039 C 
ATOM     10  G   UNL     1      34.252  12.662  39.330  1.00  0.00     0.000 G0
ENDBRANCH   6   7
ENDBRANCH   5   6
ENDBRANCH   3   5
ENDBRANCH   1   3
BRANCH   1  11
ATOM     11  C   UNL     1      34.072  12.270  42.622  1.00  0.00     0.087 C 
BRANCH  11  12
ATOM     12  C   UNL     1      35.131  13.066  41.812  1.00  0.00     0.066 C 
BRANCH  12  13
ATOM     13  C   UNL     1      34.531  13.609  40.518  1.00  0.00     0.140 C 
ATOM     14  O   UNL     1      34.252  14.799  40.437  1.00  0.00    -0.299 OA
BRANCH  13  15
ATOM     15  C   UNL     1      34.256  12.710  39.323  1.00  0.00     0.106 CG0
ATOM     16  G   UNL     1      32.810  12.239  39.318  1.00  0.00     0.000 G0
ENDBRANCH  13  15
ENDBRANCH  12  13
BRANCH  12  17
ATOM     17  C   UNL     1      35.859  14.180  42.647  1.00  0.00    -0.006 C 
ATOM     18  C   UNL     1      34.889  15.121  43.387  1.00  0.00     0.008 C 
ATOM     19  C   UNL     1      36.809  13.553  43.689  1.00  0.00     0.008 C 
ENDBRANCH  12  17
ENDBRANCH  11  12
ENDBRANCH   1  11
TORSDOF 1
ENDMDL
MODEL 5
REMARK VINA RESULT:    20.938      1.793      4.028
REMARK INTER + INTRA:          32.425
REMARK INTER:                  30.587
REMARK INTRA:                   1.838
REMARK UNBOUND:                 0.470
REMARK SMILES CC1=CCC[C@@H](C)C(=O)C[C@H](C(C)C)C(=O)C1
REMARK SMILES IDX 8 1 9 2 6 3 7 4 5 5 4 6 3 7 2 8 1 9 10 11 11 12 15 13 16 14
REMARK SMILES IDX 17 15 12 17 13 18 14 19
REMARK H PARENT
REMARK Flexibility Score: 70.00
ROOT
ATOM      1  C   UNL     1      36.791  11.400  40.001  1.00  0.00     0.136 C 
ATOM      2  O   UNL     1      36.982  12.112  39.024  1.00  0.00    -0.299 OA
ENDROOT
BRANCH   1   3
ATOM      3  C   UNL     1      36.682   9.881  39.814  1.00  0.00     0.053 C 
ATOM      4  C   UNL     1      36.381   9.502  38.354  1.00  0.00     0.016 C 
BRANCH   3   5
ATOM      5  C   UNL     1      35.619   9.241  40.753  1.00  0.00     0.015 C 
BRANCH   5   6
ATOM      6  C   UNL     1      34.299   8.791  40.093  1.00  0.00     0.028 C 
BRANCH   6   7
ATOM      7  C   UNL     1      33.432   9.827  39.401  1.00  0.00    -0.028 C 
ATOM      8  C   UNL     1      33.263  11.132  39.731  1.00  0.00    -0.070 CG0
ATOM      9  C   UNL     1      32.514  12.004  38.754  1.00  0.00     0.039 C 
ATOM     10  G   UNL     1      33.646  11.742  41.071  1.00  0.00     0.000 G0
ENDBRANCH   6   7
ENDBRANCH   5   6
ENDBRANCH   3   5
ENDBRANCH   1   3
BRANCH   1  11
ATOM     11  C   UNL     1      36.763  12.071  41.367  1.00  0.00     0.087 C 
BRANCH  11  12
ATOM     12  C   UNL     1      35.787  13.271  41.494  1.00  0.00     0.066 C 
BRANCH  12  13
ATOM     13  C   UNL     1      34.484  12.993  40.747  1.00  0.00     0.140 C 
ATOM     14  O   UNL     1      34.090  13.794  39.908  1.00  0.00    -0.299 OA
BRANCH  13  15
ATOM     15  C   UNL     1      33.651  11.752  41.024  1.00  0.00     0.106 CG0
ATOM     16  G   UNL     1      33.204  11.096  39.726  1.00  0.00     0.000 G0
ENDBRANCH  13  15
ENDBRANCH  12  13
BRANCH  12  17
ATOM     17  C   UNL     1      35.539  13.733  42.975  1.00  0.00    -0.006 C 
ATOM     18  C   UNL     1      36.838  13.924  43.781  1.00  0.00     0.008 C 
ATOM     19  C   UNL     1      34.751  15.059  43.012  1.00  0.00     0.008 C 
ENDBRANCH  12  17
ENDBRANCH  11  12
ENDBRANCH   1  11
TORSDOF 1
ENDMDL
MODEL 6
REMARK VINA RESULT:    21.965      1.819      3.854
REMARK INTER + INTRA:          33.992
REMARK INTER:                  33.384
REMARK INTRA:                   0.609
REMARK UNBOUND:                 0.470
REMARK SMILES CC1=CCC[C@@H](C)C(=O)C[C@H](C(C)C)C(=O)C1
REMARK SMILES IDX 8 1 9 2 6 3 7 4 5 5 4 6 3 7 2 8 1 9 10 11 11 12 15 13 16 14
REMARK SMILES IDX 17 15 12 17 13 18 14 19
REMARK H PARENT
REMARK Flexibility Score: 70.00
ROOT
ATOM      1  C   UNL     1      34.124   9.093  39.420  1.00  0.00     0.136 C 
ATOM      2  O   UNL     1      33.764   8.758  38.299  1.00  0.00    -0.299 OA
ENDROOT
BRANCH   1   3
ATOM      3  C   UNL     1      35.619   9.299  39.700  1.00  0.00     0.053 C 
ATOM      4  C   UNL     1      35.983   8.950  41.154  1.00  0.00     0.016 C 
BRANCH   3   5
ATOM      5  C   UNL     1      36.092  10.744  39.370  1.00  0.00     0.015 C 
BRANCH   5   6
ATOM      6  C   UNL     1      36.880  11.479  40.476  1.00  0.00     0.028 C 
BRANCH   6   7
ATOM      7  C   UNL     1      36.220  12.633  41.207  1.00  0.00    -0.028 C 
ATOM      8  C   UNL     1      35.249  12.578  42.154  1.00  0.00    -0.070 CG0
ATOM      9  C   UNL     1      34.915  13.858  42.881  1.00  0.00     0.039 C 
ATOM     10  G   UNL     1      34.380  11.361  42.433  1.00  0.00     0.000 G0
ENDBRANCH   6   7
ENDBRANCH   5   6
ENDBRANCH   3   5
ENDBRANCH   1   3
BRANCH   1  11
ATOM     11  C   UNL     1      33.041   9.375  40.453  1.00  0.00     0.087 C 
BRANCH  11  12
ATOM     12  C   UNL     1      32.549  10.846  40.509  1.00  0.00     0.066 C 
BRANCH  12  13
ATOM     13  C   UNL     1      32.971  11.511  41.818  1.00  0.00     0.140 C 
ATOM     14  O   UNL     1      32.170  12.216  42.419  1.00  0.00    -0.299 OA
BRANCH  13  15
ATOM     15  C   UNL     1      34.366  11.332  42.394  1.00  0.00     0.106 CG0
ATOM     16  G   UNL     1      35.210  12.578  42.173  1.00  0.00     0.000 G0
ENDBRANCH  13  15
ENDBRANCH  12  13
BRANCH  12  17
ATOM     17  C   UNL     1      32.952  11.697  39.251  1.00  0.00    -0.006 C 
ATOM     18  C   UNL     1      32.022  11.477  38.042  1.00  0.00     0.008 C 
ATOM     19  C   UNL     1      32.956  13.203  39.586  1.00  0.00     0.008 C 
ENDBRANCH  12  17
ENDBRANCH  11  12
ENDBRANCH   1  11
TORSDOF 1
ENDMDL
