MODEL 1
REMARK VINA RESULT:    -3.207      0.000      0.000
REMARK INTER + INTRA:          -7.799
REMARK INTER:                  -5.832
REMARK INTRA:                  -1.968
REMARK UNBOUND:                -1.968
REMARK SMILES CCCCCCCCCCCCCCCC(=O)[O-]
REMARK SMILES IDX 9 1 10 2 11 3 12 4 13 5 14 6 15 7 16 8 17 9 18 10 8 11 7 12
REMARK SMILES IDX 6 13 5 14 4 15 3 16 2 17 1 18
REMARK H PARENT
REMARK Flexibility Score: inf
ROOT
ATOM      1  C   UNL     1      35.554   3.992  -7.497  1.00  0.00     0.000 C 
ENDROOT
BRANCH   1   2
ATOM      2  C   UNL     1      36.323   5.122  -6.806  1.00  0.00     0.000 C 
BRANCH   2   3
ATOM      3  C   UNL     1      37.627   5.437  -7.549  1.00  0.00     0.000 C 
BRANCH   3   4
ATOM      4  C   UNL     1      38.730   4.438  -7.173  1.00  0.00     0.000 C 
BRANCH   4   5
ATOM      5  C   UNL     1      39.439   3.846  -8.403  1.00  0.00     0.000 C 
BRANCH   5   6
ATOM      6  C   UNL     1      40.130   2.508  -8.102  1.00  0.00     0.006 C 
BRANCH   6   7
ATOM      7  C   UNL     1      39.392   1.747  -6.996  1.00  0.00     0.053 C 
BRANCH   7   8
ATOM      8  C   UNL     1      40.335   1.381  -5.893  1.00  0.00     0.041 C 
ATOM      9  O   UNL     1      40.167   0.316  -5.243  1.00  0.00    -0.550 OA
ATOM     10  O   UNL     1      41.429   2.192  -5.616  1.00  0.00    -0.550 OA
ENDBRANCH   7   8
ENDBRANCH   6   7
ENDBRANCH   5   6
ENDBRANCH   4   5
ENDBRANCH   3   4
ENDBRANCH   2   3
ENDBRANCH   1   2
BRANCH   1  11
ATOM     11  C   UNL     1      35.692   4.085  -9.025  1.00  0.00     0.000 C 
BRANCH  11  12
ATOM     12  C   UNL     1      36.061   2.738  -9.665  1.00  0.00    -0.000 C 
BRANCH  12  13
ATOM     13  C   UNL     1      36.075   1.584  -8.648  1.00  0.00    -0.000 C 
BRANCH  13  14
ATOM     14  C   UNL     1      36.760   0.321  -9.213  1.00  0.00    -0.000 C 
BRANCH  14  15
ATOM     15  C   UNL     1      36.757  -0.869  -8.239  1.00  0.00    -0.000 C 
BRANCH  15  16
ATOM     16  C   UNL     1      36.315  -0.480  -6.820  1.00  0.00    -0.000 C 
BRANCH  16  17
ATOM     17  C   UNL     1      35.660  -1.648  -6.065  1.00  0.00    -0.003 C 
ATOM     18  C   UNL     1      36.296  -2.998  -6.397  1.00  0.00     0.004 C 
ENDBRANCH  16  17
ENDBRANCH  15  16
ENDBRANCH  14  15
ENDBRANCH  13  14
ENDBRANCH  12  13
ENDBRANCH  11  12
ENDBRANCH   1  11
TORSDOF 14
ENDMDL
MODEL 2
REMARK VINA RESULT:    -3.156      1.860      4.919
REMARK INTER + INTRA:          -7.707
REMARK INTER:                  -5.861
REMARK INTRA:                  -1.846
REMARK UNBOUND:                -1.968
REMARK SMILES CCCCCCCCCCCCCCCC(=O)[O-]
REMARK SMILES IDX 9 1 10 2 11 3 12 4 13 5 14 6 15 7 16 8 17 9 18 10 8 11 7 12
REMARK SMILES IDX 6 13 5 14 4 15 3 16 2 17 1 18
REMARK H PARENT
REMARK Flexibility Score: inf
ROOT
ATOM      1  C   UNL     1      37.037   3.578  -8.972  1.00  0.00     0.000 C 
ENDROOT
BRANCH   1   2
ATOM      2  C   UNL     1      35.929   3.051  -8.055  1.00  0.00     0.000 C 
BRANCH   2   3
ATOM      3  C   UNL     1      35.756   1.535  -8.213  1.00  0.00     0.000 C 
BRANCH   3   4
ATOM      4  C   UNL     1      37.108   0.850  -8.453  1.00  0.00     0.000 C 
BRANCH   4   5
ATOM      5  C   UNL     1      37.598   0.060  -7.228  1.00  0.00     0.000 C 
BRANCH   5   6
ATOM      6  C   UNL     1      39.104   0.223  -6.980  1.00  0.00     0.006 C 
BRANCH   6   7
ATOM      7  C   UNL     1      39.453   1.680  -6.662  1.00  0.00     0.053 C 
BRANCH   7   8
ATOM      8  C   UNL     1      40.895   1.950  -6.954  1.00  0.00     0.041 C 
ATOM      9  O   UNL     1      41.786   1.577  -6.146  1.00  0.00    -0.550 OA
ATOM     10  O   UNL     1      41.259   2.570  -8.143  1.00  0.00    -0.550 OA
ENDBRANCH   7   8
ENDBRANCH   6   7
ENDBRANCH   5   6
ENDBRANCH   4   5
ENDBRANCH   3   4
ENDBRANCH   2   3
ENDBRANCH   1   2
BRANCH   1  11
ATOM     11  C   UNL     1      37.900   4.623  -8.249  1.00  0.00     0.000 C 
BRANCH  11  12
ATOM     12  C   UNL     1      37.324   5.015  -6.879  1.00  0.00    -0.000 C 
BRANCH  12  13
ATOM     13  C   UNL     1      36.944   6.505  -6.802  1.00  0.00    -0.000 C 
BRANCH  13  14
ATOM     14  C   UNL     1      35.504   6.710  -6.285  1.00  0.00    -0.000 C 
BRANCH  14  15
ATOM     15  C   UNL     1      34.990   5.548  -5.418  1.00  0.00    -0.000 C 
BRANCH  15  16
ATOM     16  C   UNL     1      33.724   4.890  -5.990  1.00  0.00    -0.000 C 
BRANCH  16  17
ATOM     17  C   UNL     1      33.247   5.559  -7.289  1.00  0.00    -0.003 C 
ATOM     18  C   UNL     1      31.767   5.939  -7.249  1.00  0.00     0.004 C 
ENDBRANCH  16  17
ENDBRANCH  15  16
ENDBRANCH  14  15
ENDBRANCH  13  14
ENDBRANCH  12  13
ENDBRANCH  11  12
ENDBRANCH   1  11
TORSDOF 14
ENDMDL
MODEL 3
REMARK VINA RESULT:    -3.149      2.532      5.921
REMARK INTER + INTRA:          -7.693
REMARK INTER:                  -6.421
REMARK INTRA:                  -1.272
REMARK UNBOUND:                -1.968
REMARK SMILES CCCCCCCCCCCCCCCC(=O)[O-]
REMARK SMILES IDX 9 1 10 2 11 3 12 4 13 5 14 6 15 7 16 8 17 9 18 10 8 11 7 12
REMARK SMILES IDX 6 13 5 14 4 15 3 16 2 17 1 18
REMARK H PARENT
REMARK Flexibility Score: inf
ROOT
ATOM      1  C   UNL     1      36.155   3.387  -8.416  1.00  0.00     0.000 C 
ENDROOT
BRANCH   1   2
ATOM      2  C   UNL     1      35.670   1.975  -8.070  1.00  0.00     0.000 C 
BRANCH   2   3
ATOM      3  C   UNL     1      36.217   0.945  -9.066  1.00  0.00     0.000 C 
BRANCH   3   4
ATOM      4  C   UNL     1      36.728  -0.306  -8.337  1.00  0.00     0.000 C 
BRANCH   4   5
ATOM      5  C   UNL     1      36.318  -0.337  -6.855  1.00  0.00     0.000 C 
BRANCH   5   6
ATOM      6  C   UNL     1      35.937  -1.744  -6.374  1.00  0.00     0.006 C 
BRANCH   6   7
ATOM      7  C   UNL     1      34.888  -1.678  -5.261  1.00  0.00     0.053 C 
BRANCH   7   8
ATOM      8  C   UNL     1      35.368  -2.404  -4.044  1.00  0.00     0.041 C 
ATOM      9  O   UNL     1      34.552  -3.029  -3.315  1.00  0.00    -0.550 OA
ATOM     10  O   UNL     1      36.723  -2.433  -3.741  1.00  0.00    -0.550 OA
ENDBRANCH   7   8
ENDBRANCH   6   7
ENDBRANCH   5   6
ENDBRANCH   4   5
ENDBRANCH   3   4
ENDBRANCH   2   3
ENDBRANCH   1   2
BRANCH   1  11
ATOM     11  C   UNL     1      37.646   3.554  -8.085  1.00  0.00     0.000 C 
BRANCH  11  12
ATOM     12  C   UNL     1      37.926   4.813  -7.250  1.00  0.00    -0.000 C 
BRANCH  12  13
ATOM     13  C   UNL     1      37.429   6.099  -7.934  1.00  0.00    -0.000 C 
BRANCH  13  14
ATOM     14  C   UNL     1      36.210   6.708  -7.207  1.00  0.00    -0.000 C 
BRANCH  14  15
ATOM     15  C   UNL     1      36.008   6.166  -5.783  1.00  0.00    -0.000 C 
BRANCH  15  16
ATOM     16  C   UNL     1      34.527   5.951  -5.429  1.00  0.00    -0.000 C 
BRANCH  16  17
ATOM     17  C   UNL     1      33.812   5.023  -6.423  1.00  0.00    -0.003 C 
ATOM     18  C   UNL     1      32.519   5.626  -6.971  1.00  0.00     0.004 C 
ENDBRANCH  16  17
ENDBRANCH  15  16
ENDBRANCH  14  15
ENDBRANCH  13  14
ENDBRANCH  12  13
ENDBRANCH  11  12
ENDBRANCH   1  11
TORSDOF 14
ENDMDL
MODEL 4
REMARK VINA RESULT:    -3.131      1.179      2.045
REMARK INTER + INTRA:          -7.661
REMARK INTER:                  -6.320
REMARK INTRA:                  -1.342
REMARK UNBOUND:                -1.968
REMARK SMILES CCCCCCCCCCCCCCCC(=O)[O-]
REMARK SMILES IDX 9 1 10 2 11 3 12 4 13 5 14 6 15 7 16 8 17 9 18 10 8 11 7 12
REMARK SMILES IDX 6 13 5 14 4 15 3 16 2 17 1 18
REMARK H PARENT
REMARK Flexibility Score: inf
ROOT
ATOM      1  C   UNL     1      35.717   2.003  -8.176  1.00  0.00     0.000 C 
ENDROOT
BRANCH   1   2
ATOM      2  C   UNL     1      35.693   3.515  -7.926  1.00  0.00     0.000 C 
BRANCH   2   3
ATOM      3  C   UNL     1      36.873   4.208  -8.619  1.00  0.00     0.000 C 
BRANCH   3   4
ATOM      4  C   UNL     1      37.755   4.941  -7.598  1.00  0.00     0.000 C 
BRANCH   4   5
ATOM      5  C   UNL     1      39.250   4.624  -7.771  1.00  0.00     0.000 C 
BRANCH   5   6
ATOM      6  C   UNL     1      39.817   3.795  -6.610  1.00  0.00     0.006 C 
BRANCH   6   7
ATOM      7  C   UNL     1      40.085   2.351  -7.048  1.00  0.00     0.053 C 
BRANCH   7   8
ATOM      8  C   UNL     1      40.620   1.547  -5.905  1.00  0.00     0.041 C 
ATOM      9  O   UNL     1      39.919   0.637  -5.387  1.00  0.00    -0.550 OA
ATOM     10  O   UNL     1      41.912   1.768  -5.444  1.00  0.00    -0.550 OA
ENDBRANCH   7   8
ENDBRANCH   6   7
ENDBRANCH   5   6
ENDBRANCH   4   5
ENDBRANCH   3   4
ENDBRANCH   2   3
ENDBRANCH   1   2
BRANCH   1  11
ATOM     11  C   UNL     1      36.896   1.614  -9.082  1.00  0.00     0.000 C 
BRANCH  11  12
ATOM     12  C   UNL     1      37.518   0.265  -8.690  1.00  0.00    -0.000 C 
BRANCH  12  13
ATOM     13  C   UNL     1      36.688  -0.483  -7.631  1.00  0.00    -0.000 C 
BRANCH  13  14
ATOM     14  C   UNL     1      36.541  -1.984  -7.963  1.00  0.00    -0.000 C 
BRANCH  14  15
ATOM     15  C   UNL     1      35.717  -2.766  -6.927  1.00  0.00    -0.000 C 
BRANCH  15  16
ATOM     16  C   UNL     1      35.444  -1.960  -5.647  1.00  0.00    -0.000 C 
BRANCH  16  17
ATOM     17  C   UNL     1      35.997  -2.648  -4.388  1.00  0.00    -0.003 C 
ATOM     18  C   UNL     1      34.932  -2.857  -3.312  1.00  0.00     0.004 C 
ENDBRANCH  16  17
ENDBRANCH  15  16
ENDBRANCH  14  15
ENDBRANCH  13  14
ENDBRANCH  12  13
ENDBRANCH  11  12
ENDBRANCH   1  11
TORSDOF 14
ENDMDL
MODEL 5
REMARK VINA RESULT:    -3.120     11.371     13.461
REMARK INTER + INTRA:          -7.642
REMARK INTER:                  -5.646
REMARK INTRA:                  -1.996
REMARK UNBOUND:                -1.968
REMARK SMILES CCCCCCCCCCCCCCCC(=O)[O-]
REMARK SMILES IDX 9 1 10 2 11 3 12 4 13 5 14 6 15 7 16 8 17 9 18 10 8 11 7 12
REMARK SMILES IDX 6 13 5 14 4 15 3 16 2 17 1 18
REMARK H PARENT
REMARK Flexibility Score: inf
ROOT
ATOM      1  C   UNL     1      41.298   3.874   6.563  1.00  0.00     0.000 C 
ENDROOT
BRANCH   1   2
ATOM      2  C   UNL     1      40.249   4.266   7.609  1.00  0.00     0.000 C 
BRANCH   2   3
ATOM      3  C   UNL     1      39.700   5.673   7.342  1.00  0.00     0.000 C 
BRANCH   3   4
ATOM      4  C   UNL     1      39.302   5.836   5.868  1.00  0.00     0.000 C 
BRANCH   4   5
ATOM      5  C   UNL     1      37.784   5.727   5.649  1.00  0.00     0.000 C 
BRANCH   5   6
ATOM      6  C   UNL     1      37.364   6.087   4.217  1.00  0.00     0.006 C 
BRANCH   6   7
ATOM      7  C   UNL     1      37.156   7.598   4.071  1.00  0.00     0.053 C 
BRANCH   7   8
ATOM      8  C   UNL     1      38.109   8.163   3.066  1.00  0.00     0.041 C 
ATOM      9  O   UNL     1      37.894   8.014   1.834  1.00  0.00    -0.550 OA
ATOM     10  O   UNL     1      39.209   8.900   3.489  1.00  0.00    -0.550 OA
ENDBRANCH   7   8
ENDBRANCH   6   7
ENDBRANCH   5   6
ENDBRANCH   4   5
ENDBRANCH   3   4
ENDBRANCH   2   3
ENDBRANCH   1   2
BRANCH   1  11
ATOM     11  C   UNL     1      41.480   2.349   6.509  1.00  0.00     0.000 C 
BRANCH  11  12
ATOM     12  C   UNL     1      42.703   1.933   5.678  1.00  0.00    -0.000 C 
BRANCH  12  13
ATOM     13  C   UNL     1      42.314   1.281   4.339  1.00  0.00    -0.000 C 
BRANCH  13  14
ATOM     14  C   UNL     1      41.988   2.333   3.255  1.00  0.00    -0.000 C 
BRANCH  14  15
ATOM     15  C   UNL     1      40.571   2.200   2.674  1.00  0.00    -0.000 C 
BRANCH  15  16
ATOM     16  C   UNL     1      39.577   3.199   3.287  1.00  0.00    -0.000 C 
BRANCH  16  17
ATOM     17  C   UNL     1      38.280   2.524   3.761  1.00  0.00    -0.003 C 
ATOM     18  C   UNL     1      38.528   1.425   4.794  1.00  0.00     0.004 C 
ENDBRANCH  16  17
ENDBRANCH  15  16
ENDBRANCH  14  15
ENDBRANCH  13  14
ENDBRANCH  12  13
ENDBRANCH  11  12
ENDBRANCH   1  11
TORSDOF 14
ENDMDL
MODEL 6
REMARK VINA RESULT:    -3.107      2.645      4.312
REMARK INTER + INTRA:          -7.617
REMARK INTER:                  -5.737
REMARK INTRA:                  -1.879
REMARK UNBOUND:                -1.968
REMARK SMILES CCCCCCCCCCCCCCCC(=O)[O-]
REMARK SMILES IDX 9 1 10 2 11 3 12 4 13 5 14 6 15 7 16 8 17 9 18 10 8 11 7 12
REMARK SMILES IDX 6 13 5 14 4 15 3 16 2 17 1 18
REMARK H PARENT
REMARK Flexibility Score: inf
ROOT
ATOM      1  C   UNL     1      40.288   3.009  -6.681  1.00  0.00     0.000 C 
ENDROOT
BRANCH   1   2
ATOM      2  C   UNL     1      39.764   4.345  -7.217  1.00  0.00     0.000 C 
BRANCH   2   3
ATOM      3  C   UNL     1      38.248   4.466  -7.013  1.00  0.00     0.000 C 
BRANCH   3   4
ATOM      4  C   UNL     1      37.618   5.359  -8.091  1.00  0.00     0.000 C 
BRANCH   4   5
ATOM      5  C   UNL     1      36.222   4.876  -8.519  1.00  0.00     0.000 C 
BRANCH   5   6
ATOM      6  C   UNL     1      35.502   4.091  -7.414  1.00  0.00     0.006 C 
BRANCH   6   7
ATOM      7  C   UNL     1      34.446   4.959  -6.725  1.00  0.00     0.053 C 
BRANCH   7   8
ATOM      8  C   UNL     1      34.853   5.262  -5.317  1.00  0.00     0.041 C 
ATOM      9  O   UNL     1      35.694   6.170  -5.082  1.00  0.00    -0.550 OA
ATOM     10  O   UNL     1      34.267   4.576  -4.260  1.00  0.00    -0.550 OA
ENDBRANCH   7   8
ENDBRANCH   6   7
ENDBRANCH   5   6
ENDBRANCH   4   5
ENDBRANCH   3   4
ENDBRANCH   2   3
ENDBRANCH   1   2
BRANCH   1  11
ATOM     11  C   UNL     1      39.217   1.912  -6.792  1.00  0.00     0.000 C 
BRANCH  11  12
ATOM     12  C   UNL     1      39.713   0.684  -7.571  1.00  0.00    -0.000 C 
BRANCH  12  13
ATOM     13  C   UNL     1      39.033   0.541  -8.944  1.00  0.00    -0.000 C 
BRANCH  13  14
ATOM     14  C   UNL     1      37.820   1.484  -9.092  1.00  0.00    -0.000 C 
BRANCH  14  15
ATOM     15  C   UNL     1      36.470   0.797  -8.825  1.00  0.00    -0.000 C 
BRANCH  15  16
ATOM     16  C   UNL     1      36.623  -0.627  -8.267  1.00  0.00    -0.000 C 
BRANCH  16  17
ATOM     17  C   UNL     1      36.193  -0.733  -6.795  1.00  0.00    -0.003 C 
ATOM     18  C   UNL     1      36.268  -2.162  -6.258  1.00  0.00     0.004 C 
ENDBRANCH  16  17
ENDBRANCH  15  16
ENDBRANCH  14  15
ENDBRANCH  13  14
ENDBRANCH  12  13
ENDBRANCH  11  12
ENDBRANCH   1  11
TORSDOF 14
ENDMDL
MODEL 7
REMARK VINA RESULT:    -3.079      4.768      7.251
REMARK INTER + INTRA:          -7.567
REMARK INTER:                  -5.929
REMARK INTRA:                  -1.638
REMARK UNBOUND:                -1.968
REMARK SMILES CCCCCCCCCCCCCCCC(=O)[O-]
REMARK SMILES IDX 9 1 10 2 11 3 12 4 13 5 14 6 15 7 16 8 17 9 18 10 8 11 7 12
REMARK SMILES IDX 6 13 5 14 4 15 3 16 2 17 1 18
REMARK H PARENT
REMARK Flexibility Score: inf
ROOT
ATOM      1  C   UNL     1      33.285   6.054  -7.762  1.00  0.00     0.000 C 
ENDROOT
BRANCH   1   2
ATOM      2  C   UNL     1      33.952   7.198  -6.989  1.00  0.00     0.000 C 
BRANCH   2   3
ATOM      3  C   UNL     1      34.652   6.676  -5.727  1.00  0.00     0.000 C 
BRANCH   3   4
ATOM      4  C   UNL     1      35.496   5.433  -6.041  1.00  0.00     0.000 C 
BRANCH   4   5
ATOM      5  C   UNL     1      36.876   5.784  -6.622  1.00  0.00     0.000 C 
BRANCH   5   6
ATOM      6  C   UNL     1      37.349   4.775  -7.677  1.00  0.00     0.006 C 
BRANCH   6   7
ATOM      7  C   UNL     1      36.212   3.832  -8.083  1.00  0.00     0.053 C 
BRANCH   7   8
ATOM      8  C   UNL     1      36.690   2.415  -8.111  1.00  0.00     0.041 C 
ATOM      9  O   UNL     1      35.875   1.467  -7.956  1.00  0.00    -0.550 OA
ATOM     10  O   UNL     1      38.029   2.138  -8.359  1.00  0.00    -0.550 OA
ENDBRANCH   7   8
ENDBRANCH   6   7
ENDBRANCH   5   6
ENDBRANCH   4   5
ENDBRANCH   3   4
ENDBRANCH   2   3
ENDBRANCH   1   2
BRANCH   1  11
ATOM     11  C   UNL     1      31.842   5.834  -7.282  1.00  0.00     0.000 C 
BRANCH  11  12
ATOM     12  C   UNL     1      31.104   7.154  -7.014  1.00  0.00    -0.000 C 
BRANCH  12  13
ATOM     13  C   UNL     1      29.574   6.985  -7.008  1.00  0.00    -0.000 C 
BRANCH  13  14
ATOM     14  C   UNL     1      28.886   7.900  -8.044  1.00  0.00    -0.000 C 
BRANCH  14  15
ATOM     15  C   UNL     1      28.735   7.254  -9.432  1.00  0.00    -0.000 C 
BRANCH  15  16
ATOM     16  C   UNL     1      29.469   8.031 -10.536  1.00  0.00    -0.000 C 
BRANCH  16  17
ATOM     17  C   UNL     1      30.956   7.653 -10.634  1.00  0.00    -0.003 C 
ATOM     18  C   UNL     1      31.170   6.181 -10.982  1.00  0.00     0.004 C 
ENDBRANCH  16  17
ENDBRANCH  15  16
ENDBRANCH  14  15
ENDBRANCH  13  14
ENDBRANCH  12  13
ENDBRANCH  11  12
ENDBRANCH   1  11
TORSDOF 14
ENDMDL
MODEL 8
REMARK VINA RESULT:    -3.056      5.270      7.694
REMARK INTER + INTRA:          -7.524
REMARK INTER:                  -5.575
REMARK INTRA:                  -1.949
REMARK UNBOUND:                -1.968
REMARK SMILES CCCCCCCCCCCCCCCC(=O)[O-]
REMARK SMILES IDX 9 1 10 2 11 3 12 4 13 5 14 6 15 7 16 8 17 9 18 10 8 11 7 12
REMARK SMILES IDX 6 13 5 14 4 15 3 16 2 17 1 18
REMARK H PARENT
REMARK Flexibility Score: inf
ROOT
ATOM      1  C   UNL     1      32.544   7.501  -9.175  1.00  0.00     0.000 C 
ENDROOT
BRANCH   1   2
ATOM      2  C   UNL     1      32.946   7.467  -7.697  1.00  0.00     0.000 C 
BRANCH   2   3
ATOM      3  C   UNL     1      32.699   6.080  -7.089  1.00  0.00     0.000 C 
BRANCH   3   4
ATOM      4  C   UNL     1      33.796   5.721  -6.077  1.00  0.00     0.000 C 
BRANCH   4   5
ATOM      5  C   UNL     1      34.683   4.559  -6.551  1.00  0.00     0.000 C 
BRANCH   5   6
ATOM      6  C   UNL     1      35.659   4.973  -7.662  1.00  0.00     0.006 C 
BRANCH   6   7
ATOM      7  C   UNL     1      35.658   3.949  -8.801  1.00  0.00     0.053 C 
BRANCH   7   8
ATOM      8  C   UNL     1      36.391   2.710  -8.394  1.00  0.00     0.041 C 
ATOM      9  O   UNL     1      37.628   2.753  -8.161  1.00  0.00    -0.550 OA
ATOM     10  O   UNL     1      35.699   1.517  -8.223  1.00  0.00    -0.550 OA
ENDBRANCH   7   8
ENDBRANCH   6   7
ENDBRANCH   5   6
ENDBRANCH   4   5
ENDBRANCH   3   4
ENDBRANCH   2   3
ENDBRANCH   1   2
BRANCH   1  11
ATOM     11  C   UNL     1      32.135   6.103  -9.667  1.00  0.00     0.000 C 
BRANCH  11  12
ATOM     12  C   UNL     1      31.406   6.146 -11.019  1.00  0.00    -0.000 C 
BRANCH  12  13
ATOM     13  C   UNL     1      30.365   7.276 -11.093  1.00  0.00    -0.000 C 
BRANCH  13  14
ATOM     14  C   UNL     1      29.022   6.871 -10.447  1.00  0.00    -0.000 C 
BRANCH  14  15
ATOM     15  C   UNL     1      28.234   8.057  -9.868  1.00  0.00    -0.000 C 
BRANCH  15  16
ATOM     16  C   UNL     1      28.787   8.543  -8.519  1.00  0.00    -0.000 C 
BRANCH  16  17
ATOM     17  C   UNL     1      29.223   7.382  -7.609  1.00  0.00    -0.003 C 
ATOM     18  C   UNL     1      29.512   7.830  -6.177  1.00  0.00     0.004 C 
ENDBRANCH  16  17
ENDBRANCH  15  16
ENDBRANCH  14  15
ENDBRANCH  13  14
ENDBRANCH  12  13
ENDBRANCH  11  12
ENDBRANCH   1  11
TORSDOF 14
ENDMDL
MODEL 9
REMARK VINA RESULT:    -2.977      8.978     11.802
REMARK INTER + INTRA:          -7.380
REMARK INTER:                  -4.754
REMARK INTRA:                  -2.627
REMARK UNBOUND:                -1.968
REMARK SMILES CCCCCCCCCCCCCCCC(=O)[O-]
REMARK SMILES IDX 9 1 10 2 11 3 12 4 13 5 14 6 15 7 16 8 17 9 18 10 8 11 7 12
REMARK SMILES IDX 6 13 5 14 4 15 3 16 2 17 1 18
REMARK H PARENT
REMARK Flexibility Score: inf
ROOT
ATOM      1  C   UNL     1      41.538  -0.491   5.306  1.00  0.00     0.000 C 
ENDROOT
BRANCH   1   2
ATOM      2  C   UNL     1      40.217  -0.958   4.687  1.00  0.00     0.000 C 
BRANCH   2   3
ATOM      3  C   UNL     1      40.436  -1.515   3.274  1.00  0.00     0.000 C 
BRANCH   3   4
ATOM      4  C   UNL     1      41.867  -2.044   3.108  1.00  0.00     0.000 C 
BRANCH   4   5
ATOM      5  C   UNL     1      42.476  -1.687   1.742  1.00  0.00     0.000 C 
BRANCH   5   6
ATOM      6  C   UNL     1      41.722  -0.552   1.035  1.00  0.00     0.006 C 
BRANCH   6   7
ATOM      7  C   UNL     1      41.453  -0.902  -0.431  1.00  0.00     0.053 C 
BRANCH   7   8
ATOM      8  C   UNL     1      39.994  -1.153  -0.651  1.00  0.00     0.041 C 
ATOM      9  O   UNL     1      39.345  -0.444  -1.466  1.00  0.00    -0.550 OA
ATOM     10  O   UNL     1      39.362  -2.201   0.006  1.00  0.00    -0.550 OA
ENDBRANCH   7   8
ENDBRANCH   6   7
ENDBRANCH   5   6
ENDBRANCH   4   5
ENDBRANCH   3   4
ENDBRANCH   2   3
ENDBRANCH   1   2
BRANCH   1  11
ATOM     11  C   UNL     1      41.339   0.796   6.122  1.00  0.00     0.000 C 
BRANCH  11  12
ATOM     12  C   UNL     1      42.050   2.005   5.495  1.00  0.00    -0.000 C 
BRANCH  12  13
ATOM     13  C   UNL     1      42.532   1.729   4.060  1.00  0.00    -0.000 C 
BRANCH  13  14
ATOM     14  C   UNL     1      41.651   2.434   3.006  1.00  0.00    -0.000 C 
BRANCH  14  15
ATOM     15  C   UNL     1      40.412   3.124   3.601  1.00  0.00    -0.000 C 
BRANCH  15  16
ATOM     16  C   UNL     1      39.101   2.401   3.257  1.00  0.00    -0.000 C 
BRANCH  16  17
ATOM     17  C   UNL     1      39.159   1.690   1.895  1.00  0.00    -0.003 C 
ATOM     18  C   UNL     1      37.945   0.798   1.641  1.00  0.00     0.004 C 
ENDBRANCH  16  17
ENDBRANCH  15  16
ENDBRANCH  14  15
ENDBRANCH  13  14
ENDBRANCH  12  13
ENDBRANCH  11  12
ENDBRANCH   1  11
TORSDOF 14
ENDMDL
