MODEL 1
REMARK VINA RESULT:    -5.654      0.000      0.000
REMARK INTER + INTRA:          -6.946
REMARK INTER:                  -6.646
REMARK INTRA:                  -0.300
REMARK UNBOUND:                -0.300
REMARK SMILES O=c1c(O)c(-c2ccc(O)cc2)oc2cc(O)cc(O)c12
REMARK SMILES IDX 5 1 3 2 2 3 1 4 21 5 19 6 18 7 16 8 15 9 14 10 13 11 6 12
REMARK SMILES IDX 7 13 8 14 9 15 12 16 11 17 10 18 4 20 20 22 17 24
REMARK H PARENT 10 19 4 21 20 23 17 25
REMARK Flexibility Score: inf
ROOT
ATOM      1  C   UNL     1       2.531  37.655   6.209  1.00  0.00     0.180 A 
ATOM      2  C   UNL     1       2.930  38.539   5.193  1.00  0.00     0.208 A 
ATOM      3  C   UNL     1       4.162  39.205   5.314  1.00  0.00     0.238 A 
ATOM      4  O   UNL     1       4.539  39.953   4.375  1.00  0.00    -0.285 OA
ATOM      5  C   UNL     1       4.970  38.988   6.456  1.00  0.00     0.111 A 
ATOM      6  C   UNL     1       6.217  39.639   6.701  1.00  0.00     0.134 A 
ATOM      7  C   UNL     1       6.994  39.251   7.800  1.00  0.00     0.093 A 
ATOM      8  C   UNL     1       6.538  38.284   8.699  1.00  0.00     0.123 A 
ATOM      9  C   UNL     1       5.295  37.686   8.501  1.00  0.00     0.094 A 
ATOM     10  C   UNL     1       4.514  38.025   7.393  1.00  0.00     0.146 A 
ATOM     11  O   UNL     1       3.341  37.423   7.236  1.00  0.00    -0.452 OA
ENDROOT
BRANCH   1  12
ATOM     12  C   UNL     1       1.237  36.937   6.165  1.00  0.00     0.021 A 
ATOM     13  C   UNL     1       0.066  37.504   6.701  1.00  0.00     0.016 A 
ATOM     14  C   UNL     1      -1.140  36.796   6.670  1.00  0.00     0.047 A 
ATOM     15  C   UNL     1      -1.188  35.511   6.116  1.00  0.00     0.115 A 
ATOM     16  C   UNL     1       1.184  35.638   5.630  1.00  0.00     0.016 A 
ATOM     17  C   UNL     1      -0.023  34.934   5.599  1.00  0.00     0.047 A 
BRANCH  15  18
ATOM     18  O   UNL     1      -2.385  34.797   6.077  1.00  0.00    -0.508 OA
ATOM     19  H   UNL     1      -2.990  34.736   6.888  1.00  0.00     0.293 HD
ENDBRANCH  15  18
ENDBRANCH   1  12
BRANCH   2  20
ATOM     20  O   UNL     1       2.128  38.721   4.063  1.00  0.00    -0.502 OA
ATOM     21  H   UNL     1       2.438  39.246   3.255  1.00  0.00     0.293 HD
ENDBRANCH   2  20
BRANCH   6  22
ATOM     22  O   UNL     1       6.721  40.681   5.918  1.00  0.00    -0.507 OA
ATOM     23  H   UNL     1       6.401  40.907   4.988  1.00  0.00     0.293 HD
ENDBRANCH   6  22
BRANCH   8  24
ATOM     24  O   UNL     1       7.310  37.916   9.798  1.00  0.00    -0.508 OA
ATOM     25  H   UNL     1       6.957  37.990  10.744  1.00  0.00     0.293 HD
ENDBRANCH   8  24
TORSDOF 5
ENDMDL
MODEL 2
REMARK VINA RESULT:    -5.477      2.372      6.831
REMARK INTER + INTRA:          -6.738
REMARK INTER:                  -6.441
REMARK INTRA:                  -0.296
REMARK UNBOUND:                -0.300
REMARK SMILES O=c1c(O)c(-c2ccc(O)cc2)oc2cc(O)cc(O)c12
REMARK SMILES IDX 5 1 3 2 2 3 1 4 21 5 19 6 18 7 16 8 15 9 14 10 13 11 6 12
REMARK SMILES IDX 7 13 8 14 9 15 12 16 11 17 10 18 4 20 20 22 17 24
REMARK H PARENT 10 19 4 21 20 23 17 25
REMARK Flexibility Score: inf
ROOT
ATOM      1  C   UNL     1       2.195  38.213   6.845  1.00  0.00     0.180 A 
ATOM      2  C   UNL     1       1.624  37.178   6.084  1.00  0.00     0.208 A 
ATOM      3  C   UNL     1       0.224  37.094   5.989  1.00  0.00     0.238 A 
ATOM      4  O   UNL     1      -0.279  36.199   5.263  1.00  0.00    -0.285 OA
ATOM      5  C   UNL     1      -0.585  38.037   6.669  1.00  0.00     0.111 A 
ATOM      6  C   UNL     1      -2.012  38.022   6.675  1.00  0.00     0.134 A 
ATOM      7  C   UNL     1      -2.710  39.079   7.274  1.00  0.00     0.093 A 
ATOM      8  C   UNL     1      -2.032  40.114   7.923  1.00  0.00     0.123 A 
ATOM      9  C   UNL     1      -0.640  40.105   7.973  1.00  0.00     0.094 A 
ATOM     10  C   UNL     1       0.085  39.083   7.354  1.00  0.00     0.146 A 
ATOM     11  O   UNL     1       1.410  39.119   7.416  1.00  0.00    -0.452 OA
ENDROOT
BRANCH   1  12
ATOM     12  C   UNL     1       3.659  38.351   7.012  1.00  0.00     0.021 A 
ATOM     13  C   UNL     1       4.351  37.657   8.021  1.00  0.00     0.016 A 
ATOM     14  C   UNL     1       5.731  37.823   8.176  1.00  0.00     0.047 A 
ATOM     15  C   UNL     1       6.433  38.693   7.333  1.00  0.00     0.115 A 
ATOM     16  C   UNL     1       4.369  39.239   6.185  1.00  0.00     0.016 A 
ATOM     17  C   UNL     1       5.749  39.402   6.340  1.00  0.00     0.047 A 
BRANCH  15  18
ATOM     18  O   UNL     1       7.809  38.865   7.476  1.00  0.00    -0.508 OA
ATOM     19  H   UNL     1       8.460  38.534   6.772  1.00  0.00     0.293 HD
ENDBRANCH  15  18
ENDBRANCH   1  12
BRANCH   2  20
ATOM     20  O   UNL     1       2.441  36.273   5.402  1.00  0.00    -0.502 OA
ATOM     21  H   UNL     1       2.226  35.285   5.340  1.00  0.00     0.293 HD
ENDBRANCH   2  20
BRANCH   6  22
ATOM     22  O   UNL     1      -2.785  36.990   6.137  1.00  0.00    -0.507 OA
ATOM     23  H   UNL     1      -2.450  36.306   5.475  1.00  0.00     0.293 HD
ENDBRANCH   6  22
BRANCH   8  24
ATOM     24  O   UNL     1      -2.735  41.153   8.529  1.00  0.00    -0.508 OA
ATOM     25  H   UNL     1      -3.451  41.670   8.033  1.00  0.00     0.293 HD
ENDBRANCH   8  24
TORSDOF 5
ENDMDL
MODEL 3
REMARK VINA RESULT:    -5.210      4.720      7.672
REMARK INTER + INTRA:          -6.424
REMARK INTER:                  -6.617
REMARK INTRA:                   0.193
REMARK UNBOUND:                -0.300
REMARK SMILES O=c1c(O)c(-c2ccc(O)cc2)oc2cc(O)cc(O)c12
REMARK SMILES IDX 5 1 3 2 2 3 1 4 21 5 19 6 18 7 16 8 15 9 14 10 13 11 6 12
REMARK SMILES IDX 7 13 8 14 9 15 12 16 11 17 10 18 4 20 20 22 17 24
REMARK H PARENT 10 19 4 21 20 23 17 25
REMARK Flexibility Score: inf
ROOT
ATOM      1  C   UNL     1      -2.592  39.586   7.907  1.00  0.00     0.180 A 
ATOM      2  C   UNL     1      -1.340  39.815   7.313  1.00  0.00     0.208 A 
ATOM      3  C   UNL     1      -0.632  38.728   6.773  1.00  0.00     0.238 A 
ATOM      4  O   UNL     1       0.463  38.948   6.194  1.00  0.00    -0.285 OA
ATOM      5  C   UNL     1      -1.179  37.424   6.850  1.00  0.00     0.111 A 
ATOM      6  C   UNL     1      -0.530  36.245   6.373  1.00  0.00     0.134 A 
ATOM      7  C   UNL     1      -1.220  35.026   6.383  1.00  0.00     0.093 A 
ATOM      8  C   UNL     1      -2.509  34.932   6.914  1.00  0.00     0.123 A 
ATOM      9  C   UNL     1      -3.127  36.067   7.437  1.00  0.00     0.094 A 
ATOM     10  C   UNL     1      -2.478  37.304   7.407  1.00  0.00     0.146 A 
ATOM     11  O   UNL     1      -3.107  38.361   7.905  1.00  0.00    -0.452 OA
ENDROOT
BRANCH   1  12
ATOM     12  C   UNL     1      -3.386  40.676   8.520  1.00  0.00     0.021 A 
ATOM     13  C   UNL     1      -4.089  40.485   9.722  1.00  0.00     0.016 A 
ATOM     14  C   UNL     1      -4.851  41.523  10.268  1.00  0.00     0.047 A 
ATOM     15  C   UNL     1      -4.930  42.758   9.613  1.00  0.00     0.115 A 
ATOM     16  C   UNL     1      -3.488  41.912   7.858  1.00  0.00     0.016 A 
ATOM     17  C   UNL     1      -4.250  42.948   8.406  1.00  0.00     0.047 A 
BRANCH  15  18
ATOM     18  O   UNL     1      -5.685  43.800  10.149  1.00  0.00    -0.508 OA
ATOM     19  H   UNL     1      -5.530  44.135  11.093  1.00  0.00     0.293 HD
ENDBRANCH  15  18
ENDBRANCH   1  12
BRANCH   2  20
ATOM     20  O   UNL     1      -0.830  41.113   7.227  1.00  0.00    -0.502 OA
ATOM     21  H   UNL     1       0.116  41.346   7.507  1.00  0.00     0.293 HD
ENDBRANCH   2  20
BRANCH   6  22
ATOM     22  O   UNL     1       0.787  36.212   5.909  1.00  0.00    -0.507 OA
ATOM     23  H   UNL     1       1.602  36.374   6.481  1.00  0.00     0.293 HD
ENDBRANCH   6  22
BRANCH   8  24
ATOM     24  O   UNL     1      -3.182  33.713   6.934  1.00  0.00    -0.508 OA
ATOM     25  H   UNL     1      -4.179  33.654   6.770  1.00  0.00     0.293 HD
ENDBRANCH   8  24
TORSDOF 5
ENDMDL
MODEL 4
REMARK VINA RESULT:    -5.206      3.914      5.748
REMARK INTER + INTRA:          -6.419
REMARK INTER:                  -6.437
REMARK INTRA:                   0.018
REMARK UNBOUND:                -0.300
REMARK SMILES O=c1c(O)c(-c2ccc(O)cc2)oc2cc(O)cc(O)c12
REMARK SMILES IDX 5 1 3 2 2 3 1 4 21 5 19 6 18 7 16 8 15 9 14 10 13 11 6 12
REMARK SMILES IDX 7 13 8 14 9 15 12 16 11 17 10 18 4 20 20 22 17 24
REMARK H PARENT 10 19 4 21 20 23 17 25
REMARK Flexibility Score: inf
ROOT
ATOM      1  C   UNL     1      -0.761  39.757   7.279  1.00  0.00     0.180 A 
ATOM      2  C   UNL     1       0.456  40.411   7.023  1.00  0.00     0.208 A 
ATOM      3  C   UNL     1       1.528  39.673   6.491  1.00  0.00     0.238 A 
ATOM      4  O   UNL     1       2.596  40.275   6.212  1.00  0.00    -0.285 OA
ATOM      5  C   UNL     1       1.371  38.289   6.238  1.00  0.00     0.111 A 
ATOM      6  C   UNL     1       2.402  37.436   5.738  1.00  0.00     0.134 A 
ATOM      7  C   UNL     1       2.098  36.110   5.402  1.00  0.00     0.093 A 
ATOM      8  C   UNL     1       0.819  35.590   5.610  1.00  0.00     0.123 A 
ATOM      9  C   UNL     1      -0.178  36.398   6.153  1.00  0.00     0.094 A 
ATOM     10  C   UNL     1       0.085  37.735   6.464  1.00  0.00     0.146 A 
ATOM     11  O   UNL     1      -0.896  38.473   6.970  1.00  0.00    -0.452 OA
ENDROOT
BRANCH   1  12
ATOM     12  C   UNL     1      -1.925  40.461   7.863  1.00  0.00     0.021 A 
ATOM     13  C   UNL     1      -2.585  39.968   9.003  1.00  0.00     0.016 A 
ATOM     14  C   UNL     1      -3.698  40.638   9.521  1.00  0.00     0.047 A 
ATOM     15  C   UNL     1      -4.173  41.799   8.899  1.00  0.00     0.115 A 
ATOM     16  C   UNL     1      -2.422  41.616   7.233  1.00  0.00     0.016 A 
ATOM     17  C   UNL     1      -3.534  42.284   7.753  1.00  0.00     0.047 A 
BRANCH  15  18
ATOM     18  O   UNL     1      -5.280  42.476   9.408  1.00  0.00    -0.508 OA
ATOM     19  H   UNL     1      -5.896  42.046  10.089  1.00  0.00     0.293 HD
ENDBRANCH  15  18
ENDBRANCH   1  12
BRANCH   2  20
ATOM     20  O   UNL     1       0.582  41.783   7.258  1.00  0.00    -0.502 OA
ATOM     21  H   UNL     1       1.206  42.373   6.722  1.00  0.00     0.293 HD
ENDBRANCH   2  20
BRANCH   6  22
ATOM     22  O   UNL     1       3.733  37.830   5.580  1.00  0.00    -0.507 OA
ATOM     23  H   UNL     1       4.067  38.451   4.858  1.00  0.00     0.293 HD
ENDBRANCH   6  22
BRANCH   8  24
ATOM     24  O   UNL     1       0.530  34.266   5.288  1.00  0.00    -0.508 OA
ATOM     25  H   UNL     1       1.263  33.584   5.138  1.00  0.00     0.293 HD
ENDBRANCH   8  24
TORSDOF 5
ENDMDL
MODEL 5
REMARK VINA RESULT:    -5.131      3.823      6.121
REMARK INTER + INTRA:          -6.331
REMARK INTER:                  -6.183
REMARK INTRA:                  -0.148
REMARK UNBOUND:                -0.300
REMARK SMILES O=c1c(O)c(-c2ccc(O)cc2)oc2cc(O)cc(O)c12
REMARK SMILES IDX 5 1 3 2 2 3 1 4 21 5 19 6 18 7 16 8 15 9 14 10 13 11 6 12
REMARK SMILES IDX 7 13 8 14 9 15 12 16 11 17 10 18 4 20 20 22 17 24
REMARK H PARENT 10 19 4 21 20 23 17 25
REMARK Flexibility Score: inf
ROOT
ATOM      1  C   UNL     1      -1.681  38.919   7.480  1.00  0.00     0.180 A 
ATOM      2  C   UNL     1      -2.155  37.696   6.975  1.00  0.00     0.208 A 
ATOM      3  C   UNL     1      -1.246  36.810   6.373  1.00  0.00     0.238 A 
ATOM      4  O   UNL     1      -1.666  35.694   5.972  1.00  0.00    -0.285 OA
ATOM      5  C   UNL     1       0.120  37.166   6.270  1.00  0.00     0.111 A 
ATOM      6  C   UNL     1       1.121  36.363   5.643  1.00  0.00     0.134 A 
ATOM      7  C   UNL     1       2.464  36.754   5.714  1.00  0.00     0.093 A 
ATOM      8  C   UNL     1       2.834  37.952   6.331  1.00  0.00     0.123 A 
ATOM      9  C   UNL     1       1.857  38.771   6.893  1.00  0.00     0.094 A 
ATOM     10  C   UNL     1       0.513  38.389   6.870  1.00  0.00     0.146 A 
ATOM     11  O   UNL     1      -0.384  39.194   7.427  1.00  0.00    -0.452 OA
ENDROOT
BRANCH   1  12
ATOM     12  C   UNL     1      -2.582  39.914   8.105  1.00  0.00     0.021 A 
ATOM     13  C   UNL     1      -2.810  41.170   7.514  1.00  0.00     0.016 A 
ATOM     14  C   UNL     1      -3.646  42.103   8.136  1.00  0.00     0.047 A 
ATOM     15  C   UNL     1      -4.252  41.798   9.361  1.00  0.00     0.115 A 
ATOM     16  C   UNL     1      -3.178  39.625   9.346  1.00  0.00     0.016 A 
ATOM     17  C   UNL     1      -4.014  40.559   9.965  1.00  0.00     0.047 A 
BRANCH  15  18
ATOM     18  O   UNL     1      -5.089  42.719   9.989  1.00  0.00    -0.508 OA
ATOM     19  H   UNL     1      -5.866  42.420  10.567  1.00  0.00     0.293 HD
ENDBRANCH  15  18
ENDBRANCH   1  12
BRANCH   2  20
ATOM     20  O   UNL     1      -3.504  37.354   7.108  1.00  0.00    -0.502 OA
ATOM     21  H   UNL     1      -4.228  37.764   6.531  1.00  0.00     0.293 HD
ENDBRANCH   2  20
BRANCH   6  22
ATOM     22  O   UNL     1       0.848  35.197   4.922  1.00  0.00    -0.507 OA
ATOM     23  H   UNL     1       1.350  34.901   4.098  1.00  0.00     0.293 HD
ENDBRANCH   6  22
BRANCH   8  24
ATOM     24  O   UNL     1       4.170  38.340   6.383  1.00  0.00    -0.508 OA
ATOM     25  H   UNL     1       4.613  38.604   7.255  1.00  0.00     0.293 HD
ENDBRANCH   8  24
TORSDOF 5
ENDMDL
MODEL 6
REMARK VINA RESULT:    -5.100      2.190      6.969
REMARK INTER + INTRA:          -6.294
REMARK INTER:                  -6.169
REMARK INTRA:                  -0.126
REMARK UNBOUND:                -0.300
REMARK SMILES O=c1c(O)c(-c2ccc(O)cc2)oc2cc(O)cc(O)c12
REMARK SMILES IDX 5 1 3 2 2 3 1 4 21 5 19 6 18 7 16 8 15 9 14 10 13 11 6 12
REMARK SMILES IDX 7 13 8 14 9 15 12 16 11 17 10 18 4 20 20 22 17 24
REMARK H PARENT 10 19 4 21 20 23 17 25
REMARK Flexibility Score: inf
ROOT
ATOM      1  C   UNL     1       1.532  38.573   6.850  1.00  0.00     0.180 A 
ATOM      2  C   UNL     1       0.718  39.710   6.991  1.00  0.00     0.208 A 
ATOM      3  C   UNL     1      -0.678  39.557   6.951  1.00  0.00     0.238 A 
ATOM      4  O   UNL     1      -1.402  40.570   7.133  1.00  0.00    -0.285 OA
ATOM      5  C   UNL     1      -1.240  38.272   6.756  1.00  0.00     0.111 A 
ATOM      6  C   UNL     1      -2.640  38.007   6.660  1.00  0.00     0.134 A 
ATOM      7  C   UNL     1      -3.088  36.681   6.597  1.00  0.00     0.093 A 
ATOM      8  C   UNL     1      -2.185  35.616   6.561  1.00  0.00     0.123 A 
ATOM      9  C   UNL     1      -0.815  35.869   6.594  1.00  0.00     0.094 A 
ATOM     10  C   UNL     1      -0.338  37.178   6.694  1.00  0.00     0.146 A 
ATOM     11  O   UNL     1       0.974  37.374   6.735  1.00  0.00    -0.452 OA
ENDROOT
BRANCH   1  12
ATOM     12  C   UNL     1       3.011  38.658   6.856  1.00  0.00     0.021 A 
ATOM     13  C   UNL     1       3.706  39.400   5.884  1.00  0.00     0.016 A 
ATOM     14  C   UNL     1       5.104  39.445   5.895  1.00  0.00     0.047 A 
ATOM     15  C   UNL     1       5.823  38.740   6.868  1.00  0.00     0.115 A 
ATOM     16  C   UNL     1       3.741  37.936   7.816  1.00  0.00     0.016 A 
ATOM     17  C   UNL     1       5.139  37.984   7.825  1.00  0.00     0.047 A 
BRANCH  15  18
ATOM     18  O   UNL     1       7.216  38.779   6.890  1.00  0.00    -0.508 OA
ATOM     19  H   UNL     1       7.718  39.631   7.114  1.00  0.00     0.293 HD
ENDBRANCH  15  18
ENDBRANCH   1  12
BRANCH   2  20
ATOM     20  O   UNL     1       1.293  40.965   7.206  1.00  0.00    -0.502 OA
ATOM     21  H   UNL     1       1.017  41.566   7.973  1.00  0.00     0.293 HD
ENDBRANCH   2  20
BRANCH   6  22
ATOM     22  O   UNL     1      -3.620  39.001   6.594  1.00  0.00    -0.507 OA
ATOM     23  H   UNL     1      -4.532  38.881   6.180  1.00  0.00     0.293 HD
ENDBRANCH   6  22
BRANCH   8  24
ATOM     24  O   UNL     1      -2.639  34.302   6.483  1.00  0.00    -0.508 OA
ATOM     25  H   UNL     1      -2.961  33.902   5.610  1.00  0.00     0.293 HD
ENDBRANCH   8  24
TORSDOF 5
ENDMDL
MODEL 7
REMARK VINA RESULT:    -5.087     10.059     11.618
REMARK INTER + INTRA:          -6.279
REMARK INTER:                  -5.996
REMARK INTRA:                  -0.284
REMARK UNBOUND:                -0.300
REMARK SMILES O=c1c(O)c(-c2ccc(O)cc2)oc2cc(O)cc(O)c12
REMARK SMILES IDX 5 1 3 2 2 3 1 4 21 5 19 6 18 7 16 8 15 9 14 10 13 11 6 12
REMARK SMILES IDX 7 13 8 14 9 15 12 16 11 17 10 18 4 20 20 22 17 24
REMARK H PARENT 10 19 4 21 20 23 17 25
REMARK Flexibility Score: inf
ROOT
ATOM      1  C   UNL     1      -4.719  44.497   8.578  1.00  0.00     0.180 A 
ATOM      2  C   UNL     1      -5.736  44.914   7.703  1.00  0.00     0.208 A 
ATOM      3  C   UNL     1      -5.978  46.289   7.545  1.00  0.00     0.238 A 
ATOM      4  O   UNL     1      -6.852  46.658   6.719  1.00  0.00    -0.285 OA
ATOM      5  C   UNL     1      -5.211  47.227   8.278  1.00  0.00     0.111 A 
ATOM      6  C   UNL     1      -5.398  48.642   8.226  1.00  0.00     0.134 A 
ATOM      7  C   UNL     1      -4.497  49.482   8.893  1.00  0.00     0.093 A 
ATOM      8  C   UNL     1      -3.456  48.955   9.662  1.00  0.00     0.123 A 
ATOM      9  C   UNL     1      -3.302  47.575   9.766  1.00  0.00     0.094 A 
ATOM     10  C   UNL     1      -4.163  46.712   9.083  1.00  0.00     0.146 A 
ATOM     11  O   UNL     1      -3.974  45.403   9.201  1.00  0.00    -0.452 OA
ENDROOT
BRANCH   1  12
ATOM     12  C   UNL     1      -4.422  43.066   8.816  1.00  0.00     0.021 A 
ATOM     13  C   UNL     1      -4.972  42.375   9.910  1.00  0.00     0.016 A 
ATOM     14  C   UNL     1      -4.658  41.029  10.127  1.00  0.00     0.047 A 
ATOM     15  C   UNL     1      -3.779  40.364   9.263  1.00  0.00     0.115 A 
ATOM     16  C   UNL     1      -3.525  42.396   7.966  1.00  0.00     0.016 A 
ATOM     17  C   UNL     1      -3.213  41.051   8.185  1.00  0.00     0.047 A 
BRANCH  15  18
ATOM     18  O   UNL     1      -3.460  39.023   9.469  1.00  0.00    -0.508 OA
ATOM     19  H   UNL     1      -2.594  38.748   9.918  1.00  0.00     0.293 HD
ENDBRANCH  15  18
ENDBRANCH   1  12
BRANCH   2  20
ATOM     20  O   UNL     1      -6.465  43.972   6.972  1.00  0.00    -0.502 OA
ATOM     21  H   UNL     1      -7.316  43.550   7.324  1.00  0.00     0.293 HD
ENDBRANCH   2  20
BRANCH   6  22
ATOM     22  O   UNL     1      -6.459  49.266   7.564  1.00  0.00    -0.507 OA
ATOM     23  H   UNL     1      -6.412  49.636   6.626  1.00  0.00     0.293 HD
ENDBRANCH   6  22
BRANCH   8  24
ATOM     24  O   UNL     1      -2.573  49.798  10.333  1.00  0.00    -0.508 OA
ATOM     25  H   UNL     1      -2.659  50.806  10.283  1.00  0.00     0.293 HD
ENDBRANCH   8  24
TORSDOF 5
ENDMDL
MODEL 8
REMARK VINA RESULT:    -4.978      8.177     10.644
REMARK INTER + INTRA:          -6.152
REMARK INTER:                  -5.857
REMARK INTRA:                  -0.295
REMARK UNBOUND:                -0.300
REMARK SMILES O=c1c(O)c(-c2ccc(O)cc2)oc2cc(O)cc(O)c12
REMARK SMILES IDX 5 1 3 2 2 3 1 4 21 5 19 6 18 7 16 8 15 9 14 10 13 11 6 12
REMARK SMILES IDX 7 13 8 14 9 15 12 16 11 17 10 18 4 20 20 22 17 24
REMARK H PARENT 10 19 4 21 20 23 17 25
REMARK Flexibility Score: inf
ROOT
ATOM      1  C   UNL     1      -4.407  43.644   8.636  1.00  0.00     0.180 A 
ATOM      2  C   UNL     1      -4.997  42.855   9.637  1.00  0.00     0.208 A 
ATOM      3  C   UNL     1      -4.626  41.504   9.747  1.00  0.00     0.238 A 
ATOM      4  O   UNL     1      -5.117  40.817  10.679  1.00  0.00    -0.285 OA
ATOM      5  C   UNL     1      -3.682  40.958   8.843  1.00  0.00     0.111 A 
ATOM      6  C   UNL     1      -3.264  39.593   8.837  1.00  0.00     0.134 A 
ATOM      7  C   UNL     1      -2.228  39.192   7.983  1.00  0.00     0.093 A 
ATOM      8  C   UNL     1      -1.642  40.093   7.090  1.00  0.00     0.123 A 
ATOM      9  C   UNL     1      -2.085  41.413   7.047  1.00  0.00     0.094 A 
ATOM     10  C   UNL     1      -3.092  41.851   7.912  1.00  0.00     0.146 A 
ATOM     11  O   UNL     1      -3.476  43.120   7.846  1.00  0.00    -0.452 OA
ENDROOT
BRANCH   1  12
ATOM     12  C   UNL     1      -4.765  45.068   8.442  1.00  0.00     0.021 A 
ATOM     13  C   UNL     1      -5.795  45.452   7.564  1.00  0.00     0.016 A 
ATOM     14  C   UNL     1      -6.099  46.804   7.379  1.00  0.00     0.047 A 
ATOM     15  C   UNL     1      -5.370  47.789   8.058  1.00  0.00     0.115 A 
ATOM     16  C   UNL     1      -4.025  46.064   9.103  1.00  0.00     0.016 A 
ATOM     17  C   UNL     1      -4.332  47.415   8.916  1.00  0.00     0.047 A 
BRANCH  15  18
ATOM     18  O   UNL     1      -5.666  49.139   7.883  1.00  0.00    -0.508 OA
ATOM     19  H   UNL     1      -4.953  49.854   7.982  1.00  0.00     0.293 HD
ENDBRANCH  15  18
ENDBRANCH   1  12
BRANCH   2  20
ATOM     20  O   UNL     1      -5.909  43.420  10.532  1.00  0.00    -0.502 OA
ATOM     21  H   UNL     1      -5.781  43.382  11.536  1.00  0.00     0.293 HD
ENDBRANCH   2  20
BRANCH   6  22
ATOM     22  O   UNL     1      -3.845  38.594   9.623  1.00  0.00    -0.507 OA
ATOM     23  H   UNL     1      -3.423  38.192  10.446  1.00  0.00     0.293 HD
ENDBRANCH   6  22
BRANCH   8  24
ATOM     24  O   UNL     1      -0.623  39.682   6.234  1.00  0.00    -0.508 OA
ATOM     25  H   UNL     1      -0.768  38.950   5.549  1.00  0.00     0.293 HD
ENDBRANCH   8  24
TORSDOF 5
ENDMDL
MODEL 9
REMARK VINA RESULT:    -4.963      6.473      9.328
REMARK INTER + INTRA:          -6.134
REMARK INTER:                  -5.903
REMARK INTRA:                  -0.231
REMARK UNBOUND:                -0.300
REMARK SMILES O=c1c(O)c(-c2ccc(O)cc2)oc2cc(O)cc(O)c12
REMARK SMILES IDX 5 1 3 2 2 3 1 4 21 5 19 6 18 7 16 8 15 9 14 10 13 11 6 12
REMARK SMILES IDX 7 13 8 14 9 15 12 16 11 17 10 18 4 20 20 22 17 24
REMARK H PARENT 10 19 4 21 20 23 17 25
REMARK Flexibility Score: inf
ROOT
ATOM      1  C   UNL     1      -2.633  40.748   8.200  1.00  0.00     0.180 A 
ATOM      2  C   UNL     1      -3.502  40.362   9.234  1.00  0.00     0.208 A 
ATOM      3  C   UNL     1      -4.481  41.268   9.677  1.00  0.00     0.238 A 
ATOM      4  O   UNL     1      -5.291  40.896  10.565  1.00  0.00    -0.285 OA
ATOM      5  C   UNL     1      -4.566  42.553   9.089  1.00  0.00     0.111 A 
ATOM      6  C   UNL     1      -5.493  43.565   9.487  1.00  0.00     0.134 A 
ATOM      7  C   UNL     1      -5.576  44.752   8.749  1.00  0.00     0.093 A 
ATOM      8  C   UNL     1      -4.721  44.992   7.670  1.00  0.00     0.123 A 
ATOM      9  C   UNL     1      -3.774  44.035   7.312  1.00  0.00     0.094 A 
ATOM     10  C   UNL     1      -3.691  42.825   8.006  1.00  0.00     0.146 A 
ATOM     11  O   UNL     1      -2.782  41.936   7.625  1.00  0.00    -0.452 OA
ENDROOT
BRANCH   1  12
ATOM     12  C   UNL     1      -1.561  39.858   7.698  1.00  0.00     0.021 A 
ATOM     13  C   UNL     1      -0.211  40.082   8.022  1.00  0.00     0.016 A 
ATOM     14  C   UNL     1       0.787  39.242   7.516  1.00  0.00     0.047 A 
ATOM     15  C   UNL     1       0.448  38.178   6.670  1.00  0.00     0.115 A 
ATOM     16  C   UNL     1      -1.889  38.801   6.831  1.00  0.00     0.016 A 
ATOM     17  C   UNL     1      -0.890  37.963   6.328  1.00  0.00     0.047 A 
BRANCH  15  18
ATOM     18  O   UNL     1       1.433  37.334   6.162  1.00  0.00    -0.508 OA
ATOM     19  H   UNL     1       1.927  37.553   5.304  1.00  0.00     0.293 HD
ENDBRANCH  15  18
ENDBRANCH   1  12
BRANCH   2  20
ATOM     20  O   UNL     1      -3.415  39.080   9.784  1.00  0.00    -0.502 OA
ATOM     21  H   UNL     1      -4.065  38.742  10.484  1.00  0.00     0.293 HD
ENDBRANCH   2  20
BRANCH   6  22
ATOM     22  O   UNL     1      -6.326  43.465  10.604  1.00  0.00    -0.507 OA
ATOM     23  H   UNL     1      -7.036  42.759  10.729  1.00  0.00     0.293 HD
ENDBRANCH   6  22
BRANCH   8  24
ATOM     24  O   UNL     1      -4.800  46.182   6.952  1.00  0.00    -0.508 OA
ATOM     25  H   UNL     1      -5.646  46.738   6.938  1.00  0.00     0.293 HD
ENDBRANCH   8  24
TORSDOF 5
ENDMDL
