MODEL 1
REMARK VINA RESULT:    -0.584      0.000      0.000
REMARK INTER + INTRA:          -0.705
REMARK INTER:                  -0.686
REMARK INTRA:                  -0.019
REMARK UNBOUND:                -0.019
REMARK SMILES CCCCC(=O)[O-]
REMARK SMILES IDX 4 1 5 2 6 3 7 4 3 5 2 6 1 7
REMARK H PARENT
REMARK Flexibility Score: inf
ROOT
ATOM      1  C   UNL     1       0.040  -3.069  21.806  1.00  0.00     0.053 C 
ENDROOT
BRANCH   1   2
ATOM      2  C   UNL     1       1.334  -2.321  21.924  1.00  0.00     0.041 C 
ATOM      3  O   UNL     1       1.340  -1.062  21.926  1.00  0.00    -0.550 OA
ATOM      4  O   UNL     1       2.528  -3.017  22.064  1.00  0.00    -0.550 OA
ENDBRANCH   1   2
BRANCH   1   5
ATOM      5  C   UNL     1       0.214  -4.558  22.125  1.00  0.00     0.006 C 
BRANCH   5   6
ATOM      6  C   UNL     1      -1.116  -5.324  22.061  1.00  0.00    -0.003 C 
ATOM      7  C   UNL     1      -0.880  -6.832  22.011  1.00  0.00     0.004 C 
ENDBRANCH   5   6
ENDBRANCH   1   5
TORSDOF 3
ENDMDL
MODEL 2
REMARK VINA RESULT:    -0.450     21.163     21.684
REMARK INTER + INTRA:          -0.548
REMARK INTER:                  -0.471
REMARK INTRA:                  -0.078
REMARK UNBOUND:                -0.019
REMARK SMILES CCCCC(=O)[O-]
REMARK SMILES IDX 4 1 5 2 6 3 7 4 3 5 2 6 1 7
REMARK H PARENT
REMARK Flexibility Score: inf
ROOT
ATOM      1  C   UNL     1      11.145 -12.628   5.653  1.00  0.00     0.053 C 
ENDROOT
BRANCH   1   2
ATOM      2  C   UNL     1       9.902 -13.364   5.256  1.00  0.00     0.041 C 
ATOM      3  O   UNL     1       9.915 -14.619   5.149  1.00  0.00    -0.550 OA
ATOM      4  O   UNL     1       8.722 -12.666   5.035  1.00  0.00    -0.550 OA
ENDBRANCH   1   2
BRANCH   1   5
ATOM      5  C   UNL     1      10.833 -11.211   6.148  1.00  0.00     0.006 C 
BRANCH   5   6
ATOM      6  C   UNL     1      11.467 -10.132   5.258  1.00  0.00    -0.003 C 
ATOM      7  C   UNL     1      12.616 -10.706   4.434  1.00  0.00     0.004 C 
ENDBRANCH   5   6
ENDBRANCH   1   5
TORSDOF 3
ENDMDL
MODEL 3
REMARK VINA RESULT:     0.046     20.893     21.272
REMARK INTER + INTRA:           0.035
REMARK INTER:                   0.016
REMARK INTRA:                   0.020
REMARK UNBOUND:                -0.019
REMARK SMILES CCCCC(=O)[O-]
REMARK SMILES IDX 4 1 5 2 6 3 7 4 3 5 2 6 1 7
REMARK H PARENT
REMARK Flexibility Score: inf
ROOT
ATOM      1  C   UNL     1      11.054 -11.650   6.162  1.00  0.00     0.053 C 
ENDROOT
BRANCH   1   2
ATOM      2  C   UNL     1      11.625 -10.626   5.229  1.00  0.00     0.041 C 
ATOM      3  O   UNL     1      11.186  -9.446   5.238  1.00  0.00    -0.550 OA
ATOM      4  O   UNL     1      12.665 -10.968   4.374  1.00  0.00    -0.550 OA
ENDBRANCH   1   2
BRANCH   1   5
ATOM      5  C   UNL     1      11.169 -13.067   5.589  1.00  0.00     0.006 C 
BRANCH   5   6
ATOM      6  C   UNL     1       9.805 -13.638   5.174  1.00  0.00    -0.003 C 
ATOM      7  C   UNL     1       8.743 -12.543   5.128  1.00  0.00     0.004 C 
ENDBRANCH   5   6
ENDBRANCH   1   5
TORSDOF 3
ENDMDL
MODEL 4
REMARK VINA RESULT:     0.133     20.913     21.330
REMARK INTER + INTRA:           0.137
REMARK INTER:                   0.108
REMARK INTRA:                   0.029
REMARK UNBOUND:                -0.019
REMARK SMILES CCCCC(=O)[O-]
REMARK SMILES IDX 4 1 5 2 6 3 7 4 3 5 2 6 1 7
REMARK H PARENT
REMARK Flexibility Score: inf
ROOT
ATOM      1  C   UNL     1      11.130 -11.769   6.180  1.00  0.00     0.053 C 
ENDROOT
BRANCH   1   2
ATOM      2  C   UNL     1      11.666 -10.725   5.249  1.00  0.00     0.041 C 
ATOM      3  O   UNL     1      12.571 -11.017   4.423  1.00  0.00    -0.550 OA
ATOM      4  O   UNL     1      11.144  -9.438   5.273  1.00  0.00    -0.550 OA
ENDBRANCH   1   2
BRANCH   1   5
ATOM      5  C   UNL     1      11.222 -13.174   5.573  1.00  0.00     0.006 C 
BRANCH   5   6
ATOM      6  C   UNL     1       9.845 -13.724   5.173  1.00  0.00    -0.003 C 
ATOM      7  C   UNL     1       8.800 -12.612   5.128  1.00  0.00     0.004 C 
ENDBRANCH   5   6
ENDBRANCH   1   5
TORSDOF 3
ENDMDL
MODEL 5
REMARK VINA RESULT:     1.615     21.032     21.515
REMARK INTER + INTRA:           1.879
REMARK INTER:                   1.276
REMARK INTRA:                   0.603
REMARK UNBOUND:                -0.019
REMARK SMILES CCCCC(=O)[O-]
REMARK SMILES IDX 4 1 5 2 6 3 7 4 3 5 2 6 1 7
REMARK H PARENT
REMARK Flexibility Score: inf
ROOT
ATOM      1  C   UNL     1      11.827 -11.855   5.503  1.00  0.00     0.053 C 
ENDROOT
BRANCH   1   2
ATOM      2  C   UNL     1      12.170 -13.270   5.856  1.00  0.00     0.041 C 
ATOM      3  O   UNL     1      11.515 -14.224   5.360  1.00  0.00    -0.550 OA
ATOM      4  O   UNL     1      13.234 -13.535   6.709  1.00  0.00    -0.550 OA
ENDBRANCH   1   2
BRANCH   1   5
ATOM      5  C   UNL     1      10.384 -11.507   5.887  1.00  0.00     0.006 C 
BRANCH   5   6
ATOM      6  C   UNL     1       9.376 -12.528   5.341  1.00  0.00    -0.003 C 
ATOM      7  C   UNL     1       8.042 -11.862   5.012  1.00  0.00     0.004 C 
ENDBRANCH   5   6
ENDBRANCH   1   5
TORSDOF 3
ENDMDL
MODEL 6
REMARK VINA RESULT:     1.802      2.692      3.668
REMARK INTER + INTRA:           2.099
REMARK INTER:                   2.121
REMARK INTRA:                  -0.021
REMARK UNBOUND:                -0.019
REMARK SMILES CCCCC(=O)[O-]
REMARK SMILES IDX 4 1 5 2 6 3 7 4 3 5 2 6 1 7
REMARK H PARENT
REMARK Flexibility Score: inf
ROOT
ATOM      1  C   UNL     1       2.079  -3.045  21.120  1.00  0.00     0.053 C 
ENDROOT
BRANCH   1   2
ATOM      2  C   UNL     1       0.991  -2.295  21.826  1.00  0.00     0.041 C 
ATOM      3  O   UNL     1       1.148  -1.082  22.125  1.00  0.00    -0.550 OA
ATOM      4  O   UNL     1      -0.208  -2.929  22.125  1.00  0.00    -0.550 OA
ENDBRANCH   1   2
BRANCH   1   5
ATOM      5  C   UNL     1       3.096  -3.632  22.106  1.00  0.00     0.006 C 
BRANCH   5   6
ATOM      6  C   UNL     1       4.519  -3.652  21.528  1.00  0.00    -0.003 C 
ATOM      7  C   UNL     1       4.629  -4.640  20.370  1.00  0.00     0.004 C 
ENDBRANCH   5   6
ENDBRANCH   1   5
TORSDOF 3
ENDMDL
MODEL 7
REMARK VINA RESULT:     2.015     21.044     21.532
REMARK INTER + INTRA:           2.349
REMARK INTER:                   2.117
REMARK INTRA:                   0.232
REMARK UNBOUND:                -0.019
REMARK SMILES CCCCC(=O)[O-]
REMARK SMILES IDX 4 1 5 2 6 3 7 4 3 5 2 6 1 7
REMARK H PARENT
REMARK Flexibility Score: inf
ROOT
ATOM      1  C   UNL     1      10.359 -11.621   5.965  1.00  0.00     0.053 C 
ENDROOT
BRANCH   1   2
ATOM      2  C   UNL     1       9.253 -12.416   5.340  1.00  0.00     0.041 C 
ATOM      3  O   UNL     1       9.394 -13.652   5.143  1.00  0.00    -0.550 OA
ATOM      4  O   UNL     1       8.056 -11.797   5.005  1.00  0.00    -0.550 OA
ENDBRANCH   1   2
BRANCH   1   5
ATOM      5  C   UNL     1      11.731 -12.021   5.409  1.00  0.00     0.006 C 
BRANCH   5   6
ATOM      6  C   UNL     1      12.381 -13.149   6.223  1.00  0.00    -0.003 C 
ATOM      7  C   UNL     1      12.410 -14.453   5.429  1.00  0.00     0.004 C 
ENDBRANCH   5   6
ENDBRANCH   1   5
TORSDOF 3
ENDMDL
MODEL 8
REMARK VINA RESULT:     2.313     27.050     27.634
REMARK INTER + INTRA:           2.700
REMARK INTER:                   2.740
REMARK INTRA:                  -0.041
REMARK UNBOUND:                -0.019
REMARK SMILES CCCCC(=O)[O-]
REMARK SMILES IDX 4 1 5 2 6 3 7 4 3 5 2 6 1 7
REMARK H PARENT
REMARK Flexibility Score: inf
ROOT
ATOM      1  C   UNL     1      19.125 -16.280   5.531  1.00  0.00     0.053 C 
ENDROOT
BRANCH   1   2
ATOM      2  C   UNL     1      19.035 -17.348   4.483  1.00  0.00     0.041 C 
ATOM      3  O   UNL     1      19.122 -18.562   4.806  1.00  0.00    -0.550 OA
ATOM      4  O   UNL     1      18.824 -17.001   3.155  1.00  0.00    -0.550 OA
ENDBRANCH   1   2
BRANCH   1   5
ATOM      5  C   UNL     1      18.217 -16.582   6.729  1.00  0.00     0.006 C 
BRANCH   5   6
ATOM      6  C   UNL     1      16.967 -15.691   6.749  1.00  0.00    -0.003 C 
ATOM      7  C   UNL     1      15.731 -16.486   7.162  1.00  0.00     0.004 C 
ENDBRANCH   5   6
ENDBRANCH   1   5
TORSDOF 3
ENDMDL
