MODEL 1
REMARK VINA RESULT:    -3.956      0.000      0.000
REMARK INTER + INTRA:          -5.152
REMARK INTER:                  -4.881
REMARK INTRA:                  -0.271
REMARK UNBOUND:                -0.271
REMARK SMILES C=CC[C@@H](C)C(=O)CC
REMARK SMILES IDX 4 1 5 2 6 3 7 4 8 5 9 6 3 7 2 8 1 9
REMARK H PARENT
REMARK Flexibility Score: inf
ROOT
ATOM      1  C   UNL     1       5.685  -2.473  -0.702  1.00  0.00     0.057 C 
ATOM      2  C   UNL     1       6.994  -1.795  -1.122  1.00  0.00     0.016 C 
ENDROOT
BRANCH   1   3
ATOM      3  C   UNL     1       5.636  -2.613   0.806  1.00  0.00     0.135 C 
ATOM      4  O   UNL     1       6.030  -3.643   1.333  1.00  0.00    -0.299 OA
BRANCH   3   5
ATOM      5  C   UNL     1       5.122  -1.494   1.674  1.00  0.00     0.072 C 
ATOM      6  C   UNL     1       4.810  -1.998   3.079  1.00  0.00     0.012 C 
ENDBRANCH   3   5
ENDBRANCH   1   3
BRANCH   1   7
ATOM      7  C   UNL     1       4.472  -1.680  -1.228  1.00  0.00     0.038 C 
BRANCH   7   8
ATOM      8  C   UNL     1       4.876  -0.366  -1.846  1.00  0.00    -0.034 C 
ATOM      9  C   UNL     1       4.524   0.803  -1.304  1.00  0.00     0.004 C 
ENDBRANCH   7   8
ENDBRANCH   1   7
TORSDOF 4
ENDMDL
MODEL 2
REMARK VINA RESULT:    -3.886      0.971      2.688
REMARK INTER + INTRA:          -5.066
REMARK INTER:                  -4.640
REMARK INTRA:                  -0.426
REMARK UNBOUND:                -0.271
REMARK SMILES C=CC[C@@H](C)C(=O)CC
REMARK SMILES IDX 4 1 5 2 6 3 7 4 8 5 9 6 3 7 2 8 1 9
REMARK H PARENT
REMARK Flexibility Score: inf
ROOT
ATOM      1  C   UNL     1       5.729  -1.526   0.071  1.00  0.00     0.057 C 
ATOM      2  C   UNL     1       5.173  -1.522   1.500  1.00  0.00     0.016 C 
ENDROOT
BRANCH   1   3
ATOM      3  C   UNL     1       6.704  -2.673  -0.102  1.00  0.00     0.135 C 
ATOM      4  O   UNL     1       6.722  -3.582   0.714  1.00  0.00    -0.299 OA
BRANCH   3   5
ATOM      5  C   UNL     1       7.644  -2.722  -1.278  1.00  0.00     0.072 C 
ATOM      6  C   UNL     1       8.259  -1.351  -1.536  1.00  0.00     0.012 C 
ENDBRANCH   3   5
ENDBRANCH   1   3
BRANCH   1   7
ATOM      7  C   UNL     1       4.582  -1.610  -0.955  1.00  0.00     0.038 C 
BRANCH   7   8
ATOM      8  C   UNL     1       4.521  -0.392  -1.841  1.00  0.00    -0.034 C 
ATOM      9  C   UNL     1       4.700   0.840  -1.356  1.00  0.00     0.004 C 
ENDBRANCH   7   8
ENDBRANCH   1   7
TORSDOF 4
ENDMDL
MODEL 3
REMARK VINA RESULT:    -3.868     13.160     14.507
REMARK INTER + INTRA:          -5.044
REMARK INTER:                  -4.855
REMARK INTRA:                  -0.189
REMARK UNBOUND:                -0.271
REMARK SMILES C=CC[C@@H](C)C(=O)CC
REMARK SMILES IDX 4 1 5 2 6 3 7 4 8 5 9 6 3 7 2 8 1 9
REMARK H PARENT
REMARK Flexibility Score: inf
ROOT
ATOM      1  C   UNL     1      -6.612   4.362   1.614  1.00  0.00     0.057 C 
ATOM      2  C   UNL     1      -5.237   4.175   0.963  1.00  0.00     0.016 C 
ENDROOT
BRANCH   1   3
ATOM      3  C   UNL     1      -6.935   5.838   1.727  1.00  0.00     0.135 C 
ATOM      4  O   UNL     1      -7.159   6.327   2.824  1.00  0.00    -0.299 OA
BRANCH   3   5
ATOM      5  C   UNL     1      -6.970   6.721   0.507  1.00  0.00     0.072 C 
ATOM      6  C   UNL     1      -8.149   7.686   0.571  1.00  0.00     0.012 C 
ENDBRANCH   3   5
ENDBRANCH   1   3
BRANCH   1   7
ATOM      7  C   UNL     1      -7.696   3.614   0.813  1.00  0.00     0.038 C 
BRANCH   7   8
ATOM      8  C   UNL     1      -7.413   2.137   0.714  1.00  0.00    -0.034 C 
ATOM      9  C   UNL     1      -8.338   1.269   0.294  1.00  0.00     0.004 C 
ENDBRANCH   7   8
ENDBRANCH   1   7
TORSDOF 4
ENDMDL
MODEL 4
REMARK VINA RESULT:    -3.821     13.640     14.974
REMARK INTER + INTRA:          -4.986
REMARK INTER:                  -4.535
REMARK INTRA:                  -0.450
REMARK UNBOUND:                -0.271
REMARK SMILES C=CC[C@@H](C)C(=O)CC
REMARK SMILES IDX 4 1 5 2 6 3 7 4 8 5 9 6 3 7 2 8 1 9
REMARK H PARENT
REMARK Flexibility Score: inf
ROOT
ATOM      1  C   UNL     1      -7.667   5.895   0.609  1.00  0.00     0.057 C 
ATOM      2  C   UNL     1      -7.585   7.371   0.202  1.00  0.00     0.016 C 
ENDROOT
BRANCH   1   3
ATOM      3  C   UNL     1      -6.989   5.689   1.950  1.00  0.00     0.135 C 
ATOM      4  O   UNL     1      -7.157   6.504   2.845  1.00  0.00    -0.299 OA
BRANCH   3   5
ATOM      5  C   UNL     1      -6.122   4.485   2.204  1.00  0.00     0.072 C 
ATOM      6  C   UNL     1      -5.286   4.150   0.974  1.00  0.00     0.012 C 
ENDBRANCH   3   5
ENDBRANCH   1   3
BRANCH   1   7
ATOM      7  C   UNL     1      -9.134   5.425   0.649  1.00  0.00     0.038 C 
BRANCH   7   8
ATOM      8  C   UNL     1      -9.385   4.265  -0.281  1.00  0.00    -0.034 C 
ATOM      9  C   UNL     1      -8.938   3.036  -0.009  1.00  0.00     0.004 C 
ENDBRANCH   7   8
ENDBRANCH   1   7
TORSDOF 4
ENDMDL
MODEL 5
REMARK VINA RESULT:    -3.797      1.274      2.736
REMARK INTER + INTRA:          -4.956
REMARK INTER:                  -4.475
REMARK INTRA:                  -0.481
REMARK UNBOUND:                -0.271
REMARK SMILES C=CC[C@@H](C)C(=O)CC
REMARK SMILES IDX 4 1 5 2 6 3 7 4 8 5 9 6 3 7 2 8 1 9
REMARK H PARENT
REMARK Flexibility Score: inf
ROOT
ATOM      1  C   UNL     1       6.114  -2.170   0.349  1.00  0.00     0.057 C 
ATOM      2  C   UNL     1       5.176  -1.558   1.396  1.00  0.00     0.016 C 
ENDROOT
BRANCH   1   3
ATOM      3  C   UNL     1       5.563  -3.500  -0.125  1.00  0.00     0.135 C 
ATOM      4  O   UNL     1       5.181  -4.324   0.692  1.00  0.00    -0.299 OA
BRANCH   3   5
ATOM      5  C   UNL     1       5.463  -3.820  -1.594  1.00  0.00     0.072 C 
ATOM      6  C   UNL     1       4.006  -3.989  -2.012  1.00  0.00     0.012 C 
ENDBRANCH   3   5
ENDBRANCH   1   3
BRANCH   1   7
ATOM      7  C   UNL     1       6.316  -1.199  -0.831  1.00  0.00     0.038 C 
BRANCH   7   8
ATOM      8  C   UNL     1       5.170  -0.231  -0.973  1.00  0.00    -0.034 C 
ATOM      9  C   UNL     1       4.387  -0.222  -2.056  1.00  0.00     0.004 C 
ENDBRANCH   7   8
ENDBRANCH   1   7
TORSDOF 4
ENDMDL
MODEL 6
REMARK VINA RESULT:    -3.788      1.820      3.557
REMARK INTER + INTRA:          -4.945
REMARK INTER:                  -4.467
REMARK INTRA:                  -0.478
REMARK UNBOUND:                -0.271
REMARK SMILES C=CC[C@@H](C)C(=O)CC
REMARK SMILES IDX 4 1 5 2 6 3 7 4 8 5 9 6 3 7 2 8 1 9
REMARK H PARENT
REMARK Flexibility Score: inf
ROOT
ATOM      1  C   UNL     1       6.778  -1.495  -0.984  1.00  0.00     0.057 C 
ATOM      2  C   UNL     1       8.232  -1.345  -1.445  1.00  0.00     0.016 C 
ENDROOT
BRANCH   1   3
ATOM      3  C   UNL     1       5.847  -1.428  -2.178  1.00  0.00     0.135 C 
ATOM      4  O   UNL     1       6.146  -2.004  -3.213  1.00  0.00    -0.299 OA
BRANCH   3   5
ATOM      5  C   UNL     1       4.544  -0.675  -2.106  1.00  0.00     0.072 C 
ATOM      6  C   UNL     1       4.723   0.647  -1.369  1.00  0.00     0.012 C 
ENDBRANCH   3   5
ENDBRANCH   1   3
BRANCH   1   7
ATOM      7  C   UNL     1       6.590  -2.810  -0.203  1.00  0.00     0.038 C 
BRANCH   7   8
ATOM      8  C   UNL     1       5.517  -2.698   0.850  1.00  0.00    -0.034 C 
ATOM      9  C   UNL     1       5.298  -1.558   1.512  1.00  0.00     0.004 C 
ENDBRANCH   7   8
ENDBRANCH   1   7
TORSDOF 4
ENDMDL
MODEL 7
REMARK VINA RESULT:    -3.717      2.271      4.065
REMARK INTER + INTRA:          -4.858
REMARK INTER:                  -4.352
REMARK INTRA:                  -0.505
REMARK UNBOUND:                -0.271
REMARK SMILES C=CC[C@@H](C)C(=O)CC
REMARK SMILES IDX 4 1 5 2 6 3 7 4 8 5 9 6 3 7 2 8 1 9
REMARK H PARENT
REMARK Flexibility Score: inf
ROOT
ATOM      1  C   UNL     1       5.980  -0.879  -0.839  1.00  0.00     0.057 C 
ATOM      2  C   UNL     1       7.406  -1.337  -1.168  1.00  0.00     0.016 C 
ENDROOT
BRANCH   1   3
ATOM      3  C   UNL     1       5.095  -1.024  -2.060  1.00  0.00     0.135 C 
ATOM      4  O   UNL     1       4.169  -0.246  -2.233  1.00  0.00    -0.299 OA
BRANCH   3   5
ATOM      5  C   UNL     1       5.347  -2.104  -3.079  1.00  0.00     0.072 C 
ATOM      6  C   UNL     1       4.366  -3.258  -2.899  1.00  0.00     0.012 C 
ENDBRANCH   3   5
ENDBRANCH   1   3
BRANCH   1   7
ATOM      7  C   UNL     1       5.417  -1.676   0.355  1.00  0.00     0.038 C 
BRANCH   7   8
ATOM      8  C   UNL     1       6.102  -3.008   0.522  1.00  0.00    -0.034 C 
ATOM      9  C   UNL     1       5.414  -4.152   0.578  1.00  0.00     0.004 C 
ENDBRANCH   7   8
ENDBRANCH   1   7
TORSDOF 4
ENDMDL
MODEL 8
REMARK VINA RESULT:    -3.675      1.728      2.659
REMARK INTER + INTRA:          -4.805
REMARK INTER:                  -4.320
REMARK INTRA:                  -0.485
REMARK UNBOUND:                -0.271
REMARK SMILES C=CC[C@@H](C)C(=O)CC
REMARK SMILES IDX 4 1 5 2 6 3 7 4 8 5 9 6 3 7 2 8 1 9
REMARK H PARENT
REMARK Flexibility Score: inf
ROOT
ATOM      1  C   UNL     1       5.999  -0.791  -0.954  1.00  0.00     0.057 C 
ATOM      2  C   UNL     1       4.848   0.209  -1.112  1.00  0.00     0.016 C 
ENDROOT
BRANCH   1   3
ATOM      3  C   UNL     1       5.751  -1.681   0.247  1.00  0.00     0.135 C 
ATOM      4  O   UNL     1       5.023  -1.294   1.149  1.00  0.00    -0.299 OA
BRANCH   3   5
ATOM      5  C   UNL     1       6.376  -3.048   0.343  1.00  0.00     0.072 C 
ATOM      6  C   UNL     1       5.304  -4.128   0.440  1.00  0.00     0.012 C 
ENDBRANCH   3   5
ENDBRANCH   1   3
BRANCH   1   7
ATOM      7  C   UNL     1       6.172  -1.625  -2.239  1.00  0.00     0.038 C 
BRANCH   7   8
ATOM      8  C   UNL     1       4.853  -1.920  -2.907  1.00  0.00    -0.034 C 
ATOM      9  C   UNL     1       4.465  -3.170  -3.177  1.00  0.00     0.004 C 
ENDBRANCH   7   8
ENDBRANCH   1   7
TORSDOF 4
ENDMDL
MODEL 9
REMARK VINA RESULT:    -3.608      2.535      3.904
REMARK INTER + INTRA:          -4.723
REMARK INTER:                  -4.250
REMARK INTRA:                  -0.473
REMARK UNBOUND:                -0.271
REMARK SMILES C=CC[C@@H](C)C(=O)CC
REMARK SMILES IDX 4 1 5 2 6 3 7 4 8 5 9 6 3 7 2 8 1 9
REMARK H PARENT
REMARK Flexibility Score: inf
ROOT
ATOM      1  C   UNL     1       5.358  -2.272  -2.376  1.00  0.00     0.057 C 
ATOM      2  C   UNL     1       4.407  -3.160  -3.187  1.00  0.00     0.016 C 
ENDROOT
BRANCH   1   3
ATOM      3  C   UNL     1       6.716  -2.217  -3.048  1.00  0.00     0.135 C 
ATOM      4  O   UNL     1       6.795  -1.922  -4.231  1.00  0.00    -0.299 OA
BRANCH   3   5
ATOM      5  C   UNL     1       7.977  -2.505  -2.276  1.00  0.00     0.072 C 
ATOM      6  C   UNL     1       8.524  -1.231  -1.641  1.00  0.00     0.012 C 
ENDBRANCH   3   5
ENDBRANCH   1   3
BRANCH   1   7
ATOM      7  C   UNL     1       4.765  -0.861  -2.202  1.00  0.00     0.038 C 
BRANCH   7   8
ATOM      8  C   UNL     1       4.962  -0.329  -0.806  1.00  0.00    -0.034 C 
ATOM      9  C   UNL     1       5.103  -1.143   0.244  1.00  0.00     0.004 C 
ENDBRANCH   7   8
ENDBRANCH   1   7
TORSDOF 4
ENDMDL
