MODEL 1
REMARK VINA RESULT:    -3.515      0.000      0.000
REMARK INTER + INTRA:          -3.891
REMARK INTER:                  -3.720
REMARK INTRA:                  -0.171
REMARK UNBOUND:                -0.171
REMARK SMILES CC(C)[C@H]1CC[C@@H](C)CC1=O
REMARK SMILES IDX 8 1 7 2 6 3 5 4 4 5 10 6 11 7 9 8 2 9 1 10 3 11
REMARK H PARENT
REMARK Flexibility Score: inf
ROOT
ATOM      1  C   UNL     1       6.982   1.583  -2.845  1.00  0.00     0.008 C 
ATOM      2  C   UNL     1       6.691   2.822  -1.985  1.00  0.00    -0.007 C 
ATOM      3  C   UNL     1       7.969   3.365  -1.303  1.00  0.00     0.004 C 
ATOM      4  C   UNL     1       8.472   2.464  -0.157  1.00  0.00     0.012 C 
ATOM      5  C   UNL     1       7.373   2.209   0.904  1.00  0.00     0.058 C 
ATOM      6  C   UNL     1       6.140   1.705   0.173  1.00  0.00     0.136 C 
ATOM      7  O   UNL     1       5.649   0.611   0.410  1.00  0.00    -0.299 OA
ATOM      8  C   UNL     1       5.590   2.543  -0.944  1.00  0.00     0.079 C 
ENDROOT
BRANCH   5   9
ATOM      9  C   UNL     1       7.834   1.252   2.053  1.00  0.00    -0.007 C 
ATOM     10  C   UNL     1       7.873   1.995   3.402  1.00  0.00     0.008 C 
ATOM     11  C   UNL     1       9.221   0.637   1.793  1.00  0.00     0.008 C 
ENDBRANCH   5   9
TORSDOF 1
ENDMDL
MODEL 2
REMARK VINA RESULT:    -3.443      9.643     10.955
REMARK INTER + INTRA:          -3.815
REMARK INTER:                  -3.663
REMARK INTRA:                  -0.151
REMARK UNBOUND:                -0.171
REMARK SMILES CC(C)[C@H]1CC[C@@H](C)CC1=O
REMARK SMILES IDX 8 1 7 2 6 3 5 4 4 5 10 6 11 7 9 8 2 9 1 10 3 11
REMARK H PARENT
REMARK Flexibility Score: inf
ROOT
ATOM      1  C   UNL     1       0.822   9.460   0.880  1.00  0.00     0.008 C 
ATOM      2  C   UNL     1      -0.672   9.358   1.225  1.00  0.00    -0.007 C 
ATOM      3  C   UNL     1      -1.032   7.978   1.824  1.00  0.00     0.004 C 
ATOM      4  C   UNL     1      -1.010   6.842   0.781  1.00  0.00     0.012 C 
ATOM      5  C   UNL     1      -1.925   7.149  -0.429  1.00  0.00     0.058 C 
ATOM      6  C   UNL     1      -1.542   8.522  -0.955  1.00  0.00     0.136 C 
ATOM      7  O   UNL     1      -1.142   8.690  -2.097  1.00  0.00    -0.299 OA
ATOM      8  C   UNL     1      -1.558   9.675   0.006  1.00  0.00     0.079 C 
ENDROOT
BRANCH   5   9
ATOM      9  C   UNL     1      -1.882   6.041  -1.533  1.00  0.00    -0.007 C 
ATOM     10  C   UNL     1      -3.271   5.847  -2.170  1.00  0.00     0.008 C 
ATOM     11  C   UNL     1      -1.398   4.683  -0.993  1.00  0.00     0.008 C 
ENDBRANCH   5   9
TORSDOF 1
ENDMDL
MODEL 3
REMARK VINA RESULT:    -3.344      2.047      4.690
REMARK INTER + INTRA:          -3.710
REMARK INTER:                  -3.546
REMARK INTRA:                  -0.164
REMARK UNBOUND:                -0.171
REMARK SMILES CC(C)[C@H]1CC[C@@H](C)CC1=O
REMARK SMILES IDX 8 1 7 2 6 3 5 4 4 5 10 6 11 7 9 8 2 9 1 10 3 11
REMARK H PARENT
REMARK Flexibility Score: inf
ROOT
ATOM      1  C   UNL     1       6.748   0.779   0.372  1.00  0.00     0.008 C 
ATOM      2  C   UNL     1       7.202   2.234   0.569  1.00  0.00    -0.007 C 
ATOM      3  C   UNL     1       6.039   3.233   0.364  1.00  0.00     0.004 C 
ATOM      4  C   UNL     1       5.616   3.375  -1.112  1.00  0.00     0.012 C 
ATOM      5  C   UNL     1       6.809   3.756  -2.022  1.00  0.00     0.058 C 
ATOM      6  C   UNL     1       7.924   2.758  -1.758  1.00  0.00     0.136 C 
ATOM      7  O   UNL     1       8.376   2.043  -2.640  1.00  0.00    -0.299 OA
ATOM      8  C   UNL     1       8.393   2.583  -0.343  1.00  0.00     0.079 C 
ENDROOT
BRANCH   5   9
ATOM      9  C   UNL     1       6.425   3.853  -3.536  1.00  0.00    -0.007 C 
ATOM     10  C   UNL     1       6.029   5.294  -3.910  1.00  0.00     0.008 C 
ATOM     11  C   UNL     1       5.267   2.913  -3.916  1.00  0.00     0.008 C 
ENDBRANCH   5   9
TORSDOF 1
ENDMDL
MODEL 4
REMARK VINA RESULT:    -3.329     12.591     13.629
REMARK INTER + INTRA:          -3.694
REMARK INTER:                  -3.529
REMARK INTRA:                  -0.166
REMARK UNBOUND:                -0.171
REMARK SMILES CC(C)[C@H]1CC[C@@H](C)CC1=O
REMARK SMILES IDX 8 1 7 2 6 3 5 4 4 5 10 6 11 7 9 8 2 9 1 10 3 11
REMARK H PARENT
REMARK Flexibility Score: inf
ROOT
ATOM      1  C   UNL     1      -5.941  -4.932   4.893  1.00  0.00     0.008 C 
ATOM      2  C   UNL     1      -4.772  -4.301   4.121  1.00  0.00    -0.007 C 
ATOM      3  C   UNL     1      -3.740  -5.362   3.669  1.00  0.00     0.004 C 
ATOM      4  C   UNL     1      -2.903  -5.925   4.836  1.00  0.00     0.012 C 
ATOM      5  C   UNL     1      -2.195  -4.804   5.635  1.00  0.00     0.058 C 
ATOM      6  C   UNL     1      -3.251  -3.784   6.026  1.00  0.00     0.136 C 
ATOM      7  O   UNL     1      -3.490  -3.513   7.193  1.00  0.00    -0.299 OA
ATOM      8  C   UNL     1      -4.092  -3.186   4.935  1.00  0.00     0.079 C 
ENDROOT
BRANCH   5   9
ATOM      9  C   UNL     1      -1.382  -5.338   6.860  1.00  0.00    -0.007 C 
ATOM     10  C   UNL     1       0.100  -4.929   6.755  1.00  0.00     0.008 C 
ATOM     11  C   UNL     1      -1.458  -6.868   7.002  1.00  0.00     0.008 C 
ENDBRANCH   5   9
TORSDOF 1
ENDMDL
MODEL 5
REMARK VINA RESULT:    -3.311     11.474     13.093
REMARK INTER + INTRA:          -3.675
REMARK INTER:                  -3.511
REMARK INTRA:                  -0.164
REMARK UNBOUND:                -0.171
REMARK SMILES CC(C)[C@H]1CC[C@@H](C)CC1=O
REMARK SMILES IDX 8 1 7 2 6 3 5 4 4 5 10 6 11 7 9 8 2 9 1 10 3 11
REMARK H PARENT
REMARK Flexibility Score: inf
ROOT
ATOM      1  C   UNL     1      -5.149  -2.619  -6.693  1.00  0.00     0.008 C 
ATOM      2  C   UNL     1      -3.858  -2.372  -7.491  1.00  0.00    -0.007 C 
ATOM      3  C   UNL     1      -3.345  -3.662  -8.172  1.00  0.00     0.004 C 
ATOM      4  C   UNL     1      -2.750  -4.677  -7.175  1.00  0.00     0.012 C 
ATOM      5  C   UNL     1      -1.626  -4.050  -6.313  1.00  0.00     0.058 C 
ATOM      6  C   UNL     1      -2.181  -2.778  -5.694  1.00  0.00     0.136 C 
ATOM      7  O   UNL     1      -2.245  -2.622  -4.484  1.00  0.00    -0.299 OA
ATOM      8  C   UNL     1      -2.762  -1.742  -6.612  1.00  0.00     0.079 C 
ENDROOT
BRANCH   5   9
ATOM      9  C   UNL     1      -1.039  -5.038  -5.252  1.00  0.00    -0.007 C 
ATOM     10  C   UNL     1       0.492  -5.145  -5.391  1.00  0.00     0.008 C 
ATOM     11  C   UNL     1      -1.639  -6.451  -5.359  1.00  0.00     0.008 C 
ENDBRANCH   5   9
TORSDOF 1
ENDMDL
MODEL 6
REMARK VINA RESULT:    -3.278     10.574     12.506
REMARK INTER + INTRA:          -3.640
REMARK INTER:                  -3.467
REMARK INTRA:                  -0.173
REMARK UNBOUND:                -0.171
REMARK SMILES CC(C)[C@H]1CC[C@@H](C)CC1=O
REMARK SMILES IDX 8 1 7 2 6 3 5 4 4 5 10 6 11 7 9 8 2 9 1 10 3 11
REMARK H PARENT
REMARK Flexibility Score: inf
ROOT
ATOM      1  C   UNL     1       1.248  -5.586  -6.348  1.00  0.00     0.008 C 
ATOM      2  C   UNL     1       0.449  -5.563  -5.035  1.00  0.00    -0.007 C 
ATOM      3  C   UNL     1      -0.985  -6.112  -5.224  1.00  0.00     0.004 C 
ATOM      4  C   UNL     1      -1.902  -5.153  -6.009  1.00  0.00     0.012 C 
ATOM      5  C   UNL     1      -1.954  -3.745  -5.366  1.00  0.00     0.058 C 
ATOM      6  C   UNL     1      -0.522  -3.273  -5.184  1.00  0.00     0.136 C 
ATOM      7  O   UNL     1      -0.103  -2.255  -5.715  1.00  0.00    -0.299 OA
ATOM      8  C   UNL     1       0.419  -4.154  -4.415  1.00  0.00     0.079 C 
ENDROOT
BRANCH   5   9
ATOM      9  C   UNL     1      -2.832  -2.731  -6.171  1.00  0.00    -0.007 C 
ATOM     10  C   UNL     1      -4.262  -2.671  -5.602  1.00  0.00     0.008 C 
ATOM     11  C   UNL     1      -2.916  -3.076  -7.669  1.00  0.00     0.008 C 
ENDBRANCH   5   9
TORSDOF 1
ENDMDL
MODEL 7
REMARK VINA RESULT:    -3.276      1.571      2.214
REMARK INTER + INTRA:          -3.638
REMARK INTER:                  -3.564
REMARK INTRA:                  -0.075
REMARK UNBOUND:                -0.171
REMARK SMILES CC(C)[C@H]1CC[C@@H](C)CC1=O
REMARK SMILES IDX 8 1 7 2 6 3 5 4 4 5 10 6 11 7 9 8 2 9 1 10 3 11
REMARK H PARENT
REMARK Flexibility Score: inf
ROOT
ATOM      1  C   UNL     1       6.694   4.060  -2.583  1.00  0.00     0.008 C 
ATOM      2  C   UNL     1       5.643   3.049  -2.097  1.00  0.00    -0.007 C 
ATOM      3  C   UNL     1       5.237   3.302  -0.626  1.00  0.00     0.004 C 
ATOM      4  C   UNL     1       6.340   2.913   0.380  1.00  0.00     0.012 C 
ATOM      5  C   UNL     1       6.795   1.443   0.201  1.00  0.00     0.058 C 
ATOM      6  C   UNL     1       7.153   1.252  -1.263  1.00  0.00     0.136 C 
ATOM      7  O   UNL     1       8.273   0.915  -1.617  1.00  0.00    -0.299 OA
ATOM      8  C   UNL     1       6.119   1.598  -2.294  1.00  0.00     0.079 C 
ENDROOT
BRANCH   5   9
ATOM      9  C   UNL     1       7.953   1.033   1.169  1.00  0.00    -0.007 C 
ATOM     10  C   UNL     1       7.973  -0.493   1.383  1.00  0.00     0.008 C 
ATOM     11  C   UNL     1       7.848   1.718   2.544  1.00  0.00     0.008 C 
ENDBRANCH   5   9
TORSDOF 1
ENDMDL
MODEL 8
REMARK VINA RESULT:    -3.214      2.076      4.443
REMARK INTER + INTRA:          -3.572
REMARK INTER:                  -3.396
REMARK INTRA:                  -0.176
REMARK UNBOUND:                -0.171
REMARK SMILES CC(C)[C@H]1CC[C@@H](C)CC1=O
REMARK SMILES IDX 8 1 7 2 6 3 5 4 4 5 10 6 11 7 9 8 2 9 1 10 3 11
REMARK H PARENT
REMARK Flexibility Score: inf
ROOT
ATOM      1  C   UNL     1       8.051   0.806  -0.060  1.00  0.00     0.008 C 
ATOM      2  C   UNL     1       6.635   0.469  -0.554  1.00  0.00    -0.007 C 
ATOM      3  C   UNL     1       6.548   0.473  -2.098  1.00  0.00     0.004 C 
ATOM      4  C   UNL     1       6.618   1.889  -2.704  1.00  0.00     0.012 C 
ATOM      5  C   UNL     1       5.538   2.827  -2.110  1.00  0.00     0.058 C 
ATOM      6  C   UNL     1       5.658   2.760  -0.596  1.00  0.00     0.136 C 
ATOM      7  O   UNL     1       5.899   3.750   0.079  1.00  0.00    -0.299 OA
ATOM      8  C   UNL     1       5.583   1.412   0.058  1.00  0.00     0.079 C 
ENDROOT
BRANCH   5   9
ATOM      9  C   UNL     1       5.618   4.289  -2.662  1.00  0.00    -0.007 C 
ATOM     10  C   UNL     1       4.468   4.565  -3.650  1.00  0.00     0.008 C 
ATOM     11  C   UNL     1       6.952   4.584  -3.371  1.00  0.00     0.008 C 
ENDBRANCH   5   9
TORSDOF 1
ENDMDL
MODEL 9
REMARK VINA RESULT:    -1.053      1.753      3.844
REMARK INTER + INTRA:          -1.285
REMARK INTER:                  -1.119
REMARK INTRA:                  -0.166
REMARK UNBOUND:                -0.171
REMARK SMILES CC(C)[C@H]1CC[C@@H](C)CC1=O
REMARK SMILES IDX 8 1 7 2 6 3 5 4 4 5 10 6 11 7 9 8 2 9 1 10 3 11
REMARK H PARENT
REMARK Flexibility Score: inf
ROOT
ATOM      1  C   UNL     1       5.980   0.401  -0.169  1.00  0.00     0.008 C 
ATOM      2  C   UNL     1       6.085   1.804   0.449  1.00  0.00    -0.007 C 
ATOM      3  C   UNL     1       5.774   2.913  -0.583  1.00  0.00     0.004 C 
ATOM      4  C   UNL     1       6.890   3.094  -1.632  1.00  0.00     0.012 C 
ATOM      5  C   UNL     1       8.267   3.355  -0.973  1.00  0.00     0.058 C 
ATOM      6  C   UNL     1       8.503   2.252   0.045  1.00  0.00     0.136 C 
ATOM      7  O   UNL     1       9.459   1.494  -0.030  1.00  0.00    -0.299 OA
ATOM      8  C   UNL     1       7.460   2.033   1.103  1.00  0.00     0.079 C 
ENDROOT
BRANCH   5   9
ATOM      9  C   UNL     1       9.432   3.487  -2.008  1.00  0.00    -0.007 C 
ATOM     10  C   UNL     1      10.125   4.857  -1.882  1.00  0.00     0.008 C 
ATOM     11  C   UNL     1       8.957   3.312  -3.462  1.00  0.00     0.008 C 
ENDBRANCH   5   9
TORSDOF 1
ENDMDL
