MODEL 1
REMARK VINA RESULT:    -5.042      0.000      0.000
REMARK INTER + INTRA:          -6.523
REMARK INTER:                  -6.221
REMARK INTRA:                  -0.301
REMARK UNBOUND:                -0.301
REMARK SMILES Oc1cc(O)c2cc(O)c(-c3cc(O)c(O)c(O)c3)[o+]c2c1
REMARK SMILES IDX 10 1 20 2 21 3 22 4 2 5 3 6 4 7 6 8 7 9 8 10 11 11 12 12
REMARK SMILES IDX 13 13 19 14 15 15 17 16 14 17 16 19 18 21 9 23 1 25 5 27
REMARK H PARENT 14 18 16 20 18 22 9 24 1 26 5 28
REMARK Flexibility Score: inf
ROOT
ATOM      1  C   UNL     1      26.719  58.223 143.283  1.00  0.00     0.402 A 
ATOM      2  O   UNL     1      26.863  59.120 144.254  1.00  0.00    -0.202 OA
ATOM      3  C   UNL     1      26.126  59.126 145.360  1.00  0.00     0.368 A 
ATOM      4  C   UNL     1      26.351  60.114 146.323  1.00  0.00     0.162 A 
ATOM      5  C   UNL     1      25.588  60.144 147.494  1.00  0.00     0.128 A 
ATOM      6  C   UNL     1      24.596  59.182 147.702  1.00  0.00     0.093 A 
ATOM      7  C   UNL     1      24.352  58.182 146.753  1.00  0.00     0.136 A 
ATOM      8  C   UNL     1      25.125  58.145 145.564  1.00  0.00     0.125 A 
ATOM      9  C   UNL     1      24.959  57.173 144.564  1.00  0.00     0.078 A 
ATOM     10  C   UNL     1      25.762  57.199 143.420  1.00  0.00     0.223 A 
ENDROOT
BRANCH   1  11
ATOM     11  C   UNL     1      27.595  58.329 142.094  1.00  0.00     0.091 A 
ATOM     12  C   UNL     1      27.336  59.318 141.134  1.00  0.00     0.068 A 
ATOM     13  C   UNL     1      28.134  59.430 139.991  1.00  0.00     0.162 A 
ATOM     14  C   UNL     1      28.647  57.424 141.877  1.00  0.00     0.068 A 
ATOM     15  C   UNL     1      29.198  58.536 139.788  1.00  0.00     0.200 A 
ATOM     16  C   UNL     1      29.451  57.527 140.734  1.00  0.00     0.162 A 
BRANCH  13  17
ATOM     17  O   UNL     1      27.853  60.436 139.067  1.00  0.00    -0.504 OA
ATOM     18  H   UNL     1      28.566  60.831 138.466  1.00  0.00     0.293 HD
ENDBRANCH  13  17
BRANCH  15  19
ATOM     19  O   UNL     1      29.992  58.655 138.646  1.00  0.00    -0.502 OA
ATOM     20  H   UNL     1      30.484  57.866 138.246  1.00  0.00     0.293 HD
ENDBRANCH  15  19
BRANCH  16  21
ATOM     21  O   UNL     1      30.497  56.627 140.532  1.00  0.00    -0.504 OA
ATOM     22  H   UNL     1      30.492  55.705 140.951  1.00  0.00     0.293 HD
ENDBRANCH  16  21
ENDBRANCH   1  11
BRANCH  10  23
ATOM     23  O   UNL     1      25.632  56.205 142.451  1.00  0.00    -0.500 OA
ATOM     24  H   UNL     1      25.115  55.351 142.629  1.00  0.00     0.294 HD
ENDBRANCH  10  23
BRANCH   5  25
ATOM     25  O   UNL     1      25.807  61.125 148.458  1.00  0.00    -0.507 OA
ATOM     26  H   UNL     1      25.803  60.905 149.448  1.00  0.00     0.293 HD
ENDBRANCH   5  25
BRANCH   7  27
ATOM     27  O   UNL     1      23.340  57.260 147.036  1.00  0.00    -0.507 OA
ATOM     28  H   UNL     1      23.465  56.259 147.039  1.00  0.00     0.293 HD
ENDBRANCH   7  27
TORSDOF 7
ENDMDL
MODEL 2
REMARK VINA RESULT:    -4.416      1.236      7.102
REMARK INTER + INTRA:          -5.750
REMARK INTER:                  -5.415
REMARK INTRA:                  -0.334
REMARK UNBOUND:                -0.301
REMARK SMILES Oc1cc(O)c2cc(O)c(-c3cc(O)c(O)c(O)c3)[o+]c2c1
REMARK SMILES IDX 10 1 20 2 21 3 22 4 2 5 3 6 4 7 6 8 7 9 8 10 11 11 12 12
REMARK SMILES IDX 13 13 19 14 15 15 17 16 14 17 16 19 18 21 9 23 1 25 5 27
REMARK H PARENT 14 18 16 20 18 22 9 24 1 26 5 28
REMARK Flexibility Score: inf
ROOT
ATOM      1  C   UNL     1      27.068  58.515 143.427  1.00  0.00     0.402 A 
ATOM      2  O   UNL     1      26.863  59.283 142.360  1.00  0.00    -0.202 OA
ATOM      3  C   UNL     1      27.534  59.147 141.222  1.00  0.00     0.368 A 
ATOM      4  C   UNL     1      27.249  60.006 140.157  1.00  0.00     0.162 A 
ATOM      5  C   UNL     1      27.942  59.886 138.949  1.00  0.00     0.128 A 
ATOM      6  C   UNL     1      28.925  58.903 138.806  1.00  0.00     0.093 A 
ATOM      7  C   UNL     1      29.229  58.030 139.857  1.00  0.00     0.136 A 
ATOM      8  C   UNL     1      28.527  58.146 141.085  1.00  0.00     0.125 A 
ATOM      9  C   UNL     1      28.755  57.307 142.188  1.00  0.00     0.078 A 
ATOM     10  C   UNL     1      28.020  57.479 143.364  1.00  0.00     0.223 A 
ENDROOT
BRANCH   1  11
ATOM     11  C   UNL     1      26.262  58.772 144.642  1.00  0.00     0.091 A 
ATOM     12  C   UNL     1      26.631  59.815 145.505  1.00  0.00     0.068 A 
ATOM     13  C   UNL     1      25.901  60.069 146.670  1.00  0.00     0.162 A 
ATOM     14  C   UNL     1      25.168  57.959 144.981  1.00  0.00     0.068 A 
ATOM     15  C   UNL     1      24.794  59.266 146.994  1.00  0.00     0.200 A 
ATOM     16  C   UNL     1      24.432  58.205 146.147  1.00  0.00     0.162 A 
BRANCH  13  17
ATOM     17  O   UNL     1      26.291  61.125 147.494  1.00  0.00    -0.504 OA
ATOM     18  H   UNL     1      26.221  61.075 148.504  1.00  0.00     0.293 HD
ENDBRANCH  13  17
BRANCH  15  19
ATOM     19  O   UNL     1      24.069  59.528 148.158  1.00  0.00    -0.502 OA
ATOM     20  H   UNL     1      23.173  59.095 148.345  1.00  0.00     0.293 HD
ENDBRANCH  15  19
BRANCH  16  21
ATOM     21  O   UNL     1      23.343  57.395 146.471  1.00  0.00    -0.504 OA
ATOM     22  H   UNL     1      22.424  57.557 146.075  1.00  0.00     0.293 HD
ENDBRANCH  16  21
ENDBRANCH   1  11
BRANCH  10  23
ATOM     23  O   UNL     1      28.211  56.615 144.442  1.00  0.00    -0.500 OA
ATOM     24  H   UNL     1      28.067  56.918 145.399  1.00  0.00     0.294 HD
ENDBRANCH  10  23
BRANCH   5  25
ATOM     25  O   UNL     1      27.663  60.738 137.883  1.00  0.00    -0.507 OA
ATOM     26  H   UNL     1      28.353  61.392 137.533  1.00  0.00     0.293 HD
ENDBRANCH   5  25
BRANCH   7  27
ATOM     27  O   UNL     1      30.228  57.077 139.634  1.00  0.00    -0.507 OA
ATOM     28  H   UNL     1      30.288  56.496 138.811  1.00  0.00     0.293 HD
ENDBRANCH   7  27
TORSDOF 7
ENDMDL
MODEL 3
REMARK VINA RESULT:    -4.412      1.208      7.128
REMARK INTER + INTRA:          -5.745
REMARK INTER:                  -5.398
REMARK INTRA:                  -0.347
REMARK UNBOUND:                -0.301
REMARK SMILES Oc1cc(O)c2cc(O)c(-c3cc(O)c(O)c(O)c3)[o+]c2c1
REMARK SMILES IDX 10 1 20 2 21 3 22 4 2 5 3 6 4 7 6 8 7 9 8 10 11 11 12 12
REMARK SMILES IDX 13 13 19 14 15 15 17 16 14 17 16 19 18 21 9 23 1 25 5 27
REMARK H PARENT 14 18 16 20 18 22 9 24 1 26 5 28
REMARK Flexibility Score: inf
ROOT
ATOM      1  C   UNL     1      26.978  58.505 143.565  1.00  0.00     0.402 A 
ATOM      2  O   UNL     1      26.751  59.284 142.511  1.00  0.00    -0.202 OA
ATOM      3  C   UNL     1      27.366  59.133 141.344  1.00  0.00     0.368 A 
ATOM      4  C   UNL     1      27.061  60.006 140.296  1.00  0.00     0.162 A 
ATOM      5  C   UNL     1      27.695  59.871 139.058  1.00  0.00     0.128 A 
ATOM      6  C   UNL     1      28.639  58.858 138.867  1.00  0.00     0.093 A 
ATOM      7  C   UNL     1      28.962  57.971 139.901  1.00  0.00     0.136 A 
ATOM      8  C   UNL     1      28.319  58.102 141.159  1.00  0.00     0.125 A 
ATOM      9  C   UNL     1      28.570  57.251 142.247  1.00  0.00     0.078 A 
ATOM     10  C   UNL     1      27.893  57.439 143.456  1.00  0.00     0.223 A 
ENDROOT
BRANCH   1  11
ATOM     11  C   UNL     1      26.236  58.781 144.816  1.00  0.00     0.091 A 
ATOM     12  C   UNL     1      25.098  58.023 145.124  1.00  0.00     0.068 A 
ATOM     13  C   UNL     1      24.365  58.274 146.289  1.00  0.00     0.162 A 
ATOM     14  C   UNL     1      26.615  59.826 145.676  1.00  0.00     0.068 A 
ATOM     15  C   UNL     1      24.760  59.307 147.156  1.00  0.00     0.200 A 
ATOM     16  C   UNL     1      25.886  60.087 146.844  1.00  0.00     0.162 A 
BRANCH  13  17
ATOM     17  O   UNL     1      23.247  57.488 146.567  1.00  0.00    -0.504 OA
ATOM     18  H   UNL     1      22.748  56.985 145.843  1.00  0.00     0.293 HD
ENDBRANCH  13  17
BRANCH  15  19
ATOM     19  O   UNL     1      24.025  59.550 148.318  1.00  0.00    -0.502 OA
ATOM     20  H   UNL     1      23.322  58.905 148.657  1.00  0.00     0.293 HD
ENDBRANCH  15  19
BRANCH  16  21
ATOM     21  O   UNL     1      26.275  61.122 147.693  1.00  0.00    -0.504 OA
ATOM     22  H   UNL     1      26.818  60.947 148.531  1.00  0.00     0.293 HD
ENDBRANCH  16  21
ENDBRANCH   1  11
BRANCH  10  23
ATOM     23  O   UNL     1      28.105  56.565 144.521  1.00  0.00    -0.500 OA
ATOM     24  H   UNL     1      27.824  55.592 144.475  1.00  0.00     0.294 HD
ENDBRANCH  10  23
BRANCH   5  25
ATOM     25  O   UNL     1      27.396  60.737 138.008  1.00  0.00    -0.507 OA
ATOM     26  H   UNL     1      27.448  61.743 138.120  1.00  0.00     0.293 HD
ENDBRANCH   5  25
BRANCH   7  27
ATOM     27  O   UNL     1      29.919  56.988 139.630  1.00  0.00    -0.507 OA
ATOM     28  H   UNL     1      30.916  57.147 139.635  1.00  0.00     0.293 HD
ENDBRANCH   7  27
TORSDOF 7
ENDMDL
MODEL 4
REMARK VINA RESULT:    -4.390      1.598      7.343
REMARK INTER + INTRA:          -5.718
REMARK INTER:                  -5.978
REMARK INTRA:                   0.260
REMARK UNBOUND:                -0.301
REMARK SMILES Oc1cc(O)c2cc(O)c(-c3cc(O)c(O)c(O)c3)[o+]c2c1
REMARK SMILES IDX 10 1 20 2 21 3 22 4 2 5 3 6 4 7 6 8 7 9 8 10 11 11 12 12
REMARK SMILES IDX 13 13 19 14 15 15 17 16 14 17 16 19 18 21 9 23 1 25 5 27
REMARK H PARENT 14 18 16 20 18 22 9 24 1 26 5 28
REMARK Flexibility Score: inf
ROOT
ATOM      1  C   UNL     1      26.410  58.797 143.853  1.00  0.00     0.402 A 
ATOM      2  O   UNL     1      26.343  57.593 143.291  1.00  0.00    -0.202 OA
ATOM      3  C   UNL     1      26.764  57.337 142.058  1.00  0.00     0.368 A 
ATOM      4  C   UNL     1      26.647  56.039 141.554  1.00  0.00     0.162 A 
ATOM      5  C   UNL     1      27.080  55.743 140.259  1.00  0.00     0.128 A 
ATOM      6  C   UNL     1      27.631  56.750 139.463  1.00  0.00     0.093 A 
ATOM      7  C   UNL     1      27.759  58.059 139.944  1.00  0.00     0.136 A 
ATOM      8  C   UNL     1      27.324  58.364 141.260  1.00  0.00     0.125 A 
ATOM      9  C   UNL     1      27.425  59.644 141.830  1.00  0.00     0.078 A 
ATOM     10  C   UNL     1      26.978  59.867 143.135  1.00  0.00     0.223 A 
ENDROOT
BRANCH   1  11
ATOM     11  C   UNL     1      25.897  58.957 145.233  1.00  0.00     0.091 A 
ATOM     12  C   UNL     1      24.870  58.119 145.688  1.00  0.00     0.068 A 
ATOM     13  C   UNL     1      24.352  58.260 146.980  1.00  0.00     0.162 A 
ATOM     14  C   UNL     1      26.379  59.970 146.079  1.00  0.00     0.068 A 
ATOM     15  C   UNL     1      24.851  59.261 147.830  1.00  0.00     0.200 A 
ATOM     16  C   UNL     1      25.865  60.120 147.374  1.00  0.00     0.162 A 
BRANCH  13  17
ATOM     17  O   UNL     1      23.340  57.396 147.400  1.00  0.00    -0.504 OA
ATOM     18  H   UNL     1      23.537  56.467 147.751  1.00  0.00     0.293 HD
ENDBRANCH  13  17
BRANCH  15  19
ATOM     19  O   UNL     1      24.331  59.394 149.119  1.00  0.00    -0.502 OA
ATOM     20  H   UNL     1      24.026  60.286 149.488  1.00  0.00     0.293 HD
ENDBRANCH  15  19
BRANCH  16  21
ATOM     21  O   UNL     1      26.355  61.125 148.208  1.00  0.00    -0.504 OA
ATOM     22  H   UNL     1      27.343  61.345 148.251  1.00  0.00     0.293 HD
ENDBRANCH  16  21
ENDBRANCH   1  11
BRANCH  10  23
ATOM     23  O   UNL     1      27.123  61.125 143.719  1.00  0.00    -0.500 OA
ATOM     24  H   UNL     1      27.203  61.240 144.724  1.00  0.00     0.294 HD
ENDBRANCH  10  23
BRANCH   5  25
ATOM     25  O   UNL     1      26.968  54.451 139.750  1.00  0.00    -0.507 OA
ATOM     26  H   UNL     1      27.383  54.193 138.863  1.00  0.00     0.293 HD
ENDBRANCH   5  25
BRANCH   7  27
ATOM     27  O   UNL     1      28.318  59.009 139.084  1.00  0.00    -0.507 OA
ATOM     28  H   UNL     1      28.577  58.827 138.125  1.00  0.00     0.293 HD
ENDBRANCH   7  27
TORSDOF 7
ENDMDL
MODEL 5
REMARK VINA RESULT:    -4.384      2.186      3.386
REMARK INTER + INTRA:          -5.711
REMARK INTER:                  -5.620
REMARK INTRA:                  -0.090
REMARK UNBOUND:                -0.301
REMARK SMILES Oc1cc(O)c2cc(O)c(-c3cc(O)c(O)c(O)c3)[o+]c2c1
REMARK SMILES IDX 10 1 20 2 21 3 22 4 2 5 3 6 4 7 6 8 7 9 8 10 11 11 12 12
REMARK SMILES IDX 13 13 19 14 15 15 17 16 14 17 16 19 18 21 9 23 1 25 5 27
REMARK H PARENT 14 18 16 20 18 22 9 24 1 26 5 28
REMARK Flexibility Score: inf
ROOT
ATOM      1  C   UNL     1      26.212  57.732 143.063  1.00  0.00     0.402 A 
ATOM      2  O   UNL     1      25.354  57.408 144.026  1.00  0.00    -0.202 OA
ATOM      3  C   UNL     1      25.219  58.104 145.150  1.00  0.00     0.368 A 
ATOM      4  C   UNL     1      24.291  57.681 146.105  1.00  0.00     0.162 A 
ATOM      5  C   UNL     1      24.131  58.393 147.297  1.00  0.00     0.128 A 
ATOM      6  C   UNL     1      24.903  59.533 147.534  1.00  0.00     0.093 A 
ATOM      7  C   UNL     1      25.839  59.978 146.593  1.00  0.00     0.136 A 
ATOM      8  C   UNL     1      26.004  59.260 145.380  1.00  0.00     0.125 A 
ATOM      9  C   UNL     1      26.908  59.639 144.375  1.00  0.00     0.078 A 
ATOM     10  C   UNL     1      27.012  58.883 143.203  1.00  0.00     0.223 A 
ENDROOT
BRANCH   1  11
ATOM     11  C   UNL     1      26.277  56.869 141.861  1.00  0.00     0.091 A 
ATOM     12  C   UNL     1      25.087  56.469 141.235  1.00  0.00     0.068 A 
ATOM     13  C   UNL     1      25.116  55.639 140.110  1.00  0.00     0.162 A 
ATOM     14  C   UNL     1      27.503  56.396 141.366  1.00  0.00     0.068 A 
ATOM     15  C   UNL     1      26.346  55.184 139.606  1.00  0.00     0.200 A 
ATOM     16  C   UNL     1      27.542  55.561 140.241  1.00  0.00     0.162 A 
BRANCH  13  17
ATOM     17  O   UNL     1      23.912  55.275 139.508  1.00  0.00    -0.504 OA
ATOM     18  H   UNL     1      23.878  54.705 138.671  1.00  0.00     0.293 HD
ENDBRANCH  13  17
BRANCH  15  19
ATOM     19  O   UNL     1      26.367  54.357 138.481  1.00  0.00    -0.502 OA
ATOM     20  H   UNL     1      25.652  54.401 137.765  1.00  0.00     0.293 HD
ENDBRANCH  15  19
BRANCH  16  21
ATOM     21  O   UNL     1      28.765  55.102 139.753  1.00  0.00    -0.504 OA
ATOM     22  H   UNL     1      29.334  54.447 140.278  1.00  0.00     0.293 HD
ENDBRANCH  16  21
ENDBRANCH   1  11
BRANCH  10  23
ATOM     23  O   UNL     1      27.873  59.286 142.184  1.00  0.00    -0.500 OA
ATOM     24  H   UNL     1      27.701  59.044 141.214  1.00  0.00     0.294 HD
ENDBRANCH  10  23
BRANCH   5  25
ATOM     25  O   UNL     1      23.207  57.978 148.254  1.00  0.00    -0.507 OA
ATOM     26  H   UNL     1      22.319  58.451 148.372  1.00  0.00     0.293 HD
ENDBRANCH   5  25
BRANCH   7  27
ATOM     27  O   UNL     1      26.574  61.125 146.909  1.00  0.00    -0.507 OA
ATOM     28  H   UNL     1      27.253  61.180 147.654  1.00  0.00     0.293 HD
ENDBRANCH   7  27
TORSDOF 7
ENDMDL
MODEL 6
REMARK VINA RESULT:    -4.367      2.231      3.665
REMARK INTER + INTRA:          -5.689
REMARK INTER:                  -5.685
REMARK INTRA:                  -0.004
REMARK UNBOUND:                -0.301
REMARK SMILES Oc1cc(O)c2cc(O)c(-c3cc(O)c(O)c(O)c3)[o+]c2c1
REMARK SMILES IDX 10 1 20 2 21 3 22 4 2 5 3 6 4 7 6 8 7 9 8 10 11 11 12 12
REMARK SMILES IDX 13 13 19 14 15 15 17 16 14 17 16 19 18 21 9 23 1 25 5 27
REMARK H PARENT 14 18 16 20 18 22 9 24 1 26 5 28
REMARK Flexibility Score: inf
ROOT
ATOM      1  C   UNL     1      26.158  57.668 143.026  1.00  0.00     0.402 A 
ATOM      2  O   UNL     1      25.293  57.385 143.995  1.00  0.00    -0.202 OA
ATOM      3  C   UNL     1      25.176  58.105 145.105  1.00  0.00     0.368 A 
ATOM      4  C   UNL     1      24.238  57.724 146.069  1.00  0.00     0.162 A 
ATOM      5  C   UNL     1      24.096  58.464 147.246  1.00  0.00     0.128 A 
ATOM      6  C   UNL     1      24.897  59.588 147.462  1.00  0.00     0.093 A 
ATOM      7  C   UNL     1      25.843  59.991 146.512  1.00  0.00     0.136 A 
ATOM      8  C   UNL     1      25.990  59.246 145.313  1.00  0.00     0.125 A 
ATOM      9  C   UNL     1      26.903  59.582 144.301  1.00  0.00     0.078 A 
ATOM     10  C   UNL     1      26.987  58.801 143.144  1.00  0.00     0.223 A 
ENDROOT
BRANCH   1  11
ATOM     11  C   UNL     1      26.201  56.781 141.841  1.00  0.00     0.091 A 
ATOM     12  C   UNL     1      27.441  56.352 141.345  1.00  0.00     0.068 A 
ATOM     13  C   UNL     1      27.513  55.530 140.216  1.00  0.00     0.162 A 
ATOM     14  C   UNL     1      25.027  56.404 141.167  1.00  0.00     0.068 A 
ATOM     15  C   UNL     1      26.335  55.139 139.557  1.00  0.00     0.200 A 
ATOM     16  C   UNL     1      25.090  55.583 140.034  1.00  0.00     0.162 A 
BRANCH  13  17
ATOM     17  O   UNL     1      28.765  55.114 139.763  1.00  0.00    -0.504 OA
ATOM     18  H   UNL     1      29.340  54.467 140.290  1.00  0.00     0.293 HD
ENDBRANCH  13  17
BRANCH  15  19
ATOM     19  O   UNL     1      26.415  54.316 138.432  1.00  0.00    -0.502 OA
ATOM     20  H   UNL     1      25.853  53.479 138.334  1.00  0.00     0.293 HD
ENDBRANCH  15  19
BRANCH  16  21
ATOM     21  O   UNL     1      23.918  55.209 139.376  1.00  0.00    -0.504 OA
ATOM     22  H   UNL     1      23.122  55.833 139.314  1.00  0.00     0.293 HD
ENDBRANCH  16  21
ENDBRANCH   1  11
BRANCH  10  23
ATOM     23  O   UNL     1      27.857  59.163 142.117  1.00  0.00    -0.500 OA
ATOM     24  H   UNL     1      27.533  59.296 141.166  1.00  0.00     0.294 HD
ENDBRANCH  10  23
BRANCH   5  25
ATOM     25  O   UNL     1      23.163  58.090 148.211  1.00  0.00    -0.507 OA
ATOM     26  H   UNL     1      22.171  58.257 148.081  1.00  0.00     0.293 HD
ENDBRANCH   5  25
BRANCH   7  27
ATOM     27  O   UNL     1      26.606  61.125 146.805  1.00  0.00    -0.507 OA
ATOM     28  H   UNL     1      26.950  61.359 147.725  1.00  0.00     0.293 HD
ENDBRANCH   7  27
TORSDOF 7
ENDMDL
MODEL 7
REMARK VINA RESULT:    -4.318      1.670      6.913
REMARK INTER + INTRA:          -5.629
REMARK INTER:                  -5.952
REMARK INTRA:                   0.323
REMARK UNBOUND:                -0.301
REMARK SMILES Oc1cc(O)c2cc(O)c(-c3cc(O)c(O)c(O)c3)[o+]c2c1
REMARK SMILES IDX 10 1 20 2 21 3 22 4 2 5 3 6 4 7 6 8 7 9 8 10 11 11 12 12
REMARK SMILES IDX 13 13 19 14 15 15 17 16 14 17 16 19 18 21 9 23 1 25 5 27
REMARK H PARENT 14 18 16 20 18 22 9 24 1 26 5 28
REMARK Flexibility Score: inf
ROOT
ATOM      1  C   UNL     1      26.713  58.024 143.717  1.00  0.00     0.402 A 
ATOM      2  O   UNL     1      27.938  58.505 143.527  1.00  0.00    -0.202 OA
ATOM      3  C   UNL     1      28.710  58.155 142.504  1.00  0.00     0.368 A 
ATOM      4  C   UNL     1      29.986  58.714 142.393  1.00  0.00     0.162 A 
ATOM      5  C   UNL     1      30.820  58.361 141.327  1.00  0.00     0.128 A 
ATOM      6  C   UNL     1      30.375  57.446 140.370  1.00  0.00     0.093 A 
ATOM      7  C   UNL     1      29.101  56.872 140.460  1.00  0.00     0.136 A 
ATOM      8  C   UNL     1      28.250  57.229 141.537  1.00  0.00     0.125 A 
ATOM      9  C   UNL     1      26.953  56.715 141.700  1.00  0.00     0.078 A 
ATOM     10  C   UNL     1      26.170  57.117 142.787  1.00  0.00     0.223 A 
ENDROOT
BRANCH   1  11
ATOM     11  C   UNL     1      25.954  58.484 144.903  1.00  0.00     0.091 A 
ATOM     12  C   UNL     1      26.427  59.578 145.642  1.00  0.00     0.068 A 
ATOM     13  C   UNL     1      25.743  60.023 146.778  1.00  0.00     0.162 A 
ATOM     14  C   UNL     1      24.800  57.812 145.339  1.00  0.00     0.068 A 
ATOM     15  C   UNL     1      24.577  59.361 147.198  1.00  0.00     0.200 A 
ATOM     16  C   UNL     1      24.109  58.249 146.477  1.00  0.00     0.162 A 
BRANCH  13  17
ATOM     17  O   UNL     1      26.237  61.124 147.476  1.00  0.00    -0.504 OA
ATOM     18  H   UNL     1      25.968  62.073 147.247  1.00  0.00     0.293 HD
ENDBRANCH  13  17
BRANCH  15  19
ATOM     19  O   UNL     1      23.898  59.812 148.332  1.00  0.00    -0.502 OA
ATOM     20  H   UNL     1      23.609  60.776 148.439  1.00  0.00     0.293 HD
ENDBRANCH  15  19
BRANCH  16  21
ATOM     21  O   UNL     1      22.960  57.579 146.897  1.00  0.00    -0.504 OA
ATOM     22  H   UNL     1      22.665  56.710 146.467  1.00  0.00     0.293 HD
ENDBRANCH  16  21
ENDBRANCH   1  11
BRANCH  10  23
ATOM     23  O   UNL     1      24.865  56.645 142.922  1.00  0.00    -0.500 OA
ATOM     24  H   UNL     1      24.218  57.052 143.588  1.00  0.00     0.294 HD
ENDBRANCH  10  23
BRANCH   5  25
ATOM     25  O   UNL     1      32.093  58.915 141.209  1.00  0.00    -0.507 OA
ATOM     26  H   UNL     1      32.539  59.030 140.306  1.00  0.00     0.293 HD
ENDBRANCH   5  25
BRANCH   7  27
ATOM     27  O   UNL     1      28.734  55.962 139.464  1.00  0.00    -0.507 OA
ATOM     28  H   UNL     1      28.584  54.976 139.619  1.00  0.00     0.293 HD
ENDBRANCH   7  27
TORSDOF 7
ENDMDL
MODEL 8
REMARK VINA RESULT:    -4.314      1.594      7.294
REMARK INTER + INTRA:          -5.624
REMARK INTER:                  -5.910
REMARK INTRA:                   0.286
REMARK UNBOUND:                -0.301
REMARK SMILES Oc1cc(O)c2cc(O)c(-c3cc(O)c(O)c(O)c3)[o+]c2c1
REMARK SMILES IDX 10 1 20 2 21 3 22 4 2 5 3 6 4 7 6 8 7 9 8 10 11 11 12 12
REMARK SMILES IDX 13 13 19 14 15 15 17 16 14 17 16 19 18 21 9 23 1 25 5 27
REMARK H PARENT 14 18 16 20 18 22 9 24 1 26 5 28
REMARK Flexibility Score: inf
ROOT
ATOM      1  C   UNL     1      26.434  58.787 143.759  1.00  0.00     0.402 A 
ATOM      2  O   UNL     1      26.405  57.579 143.204  1.00  0.00    -0.202 OA
ATOM      3  C   UNL     1      26.874  57.321 141.988  1.00  0.00     0.368 A 
ATOM      4  C   UNL     1      26.795  56.017 141.490  1.00  0.00     0.162 A 
ATOM      5  C   UNL     1      27.278  55.719 140.213  1.00  0.00     0.128 A 
ATOM      6  C   UNL     1      27.843  56.730 139.430  1.00  0.00     0.093 A 
ATOM      7  C   UNL     1      27.934  58.043 139.906  1.00  0.00     0.136 A 
ATOM      8  C   UNL     1      27.447  58.351 141.203  1.00  0.00     0.125 A 
ATOM      9  C   UNL     1      27.508  59.635 141.767  1.00  0.00     0.078 A 
ATOM     10  C   UNL     1      27.011  59.861 143.054  1.00  0.00     0.223 A 
ENDROOT
BRANCH   1  11
ATOM     11  C   UNL     1      25.870  58.949 145.118  1.00  0.00     0.091 A 
ATOM     12  C   UNL     1      26.379  59.947 145.961  1.00  0.00     0.068 A 
ATOM     13  C   UNL     1      25.880  60.111 147.257  1.00  0.00     0.162 A 
ATOM     14  C   UNL     1      24.871  58.088 145.603  1.00  0.00     0.068 A 
ATOM     15  C   UNL     1      24.866  59.261 147.731  1.00  0.00     0.200 A 
ATOM     16  C   UNL     1      24.365  58.244 146.900  1.00  0.00     0.162 A 
BRANCH  13  17
ATOM     17  O   UNL     1      26.403  61.125 148.060  1.00  0.00    -0.504 OA
ATOM     18  H   UNL     1      26.705  60.956 149.012  1.00  0.00     0.293 HD
ENDBRANCH  13  17
BRANCH  15  19
ATOM     19  O   UNL     1      24.371  59.432 149.025  1.00  0.00    -0.502 OA
ATOM     20  H   UNL     1      23.384  59.565 149.212  1.00  0.00     0.293 HD
ENDBRANCH  15  19
BRANCH  16  21
ATOM     21  O   UNL     1      23.370  57.387 147.370  1.00  0.00    -0.504 OA
ATOM     22  H   UNL     1      22.586  57.731 147.913  1.00  0.00     0.293 HD
ENDBRANCH  16  21
ENDBRANCH   1  11
BRANCH  10  23
ATOM     23  O   UNL     1      27.117  61.125 143.633  1.00  0.00    -0.500 OA
ATOM     24  H   UNL     1      26.297  61.676 143.862  1.00  0.00     0.294 HD
ENDBRANCH  10  23
BRANCH   5  25
ATOM     25  O   UNL     1      27.204  54.422 139.710  1.00  0.00    -0.507 OA
ATOM     26  H   UNL     1      27.726  54.141 138.889  1.00  0.00     0.293 HD
ENDBRANCH   5  25
BRANCH   7  27
ATOM     27  O   UNL     1      28.509  58.996 139.059  1.00  0.00    -0.507 OA
ATOM     28  H   UNL     1      29.503  59.112 138.924  1.00  0.00     0.293 HD
ENDBRANCH   7  27
TORSDOF 7
ENDMDL
MODEL 9
REMARK VINA RESULT:    -4.166      1.684      6.961
REMARK INTER + INTRA:          -5.441
REMARK INTER:                  -5.854
REMARK INTRA:                   0.413
REMARK UNBOUND:                -0.301
REMARK SMILES Oc1cc(O)c2cc(O)c(-c3cc(O)c(O)c(O)c3)[o+]c2c1
REMARK SMILES IDX 10 1 20 2 21 3 22 4 2 5 3 6 4 7 6 8 7 9 8 10 11 11 12 12
REMARK SMILES IDX 13 13 19 14 15 15 17 16 14 17 16 19 18 21 9 23 1 25 5 27
REMARK H PARENT 14 18 16 20 18 22 9 24 1 26 5 28
REMARK Flexibility Score: inf
ROOT
ATOM      1  C   UNL     1      26.733  57.990 143.750  1.00  0.00     0.402 A 
ATOM      2  O   UNL     1      27.952  58.478 143.538  1.00  0.00    -0.202 OA
ATOM      3  C   UNL     1      28.710  58.129 142.505  1.00  0.00     0.368 A 
ATOM      4  C   UNL     1      29.980  58.696 142.370  1.00  0.00     0.162 A 
ATOM      5  C   UNL     1      30.799  58.344 141.293  1.00  0.00     0.128 A 
ATOM      6  C   UNL     1      30.345  57.421 140.348  1.00  0.00     0.093 A 
ATOM      7  C   UNL     1      29.077  56.839 140.460  1.00  0.00     0.136 A 
ATOM      8  C   UNL     1      28.240  57.195 141.550  1.00  0.00     0.125 A 
ATOM      9  C   UNL     1      26.950  56.672 141.736  1.00  0.00     0.078 A 
ATOM     10  C   UNL     1      26.182  57.074 142.833  1.00  0.00     0.223 A 
ENDROOT
BRANCH   1  11
ATOM     11  C   UNL     1      25.990  58.450 144.946  1.00  0.00     0.091 A 
ATOM     12  C   UNL     1      24.816  57.784 145.327  1.00  0.00     0.068 A 
ATOM     13  C   UNL     1      24.083  58.208 146.440  1.00  0.00     0.162 A 
ATOM     14  C   UNL     1      26.406  59.576 145.677  1.00  0.00     0.068 A 
ATOM     15  C   UNL     1      24.514  59.322 147.180  1.00  0.00     0.200 A 
ATOM     16  C   UNL     1      25.677  60.009 146.792  1.00  0.00     0.162 A 
BRANCH  13  17
ATOM     17  O   UNL     1      22.929  57.510 146.795  1.00  0.00    -0.504 OA
ATOM     18  H   UNL     1      22.008  57.799 146.486  1.00  0.00     0.293 HD
ENDBRANCH  13  17
BRANCH  15  19
ATOM     19  O   UNL     1      23.778  59.738 148.292  1.00  0.00    -0.502 OA
ATOM     20  H   UNL     1      23.998  59.430 149.231  1.00  0.00     0.293 HD
ENDBRANCH  15  19
BRANCH  16  21
ATOM     21  O   UNL     1      26.102  61.125 147.514  1.00  0.00    -0.504 OA
ATOM     22  H   UNL     1      26.325  62.001 147.056  1.00  0.00     0.293 HD
ENDBRANCH  16  21
ENDBRANCH   1  11
BRANCH  10  23
ATOM     23  O   UNL     1      24.882  56.594 142.991  1.00  0.00    -0.500 OA
ATOM     24  H   UNL     1      24.261  56.467 142.200  1.00  0.00     0.294 HD
ENDBRANCH  10  23
BRANCH   5  25
ATOM     25  O   UNL     1      32.066  58.906 141.152  1.00  0.00    -0.507 OA
ATOM     26  H   UNL     1      32.751  58.513 140.516  1.00  0.00     0.293 HD
ENDBRANCH   5  25
BRANCH   7  27
ATOM     27  O   UNL     1      28.700  55.922 139.474  1.00  0.00    -0.507 OA
ATOM     28  H   UNL     1      28.026  55.183 139.611  1.00  0.00     0.293 HD
ENDBRANCH   7  27
TORSDOF 7
ENDMDL
