MODEL 1
REMARK VINA RESULT:    -5.942      0.000      0.000
REMARK INTER + INTRA:         -10.267
REMARK INTER:                  -9.243
REMARK INTRA:                  -1.024
REMARK UNBOUND:                -1.024
REMARK SMILES COc1cc(CNC(=O)CCCCC=CC(C)C)ccc1O
REMARK SMILES IDX 11 1 12 2 13 3 14 4 15 5 16 6 17 7 18 8 10 9 8 10 9 11 7 12
REMARK SMILES IDX 6 14 5 15 4 16 19 17 3 18 20 19 21 20 2 21 1 22 22 23
REMARK H PARENT 7 13 22 24
REMARK Flexibility Score: inf
ROOT
ATOM      1  C   UNL     1     122.050 143.822 146.789  1.00  0.00     0.010 C 
ENDROOT
BRANCH   1   2
ATOM      2  C   UNL     1     123.573 143.986 146.909  1.00  0.00     0.005 C 
BRANCH   2   3
ATOM      3  C   UNL     1     124.151 143.235 148.117  1.00  0.00     0.027 C 
BRANCH   3   4
ATOM      4  C   UNL     1     123.655 143.830 149.406  1.00  0.00    -0.031 C 
ATOM      5  C   UNL     1     123.095 143.067 150.361  1.00  0.00    -0.028 C 
BRANCH   5   6
ATOM      6  C   UNL     1     122.584 143.633 151.667  1.00  0.00     0.005 C 
ATOM      7  C   UNL     1     122.482 142.545 152.742  1.00  0.00     0.012 C 
ATOM      8  C   UNL     1     123.447 144.807 152.146  1.00  0.00     0.012 C 
ENDBRANCH   5   6
ENDBRANCH   3   4
ENDBRANCH   2   3
ENDBRANCH   1   2
BRANCH   1   9
ATOM      9  C   UNL     1     121.521 144.227 145.406  1.00  0.00     0.100 C 
BRANCH   9  10
ATOM     10  C   UNL     1     121.956 143.230 144.377  1.00  0.00     0.220 C 
ATOM     11  O   UNL     1     121.566 142.033 144.470  1.00  0.00    -0.275 OA
ATOM     12  N   UNL     1     122.856 143.620 143.330  1.00  0.00    -0.352 N 
ATOM     13  H   UNL     1     123.142 144.622 143.260  1.00  0.00     0.163 HD
BRANCH  12  14
ATOM     14  C   UNL     1     123.556 142.647 142.497  1.00  0.00     0.151 C 
BRANCH  14  15
ATOM     15  C   UNL     1     125.008 142.597 142.888  1.00  0.00    -0.025 A 
ATOM     16  C   UNL     1     125.425 141.807 143.972  1.00  0.00     0.056 A 
ATOM     17  C   UNL     1     125.942 143.399 142.219  1.00  0.00     0.009 A 
ATOM     18  C   UNL     1     126.776 141.802 144.373  1.00  0.00     0.160 A 
ATOM     19  C   UNL     1     127.283 143.393 142.609  1.00  0.00     0.050 A 
ATOM     20  C   UNL     1     127.702 142.597 143.683  1.00  0.00     0.157 A 
BRANCH  18  21
ATOM     21  O   UNL     1     127.232 141.028 145.451  1.00  0.00    -0.493 OA
ATOM     22  C   UNL     1     127.115 141.403 146.820  1.00  0.00     0.278 C 
ENDBRANCH  18  21
BRANCH  20  23
ATOM     23  O   UNL     1     129.040 142.593 144.074  1.00  0.00    -0.504 OA
ATOM     24  H   UNL     1     129.754 143.055 143.524  1.00  0.00     0.293 HD
ENDBRANCH  20  23
ENDBRANCH  14  15
ENDBRANCH  12  14
ENDBRANCH   9  10
ENDBRANCH   1   9
TORSDOF 10
ENDMDL
MODEL 2
REMARK VINA RESULT:    -5.913      1.878      2.930
REMARK INTER + INTRA:         -10.221
REMARK INTER:                  -9.299
REMARK INTRA:                  -0.922
REMARK UNBOUND:                -1.024
REMARK SMILES COc1cc(CNC(=O)CCCCC=CC(C)C)ccc1O
REMARK SMILES IDX 11 1 12 2 13 3 14 4 15 5 16 6 17 7 18 8 10 9 8 10 9 11 7 12
REMARK SMILES IDX 6 14 5 15 4 16 19 17 3 18 20 19 21 20 2 21 1 22 22 23
REMARK H PARENT 7 13 22 24
REMARK Flexibility Score: inf
ROOT
ATOM      1  C   UNL     1     123.271 144.359 146.160  1.00  0.00     0.010 C 
ENDROOT
BRANCH   1   2
ATOM      2  C   UNL     1     124.368 143.665 146.982  1.00  0.00     0.005 C 
BRANCH   2   3
ATOM      3  C   UNL     1     123.793 142.748 148.073  1.00  0.00     0.027 C 
BRANCH   3   4
ATOM      4  C   UNL     1     123.522 143.521 149.334  1.00  0.00    -0.031 C 
ATOM      5  C   UNL     1     122.946 142.940 150.402  1.00  0.00    -0.028 C 
BRANCH   5   6
ATOM      6  C   UNL     1     122.656 143.688 151.684  1.00  0.00     0.005 C 
ATOM      7  C   UNL     1     122.673 142.745 152.893  1.00  0.00     0.012 C 
ATOM      8  C   UNL     1     123.624 144.861 151.881  1.00  0.00     0.012 C 
ENDBRANCH   5   6
ENDBRANCH   3   4
ENDBRANCH   2   3
ENDBRANCH   1   2
BRANCH   1   9
ATOM      9  C   UNL     1     122.043 143.465 145.944  1.00  0.00     0.100 C 
BRANCH   9  10
ATOM     10  C   UNL     1     122.110 142.816 144.595  1.00  0.00     0.220 C 
ATOM     11  O   UNL     1     121.787 141.602 144.475  1.00  0.00    -0.275 OA
ATOM     12  N   UNL     1     122.594 143.554 143.464  1.00  0.00    -0.352 N 
ATOM     13  H   UNL     1     122.830 144.564 143.586  1.00  0.00     0.163 HD
BRANCH  12  14
ATOM     14  C   UNL     1     122.978 142.906 142.213  1.00  0.00     0.151 C 
BRANCH  14  15
ATOM     15  C   UNL     1     124.419 143.208 141.908  1.00  0.00    -0.025 A 
ATOM     16  C   UNL     1     124.896 143.139 140.589  1.00  0.00     0.056 A 
ATOM     17  C   UNL     1     125.313 143.489 142.951  1.00  0.00     0.009 A 
ATOM     18  C   UNL     1     126.258 143.369 140.309  1.00  0.00     0.160 A 
ATOM     19  C   UNL     1     126.662 143.723 142.678  1.00  0.00     0.050 A 
ATOM     20  C   UNL     1     127.137 143.665 141.361  1.00  0.00     0.157 A 
BRANCH  18  21
ATOM     21  O   UNL     1     126.774 143.308 139.005  1.00  0.00    -0.493 OA
ATOM     22  C   UNL     1     126.090 142.737 137.894  1.00  0.00     0.278 C 
ENDBRANCH  18  21
BRANCH  20  23
ATOM     23  O   UNL     1     128.484 143.896 141.089  1.00  0.00    -0.504 OA
ATOM     24  H   UNL     1     128.899 143.634 140.203  1.00  0.00     0.293 HD
ENDBRANCH  20  23
ENDBRANCH  14  15
ENDBRANCH  12  14
ENDBRANCH   9  10
ENDBRANCH   1   9
TORSDOF 10
ENDMDL
MODEL 3
REMARK VINA RESULT:    -5.741      1.448      1.951
REMARK INTER + INTRA:          -9.954
REMARK INTER:                  -9.224
REMARK INTRA:                  -0.730
REMARK UNBOUND:                -1.024
REMARK SMILES COc1cc(CNC(=O)CCCCC=CC(C)C)ccc1O
REMARK SMILES IDX 11 1 12 2 13 3 14 4 15 5 16 6 17 7 18 8 10 9 8 10 9 11 7 12
REMARK SMILES IDX 6 14 5 15 4 16 19 17 3 18 20 19 21 20 2 21 1 22 22 23
REMARK H PARENT 7 13 22 24
REMARK Flexibility Score: inf
ROOT
ATOM      1  C   UNL     1     123.772 143.366 145.673  1.00  0.00     0.010 C 
ENDROOT
BRANCH   1   2
ATOM      2  C   UNL     1     123.591 144.018 147.053  1.00  0.00     0.005 C 
BRANCH   2   3
ATOM      3  C   UNL     1     123.848 143.036 148.206  1.00  0.00     0.027 C 
BRANCH   3   4
ATOM      4  C   UNL     1     123.559 143.680 149.533  1.00  0.00    -0.031 C 
ATOM      5  C   UNL     1     122.802 143.067 150.460  1.00  0.00    -0.028 C 
BRANCH   5   6
ATOM      6  C   UNL     1     122.490 143.687 151.804  1.00  0.00     0.005 C 
ATOM      7  C   UNL     1     122.392 142.619 152.899  1.00  0.00     0.012 C 
ATOM      8  C   UNL     1     123.511 144.770 152.173  1.00  0.00     0.012 C 
ENDBRANCH   5   6
ENDBRANCH   3   4
ENDBRANCH   2   3
ENDBRANCH   1   2
BRANCH   1   9
ATOM      9  C   UNL     1     122.484 142.710 145.159  1.00  0.00     0.100 C 
BRANCH   9  10
ATOM     10  C   UNL     1     122.476 142.698 143.661  1.00  0.00     0.220 C 
ATOM     11  O   UNL     1     121.746 141.868 143.051  1.00  0.00    -0.275 OA
ATOM     12  N   UNL     1     123.337 143.582 142.929  1.00  0.00    -0.352 N 
ATOM     13  H   UNL     1     123.911 144.277 143.457  1.00  0.00     0.163 HD
BRANCH  12  14
ATOM     14  C   UNL     1     123.609 143.409 141.505  1.00  0.00     0.151 C 
BRANCH  14  15
ATOM     15  C   UNL     1     125.093 143.317 141.281  1.00  0.00    -0.025 A 
ATOM     16  C   UNL     1     125.973 143.231 142.371  1.00  0.00     0.056 A 
ATOM     17  C   UNL     1     125.611 143.391 139.980  1.00  0.00     0.009 A 
ATOM     18  C   UNL     1     127.366 143.200 142.164  1.00  0.00     0.160 A 
ATOM     19  C   UNL     1     126.991 143.354 139.769  1.00  0.00     0.050 A 
ATOM     20  C   UNL     1     127.869 143.258 140.856  1.00  0.00     0.157 A 
BRANCH  18  21
ATOM     21  O   UNL     1     128.279 143.116 143.227  1.00  0.00    -0.493 OA
ATOM     22  C   UNL     1     128.626 141.910 143.899  1.00  0.00     0.278 C 
ENDBRANCH  18  21
BRANCH  20  23
ATOM     23  O   UNL     1     129.246 143.224 140.645  1.00  0.00    -0.504 OA
ATOM     24  H   UNL     1     129.673 143.680 139.847  1.00  0.00     0.293 HD
ENDBRANCH  20  23
ENDBRANCH  14  15
ENDBRANCH  12  14
ENDBRANCH   9  10
ENDBRANCH   1   9
TORSDOF 10
ENDMDL
MODEL 4
REMARK VINA RESULT:    -5.620      0.877      1.912
REMARK INTER + INTRA:          -9.765
REMARK INTER:                  -8.813
REMARK INTRA:                  -0.951
REMARK UNBOUND:                -1.024
REMARK SMILES COc1cc(CNC(=O)CCCCC=CC(C)C)ccc1O
REMARK SMILES IDX 11 1 12 2 13 3 14 4 15 5 16 6 17 7 18 8 10 9 8 10 9 11 7 12
REMARK SMILES IDX 6 14 5 15 4 16 19 17 3 18 20 19 21 20 2 21 1 22 22 23
REMARK H PARENT 7 13 22 24
REMARK Flexibility Score: inf
ROOT
ATOM      1  C   UNL     1     121.971 143.687 146.436  1.00  0.00     0.010 C 
ENDROOT
BRANCH   1   2
ATOM      2  C   UNL     1     123.420 144.058 146.784  1.00  0.00     0.005 C 
BRANCH   2   3
ATOM      3  C   UNL     1     123.949 143.286 148.002  1.00  0.00     0.027 C 
BRANCH   3   4
ATOM      4  C   UNL     1     123.402 143.861 149.280  1.00  0.00    -0.031 C 
ATOM      5  C   UNL     1     123.224 143.097 150.372  1.00  0.00    -0.028 C 
BRANCH   5   6
ATOM      6  C   UNL     1     122.674 143.642 151.671  1.00  0.00     0.005 C 
ATOM      7  C   UNL     1     122.587 142.547 152.741  1.00  0.00     0.012 C 
ATOM      8  C   UNL     1     123.492 144.841 152.168  1.00  0.00     0.012 C 
ENDBRANCH   5   6
ENDBRANCH   3   4
ENDBRANCH   2   3
ENDBRANCH   1   2
BRANCH   1   9
ATOM      9  C   UNL     1     121.590 144.081 145.002  1.00  0.00     0.100 C 
BRANCH   9  10
ATOM     10  C   UNL     1     122.162 143.096 144.030  1.00  0.00     0.220 C 
ATOM     11  O   UNL     1     121.738 141.907 144.031  1.00  0.00    -0.275 OA
ATOM     12  N   UNL     1     123.223 143.488 143.147  1.00  0.00    -0.352 N 
ATOM     13  H   UNL     1     123.537 144.484 143.148  1.00  0.00     0.163 HD
BRANCH  12  14
ATOM     14  C   UNL     1     124.026 142.516 142.410  1.00  0.00     0.151 C 
BRANCH  14  15
ATOM     15  C   UNL     1     125.347 142.323 143.103  1.00  0.00    -0.025 A 
ATOM     16  C   UNL     1     126.545 142.352 142.370  1.00  0.00     0.056 A 
ATOM     17  C   UNL     1     125.384 142.038 144.475  1.00  0.00     0.009 A 
ATOM     18  C   UNL     1     127.779 142.117 143.009  1.00  0.00     0.160 A 
ATOM     19  C   UNL     1     126.605 141.810 145.113  1.00  0.00     0.050 A 
ATOM     20  C   UNL     1     127.801 141.850 144.385  1.00  0.00     0.157 A 
BRANCH  18  21
ATOM     21  O   UNL     1     128.997 142.136 142.312  1.00  0.00    -0.493 OA
ATOM     22  C   UNL     1     129.340 143.093 141.315  1.00  0.00     0.278 C 
ENDBRANCH  18  21
BRANCH  20  23
ATOM     23  O   UNL     1     129.019 141.620 145.023  1.00  0.00    -0.504 OA
ATOM     24  H   UNL     1     129.702 140.973 144.645  1.00  0.00     0.293 HD
ENDBRANCH  20  23
ENDBRANCH  14  15
ENDBRANCH  12  14
ENDBRANCH   9  10
ENDBRANCH   1   9
TORSDOF 10
ENDMDL
MODEL 5
REMARK VINA RESULT:    -5.550      2.545      6.452
REMARK INTER + INTRA:          -9.656
REMARK INTER:                  -8.204
REMARK INTRA:                  -1.451
REMARK UNBOUND:                -1.024
REMARK SMILES COc1cc(CNC(=O)CCCCC=CC(C)C)ccc1O
REMARK SMILES IDX 11 1 12 2 13 3 14 4 15 5 16 6 17 7 18 8 10 9 8 10 9 11 7 12
REMARK SMILES IDX 6 14 5 15 4 16 19 17 3 18 20 19 21 20 2 21 1 22 22 23
REMARK H PARENT 7 13 22 24
REMARK Flexibility Score: inf
ROOT
ATOM      1  C   UNL     1     126.570 142.759 142.085  1.00  0.00     0.010 C 
ENDROOT
BRANCH   1   2
ATOM      2  C   UNL     1     127.675 141.743 142.412  1.00  0.00     0.005 C 
BRANCH   2   3
ATOM      3  C   UNL     1     128.671 142.273 143.454  1.00  0.00     0.027 C 
BRANCH   3   4
ATOM      4  C   UNL     1     128.745 141.354 144.642  1.00  0.00    -0.031 C 
ATOM      5  C   UNL     1     127.729 141.260 145.519  1.00  0.00    -0.028 C 
BRANCH   5   6
ATOM      6  C   UNL     1     127.771 140.348 146.724  1.00  0.00     0.005 C 
ATOM      7  C   UNL     1     126.941 139.080 146.491  1.00  0.00     0.012 C 
ATOM      8  C   UNL     1     129.213 140.004 147.119  1.00  0.00     0.012 C 
ENDBRANCH   5   6
ENDBRANCH   3   4
ENDBRANCH   2   3
ENDBRANCH   1   2
BRANCH   1   9
ATOM      9  C   UNL     1     126.427 143.842 143.164  1.00  0.00     0.100 C 
BRANCH   9  10
ATOM     10  C   UNL     1     125.144 143.653 143.914  1.00  0.00     0.220 C 
ATOM     11  O   UNL     1     124.111 143.281 143.292  1.00  0.00    -0.275 OA
ATOM     12  N   UNL     1     125.079 143.951 145.316  1.00  0.00    -0.352 N 
ATOM     13  H   UNL     1     125.954 144.232 145.812  1.00  0.00     0.163 HD
BRANCH  12  14
ATOM     14  C   UNL     1     123.812 144.091 146.028  1.00  0.00     0.151 C 
BRANCH  14  15
ATOM     15  C   UNL     1     123.874 143.332 147.325  1.00  0.00    -0.025 A 
ATOM     16  C   UNL     1     123.309 143.871 148.491  1.00  0.00     0.056 A 
ATOM     17  C   UNL     1     124.564 142.113 147.392  1.00  0.00     0.009 A 
ATOM     18  C   UNL     1     123.414 143.186 149.718  1.00  0.00     0.160 A 
ATOM     19  C   UNL     1     124.666 141.428 148.604  1.00  0.00     0.050 A 
ATOM     20  C   UNL     1     124.093 141.960 149.766  1.00  0.00     0.157 A 
BRANCH  18  21
ATOM     21  O   UNL     1     122.864 143.692 150.906  1.00  0.00    -0.493 OA
ATOM     22  C   UNL     1     123.505 144.641 151.751  1.00  0.00     0.278 C 
ENDBRANCH  18  21
BRANCH  20  23
ATOM     23  O   UNL     1     124.197 141.276 150.976  1.00  0.00    -0.504 OA
ATOM     24  H   UNL     1     124.338 141.766 151.852  1.00  0.00     0.293 HD
ENDBRANCH  20  23
ENDBRANCH  14  15
ENDBRANCH  12  14
ENDBRANCH   9  10
ENDBRANCH   1   9
TORSDOF 10
ENDMDL
MODEL 6
REMARK VINA RESULT:    -5.453      2.560      3.724
REMARK INTER + INTRA:          -9.505
REMARK INTER:                  -8.474
REMARK INTRA:                  -1.031
REMARK UNBOUND:                -1.024
REMARK SMILES COc1cc(CNC(=O)CCCCC=CC(C)C)ccc1O
REMARK SMILES IDX 11 1 12 2 13 3 14 4 15 5 16 6 17 7 18 8 10 9 8 10 9 11 7 12
REMARK SMILES IDX 6 14 5 15 4 16 19 17 3 18 20 19 21 20 2 21 1 22 22 23
REMARK H PARENT 7 13 22 24
REMARK Flexibility Score: inf
ROOT
ATOM      1  C   UNL     1     124.479 141.190 147.535  1.00  0.00     0.010 C 
ENDROOT
BRANCH   1   2
ATOM      2  C   UNL     1     124.886 142.642 147.830  1.00  0.00     0.005 C 
BRANCH   2   3
ATOM      3  C   UNL     1     123.674 143.575 147.974  1.00  0.00     0.027 C 
BRANCH   3   4
ATOM      4  C   UNL     1     123.495 144.005 149.405  1.00  0.00    -0.031 C 
ATOM      5  C   UNL     1     122.809 143.252 150.282  1.00  0.00    -0.028 C 
BRANCH   5   6
ATOM      6  C   UNL     1     122.609 143.655 151.726  1.00  0.00     0.005 C 
ATOM      7  C   UNL     1     122.720 142.445 152.661  1.00  0.00     0.012 C 
ATOM      8  C   UNL     1     123.581 144.767 152.138  1.00  0.00     0.012 C 
ENDBRANCH   5   6
ENDBRANCH   3   4
ENDBRANCH   2   3
ENDBRANCH   1   2
BRANCH   1   9
ATOM      9  C   UNL     1     125.317 140.173 148.321  1.00  0.00     0.100 C 
BRANCH   9  10
ATOM     10  C   UNL     1     126.471 139.706 147.489  1.00  0.00     0.220 C 
ATOM     11  O   UNL     1     127.442 139.123 148.046  1.00  0.00    -0.275 OA
ATOM     12  N   UNL     1     126.497 139.972 146.079  1.00  0.00    -0.352 N 
ATOM     13  H   UNL     1     125.669 140.432 145.638  1.00  0.00     0.163 HD
BRANCH  12  14
ATOM     14  C   UNL     1     127.709 139.828 145.278  1.00  0.00     0.151 C 
BRANCH  14  15
ATOM     15  C   UNL     1     127.779 140.936 144.263  1.00  0.00    -0.025 A 
ATOM     16  C   UNL     1     126.999 142.093 144.419  1.00  0.00     0.056 A 
ATOM     17  C   UNL     1     128.570 140.787 143.115  1.00  0.00     0.009 A 
ATOM     18  C   UNL     1     127.023 143.108 143.442  1.00  0.00     0.160 A 
ATOM     19  C   UNL     1     128.602 141.792 142.147  1.00  0.00     0.050 A 
ATOM     20  C   UNL     1     127.832 142.951 142.307  1.00  0.00     0.157 A 
BRANCH  18  21
ATOM     21  O   UNL     1     126.257 144.278 143.560  1.00  0.00    -0.493 OA
ATOM     22  C   UNL     1     125.537 144.656 144.729  1.00  0.00     0.278 C 
ENDBRANCH  18  21
BRANCH  20  23
ATOM     23  O   UNL     1     127.862 143.953 141.338  1.00  0.00    -0.504 OA
ATOM     24  H   UNL     1     127.210 144.729 141.357  1.00  0.00     0.293 HD
ENDBRANCH  20  23
ENDBRANCH  14  15
ENDBRANCH  12  14
ENDBRANCH   9  10
ENDBRANCH   1   9
TORSDOF 10
ENDMDL
MODEL 7
REMARK VINA RESULT:    -5.393      2.177      3.850
REMARK INTER + INTRA:          -9.413
REMARK INTER:                  -8.728
REMARK INTRA:                  -0.685
REMARK UNBOUND:                -1.024
REMARK SMILES COc1cc(CNC(=O)CCCCC=CC(C)C)ccc1O
REMARK SMILES IDX 11 1 12 2 13 3 14 4 15 5 16 6 17 7 18 8 10 9 8 10 9 11 7 12
REMARK SMILES IDX 6 14 5 15 4 16 19 17 3 18 20 19 21 20 2 21 1 22 22 23
REMARK H PARENT 7 13 22 24
REMARK Flexibility Score: inf
ROOT
ATOM      1  C   UNL     1     124.580 142.047 147.128  1.00  0.00     0.010 C 
ENDROOT
BRANCH   1   2
ATOM      2  C   UNL     1     124.119 143.502 147.312  1.00  0.00     0.005 C 
BRANCH   2   3
ATOM      3  C   UNL     1     123.025 143.642 148.380  1.00  0.00     0.027 C 
BRANCH   3   4
ATOM      4  C   UNL     1     123.534 143.214 149.729  1.00  0.00    -0.031 C 
ATOM      5  C   UNL     1     122.763 143.296 150.828  1.00  0.00    -0.028 C 
BRANCH   5   6
ATOM      6  C   UNL     1     123.244 142.876 152.199  1.00  0.00     0.005 C 
ATOM      7  C   UNL     1     123.996 144.016 152.896  1.00  0.00     0.012 C 
ATOM      8  C   UNL     1     122.090 142.360 153.065  1.00  0.00     0.012 C 
ENDBRANCH   5   6
ENDBRANCH   3   4
ENDBRANCH   2   3
ENDBRANCH   1   2
BRANCH   1   9
ATOM      9  C   UNL     1     126.087 141.874 147.356  1.00  0.00     0.100 C 
BRANCH   9  10
ATOM     10  C   UNL     1     126.759 141.486 146.074  1.00  0.00     0.220 C 
ATOM     11  O   UNL     1     127.088 140.282 145.887  1.00  0.00    -0.275 OA
ATOM     12  N   UNL     1     127.076 142.486 145.096  1.00  0.00    -0.352 N 
ATOM     13  H   UNL     1     126.769 143.470 145.264  1.00  0.00     0.163 HD
BRANCH  12  14
ATOM     14  C   UNL     1     127.993 142.234 143.988  1.00  0.00     0.151 C 
BRANCH  14  15
ATOM     15  C   UNL     1     127.369 142.692 142.699  1.00  0.00    -0.025 A 
ATOM     16  C   UNL     1     125.976 142.830 142.594  1.00  0.00     0.056 A 
ATOM     17  C   UNL     1     128.172 142.913 141.571  1.00  0.00     0.009 A 
ATOM     18  C   UNL     1     125.385 143.207 141.371  1.00  0.00     0.160 A 
ATOM     19  C   UNL     1     127.592 143.292 140.358  1.00  0.00     0.050 A 
ATOM     20  C   UNL     1     126.203 143.440 140.255  1.00  0.00     0.157 A 
BRANCH  18  21
ATOM     21  O   UNL     1     123.998 143.354 141.225  1.00  0.00    -0.493 OA
ATOM     22  C   UNL     1     123.043 143.035 142.231  1.00  0.00     0.278 C 
ENDBRANCH  18  21
BRANCH  20  23
ATOM     23  O   UNL     1     125.625 143.816 139.044  1.00  0.00    -0.504 OA
ATOM     24  H   UNL     1     125.118 144.688 138.946  1.00  0.00     0.293 HD
ENDBRANCH  20  23
ENDBRANCH  14  15
ENDBRANCH  12  14
ENDBRANCH   9  10
ENDBRANCH   1   9
TORSDOF 10
ENDMDL
MODEL 8
REMARK VINA RESULT:    -5.312      2.537      4.808
REMARK INTER + INTRA:          -9.286
REMARK INTER:                  -7.985
REMARK INTRA:                  -1.301
REMARK UNBOUND:                -1.024
REMARK SMILES COc1cc(CNC(=O)CCCCC=CC(C)C)ccc1O
REMARK SMILES IDX 11 1 12 2 13 3 14 4 15 5 16 6 17 7 18 8 10 9 8 10 9 11 7 12
REMARK SMILES IDX 6 14 5 15 4 16 19 17 3 18 20 19 21 20 2 21 1 22 22 23
REMARK H PARENT 7 13 22 24
REMARK Flexibility Score: inf
ROOT
ATOM      1  C   UNL     1     123.284 143.474 147.517  1.00  0.00     0.010 C 
ENDROOT
BRANCH   1   2
ATOM      2  C   UNL     1     124.690 143.291 146.926  1.00  0.00     0.005 C 
BRANCH   2   3
ATOM      3  C   UNL     1     125.296 141.921 147.262  1.00  0.00     0.027 C 
BRANCH   3   4
ATOM      4  C   UNL     1     126.585 141.707 146.518  1.00  0.00    -0.031 C 
ATOM      5  C   UNL     1     127.444 140.733 146.869  1.00  0.00    -0.028 C 
BRANCH   5   6
ATOM      6  C   UNL     1     128.749 140.492 146.145  1.00  0.00     0.005 C 
ATOM      7  C   UNL     1     128.800 141.264 144.821  1.00  0.00     0.012 C 
ATOM      8  C   UNL     1     129.954 140.830 147.031  1.00  0.00     0.012 C 
ENDBRANCH   5   6
ENDBRANCH   3   4
ENDBRANCH   2   3
ENDBRANCH   1   2
BRANCH   1   9
ATOM      9  C   UNL     1     122.278 144.008 146.488  1.00  0.00     0.100 C 
BRANCH   9  10
ATOM     10  C   UNL     1     122.282 143.141 145.267  1.00  0.00     0.220 C 
ATOM     11  O   UNL     1     121.992 141.917 145.374  1.00  0.00    -0.275 OA
ATOM     12  N   UNL     1     122.671 143.686 143.998  1.00  0.00    -0.352 N 
ATOM     13  H   UNL     1     122.880 144.707 143.931  1.00  0.00     0.163 HD
BRANCH  12  14
ATOM     14  C   UNL     1     122.997 142.842 142.851  1.00  0.00     0.151 C 
BRANCH  14  15
ATOM     15  C   UNL     1     124.386 143.159 142.369  1.00  0.00    -0.025 A 
ATOM     16  C   UNL     1     124.682 143.143 140.996  1.00  0.00     0.056 A 
ATOM     17  C   UNL     1     125.412 143.398 143.294  1.00  0.00     0.009 A 
ATOM     18  C   UNL     1     125.996 143.386 140.547  1.00  0.00     0.160 A 
ATOM     19  C   UNL     1     126.713 143.645 142.853  1.00  0.00     0.050 A 
ATOM     20  C   UNL     1     127.008 143.640 141.483  1.00  0.00     0.157 A 
BRANCH  18  21
ATOM     21  O   UNL     1     126.333 143.379 139.184  1.00  0.00    -0.493 OA
ATOM     22  C   UNL     1     125.887 142.402 138.249  1.00  0.00     0.278 C 
ENDBRANCH  18  21
BRANCH  20  23
ATOM     23  O   UNL     1     128.308 143.884 141.044  1.00  0.00    -0.504 OA
ATOM     24  H   UNL     1     128.630 143.567 140.138  1.00  0.00     0.293 HD
ENDBRANCH  20  23
ENDBRANCH  14  15
ENDBRANCH  12  14
ENDBRANCH   9  10
ENDBRANCH   1   9
TORSDOF 10
ENDMDL
MODEL 9
REMARK VINA RESULT:    -5.247     11.468     15.089
REMARK INTER + INTRA:          -9.185
REMARK INTER:                  -8.135
REMARK INTRA:                  -1.050
REMARK UNBOUND:                -1.024
REMARK SMILES COc1cc(CNC(=O)CCCCC=CC(C)C)ccc1O
REMARK SMILES IDX 11 1 12 2 13 3 14 4 15 5 16 6 17 7 18 8 10 9 8 10 9 11 7 12
REMARK SMILES IDX 6 14 5 15 4 16 19 17 3 18 20 19 21 20 2 21 1 22 22 23
REMARK H PARENT 7 13 22 24
REMARK Flexibility Score: inf
ROOT
ATOM      1  C   UNL     1     138.057 145.819 144.179  1.00  0.00     0.010 C 
ENDROOT
BRANCH   1   2
ATOM      2  C   UNL     1     136.883 145.717 145.165  1.00  0.00     0.005 C 
BRANCH   2   3
ATOM      3  C   UNL     1     136.070 144.427 144.979  1.00  0.00     0.027 C 
BRANCH   3   4
ATOM      4  C   UNL     1     135.317 144.450 143.677  1.00  0.00    -0.031 C 
ATOM      5  C   UNL     1     134.191 145.169 143.532  1.00  0.00    -0.028 C 
BRANCH   5   6
ATOM      6  C   UNL     1     133.409 145.213 142.238  1.00  0.00     0.005 C 
ATOM      7  C   UNL     1     134.289 145.680 141.072  1.00  0.00     0.012 C 
ATOM      8  C   UNL     1     132.754 143.860 141.932  1.00  0.00     0.012 C 
ENDBRANCH   5   6
ENDBRANCH   3   4
ENDBRANCH   2   3
ENDBRANCH   1   2
BRANCH   1   9
ATOM      9  C   UNL     1     137.944 147.037 143.253  1.00  0.00     0.100 C 
BRANCH   9  10
ATOM     10  C   UNL     1     137.834 146.590 141.828  1.00  0.00     0.220 C 
ATOM     11  O   UNL     1     137.900 145.360 141.557  1.00  0.00    -0.275 OA
ATOM     12  N   UNL     1     137.714 147.559 140.776  1.00  0.00    -0.352 N 
ATOM     13  H   UNL     1     137.636 148.570 141.029  1.00  0.00     0.163 HD
BRANCH  12  14
ATOM     14  C   UNL     1     137.917 147.218 139.371  1.00  0.00     0.151 C 
BRANCH  14  15
ATOM     15  C   UNL     1     137.838 148.463 138.531  1.00  0.00    -0.025 A 
ATOM     16  C   UNL     1     137.935 149.730 139.128  1.00  0.00     0.056 A 
ATOM     17  C   UNL     1     137.591 148.366 137.155  1.00  0.00     0.009 A 
ATOM     18  C   UNL     1     137.806 150.898 138.350  1.00  0.00     0.160 A 
ATOM     19  C   UNL     1     137.469 149.519 136.378  1.00  0.00     0.050 A 
ATOM     20  C   UNL     1     137.576 150.784 136.971  1.00  0.00     0.157 A 
BRANCH  18  21
ATOM     21  O   UNL     1     137.895 152.182 138.908  1.00  0.00    -0.493 OA
ATOM     22  C   UNL     1     136.799 152.895 139.471  1.00  0.00     0.278 C 
ENDBRANCH  18  21
BRANCH  20  23
ATOM     23  O   UNL     1     137.451 151.936 136.196  1.00  0.00    -0.504 OA
ATOM     24  H   UNL     1     137.313 152.847 136.617  1.00  0.00     0.293 HD
ENDBRANCH  20  23
ENDBRANCH  14  15
ENDBRANCH  12  14
ENDBRANCH   9  10
ENDBRANCH   1   9
TORSDOF 10
ENDMDL
