MODEL 1
REMARK VINA RESULT:    -4.313      0.000      0.000
REMARK INTER + INTRA:          -8.134
REMARK INTER:                  -6.834
REMARK INTRA:                  -1.300
REMARK UNBOUND:                -1.300
REMARK SMILES CCCCCCCCCCCC(=O)[O-]
REMARK SMILES IDX 7 1 8 2 9 3 10 4 11 5 12 6 13 7 14 8 6 9 5 10 4 11 3 12 2 13
REMARK SMILES IDX 1 14
REMARK H PARENT
REMARK Flexibility Score: inf
ROOT
ATOM      1  C   UNL     1      21.107  -5.269  34.350  1.00  0.00     0.000 C 
ENDROOT
BRANCH   1   2
ATOM      2  C   UNL     1      22.240  -5.147  33.317  1.00  0.00     0.000 C 
BRANCH   2   3
ATOM      3  C   UNL     1      22.257  -6.245  32.235  1.00  0.00     0.000 C 
BRANCH   3   4
ATOM      4  C   UNL     1      22.214  -5.732  30.784  1.00  0.00     0.006 C 
BRANCH   4   5
ATOM      5  C   UNL     1      21.083  -6.364  29.963  1.00  0.00     0.053 C 
BRANCH   5   6
ATOM      6  C   UNL     1      19.757  -6.073  30.593  1.00  0.00     0.041 C 
ATOM      7  O   UNL     1      19.264  -4.917  30.525  1.00  0.00    -0.550 OA
ATOM      8  O   UNL     1      19.044  -7.091  31.213  1.00  0.00    -0.550 OA
ENDBRANCH   5   6
ENDBRANCH   4   5
ENDBRANCH   3   4
ENDBRANCH   2   3
ENDBRANCH   1   2
BRANCH   1   9
ATOM      9  C   UNL     1      19.890  -4.393  34.005  1.00  0.00     0.000 C 
BRANCH   9  10
ATOM     10  C   UNL     1      20.289  -3.048  33.380  1.00  0.00    -0.000 C 
BRANCH  10  11
ATOM     11  C   UNL     1      20.056  -1.861  34.332  1.00  0.00    -0.000 C 
BRANCH  11  12
ATOM     12  C   UNL     1      21.380  -1.233  34.815  1.00  0.00    -0.000 C 
BRANCH  12  13
ATOM     13  C   UNL     1      21.996  -1.951  36.026  1.00  0.00    -0.003 C 
ATOM     14  C   UNL     1      23.356  -2.577  35.722  1.00  0.00     0.004 C 
ENDBRANCH  12  13
ENDBRANCH  11  12
ENDBRANCH  10  11
ENDBRANCH   9  10
ENDBRANCH   1   9
TORSDOF 10
ENDMDL
MODEL 2
REMARK VINA RESULT:    -4.294     12.790     14.064
REMARK INTER + INTRA:          -8.105
REMARK INTER:                  -7.676
REMARK INTRA:                  -0.429
REMARK UNBOUND:                -1.300
REMARK SMILES CCCCCCCCCCCC(=O)[O-]
REMARK SMILES IDX 7 1 8 2 9 3 10 4 11 5 12 6 13 7 14 8 6 9 5 10 4 11 3 12 2 13
REMARK SMILES IDX 1 14
REMARK H PARENT
REMARK Flexibility Score: inf
ROOT
ATOM      1  C   UNL     1      14.762   2.205  41.321  1.00  0.00     0.000 C 
ENDROOT
BRANCH   1   2
ATOM      2  C   UNL     1      13.235   2.090  41.173  1.00  0.00     0.000 C 
BRANCH   2   3
ATOM      3  C   UNL     1      12.673   2.566  39.819  1.00  0.00     0.000 C 
BRANCH   3   4
ATOM      4  C   UNL     1      12.954   4.041  39.478  1.00  0.00     0.006 C 
BRANCH   4   5
ATOM      5  C   UNL     1      11.768   4.961  39.790  1.00  0.00     0.053 C 
BRANCH   5   6
ATOM      6  C   UNL     1      12.247   6.350  40.073  1.00  0.00     0.041 C 
ATOM      7  O   UNL     1      12.967   6.955  39.235  1.00  0.00    -0.550 OA
ATOM      8  O   UNL     1      11.859   6.995  41.240  1.00  0.00    -0.550 OA
ENDBRANCH   5   6
ENDBRANCH   4   5
ENDBRANCH   3   4
ENDBRANCH   2   3
ENDBRANCH   1   2
BRANCH   1   9
ATOM      9  C   UNL     1      15.262   1.750  42.703  1.00  0.00     0.000 C 
BRANCH   9  10
ATOM     10  C   UNL     1      14.648   0.412  43.142  1.00  0.00    -0.000 C 
BRANCH  10  11
ATOM     11  C   UNL     1      15.686  -0.543  43.756  1.00  0.00    -0.000 C 
BRANCH  11  12
ATOM     12  C   UNL     1      16.254  -0.009  45.088  1.00  0.00    -0.000 C 
BRANCH  12  13
ATOM     13  C   UNL     1      17.617  -0.614  45.462  1.00  0.00    -0.003 C 
ATOM     14  C   UNL     1      18.415  -1.089  44.249  1.00  0.00     0.004 C 
ENDBRANCH  12  13
ENDBRANCH  11  12
ENDBRANCH  10  11
ENDBRANCH   9  10
ENDBRANCH   1   9
TORSDOF 10
ENDMDL
MODEL 3
REMARK VINA RESULT:    -4.259     12.836     14.395
REMARK INTER + INTRA:          -8.049
REMARK INTER:                  -6.950
REMARK INTRA:                  -1.098
REMARK UNBOUND:                -1.300
REMARK SMILES CCCCCCCCCCCC(=O)[O-]
REMARK SMILES IDX 7 1 8 2 9 3 10 4 11 5 12 6 13 7 14 8 6 9 5 10 4 11 3 12 2 13
REMARK SMILES IDX 1 14
REMARK H PARENT
REMARK Flexibility Score: inf
ROOT
ATOM      1  C   UNL     1      11.477   1.888  38.538  1.00  0.00     0.000 C 
ENDROOT
BRANCH   1   2
ATOM      2  C   UNL     1      12.361   3.117  38.270  1.00  0.00     0.000 C 
BRANCH   2   3
ATOM      3  C   UNL     1      13.148   3.634  39.492  1.00  0.00     0.000 C 
BRANCH   3   4
ATOM      4  C   UNL     1      12.374   4.601  40.405  1.00  0.00     0.006 C 
BRANCH   4   5
ATOM      5  C   UNL     1      11.373   5.473  39.636  1.00  0.00     0.053 C 
BRANCH   5   6
ATOM      6  C   UNL     1      11.708   6.922  39.804  1.00  0.00     0.041 C 
ATOM      7  O   UNL     1      12.711   7.412  39.221  1.00  0.00    -0.550 OA
ATOM      8  O   UNL     1      10.886   7.742  40.566  1.00  0.00    -0.550 OA
ENDBRANCH   5   6
ENDBRANCH   4   5
ENDBRANCH   3   4
ENDBRANCH   2   3
ENDBRANCH   1   2
BRANCH   1   9
ATOM      9  C   UNL     1      12.205   0.793  39.338  1.00  0.00     0.000 C 
BRANCH   9  10
ATOM     10  C   UNL     1      11.625   0.607  40.748  1.00  0.00    -0.000 C 
BRANCH  10  11
ATOM     11  C   UNL     1      12.681   0.145  41.767  1.00  0.00    -0.000 C 
BRANCH  11  12
ATOM     12  C   UNL     1      13.240   1.317  42.600  1.00  0.00    -0.000 C 
BRANCH  12  13
ATOM     13  C   UNL     1      14.760   1.246  42.820  1.00  0.00    -0.003 C 
ATOM     14  C   UNL     1      15.561   1.840  41.662  1.00  0.00     0.004 C 
ENDBRANCH  12  13
ENDBRANCH  11  12
ENDBRANCH  10  11
ENDBRANCH   9  10
ENDBRANCH   1   9
TORSDOF 10
ENDMDL
MODEL 4
REMARK VINA RESULT:    -4.239      5.889      7.480
REMARK INTER + INTRA:          -8.018
REMARK INTER:                  -7.607
REMARK INTRA:                  -0.411
REMARK UNBOUND:                -1.300
REMARK SMILES CCCCCCCCCCCC(=O)[O-]
REMARK SMILES IDX 7 1 8 2 9 3 10 4 11 5 12 6 13 7 14 8 6 9 5 10 4 11 3 12 2 13
REMARK SMILES IDX 1 14
REMARK H PARENT
REMARK Flexibility Score: inf
ROOT
ATOM      1  C   UNL     1      22.806  -4.361  36.442  1.00  0.00     0.000 C 
ENDROOT
BRANCH   1   2
ATOM      2  C   UNL     1      23.852  -4.918  37.422  1.00  0.00     0.000 C 
BRANCH   2   3
ATOM      3  C   UNL     1      23.387  -5.008  38.890  1.00  0.00     0.000 C 
BRANCH   3   4
ATOM      4  C   UNL     1      24.094  -6.085  39.733  1.00  0.00     0.006 C 
BRANCH   4   5
ATOM      5  C   UNL     1      25.318  -5.545  40.484  1.00  0.00     0.053 C 
BRANCH   5   6
ATOM      6  C   UNL     1      26.578  -5.962  39.793  1.00  0.00     0.041 C 
ATOM      7  O   UNL     1      27.356  -5.094  39.317  1.00  0.00    -0.550 OA
ATOM      8  O   UNL     1      26.918  -7.306  39.718  1.00  0.00    -0.550 OA
ENDBRANCH   5   6
ENDBRANCH   4   5
ENDBRANCH   3   4
ENDBRANCH   2   3
ENDBRANCH   1   2
BRANCH   1   9
ATOM      9  C   UNL     1      23.230  -3.019  35.818  1.00  0.00     0.000 C 
BRANCH   9  10
ATOM     10  C   UNL     1      22.930  -1.822  36.733  1.00  0.00    -0.000 C 
BRANCH  10  11
ATOM     11  C   UNL     1      23.116  -0.471  36.020  1.00  0.00    -0.000 C 
BRANCH  11  12
ATOM     12  C   UNL     1      21.925  -0.127  35.102  1.00  0.00    -0.000 C 
BRANCH  12  13
ATOM     13  C   UNL     1      21.802   1.372  34.787  1.00  0.00    -0.003 C 
ATOM     14  C   UNL     1      23.140   2.021  34.435  1.00  0.00     0.004 C 
ENDBRANCH  12  13
ENDBRANCH  11  12
ENDBRANCH  10  11
ENDBRANCH   9  10
ENDBRANCH   1   9
TORSDOF 10
ENDMDL
MODEL 5
REMARK VINA RESULT:    -4.235      4.854      7.613
REMARK INTER + INTRA:          -8.010
REMARK INTER:                  -7.128
REMARK INTRA:                  -0.883
REMARK UNBOUND:                -1.300
REMARK SMILES CCCCCCCCCCCC(=O)[O-]
REMARK SMILES IDX 7 1 8 2 9 3 10 4 11 5 12 6 13 7 14 8 6 9 5 10 4 11 3 12 2 13
REMARK SMILES IDX 1 14
REMARK H PARENT
REMARK Flexibility Score: inf
ROOT
ATOM      1  C   UNL     1      22.751  -0.845  36.196  1.00  0.00     0.000 C 
ENDROOT
BRANCH   1   2
ATOM      2  C   UNL     1      21.685  -0.170  35.316  1.00  0.00     0.000 C 
BRANCH   2   3
ATOM      3  C   UNL     1      22.175   1.063  34.529  1.00  0.00     0.000 C 
BRANCH   3   4
ATOM      4  C   UNL     1      21.789   2.422  35.141  1.00  0.00     0.006 C 
BRANCH   4   5
ATOM      5  C   UNL     1      20.482   2.366  35.941  1.00  0.00     0.053 C 
BRANCH   5   6
ATOM      6  C   UNL     1      20.683   2.940  37.308  1.00  0.00     0.041 C 
ATOM      7  O   UNL     1      20.516   2.220  38.328  1.00  0.00    -0.550 OA
ATOM      8  O   UNL     1      21.100   4.256  37.455  1.00  0.00    -0.550 OA
ENDBRANCH   5   6
ENDBRANCH   4   5
ENDBRANCH   3   4
ENDBRANCH   2   3
ENDBRANCH   1   2
BRANCH   1   9
ATOM      9  C   UNL     1      23.328  -2.120  35.558  1.00  0.00     0.000 C 
BRANCH   9  10
ATOM     10  C   UNL     1      23.199  -3.348  36.472  1.00  0.00    -0.000 C 
BRANCH  10  11
ATOM     11  C   UNL     1      22.323  -4.454  35.856  1.00  0.00    -0.000 C 
BRANCH  11  12
ATOM     12  C   UNL     1      21.941  -4.148  34.393  1.00  0.00    -0.000 C 
BRANCH  12  13
ATOM     13  C   UNL     1      20.431  -3.955  34.179  1.00  0.00    -0.003 C 
ATOM     14  C   UNL     1      20.104  -2.811  33.221  1.00  0.00     0.004 C 
ENDBRANCH  12  13
ENDBRANCH  11  12
ENDBRANCH  10  11
ENDBRANCH   9  10
ENDBRANCH   1   9
TORSDOF 10
ENDMDL
MODEL 6
REMARK VINA RESULT:    -4.208      1.568      2.287
REMARK INTER + INTRA:          -7.968
REMARK INTER:                  -7.103
REMARK INTRA:                  -0.865
REMARK UNBOUND:                -1.300
REMARK SMILES CCCCCCCCCCCC(=O)[O-]
REMARK SMILES IDX 7 1 8 2 9 3 10 4 11 5 12 6 13 7 14 8 6 9 5 10 4 11 3 12 2 13
REMARK SMILES IDX 1 14
REMARK H PARENT
REMARK Flexibility Score: inf
ROOT
ATOM      1  C   UNL     1      21.923  -6.622  33.142  1.00  0.00     0.000 C 
ENDROOT
BRANCH   1   2
ATOM      2  C   UNL     1      22.631  -5.754  32.088  1.00  0.00     0.000 C 
BRANCH   2   3
ATOM      3  C   UNL     1      22.128  -5.944  30.642  1.00  0.00     0.000 C 
BRANCH   3   4
ATOM      4  C   UNL     1      20.682  -6.457  30.518  1.00  0.00     0.006 C 
BRANCH   4   5
ATOM      5  C   UNL     1      19.710  -5.383  30.013  1.00  0.00     0.053 C 
BRANCH   5   6
ATOM      6  C   UNL     1      19.309  -4.475  31.133  1.00  0.00     0.041 C 
ATOM      7  O   UNL     1      18.729  -4.941  32.149  1.00  0.00    -0.550 OA
ATOM      8  O   UNL     1      19.618  -3.122  31.076  1.00  0.00    -0.550 OA
ENDBRANCH   5   6
ENDBRANCH   4   5
ENDBRANCH   3   4
ENDBRANCH   2   3
ENDBRANCH   1   2
BRANCH   1   9
ATOM      9  C   UNL     1      21.414  -5.804  34.342  1.00  0.00     0.000 C 
BRANCH   9  10
ATOM     10  C   UNL     1      21.978  -4.375  34.364  1.00  0.00    -0.000 C 
BRANCH  10  11
ATOM     11  C   UNL     1      22.574  -3.994  35.731  1.00  0.00    -0.000 C 
BRANCH  11  12
ATOM     12  C   UNL     1      23.426  -2.710  35.658  1.00  0.00    -0.000 C 
BRANCH  12  13
ATOM     13  C   UNL     1      22.804  -1.516  36.401  1.00  0.00    -0.003 C 
ATOM     14  C   UNL     1      22.376  -0.386  35.467  1.00  0.00     0.004 C 
ENDBRANCH  12  13
ENDBRANCH  11  12
ENDBRANCH  10  11
ENDBRANCH   9  10
ENDBRANCH   1   9
TORSDOF 10
ENDMDL
MODEL 7
REMARK VINA RESULT:    -4.197      2.550      4.342
REMARK INTER + INTRA:          -7.951
REMARK INTER:                  -6.342
REMARK INTRA:                  -1.608
REMARK UNBOUND:                -1.300
REMARK SMILES CCCCCCCCCCCC(=O)[O-]
REMARK SMILES IDX 7 1 8 2 9 3 10 4 11 5 12 6 13 7 14 8 6 9 5 10 4 11 3 12 2 13
REMARK SMILES IDX 1 14
REMARK H PARENT
REMARK Flexibility Score: inf
ROOT
ATOM      1  C   UNL     1      22.560  -6.433  32.115  1.00  0.00     0.000 C 
ENDROOT
BRANCH   1   2
ATOM      2  C   UNL     1      22.273  -5.560  33.349  1.00  0.00     0.000 C 
BRANCH   2   3
ATOM      3  C   UNL     1      20.958  -5.884  34.086  1.00  0.00     0.000 C 
BRANCH   3   4
ATOM      4  C   UNL     1      20.216  -7.134  33.578  1.00  0.00     0.006 C 
BRANCH   4   5
ATOM      5  C   UNL     1      18.705  -7.073  33.830  1.00  0.00     0.053 C 
BRANCH   5   6
ATOM      6  C   UNL     1      17.994  -8.078  32.979  1.00  0.00     0.041 C 
ATOM      7  O   UNL     1      18.451  -8.386  31.847  1.00  0.00    -0.550 OA
ATOM      8  O   UNL     1      16.853  -8.710  33.456  1.00  0.00    -0.550 OA
ENDBRANCH   5   6
ENDBRANCH   4   5
ENDBRANCH   3   4
ENDBRANCH   2   3
ENDBRANCH   1   2
BRANCH   1   9
ATOM      9  C   UNL     1      22.193  -5.735  30.794  1.00  0.00     0.000 C 
BRANCH   9  10
ATOM     10  C   UNL     1      20.991  -6.388  30.095  1.00  0.00    -0.000 C 
BRANCH  10  11
ATOM     11  C   UNL     1      19.711  -5.540  30.201  1.00  0.00    -0.000 C 
BRANCH  11  12
ATOM     12  C   UNL     1      20.000  -4.108  30.697  1.00  0.00    -0.000 C 
BRANCH  12  13
ATOM     13  C   UNL     1      19.138  -3.688  31.899  1.00  0.00    -0.003 C 
ATOM     14  C   UNL     1      17.726  -4.270  31.856  1.00  0.00     0.004 C 
ENDBRANCH  12  13
ENDBRANCH  11  12
ENDBRANCH  10  11
ENDBRANCH   9  10
ENDBRANCH   1   9
TORSDOF 10
ENDMDL
MODEL 8
REMARK VINA RESULT:    -4.170      2.353      3.875
REMARK INTER + INTRA:          -7.908
REMARK INTER:                  -6.634
REMARK INTRA:                  -1.274
REMARK UNBOUND:                -1.300
REMARK SMILES CCCCCCCCCCCC(=O)[O-]
REMARK SMILES IDX 7 1 8 2 9 3 10 4 11 5 12 6 13 7 14 8 6 9 5 10 4 11 3 12 2 13
REMARK SMILES IDX 1 14
REMARK H PARENT
REMARK Flexibility Score: inf
ROOT
ATOM      1  C   UNL     1      22.082  -6.545  31.933  1.00  0.00     0.000 C 
ENDROOT
BRANCH   1   2
ATOM      2  C   UNL     1      20.948  -6.104  30.992  1.00  0.00     0.000 C 
BRANCH   2   3
ATOM      3  C   UNL     1      19.602  -6.823  31.212  1.00  0.00     0.000 C 
BRANCH   3   4
ATOM      4  C   UNL     1      19.388  -7.389  32.627  1.00  0.00     0.006 C 
BRANCH   4   5
ATOM      5  C   UNL     1      18.170  -8.317  32.720  1.00  0.00     0.053 C 
BRANCH   5   6
ATOM      6  C   UNL     1      17.199  -7.802  33.736  1.00  0.00     0.041 C 
ATOM      7  O   UNL     1      16.598  -8.602  34.500  1.00  0.00    -0.550 OA
ATOM      8  O   UNL     1      16.995  -6.435  33.871  1.00  0.00    -0.550 OA
ENDBRANCH   5   6
ENDBRANCH   4   5
ENDBRANCH   3   4
ENDBRANCH   2   3
ENDBRANCH   1   2
BRANCH   1   9
ATOM      9  C   UNL     1      22.628  -5.390  32.790  1.00  0.00     0.000 C 
BRANCH   9  10
ATOM     10  C   UNL     1      22.108  -5.431  34.235  1.00  0.00    -0.000 C 
BRANCH  10  11
ATOM     11  C   UNL     1      21.434  -4.114  34.660  1.00  0.00    -0.000 C 
BRANCH  11  12
ATOM     12  C   UNL     1      20.041  -3.939  34.021  1.00  0.00    -0.000 C 
BRANCH  12  13
ATOM     13  C   UNL     1      19.967  -2.784  33.010  1.00  0.00    -0.003 C 
ATOM     14  C   UNL     1      19.230  -3.158  31.726  1.00  0.00     0.004 C 
ENDBRANCH  12  13
ENDBRANCH  11  12
ENDBRANCH  10  11
ENDBRANCH   9  10
ENDBRANCH   1   9
TORSDOF 10
ENDMDL
MODEL 9
REMARK VINA RESULT:    -4.128      2.908      5.503
REMARK INTER + INTRA:          -7.841
REMARK INTER:                  -6.594
REMARK INTRA:                  -1.247
REMARK UNBOUND:                -1.300
REMARK SMILES CCCCCCCCCCCC(=O)[O-]
REMARK SMILES IDX 7 1 8 2 9 3 10 4 11 5 12 6 13 7 14 8 6 9 5 10 4 11 3 12 2 13
REMARK SMILES IDX 1 14
REMARK H PARENT
REMARK Flexibility Score: inf
ROOT
ATOM      1  C   UNL     1      21.635  -6.892  33.151  1.00  0.00     0.000 C 
ENDROOT
BRANCH   1   2
ATOM      2  C   UNL     1      21.534  -6.028  34.420  1.00  0.00     0.000 C 
BRANCH   2   3
ATOM      3  C   UNL     1      22.219  -4.649  34.326  1.00  0.00     0.000 C 
BRANCH   3   4
ATOM      4  C   UNL     1      21.704  -3.596  35.323  1.00  0.00     0.006 C 
BRANCH   4   5
ATOM      5  C   UNL     1      22.762  -2.543  35.678  1.00  0.00     0.053 C 
BRANCH   5   6
ATOM      6  C   UNL     1      22.262  -1.172  35.351  1.00  0.00     0.041 C 
ATOM      7  O   UNL     1      21.148  -1.022  34.784  1.00  0.00    -0.550 OA
ATOM      8  O   UNL     1      23.005  -0.056  35.715  1.00  0.00    -0.550 OA
ENDBRANCH   5   6
ENDBRANCH   4   5
ENDBRANCH   3   4
ENDBRANCH   2   3
ENDBRANCH   1   2
BRANCH   1   9
ATOM      9  C   UNL     1      22.620  -6.320  32.118  1.00  0.00     0.000 C 
BRANCH   9  10
ATOM     10  C   UNL     1      21.980  -6.128  30.734  1.00  0.00    -0.000 C 
BRANCH  10  11
ATOM     11  C   UNL     1      20.456  -6.340  30.753  1.00  0.00    -0.000 C 
BRANCH  11  12
ATOM     12  C   UNL     1      19.682  -5.013  30.611  1.00  0.00    -0.000 C 
BRANCH  12  13
ATOM     13  C   UNL     1      19.146  -4.468  31.944  1.00  0.00    -0.003 C 
ATOM     14  C   UNL     1      19.616  -3.045  32.242  1.00  0.00     0.004 C 
ENDBRANCH  12  13
ENDBRANCH  11  12
ENDBRANCH  10  11
ENDBRANCH   9  10
ENDBRANCH   1   9
TORSDOF 10
ENDMDL
