MODEL 1
REMARK VINA RESULT:    -7.054      0.000      0.000
REMARK INTER + INTRA:          -7.825
REMARK INTER:                  -7.673
REMARK INTRA:                  -0.151
REMARK UNBOUND:                -0.151
REMARK SMILES CC(C)c1cc2c(cc1O)[C@@]1(C)CCCC(C)(C)[C@@H]1CC2=O
REMARK SMILES IDX 4 1 9 2 8 3 7 4 6 5 5 6 21 7 22 8 20 9 19 10 11 11 13 12
REMARK SMILES IDX 14 13 15 14 16 15 17 16 18 17 12 18 2 19 1 20 3 21 10 22
REMARK H PARENT 10 23
REMARK Flexibility Score: inf
ROOT
ATOM      1  C   UNL     1      17.009  18.423  15.412  1.00  0.00    -0.003 A 
ATOM      2  C   UNL     1      17.197  17.176  16.051  1.00  0.00     0.119 A 
ATOM      3  C   UNL     1      17.694  16.085  15.330  1.00  0.00     0.051 A 
ATOM      4  C   UNL     1      17.960  16.174  13.946  1.00  0.00    -0.027 A 
ATOM      5  C   UNL     1      17.795  17.434  13.311  1.00  0.00     0.022 A 
ATOM      6  C   UNL     1      17.331  18.539  14.047  1.00  0.00     0.020 A 
ATOM      7  C   UNL     1      18.144  17.602  11.878  1.00  0.00     0.163 C 
ATOM      8  O   UNL     1      18.068  18.739  11.329  1.00  0.00    -0.294 OA
ATOM      9  C   UNL     1      18.681  16.457  11.078  1.00  0.00     0.086 C 
ATOM     10  C   UNL     1      18.249  15.090  11.660  1.00  0.00     0.013 C 
ATOM     11  C   UNL     1      18.579  14.975  13.194  1.00  0.00    -0.003 C 
ATOM     12  C   UNL     1      17.979  13.629  13.752  1.00  0.00     0.012 C 
ATOM     13  C   UNL     1      17.846  12.467  12.738  1.00  0.00     0.001 C 
ATOM     14  C   UNL     1      18.861  12.562  11.610  1.00  0.00     0.007 C 
ATOM     15  C   UNL     1      18.691  13.849  10.766  1.00  0.00    -0.031 C 
ATOM     16  C   UNL     1      17.596  13.595   9.699  1.00  0.00     0.011 C 
ATOM     17  C   UNL     1      20.026  14.071  10.000  1.00  0.00     0.011 C 
ATOM     18  C   UNL     1      20.105  15.044  13.480  1.00  0.00     0.017 C 
ENDROOT
BRANCH   1  19
ATOM     19  C   UNL     1      16.523  19.639  16.197  1.00  0.00     0.017 C 
ATOM     20  C   UNL     1      17.640  20.200  17.100  1.00  0.00     0.012 C 
ATOM     21  C   UNL     1      15.946  20.725  15.274  1.00  0.00     0.012 C 
ENDBRANCH   1  19
BRANCH   2  22
ATOM     22  O   UNL     1      16.893  17.013  17.405  1.00  0.00    -0.508 OA
ATOM     23  H   UNL     1      16.771  16.097  17.818  1.00  0.00     0.293 HD
ENDBRANCH   2  22
TORSDOF 2
ENDMDL
MODEL 2
REMARK VINA RESULT:    -6.924      3.185      6.815
REMARK INTER + INTRA:          -7.683
REMARK INTER:                  -7.438
REMARK INTRA:                  -0.244
REMARK UNBOUND:                -0.151
REMARK SMILES CC(C)c1cc2c(cc1O)[C@@]1(C)CCCC(C)(C)[C@@H]1CC2=O
REMARK SMILES IDX 4 1 9 2 8 3 7 4 6 5 5 6 21 7 22 8 20 9 19 10 11 11 13 12
REMARK SMILES IDX 14 13 15 14 16 15 17 16 18 17 12 18 2 19 1 20 3 21 10 22
REMARK H PARENT 10 23
REMARK Flexibility Score: inf
ROOT
ATOM      1  C   UNL     1      18.397  11.187  10.825  1.00  0.00    -0.003 A 
ATOM      2  C   UNL     1      19.714  11.696  10.880  1.00  0.00     0.119 A 
ATOM      3  C   UNL     1      19.932  13.071  11.015  1.00  0.00     0.051 A 
ATOM      4  C   UNL     1      18.860  13.990  11.036  1.00  0.00    -0.027 A 
ATOM      5  C   UNL     1      17.536  13.476  11.007  1.00  0.00     0.022 A 
ATOM      6  C   UNL     1      17.320  12.089  10.909  1.00  0.00     0.020 A 
ATOM      7  C   UNL     1      16.373  14.392  11.114  1.00  0.00     0.163 C 
ATOM      8  O   UNL     1      15.196  13.933  11.162  1.00  0.00    -0.294 OA
ATOM      9  C   UNL     1      16.570  15.869  11.263  1.00  0.00     0.086 C 
ATOM     10  C   UNL     1      17.928  16.333  10.687  1.00  0.00     0.013 C 
ATOM     11  C   UNL     1      19.128  15.493  11.262  1.00  0.00    -0.003 C 
ATOM     12  C   UNL     1      20.455  15.915  10.523  1.00  0.00     0.012 C 
ATOM     13  C   UNL     1      20.507  17.365   9.984  1.00  0.00     0.001 C 
ATOM     14  C   UNL     1      19.617  18.311  10.775  1.00  0.00     0.007 C 
ATOM     15  C   UNL     1      18.122  17.914  10.708  1.00  0.00    -0.031 C 
ATOM     16  C   UNL     1      17.515  18.502   9.408  1.00  0.00     0.011 C 
ATOM     17  C   UNL     1      17.410  18.618  11.898  1.00  0.00     0.011 C 
ATOM     18  C   UNL     1      19.290  15.664  12.798  1.00  0.00     0.017 C 
ENDROOT
BRANCH   1  19
ATOM     19  C   UNL     1      18.140   9.685  10.737  1.00  0.00     0.017 C 
ATOM     20  C   UNL     1      17.806   9.096  12.122  1.00  0.00     0.012 C 
ATOM     21  C   UNL     1      17.052   9.347   9.703  1.00  0.00     0.012 C 
ENDBRANCH   1  19
BRANCH   2  22
ATOM     22  O   UNL     1      20.816  10.839  10.802  1.00  0.00    -0.508 OA
ATOM     23  H   UNL     1      20.835   9.951  11.287  1.00  0.00     0.293 HD
ENDBRANCH   2  22
TORSDOF 2
ENDMDL
MODEL 3
REMARK VINA RESULT:    -6.924      5.488      7.602
REMARK INTER + INTRA:          -7.682
REMARK INTER:                  -7.890
REMARK INTRA:                   0.208
REMARK UNBOUND:                -0.151
REMARK SMILES CC(C)c1cc2c(cc1O)[C@@]1(C)CCCC(C)(C)[C@@H]1CC2=O
REMARK SMILES IDX 4 1 9 2 8 3 7 4 6 5 5 6 21 7 22 8 20 9 19 10 11 11 13 12
REMARK SMILES IDX 14 13 15 14 16 15 17 16 18 17 12 18 2 19 1 20 3 21 10 22
REMARK H PARENT 10 23
REMARK Flexibility Score: inf
ROOT
ATOM      1  C   UNL     1      19.461  24.060   8.430  1.00  0.00    -0.003 A 
ATOM      2  C   UNL     1      20.656  23.314   8.310  1.00  0.00     0.119 A 
ATOM      3  C   UNL     1      20.666  21.948   8.612  1.00  0.00     0.051 A 
ATOM      4  C   UNL     1      19.515  21.293   9.101  1.00  0.00    -0.027 A 
ATOM      5  C   UNL     1      18.309  22.036   9.197  1.00  0.00     0.022 A 
ATOM      6  C   UNL     1      18.293  23.401   8.857  1.00  0.00     0.020 A 
ATOM      7  C   UNL     1      17.051  21.373   9.623  1.00  0.00     0.163 C 
ATOM      8  O   UNL     1      15.961  22.014   9.639  1.00  0.00    -0.294 OA
ATOM      9  C   UNL     1      17.025  19.913   9.951  1.00  0.00     0.086 C 
ATOM     10  C   UNL     1      18.414  19.393  10.390  1.00  0.00     0.013 C 
ATOM     11  C   UNL     1      19.536  19.769   9.353  1.00  0.00    -0.003 C 
ATOM     12  C   UNL     1      20.938  19.345   9.935  1.00  0.00     0.012 C 
ATOM     13  C   UNL     1      20.940  18.147  10.914  1.00  0.00     0.001 C 
ATOM     14  C   UNL     1      19.779  17.195  10.669  1.00  0.00     0.007 C 
ATOM     15  C   UNL     1      18.402  17.874  10.871  1.00  0.00    -0.031 C 
ATOM     16  C   UNL     1      18.054  17.839  12.381  1.00  0.00     0.011 C 
ATOM     17  C   UNL     1      17.348  16.993  10.143  1.00  0.00     0.011 C 
ATOM     18  C   UNL     1      19.307  19.111   7.964  1.00  0.00     0.017 C 
ENDROOT
BRANCH   1  19
ATOM     19  C   UNL     1      19.418  25.538   8.049  1.00  0.00     0.017 C 
ATOM     20  C   UNL     1      19.998  25.765   6.638  1.00  0.00     0.012 C 
ATOM     21  C   UNL     1      18.003  26.124   8.177  1.00  0.00     0.012 C 
ENDBRANCH   1  19
BRANCH   2  22
ATOM     22  O   UNL     1      21.840  23.925   7.888  1.00  0.00    -0.508 OA
ATOM     23  H   UNL     1      22.711  23.803   8.390  1.00  0.00     0.293 HD
ENDBRANCH   2  22
TORSDOF 2
ENDMDL
MODEL 4
REMARK VINA RESULT:    -6.919      2.460      4.311
REMARK INTER + INTRA:          -7.678
REMARK INTER:                  -7.433
REMARK INTRA:                  -0.245
REMARK UNBOUND:                -0.151
REMARK SMILES CC(C)c1cc2c(cc1O)[C@@]1(C)CCCC(C)(C)[C@@H]1CC2=O
REMARK SMILES IDX 4 1 9 2 8 3 7 4 6 5 5 6 21 7 22 8 20 9 19 10 11 11 13 12
REMARK SMILES IDX 14 13 15 14 16 15 17 16 18 17 12 18 2 19 1 20 3 21 10 22
REMARK H PARENT 10 23
REMARK Flexibility Score: inf
ROOT
ATOM      1  C   UNL     1      16.776  18.687  15.681  1.00  0.00    -0.003 A 
ATOM      2  C   UNL     1      16.289  19.757  14.897  1.00  0.00     0.119 A 
ATOM      3  C   UNL     1      16.510  19.774  13.515  1.00  0.00     0.051 A 
ATOM      4  C   UNL     1      17.273  18.771  12.878  1.00  0.00    -0.027 A 
ATOM      5  C   UNL     1      17.740  17.683  13.662  1.00  0.00     0.022 A 
ATOM      6  C   UNL     1      17.483  17.649  15.045  1.00  0.00     0.020 A 
ATOM      7  C   UNL     1      18.471  16.559  13.026  1.00  0.00     0.163 C 
ATOM      8  O   UNL     1      18.824  15.555  13.708  1.00  0.00    -0.294 OA
ATOM      9  C   UNL     1      18.723  16.544  11.550  1.00  0.00     0.086 C 
ATOM     10  C   UNL     1      18.727  17.969  10.948  1.00  0.00     0.013 C 
ATOM     11  C   UNL     1      17.436  18.776  11.342  1.00  0.00    -0.003 C 
ATOM     12  C   UNL     1      17.577  20.259  10.827  1.00  0.00     0.012 C 
ATOM     13  C   UNL     1      18.459  20.467   9.572  1.00  0.00     0.001 C 
ATOM     14  C   UNL     1      18.505  19.232   8.685  1.00  0.00     0.007 C 
ATOM     15  C   UNL     1      19.119  18.007   9.405  1.00  0.00    -0.031 C 
ATOM     16  C   UNL     1      20.663  18.093   9.291  1.00  0.00     0.011 C 
ATOM     17  C   UNL     1      18.677  16.744   8.614  1.00  0.00     0.011 C 
ATOM     18  C   UNL     1      16.138  18.132  10.781  1.00  0.00     0.017 C 
ENDROOT
BRANCH   1  19
ATOM     19  C   UNL     1      16.494  18.622  17.180  1.00  0.00     0.017 C 
ATOM     20  C   UNL     1      15.186  17.855  17.467  1.00  0.00     0.012 C 
ATOM     21  C   UNL     1      17.677  18.030  17.963  1.00  0.00     0.012 C 
ENDBRANCH   1  19
BRANCH   2  22
ATOM     22  O   UNL     1      15.580  20.809  15.484  1.00  0.00    -0.508 OA
ATOM     23  H   UNL     1      15.617  20.986  16.480  1.00  0.00     0.293 HD
ENDBRANCH   2  22
TORSDOF 2
ENDMDL
MODEL 5
REMARK VINA RESULT:    -6.782      1.484      3.227
REMARK INTER + INTRA:          -7.528
REMARK INTER:                  -7.288
REMARK INTRA:                  -0.240
REMARK UNBOUND:                -0.151
REMARK SMILES CC(C)c1cc2c(cc1O)[C@@]1(C)CCCC(C)(C)[C@@H]1CC2=O
REMARK SMILES IDX 4 1 9 2 8 3 7 4 6 5 5 6 21 7 22 8 20 9 19 10 11 11 13 12
REMARK SMILES IDX 14 13 15 14 16 15 17 16 18 17 12 18 2 19 1 20 3 21 10 22
REMARK H PARENT 10 23
REMARK Flexibility Score: inf
ROOT
ATOM      1  C   UNL     1      17.145  18.498  15.149  1.00  0.00    -0.003 A 
ATOM      2  C   UNL     1      16.959  19.034  13.855  1.00  0.00     0.119 A 
ATOM      3  C   UNL     1      17.244  18.260  12.725  1.00  0.00     0.051 A 
ATOM      4  C   UNL     1      17.782  16.960  12.839  1.00  0.00    -0.027 A 
ATOM      5  C   UNL     1      17.945  16.412  14.139  1.00  0.00     0.022 A 
ATOM      6  C   UNL     1      17.621  17.179  15.273  1.00  0.00     0.020 A 
ATOM      7  C   UNL     1      18.423  15.018  14.311  1.00  0.00     0.163 C 
ATOM      8  O   UNL     1      18.500  14.503  15.464  1.00  0.00    -0.294 OA
ATOM      9  C   UNL     1      18.736  14.160  13.125  1.00  0.00     0.086 C 
ATOM     10  C   UNL     1      19.101  15.004  11.881  1.00  0.00     0.013 C 
ATOM     11  C   UNL     1      18.016  16.101  11.576  1.00  0.00    -0.003 C 
ATOM     12  C   UNL     1      18.523  17.016  10.397  1.00  0.00     0.012 C 
ATOM     13  C   UNL     1      19.488  16.355   9.384  1.00  0.00     0.001 C 
ATOM     14  C   UNL     1      19.288  14.850   9.290  1.00  0.00     0.007 C 
ATOM     15  C   UNL     1      19.565  14.130  10.632  1.00  0.00    -0.031 C 
ATOM     16  C   UNL     1      21.090  13.876  10.749  1.00  0.00     0.011 C 
ATOM     17  C   UNL     1      18.879  12.736  10.552  1.00  0.00     0.011 C 
ATOM     18  C   UNL     1      16.632  15.487  11.225  1.00  0.00     0.017 C 
ENDROOT
BRANCH   1  19
ATOM     19  C   UNL     1      16.783  19.308  16.392  1.00  0.00     0.017 C 
ATOM     20  C   UNL     1      15.598  18.670  17.145  1.00  0.00     0.012 C 
ATOM     21  C   UNL     1      17.994  19.513  17.317  1.00  0.00     0.012 C 
ENDBRANCH   1  19
BRANCH   2  22
ATOM     22  O   UNL     1      16.487  20.339  13.682  1.00  0.00    -0.508 OA
ATOM     23  H   UNL     1      16.702  21.075  14.343  1.00  0.00     0.293 HD
ENDBRANCH   2  22
TORSDOF 2
ENDMDL
MODEL 6
REMARK VINA RESULT:    -6.755      6.429      8.679
REMARK INTER + INTRA:          -7.498
REMARK INTER:                  -7.393
REMARK INTRA:                  -0.106
REMARK UNBOUND:                -0.151
REMARK SMILES CC(C)c1cc2c(cc1O)[C@@]1(C)CCCC(C)(C)[C@@H]1CC2=O
REMARK SMILES IDX 4 1 9 2 8 3 7 4 6 5 5 6 21 7 22 8 20 9 19 10 11 11 13 12
REMARK SMILES IDX 14 13 15 14 16 15 17 16 18 17 12 18 2 19 1 20 3 21 10 22
REMARK H PARENT 10 23
REMARK Flexibility Score: inf
ROOT
ATOM      1  C   UNL     1      16.008  20.709  10.168  1.00  0.00    -0.003 A 
ATOM      2  C   UNL     1      17.258  20.069  10.336  1.00  0.00     0.119 A 
ATOM      3  C   UNL     1      18.443  20.755  10.053  1.00  0.00     0.051 A 
ATOM      4  C   UNL     1      18.430  22.068   9.534  1.00  0.00    -0.027 A 
ATOM      5  C   UNL     1      17.175  22.720   9.389  1.00  0.00     0.022 A 
ATOM      6  C   UNL     1      15.987  22.040   9.711  1.00  0.00     0.020 A 
ATOM      7  C   UNL     1      17.112  24.130   8.931  1.00  0.00     0.163 C 
ATOM      8  O   UNL     1      16.003  24.736   8.871  1.00  0.00    -0.294 OA
ATOM      9  C   UNL     1      18.360  24.895   8.621  1.00  0.00     0.086 C 
ATOM     10  C   UNL     1      19.531  23.961   8.234  1.00  0.00     0.013 C 
ATOM     11  C   UNL     1      19.755  22.827   9.302  1.00  0.00    -0.003 C 
ATOM     12  C   UNL     1      20.854  21.829   8.773  1.00  0.00     0.012 C 
ATOM     13  C   UNL     1      21.910  22.421   7.809  1.00  0.00     0.001 C 
ATOM     14  C   UNL     1      22.124  23.911   8.029  1.00  0.00     0.007 C 
ATOM     15  C   UNL     1      20.842  24.740   7.773  1.00  0.00    -0.031 C 
ATOM     16  C   UNL     1      20.735  25.024   6.252  1.00  0.00     0.011 C 
ATOM     17  C   UNL     1      21.037  26.112   8.477  1.00  0.00     0.011 C 
ATOM     18  C   UNL     1      20.163  23.391  10.691  1.00  0.00     0.017 C 
ENDROOT
BRANCH   1  19
ATOM     19  C   UNL     1      14.708  19.995  10.528  1.00  0.00     0.017 C 
ATOM     20  C   UNL     1      14.576  19.818  12.055  1.00  0.00     0.012 C 
ATOM     21  C   UNL     1      13.479  20.705   9.936  1.00  0.00     0.012 C 
ENDBRANCH   1  19
BRANCH   2  22
ATOM     22  O   UNL     1      17.329  18.749  10.789  1.00  0.00    -0.508 OA
ATOM     23  H   UNL     1      16.544  18.297  11.241  1.00  0.00     0.293 HD
ENDBRANCH   2  22
TORSDOF 2
ENDMDL
MODEL 7
REMARK VINA RESULT:    -6.722      3.415      6.821
REMARK INTER + INTRA:          -7.463
REMARK INTER:                  -7.222
REMARK INTRA:                  -0.241
REMARK UNBOUND:                -0.151
REMARK SMILES CC(C)c1cc2c(cc1O)[C@@]1(C)CCCC(C)(C)[C@@H]1CC2=O
REMARK SMILES IDX 4 1 9 2 8 3 7 4 6 5 5 6 21 7 22 8 20 9 19 10 11 11 13 12
REMARK SMILES IDX 14 13 15 14 16 15 17 16 18 17 12 18 2 19 1 20 3 21 10 22
REMARK H PARENT 10 23
REMARK Flexibility Score: inf
ROOT
ATOM      1  C   UNL     1      15.601  10.189  11.620  1.00  0.00    -0.003 A 
ATOM      2  C   UNL     1      16.128  10.335  12.924  1.00  0.00     0.119 A 
ATOM      3  C   UNL     1      16.624  11.573  13.347  1.00  0.00     0.051 A 
ATOM      4  C   UNL     1      16.674  12.684  12.477  1.00  0.00    -0.027 A 
ATOM      5  C   UNL     1      16.121  12.543  11.176  1.00  0.00     0.022 A 
ATOM      6  C   UNL     1      15.589  11.307  10.766  1.00  0.00     0.020 A 
ATOM      7  C   UNL     1      16.070  13.704  10.253  1.00  0.00     0.163 C 
ATOM      8  O   UNL     1      15.513  13.601   9.122  1.00  0.00    -0.294 OA
ATOM      9  C   UNL     1      16.590  15.044  10.673  1.00  0.00     0.086 C 
ATOM     10  C   UNL     1      17.659  14.928  11.784  1.00  0.00     0.013 C 
ATOM     11  C   UNL     1      17.157  14.057  12.994  1.00  0.00    -0.003 C 
ATOM     12  C   UNL     1      18.343  13.854  14.013  1.00  0.00     0.012 C 
ATOM     13  C   UNL     1      19.411  14.974  14.051  1.00  0.00     0.001 C 
ATOM     14  C   UNL     1      18.851  16.324  13.628  1.00  0.00     0.007 C 
ATOM     15  C   UNL     1      18.331  16.320  12.170  1.00  0.00    -0.031 C 
ATOM     16  C   UNL     1      19.530  16.568  11.219  1.00  0.00     0.011 C 
ATOM     17  C   UNL     1      17.377  17.539  12.023  1.00  0.00     0.011 C 
ATOM     18  C   UNL     1      15.932  14.688  13.713  1.00  0.00     0.017 C 
ENDROOT
BRANCH   1  19
ATOM     19  C   UNL     1      15.002   8.861  11.163  1.00  0.00     0.017 C 
ATOM     20  C   UNL     1      13.467   8.955  11.044  1.00  0.00     0.012 C 
ATOM     21  C   UNL     1      15.639   8.364   9.854  1.00  0.00     0.012 C 
ENDBRANCH   1  19
BRANCH   2  22
ATOM     22  O   UNL     1      16.160   9.253  13.808  1.00  0.00    -0.508 OA
ATOM     23  H   UNL     1      15.387   9.049  14.429  1.00  0.00     0.293 HD
ENDBRANCH   2  22
TORSDOF 2
ENDMDL
MODEL 8
REMARK VINA RESULT:    -6.664      3.412      5.783
REMARK INTER + INTRA:          -7.400
REMARK INTER:                  -7.157
REMARK INTRA:                  -0.243
REMARK UNBOUND:                -0.151
REMARK SMILES CC(C)c1cc2c(cc1O)[C@@]1(C)CCCC(C)(C)[C@@H]1CC2=O
REMARK SMILES IDX 4 1 9 2 8 3 7 4 6 5 5 6 21 7 22 8 20 9 19 10 11 11 13 12
REMARK SMILES IDX 14 13 15 14 16 15 17 16 18 17 12 18 2 19 1 20 3 21 10 22
REMARK H PARENT 10 23
REMARK Flexibility Score: inf
ROOT
ATOM      1  C   UNL     1      17.126  14.534  12.553  1.00  0.00    -0.003 A 
ATOM      2  C   UNL     1      16.126  15.462  12.183  1.00  0.00     0.119 A 
ATOM      3  C   UNL     1      16.442  16.544  11.354  1.00  0.00     0.051 A 
ATOM      4  C   UNL     1      17.765  16.777  10.919  1.00  0.00    -0.027 A 
ATOM      5  C   UNL     1      18.764  15.830  11.269  1.00  0.00     0.022 A 
ATOM      6  C   UNL     1      18.435  14.723  12.072  1.00  0.00     0.020 A 
ATOM      7  C   UNL     1      20.151  15.982  10.765  1.00  0.00     0.163 C 
ATOM      8  O   UNL     1      21.025  15.103  11.014  1.00  0.00    -0.294 OA
ATOM      9  C   UNL     1      20.524  17.126   9.874  1.00  0.00     0.086 C 
ATOM     10  C   UNL     1      19.585  18.340  10.065  1.00  0.00     0.013 C 
ATOM     11  C   UNL     1      18.070  17.935   9.943  1.00  0.00    -0.003 C 
ATOM     12  C   UNL     1      17.172  19.181  10.299  1.00  0.00     0.012 C 
ATOM     13  C   UNL     1      17.790  20.572  10.018  1.00  0.00     0.001 C 
ATOM     14  C   UNL     1      18.818  20.535   8.899  1.00  0.00     0.007 C 
ATOM     15  C   UNL     1      20.024  19.623   9.230  1.00  0.00    -0.031 C 
ATOM     16  C   UNL     1      21.038  20.437  10.075  1.00  0.00     0.011 C 
ATOM     17  C   UNL     1      20.725  19.286   7.884  1.00  0.00     0.011 C 
ATOM     18  C   UNL     1      17.710  17.398   8.530  1.00  0.00     0.017 C 
ENDROOT
BRANCH   1  19
ATOM     19  C   UNL     1      16.786  13.316  13.409  1.00  0.00     0.017 C 
ATOM     20  C   UNL     1      17.351  12.024  12.785  1.00  0.00     0.012 C 
ATOM     21  C   UNL     1      17.250  13.489  14.865  1.00  0.00     0.012 C 
ENDBRANCH   1  19
BRANCH   2  22
ATOM     22  O   UNL     1      14.811  15.315  12.635  1.00  0.00    -0.508 OA
ATOM     23  H   UNL     1      14.141  14.737  12.144  1.00  0.00     0.293 HD
ENDBRANCH   2  22
TORSDOF 2
ENDMDL
MODEL 9
REMARK VINA RESULT:    -6.606      3.491      6.411
REMARK INTER + INTRA:          -7.337
REMARK INTER:                  -7.101
REMARK INTRA:                  -0.236
REMARK UNBOUND:                -0.151
REMARK SMILES CC(C)c1cc2c(cc1O)[C@@]1(C)CCCC(C)(C)[C@@H]1CC2=O
REMARK SMILES IDX 4 1 9 2 8 3 7 4 6 5 5 6 21 7 22 8 20 9 19 10 11 11 13 12
REMARK SMILES IDX 14 13 15 14 16 15 17 16 18 17 12 18 2 19 1 20 3 21 10 22
REMARK H PARENT 10 23
REMARK Flexibility Score: inf
ROOT
ATOM      1  C   UNL     1      18.496  13.109  11.353  1.00  0.00    -0.003 A 
ATOM      2  C   UNL     1      19.753  13.524  10.858  1.00  0.00     0.119 A 
ATOM      3  C   UNL     1      19.963  14.861  10.503  1.00  0.00     0.051 A 
ATOM      4  C   UNL     1      18.922  15.812  10.565  1.00  0.00    -0.027 A 
ATOM      5  C   UNL     1      17.667  15.400  11.087  1.00  0.00     0.022 A 
ATOM      6  C   UNL     1      17.470  14.064  11.478  1.00  0.00     0.020 A 
ATOM      7  C   UNL     1      16.566  16.382  11.254  1.00  0.00     0.163 C 
ATOM      8  O   UNL     1      15.472  16.035  11.786  1.00  0.00    -0.294 OA
ATOM      9  C   UNL     1      16.756  17.821  10.887  1.00  0.00     0.086 C 
ATOM     10  C   UNL     1      17.862  18.005   9.821  1.00  0.00     0.013 C 
ATOM     11  C   UNL     1      19.203  17.295  10.239  1.00  0.00    -0.003 C 
ATOM     12  C   UNL     1      20.231  17.393   9.047  1.00  0.00     0.012 C 
ATOM     13  C   UNL     1      20.076  18.612   8.107  1.00  0.00     0.001 C 
ATOM     14  C   UNL     1      19.442  19.806   8.805  1.00  0.00     0.007 C 
ATOM     15  C   UNL     1      18.008  19.506   9.308  1.00  0.00    -0.031 C 
ATOM     16  C   UNL     1      17.020  19.723   8.134  1.00  0.00     0.011 C 
ATOM     17  C   UNL     1      17.671  20.574  10.387  1.00  0.00     0.011 C 
ATOM     18  C   UNL     1      19.818  17.899  11.531  1.00  0.00     0.017 C 
ENDROOT
BRANCH   1  19
ATOM     19  C   UNL     1      18.268  11.667  11.800  1.00  0.00     0.017 C 
ATOM     20  C   UNL     1      17.284  11.603  12.987  1.00  0.00     0.012 C 
ATOM     21  C   UNL     1      17.808  10.771  10.639  1.00  0.00     0.012 C 
ENDBRANCH   1  19
BRANCH   2  22
ATOM     22  O   UNL     1      20.803  12.611  10.717  1.00  0.00    -0.508 OA
ATOM     23  H   UNL     1      20.641  11.651  10.440  1.00  0.00     0.293 HD
ENDBRANCH   2  22
TORSDOF 2
ENDMDL
