MODEL 1
REMARK VINA RESULT:    -4.163      0.000      0.000
REMARK INTER + INTRA:         -14.721
REMARK INTER:                 -10.492
REMARK INTRA:                  -4.229
REMARK UNBOUND:                -4.229
REMARK SMILES CCCCCCCCCCCCCCCCCCCCCCCCCCCC(=O)[O-]
REMARK SMILES IDX 15 1 16 2 17 3 18 4 19 5 20 6 21 7 22 8 23 9 24 10 25 11
REMARK SMILES IDX 26 12 27 13 28 14 29 15 30 16 14 17 13 18 12 19 11 20 10 21
REMARK SMILES IDX 9 22 8 23 7 24 6 25 5 26 4 27 3 28 2 29 1 30
REMARK H PARENT
REMARK Flexibility Score: inf
ROOT
ATOM      1  C   UNL     1     -11.374   3.057   6.214  1.00  0.00     0.000 C 
ENDROOT
BRANCH   1   2
ATOM      2  C   UNL     1     -12.111   3.241   7.558  1.00  0.00     0.000 C 
BRANCH   2   3
ATOM      3  C   UNL     1     -11.172   3.341   8.773  1.00  0.00     0.000 C 
BRANCH   3   4
ATOM      4  C   UNL     1     -10.592   4.748   8.970  1.00  0.00     0.000 C 
BRANCH   4   5
ATOM      5  C   UNL     1     -11.576   5.829   8.496  1.00  0.00     0.000 C 
BRANCH   5   6
ATOM      6  C   UNL     1     -11.026   6.672   7.332  1.00  0.00     0.000 C 
BRANCH   6   7
ATOM      7  C   UNL     1      -9.664   6.220   6.771  1.00  0.00     0.000 C 
BRANCH   7   8
ATOM      8  C   UNL     1      -9.116   7.108   5.634  1.00  0.00     0.000 C 
BRANCH   8   9
ATOM      9  C   UNL     1      -8.392   8.367   6.153  1.00  0.00     0.000 C 
BRANCH   9  10
ATOM     10  C   UNL     1      -9.189   9.662   5.897  1.00  0.00     0.000 C 
BRANCH  10  11
ATOM     11  C   UNL     1      -8.890  10.793   6.901  1.00  0.00     0.000 C 
BRANCH  11  12
ATOM     12  C   UNL     1      -7.566  10.652   7.671  1.00  0.00     0.006 C 
BRANCH  12  13
ATOM     13  C   UNL     1      -6.493  11.646   7.199  1.00  0.00     0.053 C 
BRANCH  13  14
ATOM     14  C   UNL     1      -5.619  11.044   6.140  1.00  0.00     0.041 C 
ATOM     15  O   UNL     1      -5.981  11.046   4.932  1.00  0.00    -0.550 OA
ATOM     16  O   UNL     1      -4.378  10.519   6.484  1.00  0.00    -0.550 OA
ENDBRANCH  13  14
ENDBRANCH  12  13
ENDBRANCH  11  12
ENDBRANCH  10  11
ENDBRANCH   9  10
ENDBRANCH   8   9
ENDBRANCH   7   8
ENDBRANCH   6   7
ENDBRANCH   5   6
ENDBRANCH   4   5
ENDBRANCH   3   4
ENDBRANCH   2   3
ENDBRANCH   1   2
BRANCH   1  17
ATOM     17  C   UNL     1     -11.978   3.932   5.101  1.00  0.00     0.000 C 
BRANCH  17  18
ATOM     18  C   UNL     1     -13.334   4.537   5.491  1.00  0.00     0.000 C 
BRANCH  18  19
ATOM     19  C   UNL     1     -13.940   5.403   4.376  1.00  0.00     0.000 C 
BRANCH  19  20
ATOM     20  C   UNL     1     -13.734   6.891   4.676  1.00  0.00     0.000 C 
BRANCH  20  21
ATOM     21  C   UNL     1     -14.902   7.465   5.488  1.00  0.00     0.000 C 
BRANCH  21  22
ATOM     22  C   UNL     1     -14.468   7.783   6.924  1.00  0.00    -0.000 C 
BRANCH  22  23
ATOM     23  C   UNL     1     -14.299   9.296   7.126  1.00  0.00    -0.000 C 
BRANCH  23  24
ATOM     24  C   UNL     1     -12.876   9.780   6.816  1.00  0.00    -0.000 C 
BRANCH  24  25
ATOM     25  C   UNL     1     -12.845  10.935   5.800  1.00  0.00    -0.000 C 
BRANCH  25  26
ATOM     26  C   UNL     1     -14.263  11.366   5.364  1.00  0.00    -0.000 C 
BRANCH  26  27
ATOM     27  C   UNL     1     -14.451  11.396   3.836  1.00  0.00    -0.000 C 
BRANCH  27  28
ATOM     28  C   UNL     1     -13.676  10.280   3.119  1.00  0.00    -0.000 C 
BRANCH  28  29
ATOM     29  C   UNL     1     -13.692  10.439   1.591  1.00  0.00    -0.003 C 
ATOM     30  C   UNL     1     -12.289  10.576   0.999  1.00  0.00     0.004 C 
ENDBRANCH  28  29
ENDBRANCH  27  28
ENDBRANCH  26  27
ENDBRANCH  25  26
ENDBRANCH  24  25
ENDBRANCH  23  24
ENDBRANCH  22  23
ENDBRANCH  21  22
ENDBRANCH  20  21
ENDBRANCH  19  20
ENDBRANCH  18  19
ENDBRANCH  17  18
ENDBRANCH   1  17
TORSDOF 26
ENDMDL
MODEL 2
REMARK VINA RESULT:    -4.156      1.617      3.605
REMARK INTER + INTRA:         -14.701
REMARK INTER:                 -10.109
REMARK INTRA:                  -4.593
REMARK UNBOUND:                -4.229
REMARK SMILES CCCCCCCCCCCCCCCCCCCCCCCCCCCC(=O)[O-]
REMARK SMILES IDX 15 1 16 2 17 3 18 4 19 5 20 6 21 7 22 8 23 9 24 10 25 11
REMARK SMILES IDX 26 12 27 13 28 14 29 15 30 16 14 17 13 18 12 19 11 20 10 21
REMARK SMILES IDX 9 22 8 23 7 24 6 25 5 26 4 27 3 28 2 29 1 30
REMARK H PARENT
REMARK Flexibility Score: inf
ROOT
ATOM      1  C   UNL     1     -10.814   3.617   8.282  1.00  0.00     0.000 C 
ENDROOT
BRANCH   1   2
ATOM      2  C   UNL     1     -12.348   3.644   8.456  1.00  0.00     0.000 C 
BRANCH   2   3
ATOM      3  C   UNL     1     -12.875   4.927   9.124  1.00  0.00     0.000 C 
BRANCH   3   4
ATOM      4  C   UNL     1     -13.854   5.707   8.236  1.00  0.00     0.000 C 
BRANCH   4   5
ATOM      5  C   UNL     1     -13.763   7.219   8.499  1.00  0.00     0.000 C 
BRANCH   5   6
ATOM      6  C   UNL     1     -12.716   7.920   7.617  1.00  0.00     0.000 C 
BRANCH   6   7
ATOM      7  C   UNL     1     -13.282   8.743   6.443  1.00  0.00     0.000 C 
BRANCH   7   8
ATOM      8  C   UNL     1     -13.477  10.243   6.751  1.00  0.00     0.000 C 
BRANCH   8   9
ATOM      9  C   UNL     1     -12.367  10.818   7.654  1.00  0.00     0.000 C 
BRANCH   9  10
ATOM     10  C   UNL     1     -11.479  11.848   6.926  1.00  0.00     0.000 C 
BRANCH  10  11
ATOM     11  C   UNL     1     -10.001  11.823   7.365  1.00  0.00     0.000 C 
BRANCH  11  12
ATOM     12  C   UNL     1      -9.013  11.304   6.307  1.00  0.00     0.006 C 
BRANCH  12  13
ATOM     13  C   UNL     1      -9.359   9.891   5.810  1.00  0.00     0.053 C 
BRANCH  13  14
ATOM     14  C   UNL     1      -8.131   9.043   5.677  1.00  0.00     0.041 C 
ATOM     15  O   UNL     1      -8.144   8.001   4.966  1.00  0.00    -0.550 OA
ATOM     16  O   UNL     1      -6.952   9.430   6.305  1.00  0.00    -0.550 OA
ENDBRANCH  13  14
ENDBRANCH  12  13
ENDBRANCH  11  12
ENDBRANCH  10  11
ENDBRANCH   9  10
ENDBRANCH   8   9
ENDBRANCH   7   8
ENDBRANCH   6   7
ENDBRANCH   5   6
ENDBRANCH   4   5
ENDBRANCH   3   4
ENDBRANCH   2   3
ENDBRANCH   1   2
BRANCH   1  17
ATOM     17  C   UNL     1     -10.160   4.933   8.736  1.00  0.00     0.000 C 
BRANCH  17  18
ATOM     18  C   UNL     1      -9.757   5.833   7.559  1.00  0.00     0.000 C 
BRANCH  18  19
ATOM     19  C   UNL     1      -9.850   5.116   6.204  1.00  0.00     0.000 C 
BRANCH  19  20
ATOM     20  C   UNL     1     -11.048   5.634   5.401  1.00  0.00     0.000 C 
BRANCH  20  21
ATOM     21  C   UNL     1     -11.804   4.485   4.722  1.00  0.00     0.000 C 
BRANCH  21  22
ATOM     22  C   UNL     1     -13.269   4.450   5.173  1.00  0.00    -0.000 C 
BRANCH  22  23
ATOM     23  C   UNL     1     -14.057   5.627   4.580  1.00  0.00    -0.000 C 
BRANCH  23  24
ATOM     24  C   UNL     1     -13.817   5.801   3.073  1.00  0.00    -0.000 C 
BRANCH  24  25
ATOM     25  C   UNL     1     -14.643   6.949   2.466  1.00  0.00    -0.000 C 
BRANCH  25  26
ATOM     26  C   UNL     1     -14.080   8.336   2.847  1.00  0.00    -0.000 C 
BRANCH  26  27
ATOM     27  C   UNL     1     -13.790   9.234   1.630  1.00  0.00    -0.000 C 
BRANCH  27  28
ATOM     28  C   UNL     1     -14.215  10.694   1.855  1.00  0.00    -0.000 C 
BRANCH  28  29
ATOM     29  C   UNL     1     -13.699  11.260   3.187  1.00  0.00    -0.003 C 
ATOM     30  C   UNL     1     -12.176  11.397   3.217  1.00  0.00     0.004 C 
ENDBRANCH  28  29
ENDBRANCH  27  28
ENDBRANCH  26  27
ENDBRANCH  25  26
ENDBRANCH  24  25
ENDBRANCH  23  24
ENDBRANCH  22  23
ENDBRANCH  21  22
ENDBRANCH  20  21
ENDBRANCH  19  20
ENDBRANCH  18  19
ENDBRANCH  17  18
ENDBRANCH   1  17
TORSDOF 26
ENDMDL
MODEL 3
REMARK VINA RESULT:    -4.029      2.440      5.860
REMARK INTER + INTRA:         -14.383
REMARK INTER:                 -10.190
REMARK INTRA:                  -4.193
REMARK UNBOUND:                -4.229
REMARK SMILES CCCCCCCCCCCCCCCCCCCCCCCCCCCC(=O)[O-]
REMARK SMILES IDX 15 1 16 2 17 3 18 4 19 5 20 6 21 7 22 8 23 9 24 10 25 11
REMARK SMILES IDX 26 12 27 13 28 14 29 15 30 16 14 17 13 18 12 19 11 20 10 21
REMARK SMILES IDX 9 22 8 23 7 24 6 25 5 26 4 27 3 28 2 29 1 30
REMARK H PARENT
REMARK Flexibility Score: inf
ROOT
ATOM      1  C   UNL     1     -11.865   7.622   6.667  1.00  0.00     0.000 C 
ENDROOT
BRANCH   1   2
ATOM      2  C   UNL     1     -10.357   7.338   6.502  1.00  0.00     0.000 C 
BRANCH   2   3
ATOM      3  C   UNL     1      -9.974   5.864   6.725  1.00  0.00     0.000 C 
BRANCH   3   4
ATOM      4  C   UNL     1     -10.073   5.018   5.449  1.00  0.00     0.000 C 
BRANCH   4   5
ATOM      5  C   UNL     1     -11.340   4.148   5.452  1.00  0.00     0.000 C 
BRANCH   5   6
ATOM      6  C   UNL     1     -12.394   4.619   4.436  1.00  0.00     0.000 C 
BRANCH   6   7
ATOM      7  C   UNL     1     -13.778   4.958   5.024  1.00  0.00     0.000 C 
BRANCH   7   8
ATOM      8  C   UNL     1     -14.419   6.240   4.449  1.00  0.00     0.000 C 
BRANCH   8   9
ATOM      9  C   UNL     1     -14.307   6.329   2.914  1.00  0.00     0.000 C 
BRANCH   9  10
ATOM     10  C   UNL     1     -14.320   7.783   2.398  1.00  0.00     0.000 C 
BRANCH  10  11
ATOM     11  C   UNL     1     -14.380   8.845   3.513  1.00  0.00     0.000 C 
BRANCH  11  12
ATOM     12  C   UNL     1     -13.869  10.240   3.118  1.00  0.00     0.006 C 
BRANCH  12  13
ATOM     13  C   UNL     1     -13.603  10.372   1.609  1.00  0.00     0.053 C 
BRANCH  13  14
ATOM     14  C   UNL     1     -12.314  11.090   1.343  1.00  0.00     0.041 C 
ATOM     15  O   UNL     1     -11.844  11.899   2.189  1.00  0.00    -0.550 OA
ATOM     16  O   UNL     1     -11.607  10.829   0.175  1.00  0.00    -0.550 OA
ENDBRANCH  13  14
ENDBRANCH  12  13
ENDBRANCH  11  12
ENDBRANCH  10  11
ENDBRANCH   9  10
ENDBRANCH   8   9
ENDBRANCH   7   8
ENDBRANCH   6   7
ENDBRANCH   5   6
ENDBRANCH   4   5
ENDBRANCH   3   4
ENDBRANCH   2   3
ENDBRANCH   1   2
BRANCH   1  17
ATOM     17  C   UNL     1     -12.424   7.026   7.970  1.00  0.00     0.000 C 
BRANCH  17  18
ATOM     18  C   UNL     1     -13.953   7.126   8.062  1.00  0.00     0.000 C 
BRANCH  18  19
ATOM     19  C   UNL     1     -14.420   8.144   9.113  1.00  0.00     0.000 C 
BRANCH  19  20
ATOM     20  C   UNL     1     -14.090   9.572   8.665  1.00  0.00     0.000 C 
BRANCH  20  21
ATOM     21  C   UNL     1     -14.719   9.891   7.303  1.00  0.00     0.000 C 
BRANCH  21  22
ATOM     22  C   UNL     1     -14.234  11.246   6.777  1.00  0.00    -0.000 C 
BRANCH  22  23
ATOM     23  C   UNL     1     -12.760  11.481   7.136  1.00  0.00    -0.000 C 
BRANCH  23  24
ATOM     24  C   UNL     1     -11.824  11.322   5.930  1.00  0.00    -0.000 C 
BRANCH  24  25
ATOM     25  C   UNL     1     -10.401  11.842   6.205  1.00  0.00    -0.000 C 
BRANCH  25  26
ATOM     26  C   UNL     1      -9.403  10.694   6.473  1.00  0.00    -0.000 C 
BRANCH  26  27
ATOM     27  C   UNL     1      -8.176  10.720   5.544  1.00  0.00    -0.000 C 
BRANCH  27  28
ATOM     28  C   UNL     1      -7.260   9.501   5.735  1.00  0.00    -0.000 C 
BRANCH  28  29
ATOM     29  C   UNL     1      -5.963   9.850   6.481  1.00  0.00    -0.003 C 
ATOM     30  C   UNL     1      -5.817  11.350   6.739  1.00  0.00     0.004 C 
ENDBRANCH  28  29
ENDBRANCH  27  28
ENDBRANCH  26  27
ENDBRANCH  25  26
ENDBRANCH  24  25
ENDBRANCH  23  24
ENDBRANCH  22  23
ENDBRANCH  21  22
ENDBRANCH  20  21
ENDBRANCH  19  20
ENDBRANCH  18  19
ENDBRANCH  17  18
ENDBRANCH   1  17
TORSDOF 26
ENDMDL
MODEL 4
REMARK VINA RESULT:    -3.953      1.073      2.928
REMARK INTER + INTRA:         -14.191
REMARK INTER:                 -10.653
REMARK INTRA:                  -3.538
REMARK UNBOUND:                -4.229
REMARK SMILES CCCCCCCCCCCCCCCCCCCCCCCCCCCC(=O)[O-]
REMARK SMILES IDX 15 1 16 2 17 3 18 4 19 5 20 6 21 7 22 8 23 9 24 10 25 11
REMARK SMILES IDX 26 12 27 13 28 14 29 15 30 16 14 17 13 18 12 19 11 20 10 21
REMARK SMILES IDX 9 22 8 23 7 24 6 25 5 26 4 27 3 28 2 29 1 30
REMARK H PARENT
REMARK Flexibility Score: inf
ROOT
ATOM      1  C   UNL     1     -12.326   4.265   4.998  1.00  0.00     0.000 C 
ENDROOT
BRANCH   1   2
ATOM      2  C   UNL     1     -12.862   3.960   6.413  1.00  0.00     0.000 C 
BRANCH   2   3
ATOM      3  C   UNL     1     -11.778   3.489   7.399  1.00  0.00     0.000 C 
BRANCH   3   4
ATOM      4  C   UNL     1     -10.720   4.561   7.688  1.00  0.00     0.000 C 
BRANCH   4   5
ATOM      5  C   UNL     1     -11.356   5.955   7.812  1.00  0.00     0.000 C 
BRANCH   5   6
ATOM      6  C   UNL     1     -10.813   6.957   6.779  1.00  0.00     0.000 C 
BRANCH   6   7
ATOM      7  C   UNL     1      -9.447   6.599   6.163  1.00  0.00     0.000 C 
BRANCH   7   8
ATOM      8  C   UNL     1      -8.739   7.773   5.453  1.00  0.00     0.000 C 
BRANCH   8   9
ATOM      9  C   UNL     1      -8.071   8.754   6.438  1.00  0.00     0.000 C 
BRANCH   9  10
ATOM     10  C   UNL     1      -8.793  10.116   6.507  1.00  0.00     0.000 C 
BRANCH  10  11
ATOM     11  C   UNL     1      -8.089  11.155   7.401  1.00  0.00     0.000 C 
BRANCH  11  12
ATOM     12  C   UNL     1      -6.719  10.726   7.951  1.00  0.00     0.006 C 
BRANCH  12  13
ATOM     13  C   UNL     1      -5.562  11.578   7.403  1.00  0.00     0.053 C 
BRANCH  13  14
ATOM     14  C   UNL     1      -5.064  11.045   6.094  1.00  0.00     0.041 C 
ATOM     15  O   UNL     1      -3.913  10.535   6.005  1.00  0.00    -0.550 OA
ATOM     16  O   UNL     1      -5.892  11.069   4.977  1.00  0.00    -0.550 OA
ENDBRANCH  13  14
ENDBRANCH  12  13
ENDBRANCH  11  12
ENDBRANCH  10  11
ENDBRANCH   9  10
ENDBRANCH   8   9
ENDBRANCH   7   8
ENDBRANCH   6   7
ENDBRANCH   5   6
ENDBRANCH   4   5
ENDBRANCH   3   4
ENDBRANCH   2   3
ENDBRANCH   1   2
BRANCH   1  17
ATOM     17  C   UNL     1     -13.369   4.992   4.131  1.00  0.00     0.000 C 
BRANCH  17  18
ATOM     18  C   UNL     1     -14.106   6.102   4.893  1.00  0.00     0.000 C 
BRANCH  18  19
ATOM     19  C   UNL     1     -14.954   6.992   3.972  1.00  0.00     0.000 C 
BRANCH  19  20
ATOM     20  C   UNL     1     -14.157   8.223   3.526  1.00  0.00     0.000 C 
BRANCH  20  21
ATOM     21  C   UNL     1     -14.057   8.300   1.998  1.00  0.00     0.000 C 
BRANCH  21  22
ATOM     22  C   UNL     1     -14.086   9.756   1.519  1.00  0.00    -0.000 C 
BRANCH  22  23
ATOM     23  C   UNL     1     -12.671  10.261   1.203  1.00  0.00    -0.000 C 
BRANCH  23  24
ATOM     24  C   UNL     1     -12.258  11.452   2.079  1.00  0.00    -0.000 C 
BRANCH  24  25
ATOM     25  C   UNL     1     -13.433  12.041   2.879  1.00  0.00    -0.000 C 
BRANCH  25  26
ATOM     26  C   UNL     1     -13.221  11.916   4.404  1.00  0.00    -0.000 C 
BRANCH  26  27
ATOM     27  C   UNL     1     -12.004  11.052   4.784  1.00  0.00    -0.000 C 
BRANCH  27  28
ATOM     28  C   UNL     1     -12.253  10.191   6.032  1.00  0.00    -0.000 C 
BRANCH  28  29
ATOM     29  C   UNL     1     -13.735  10.153   6.436  1.00  0.00    -0.003 C 
ATOM     30  C   UNL     1     -13.934   9.864   7.924  1.00  0.00     0.004 C 
ENDBRANCH  28  29
ENDBRANCH  27  28
ENDBRANCH  26  27
ENDBRANCH  25  26
ENDBRANCH  24  25
ENDBRANCH  23  24
ENDBRANCH  22  23
ENDBRANCH  21  22
ENDBRANCH  20  21
ENDBRANCH  19  20
ENDBRANCH  18  19
ENDBRANCH  17  18
ENDBRANCH   1  17
TORSDOF 26
ENDMDL
MODEL 5
REMARK VINA RESULT:    -3.938      3.089      6.286
REMARK INTER + INTRA:         -14.152
REMARK INTER:                 -10.008
REMARK INTRA:                  -4.145
REMARK UNBOUND:                -4.229
REMARK SMILES CCCCCCCCCCCCCCCCCCCCCCCCCCCC(=O)[O-]
REMARK SMILES IDX 15 1 16 2 17 3 18 4 19 5 20 6 21 7 22 8 23 9 24 10 25 11
REMARK SMILES IDX 26 12 27 13 28 14 29 15 30 16 14 17 13 18 12 19 11 20 10 21
REMARK SMILES IDX 9 22 8 23 7 24 6 25 5 26 4 27 3 28 2 29 1 30
REMARK H PARENT
REMARK Flexibility Score: inf
ROOT
ATOM      1  C   UNL     1     -11.784   3.076   6.123  1.00  0.00     0.000 C 
ENDROOT
BRANCH   1   2
ATOM      2  C   UNL     1     -11.000   3.364   7.422  1.00  0.00     0.000 C 
BRANCH   2   3
ATOM      3  C   UNL     1     -11.890   3.483   8.672  1.00  0.00     0.000 C 
BRANCH   3   4
ATOM      4  C   UNL     1     -12.188   4.936   9.062  1.00  0.00     0.000 C 
BRANCH   4   5
ATOM      5  C   UNL     1     -13.517   5.416   8.456  1.00  0.00     0.000 C 
BRANCH   5   6
ATOM      6  C   UNL     1     -13.965   6.784   9.000  1.00  0.00     0.000 C 
BRANCH   6   7
ATOM      7  C   UNL     1     -14.186   7.879   7.940  1.00  0.00     0.000 C 
BRANCH   7   8
ATOM      8  C   UNL     1     -13.246   9.096   8.074  1.00  0.00     0.000 C 
BRANCH   8   9
ATOM      9  C   UNL     1     -13.487  10.163   6.986  1.00  0.00     0.000 C 
BRANCH   9  10
ATOM     10  C   UNL     1     -12.876   9.775   5.624  1.00  0.00     0.000 C 
BRANCH  10  11
ATOM     11  C   UNL     1     -13.724  10.204   4.410  1.00  0.00     0.000 C 
BRANCH  11  12
ATOM     12  C   UNL     1     -14.185   9.059   3.495  1.00  0.00     0.006 C 
BRANCH  12  13
ATOM     13  C   UNL     1     -14.450   7.752   4.261  1.00  0.00     0.053 C 
BRANCH  13  14
ATOM     14  C   UNL     1     -14.361   6.561   3.356  1.00  0.00     0.041 C 
ATOM     15  O   UNL     1     -14.290   5.396   3.834  1.00  0.00    -0.550 OA
ATOM     16  O   UNL     1     -14.404   6.736   1.977  1.00  0.00    -0.550 OA
ENDBRANCH  13  14
ENDBRANCH  12  13
ENDBRANCH  11  12
ENDBRANCH  10  11
ENDBRANCH   9  10
ENDBRANCH   8   9
ENDBRANCH   7   8
ENDBRANCH   6   7
ENDBRANCH   5   6
ENDBRANCH   4   5
ENDBRANCH   3   4
ENDBRANCH   2   3
ENDBRANCH   1   2
BRANCH   1  17
ATOM     17  C   UNL     1     -11.304   3.954   4.954  1.00  0.00     0.000 C 
BRANCH  17  18
ATOM     18  C   UNL     1     -10.424   5.126   5.413  1.00  0.00     0.000 C 
BRANCH  18  19
ATOM     19  C   UNL     1     -11.241   6.373   5.781  1.00  0.00     0.000 C 
BRANCH  19  20
ATOM     20  C   UNL     1     -10.447   7.280   6.727  1.00  0.00     0.000 C 
BRANCH  20  21
ATOM     21  C   UNL     1      -8.937   7.141   6.497  1.00  0.00     0.000 C 
BRANCH  21  22
ATOM     22  C   UNL     1      -8.482   7.995   5.308  1.00  0.00    -0.000 C 
BRANCH  22  23
ATOM     23  C   UNL     1      -8.068   9.401   5.765  1.00  0.00    -0.000 C 
BRANCH  23  24
ATOM     24  C   UNL     1      -8.945  10.504   5.157  1.00  0.00    -0.000 C 
BRANCH  24  25
ATOM     25  C   UNL     1      -9.198  11.670   6.129  1.00  0.00    -0.000 C 
BRANCH  25  26
ATOM     26  C   UNL     1      -8.897  11.284   7.593  1.00  0.00    -0.000 C 
BRANCH  26  27
ATOM     27  C   UNL     1      -7.759  12.110   8.222  1.00  0.00    -0.000 C 
BRANCH  27  28
ATOM     28  C   UNL     1      -6.428  11.343   8.276  1.00  0.00    -0.000 C 
BRANCH  28  29
ATOM     29  C   UNL     1      -5.497  11.697   7.106  1.00  0.00    -0.003 C 
ATOM     30  C   UNL     1      -4.777  10.475   6.536  1.00  0.00     0.004 C 
ENDBRANCH  28  29
ENDBRANCH  27  28
ENDBRANCH  26  27
ENDBRANCH  25  26
ENDBRANCH  24  25
ENDBRANCH  23  24
ENDBRANCH  22  23
ENDBRANCH  21  22
ENDBRANCH  20  21
ENDBRANCH  19  20
ENDBRANCH  18  19
ENDBRANCH  17  18
ENDBRANCH   1  17
TORSDOF 26
ENDMDL
MODEL 6
REMARK VINA RESULT:    -3.814      2.562      6.066
REMARK INTER + INTRA:         -13.841
REMARK INTER:                 -10.578
REMARK INTRA:                  -3.263
REMARK UNBOUND:                -4.229
REMARK SMILES CCCCCCCCCCCCCCCCCCCCCCCCCCCC(=O)[O-]
REMARK SMILES IDX 15 1 16 2 17 3 18 4 19 5 20 6 21 7 22 8 23 9 24 10 25 11
REMARK SMILES IDX 26 12 27 13 28 14 29 15 30 16 14 17 13 18 12 19 11 20 10 21
REMARK SMILES IDX 9 22 8 23 7 24 6 25 5 26 4 27 3 28 2 29 1 30
REMARK H PARENT
REMARK Flexibility Score: inf
ROOT
ATOM      1  C   UNL     1     -11.207   4.786   8.724  1.00  0.00     0.000 C 
ENDROOT
BRANCH   1   2
ATOM      2  C   UNL     1     -12.325   5.773   9.123  1.00  0.00     0.000 C 
BRANCH   2   3
ATOM      3  C   UNL     1     -12.834   6.640   7.958  1.00  0.00     0.000 C 
BRANCH   3   4
ATOM      4  C   UNL     1     -14.108   7.422   8.302  1.00  0.00     0.000 C 
BRANCH   4   5
ATOM      5  C   UNL     1     -15.083   7.452   7.113  1.00  0.00     0.000 C 
BRANCH   5   6
ATOM      6  C   UNL     1     -14.376   7.323   5.754  1.00  0.00     0.000 C 
BRANCH   6   7
ATOM      7  C   UNL     1     -14.090   8.651   5.026  1.00  0.00     0.000 C 
BRANCH   7   8
ATOM      8  C   UNL     1     -14.694   9.896   5.710  1.00  0.00     0.000 C 
BRANCH   8   9
ATOM      9  C   UNL     1     -13.670  11.035   5.892  1.00  0.00     0.000 C 
BRANCH   9  10
ATOM     10  C   UNL     1     -12.309  10.726   5.235  1.00  0.00     0.000 C 
BRANCH  10  11
ATOM     11  C   UNL     1     -11.627  11.952   4.597  1.00  0.00     0.000 C 
BRANCH  11  12
ATOM     12  C   UNL     1     -11.680  12.007   3.062  1.00  0.00     0.006 C 
BRANCH  12  13
ATOM     13  C   UNL     1     -12.980  11.422   2.488  1.00  0.00     0.053 C 
BRANCH  13  14
ATOM     14  C   UNL     1     -12.704  10.499   1.340  1.00  0.00     0.041 C 
ATOM     15  O   UNL     1     -13.329   9.408   1.229  1.00  0.00    -0.550 OA
ATOM     16  O   UNL     1     -11.785  10.866   0.364  1.00  0.00    -0.550 OA
ENDBRANCH  13  14
ENDBRANCH  12  13
ENDBRANCH  11  12
ENDBRANCH  10  11
ENDBRANCH   9  10
ENDBRANCH   8   9
ENDBRANCH   7   8
ENDBRANCH   6   7
ENDBRANCH   5   6
ENDBRANCH   4   5
ENDBRANCH   3   4
ENDBRANCH   2   3
ENDBRANCH   1   2
BRANCH   1  17
ATOM     17  C   UNL     1     -11.768   3.408   8.333  1.00  0.00     0.000 C 
BRANCH  17  18
ATOM     18  C   UNL     1     -11.373   2.987   6.910  1.00  0.00     0.000 C 
BRANCH  18  19
ATOM     19  C   UNL     1     -12.210   3.689   5.830  1.00  0.00     0.000 C 
BRANCH  19  20
ATOM     20  C   UNL     1     -11.501   4.954   5.335  1.00  0.00     0.000 C 
BRANCH  20  21
ATOM     21  C   UNL     1     -10.035   4.672   4.982  1.00  0.00     0.000 C 
BRANCH  21  22
ATOM     22  C   UNL     1      -9.172   5.923   5.185  1.00  0.00    -0.000 C 
BRANCH  22  23
ATOM     23  C   UNL     1      -9.648   6.730   6.402  1.00  0.00    -0.000 C 
BRANCH  23  24
ATOM     24  C   UNL     1      -9.704   8.239   6.126  1.00  0.00    -0.000 C 
BRANCH  24  25
ATOM     25  C   UNL     1      -8.342   8.932   6.314  1.00  0.00    -0.000 C 
BRANCH  25  26
ATOM     26  C   UNL     1      -7.893   9.687   5.044  1.00  0.00    -0.000 C 
BRANCH  26  27
ATOM     27  C   UNL     1      -6.745  10.682   5.297  1.00  0.00    -0.000 C 
BRANCH  27  28
ATOM     28  C   UNL     1      -5.570  10.051   6.061  1.00  0.00    -0.000 C 
BRANCH  28  29
ATOM     29  C   UNL     1      -4.495  11.081   6.442  1.00  0.00    -0.003 C 
ATOM     30  C   UNL     1      -3.588  11.448   5.268  1.00  0.00     0.004 C 
ENDBRANCH  28  29
ENDBRANCH  27  28
ENDBRANCH  26  27
ENDBRANCH  25  26
ENDBRANCH  24  25
ENDBRANCH  23  24
ENDBRANCH  22  23
ENDBRANCH  21  22
ENDBRANCH  20  21
ENDBRANCH  19  20
ENDBRANCH  18  19
ENDBRANCH  17  18
ENDBRANCH   1  17
TORSDOF 26
ENDMDL
MODEL 7
REMARK VINA RESULT:    -3.797      1.262      2.474
REMARK INTER + INTRA:         -13.796
REMARK INTER:                 -10.249
REMARK INTRA:                  -3.547
REMARK UNBOUND:                -4.229
REMARK SMILES CCCCCCCCCCCCCCCCCCCCCCCCCCCC(=O)[O-]
REMARK SMILES IDX 15 1 16 2 17 3 18 4 19 5 20 6 21 7 22 8 23 9 24 10 25 11
REMARK SMILES IDX 26 12 27 13 28 14 29 15 30 16 14 17 13 18 12 19 11 20 10 21
REMARK SMILES IDX 9 22 8 23 7 24 6 25 5 26 4 27 3 28 2 29 1 30
REMARK H PARENT
REMARK Flexibility Score: inf
ROOT
ATOM      1  C   UNL     1     -13.620   5.365   6.352  1.00  0.00     0.000 C 
ENDROOT
BRANCH   1   2
ATOM      2  C   UNL     1     -13.236   3.878   6.511  1.00  0.00     0.000 C 
BRANCH   2   3
ATOM      3  C   UNL     1     -12.487   3.566   7.818  1.00  0.00     0.000 C 
BRANCH   3   4
ATOM      4  C   UNL     1     -10.961   3.570   7.652  1.00  0.00     0.000 C 
BRANCH   4   5
ATOM      5  C   UNL     1     -10.299   4.581   8.601  1.00  0.00     0.000 C 
BRANCH   5   6
ATOM      6  C   UNL     1     -10.175   5.987   7.989  1.00  0.00     0.000 C 
BRANCH   6   7
ATOM      7  C   UNL     1     -10.378   6.066   6.464  1.00  0.00     0.000 C 
BRANCH   7   8
ATOM      8  C   UNL     1      -9.158   6.602   5.685  1.00  0.00     0.000 C 
BRANCH   8   9
ATOM      9  C   UNL     1      -8.680   7.977   6.193  1.00  0.00     0.000 C 
BRANCH   9  10
ATOM     10  C   UNL     1      -7.951   8.795   5.107  1.00  0.00     0.000 C 
BRANCH  10  11
ATOM     11  C   UNL     1      -7.790  10.290   5.448  1.00  0.00     0.000 C 
BRANCH  11  12
ATOM     12  C   UNL     1      -6.967  10.587   6.713  1.00  0.00     0.006 C 
BRANCH  12  13
ATOM     13  C   UNL     1      -5.856  11.622   6.472  1.00  0.00     0.053 C 
BRANCH  13  14
ATOM     14  C   UNL     1      -4.683  11.009   5.769  1.00  0.00     0.041 C 
ATOM     15  O   UNL     1      -4.051  10.050   6.291  1.00  0.00    -0.550 OA
ATOM     16  O   UNL     1      -4.313  11.470   4.510  1.00  0.00    -0.550 OA
ENDBRANCH  13  14
ENDBRANCH  12  13
ENDBRANCH  11  12
ENDBRANCH  10  11
ENDBRANCH   9  10
ENDBRANCH   8   9
ENDBRANCH   7   8
ENDBRANCH   6   7
ENDBRANCH   5   6
ENDBRANCH   4   5
ENDBRANCH   3   4
ENDBRANCH   2   3
ENDBRANCH   1   2
BRANCH   1  17
ATOM     17  C   UNL     1     -14.202   5.951   7.650  1.00  0.00     0.000 C 
BRANCH  17  18
ATOM     18  C   UNL     1     -14.884   7.310   7.436  1.00  0.00     0.000 C 
BRANCH  18  19
ATOM     19  C   UNL     1     -14.186   8.450   8.191  1.00  0.00     0.000 C 
BRANCH  19  20
ATOM     20  C   UNL     1     -12.791   8.708   7.612  1.00  0.00     0.000 C 
BRANCH  20  21
ATOM     21  C   UNL     1     -12.344  10.155   7.853  1.00  0.00     0.000 C 
BRANCH  21  22
ATOM     22  C   UNL     1     -11.218  10.549   6.890  1.00  0.00    -0.000 C 
BRANCH  22  23
ATOM     23  C   UNL     1     -11.786  11.055   5.556  1.00  0.00    -0.000 C 
BRANCH  23  24
ATOM     24  C   UNL     1     -13.154  11.733   5.714  1.00  0.00    -0.000 C 
BRANCH  24  25
ATOM     25  C   UNL     1     -14.238  11.108   4.817  1.00  0.00    -0.000 C 
BRANCH  25  26
ATOM     26  C   UNL     1     -13.739   9.833   4.102  1.00  0.00    -0.000 C 
BRANCH  26  27
ATOM     27  C   UNL     1     -14.123   9.777   2.612  1.00  0.00    -0.000 C 
BRANCH  27  28
ATOM     28  C   UNL     1     -13.908  11.117   1.891  1.00  0.00    -0.000 C 
BRANCH  28  29
ATOM     29  C   UNL     1     -12.421  11.435   1.671  1.00  0.00    -0.003 C 
ATOM     30  C   UNL     1     -11.854  10.767   0.419  1.00  0.00     0.004 C 
ENDBRANCH  28  29
ENDBRANCH  27  28
ENDBRANCH  26  27
ENDBRANCH  25  26
ENDBRANCH  24  25
ENDBRANCH  23  24
ENDBRANCH  22  23
ENDBRANCH  21  22
ENDBRANCH  20  21
ENDBRANCH  19  20
ENDBRANCH  18  19
ENDBRANCH  17  18
ENDBRANCH   1  17
TORSDOF 26
ENDMDL
MODEL 8
REMARK VINA RESULT:    -3.766      2.571      5.670
REMARK INTER + INTRA:         -13.720
REMARK INTER:                 -10.072
REMARK INTRA:                  -3.648
REMARK UNBOUND:                -4.229
REMARK SMILES CCCCCCCCCCCCCCCCCCCCCCCCCCCC(=O)[O-]
REMARK SMILES IDX 15 1 16 2 17 3 18 4 19 5 20 6 21 7 22 8 23 9 24 10 25 11
REMARK SMILES IDX 26 12 27 13 28 14 29 15 30 16 14 17 13 18 12 19 11 20 10 21
REMARK SMILES IDX 9 22 8 23 7 24 6 25 5 26 4 27 3 28 2 29 1 30
REMARK H PARENT
REMARK Flexibility Score: inf
ROOT
ATOM      1  C   UNL     1      -9.911   7.661   6.304  1.00  0.00     0.000 C 
ENDROOT
BRANCH   1   2
ATOM      2  C   UNL     1      -8.501   7.934   5.737  1.00  0.00     0.000 C 
BRANCH   2   3
ATOM      3  C   UNL     1      -7.612   8.781   6.665  1.00  0.00     0.000 C 
BRANCH   3   4
ATOM      4  C   UNL     1      -6.589   9.633   5.902  1.00  0.00     0.000 C 
BRANCH   4   5
ATOM      5  C   UNL     1      -7.197  10.975   5.461  1.00  0.00     0.000 C 
BRANCH   5   6
ATOM      6  C   UNL     1      -7.433  11.941   6.635  1.00  0.00     0.000 C 
BRANCH   6   7
ATOM      7  C   UNL     1      -8.758  11.746   7.397  1.00  0.00     0.000 C 
BRANCH   7   8
ATOM      8  C   UNL     1     -10.019  12.125   6.592  1.00  0.00     0.000 C 
BRANCH   8   9
ATOM      9  C   UNL     1     -10.247  11.211   5.371  1.00  0.00     0.000 C 
BRANCH   9  10
ATOM     10  C   UNL     1     -11.730  10.831   5.177  1.00  0.00     0.000 C 
BRANCH  10  11
ATOM     11  C   UNL     1     -12.615  11.990   4.679  1.00  0.00     0.000 C 
BRANCH  11  12
ATOM     12  C   UNL     1     -12.890  12.001   3.166  1.00  0.00     0.006 C 
BRANCH  12  13
ATOM     13  C   UNL     1     -13.903  10.928   2.736  1.00  0.00     0.053 C 
BRANCH  13  14
ATOM     14  C   UNL     1     -13.359  10.075   1.630  1.00  0.00     0.041 C 
ATOM     15  O   UNL     1     -13.949   9.014   1.288  1.00  0.00    -0.550 OA
ATOM     16  O   UNL     1     -12.220  10.479   0.942  1.00  0.00    -0.550 OA
ENDBRANCH  13  14
ENDBRANCH  12  13
ENDBRANCH  11  12
ENDBRANCH  10  11
ENDBRANCH   9  10
ENDBRANCH   8   9
ENDBRANCH   7   8
ENDBRANCH   6   7
ENDBRANCH   5   6
ENDBRANCH   4   5
ENDBRANCH   3   4
ENDBRANCH   2   3
ENDBRANCH   1   2
BRANCH   1  17
ATOM     17  C   UNL     1     -10.316   6.185   6.155  1.00  0.00     0.000 C 
BRANCH  17  18
ATOM     18  C   UNL     1     -10.012   5.354   7.410  1.00  0.00     0.000 C 
BRANCH  18  19
ATOM     19  C   UNL     1     -10.690   3.976   7.389  1.00  0.00     0.000 C 
BRANCH  19  20
ATOM     20  C   UNL     1     -11.943   3.977   8.272  1.00  0.00     0.000 C 
BRANCH  20  21
ATOM     21  C   UNL     1     -13.162   4.512   7.512  1.00  0.00     0.000 C 
BRANCH  21  22
ATOM     22  C   UNL     1     -13.968   5.485   8.382  1.00  0.00    -0.000 C 
BRANCH  22  23
ATOM     23  C   UNL     1     -13.084   6.633   8.888  1.00  0.00    -0.000 C 
BRANCH  23  24
ATOM     24  C   UNL     1     -13.170   7.883   7.999  1.00  0.00    -0.000 C 
BRANCH  24  25
ATOM     25  C   UNL     1     -14.550   8.052   7.339  1.00  0.00    -0.000 C 
BRANCH  25  26
ATOM     26  C   UNL     1     -14.477   8.882   6.039  1.00  0.00    -0.000 C 
BRANCH  26  27
ATOM     27  C   UNL     1     -14.195   8.034   4.785  1.00  0.00    -0.000 C 
BRANCH  27  28
ATOM     28  C   UNL     1     -14.758   6.608   4.894  1.00  0.00    -0.000 C 
BRANCH  28  29
ATOM     29  C   UNL     1     -14.363   5.725   3.700  1.00  0.00    -0.003 C 
ATOM     30  C   UNL     1     -13.164   4.826   4.004  1.00  0.00     0.004 C 
ENDBRANCH  28  29
ENDBRANCH  27  28
ENDBRANCH  26  27
ENDBRANCH  25  26
ENDBRANCH  24  25
ENDBRANCH  23  24
ENDBRANCH  22  23
ENDBRANCH  21  22
ENDBRANCH  20  21
ENDBRANCH  19  20
ENDBRANCH  18  19
ENDBRANCH  17  18
ENDBRANCH   1  17
TORSDOF 26
ENDMDL
MODEL 9
REMARK VINA RESULT:    -3.632      1.563      3.206
REMARK INTER + INTRA:         -13.381
REMARK INTER:                 -10.027
REMARK INTRA:                  -3.353
REMARK UNBOUND:                -4.229
REMARK SMILES CCCCCCCCCCCCCCCCCCCCCCCCCCCC(=O)[O-]
REMARK SMILES IDX 15 1 16 2 17 3 18 4 19 5 20 6 21 7 22 8 23 9 24 10 25 11
REMARK SMILES IDX 26 12 27 13 28 14 29 15 30 16 14 17 13 18 12 19 11 20 10 21
REMARK SMILES IDX 9 22 8 23 7 24 6 25 5 26 4 27 3 28 2 29 1 30
REMARK H PARENT
REMARK Flexibility Score: inf
ROOT
ATOM      1  C   UNL     1     -10.655   4.223   7.907  1.00  0.00     0.000 C 
ENDROOT
BRANCH   1   2
ATOM      2  C   UNL     1     -11.681   4.189   6.754  1.00  0.00     0.000 C 
BRANCH   2   3
ATOM      3  C   UNL     1     -11.158   4.795   5.439  1.00  0.00     0.000 C 
BRANCH   3   4
ATOM      4  C   UNL     1      -9.646   5.059   5.458  1.00  0.00     0.000 C 
BRANCH   4   5
ATOM      5  C   UNL     1      -9.332   6.532   5.150  1.00  0.00     0.000 C 
BRANCH   5   6
ATOM      6  C   UNL     1      -9.200   7.395   6.416  1.00  0.00     0.000 C 
BRANCH   6   7
ATOM      7  C   UNL     1      -9.938   8.747   6.377  1.00  0.00     0.000 C 
BRANCH   7   8
ATOM      8  C   UNL     1      -9.028   9.962   6.097  1.00  0.00     0.000 C 
BRANCH   8   9
ATOM      9  C   UNL     1      -7.793   9.603   5.246  1.00  0.00     0.000 C 
BRANCH   9  10
ATOM     10  C   UNL     1      -6.479   9.648   6.053  1.00  0.00     0.000 C 
BRANCH  10  11
ATOM     11  C   UNL     1      -6.295  10.934   6.882  1.00  0.00     0.000 C 
BRANCH  11  12
ATOM     12  C   UNL     1      -4.967  11.676   6.655  1.00  0.00     0.006 C 
BRANCH  12  13
ATOM     13  C   UNL     1      -3.889  10.787   6.014  1.00  0.00     0.053 C 
BRANCH  13  14
ATOM     14  C   UNL     1      -3.237  11.472   4.851  1.00  0.00     0.041 C 
ATOM     15  O   UNL     1      -3.904  11.764   3.821  1.00  0.00    -0.550 OA
ATOM     16  O   UNL     1      -1.896  11.831   4.924  1.00  0.00    -0.550 OA
ENDBRANCH  13  14
ENDBRANCH  12  13
ENDBRANCH  11  12
ENDBRANCH  10  11
ENDBRANCH   9  10
ENDBRANCH   8   9
ENDBRANCH   7   8
ENDBRANCH   6   7
ENDBRANCH   5   6
ENDBRANCH   4   5
ENDBRANCH   3   4
ENDBRANCH   2   3
ENDBRANCH   1   2
BRANCH   1  17
ATOM     17  C   UNL     1     -11.175   5.017   9.118  1.00  0.00     0.000 C 
BRANCH  17  18
ATOM     18  C   UNL     1     -12.605   5.539   8.917  1.00  0.00     0.000 C 
BRANCH  18  19
ATOM     19  C   UNL     1     -12.642   6.962   8.341  1.00  0.00     0.000 C 
BRANCH  19  20
ATOM     20  C   UNL     1     -14.075   7.357   7.968  1.00  0.00     0.000 C 
BRANCH  20  21
ATOM     21  C   UNL     1     -14.095   8.340   6.791  1.00  0.00     0.000 C 
BRANCH  21  22
ATOM     22  C   UNL     1     -13.511   7.697   5.528  1.00  0.00    -0.000 C 
BRANCH  22  23
ATOM     23  C   UNL     1     -14.622   7.125   4.636  1.00  0.00    -0.000 C 
BRANCH  23  24
ATOM     24  C   UNL     1     -14.076   6.252   3.497  1.00  0.00    -0.000 C 
BRANCH  24  25
ATOM     25  C   UNL     1     -14.217   6.916   2.116  1.00  0.00    -0.000 C 
BRANCH  25  26
ATOM     26  C   UNL     1     -14.549   8.420   2.223  1.00  0.00    -0.000 C 
BRANCH  26  27
ATOM     27  C   UNL     1     -13.541   9.325   1.490  1.00  0.00    -0.000 C 
BRANCH  27  28
ATOM     28  C   UNL     1     -13.674  10.804   1.883  1.00  0.00    -0.000 C 
BRANCH  28  29
ATOM     29  C   UNL     1     -12.456  11.318   2.665  1.00  0.00    -0.003 C 
ATOM     30  C   UNL     1     -12.527  10.982   4.155  1.00  0.00     0.004 C 
ENDBRANCH  28  29
ENDBRANCH  27  28
ENDBRANCH  26  27
ENDBRANCH  25  26
ENDBRANCH  24  25
ENDBRANCH  23  24
ENDBRANCH  22  23
ENDBRANCH  21  22
ENDBRANCH  20  21
ENDBRANCH  19  20
ENDBRANCH  18  19
ENDBRANCH  17  18
ENDBRANCH   1  17
TORSDOF 26
ENDMDL
