MODEL 1
REMARK VINA RESULT:    -3.285      0.000      0.000
REMARK INTER + INTRA:          -5.002
REMARK INTER:                  -4.437
REMARK INTRA:                  -0.565
REMARK UNBOUND:                -0.565
REMARK SMILES CCCCCCCC(=O)[O-]
REMARK SMILES IDX 5 1 6 2 7 3 8 4 9 5 10 6 4 7 3 8 2 9 1 10
REMARK H PARENT
REMARK Flexibility Score: inf
ROOT
ATOM      1  C   UNL     1      24.061  33.589  10.790  1.00  0.00     0.000 C 
ENDROOT
BRANCH   1   2
ATOM      2  C   UNL     1      22.944  34.486  11.352  1.00  0.00     0.006 C 
BRANCH   2   3
ATOM      3  C   UNL     1      22.617  34.155  12.814  1.00  0.00     0.053 C 
BRANCH   3   4
ATOM      4  C   UNL     1      22.647  35.378  13.679  1.00  0.00     0.041 C 
ATOM      5  O   UNL     1      23.535  36.254  13.508  1.00  0.00    -0.550 OA
ATOM      6  O   UNL     1      21.672  35.567  14.651  1.00  0.00    -0.550 OA
ENDBRANCH   3   4
ENDBRANCH   2   3
ENDBRANCH   1   2
BRANCH   1   7
ATOM      7  C   UNL     1      24.392  32.408  11.714  1.00  0.00     0.000 C 
BRANCH   7   8
ATOM      8  C   UNL     1      25.877  32.361  12.106  1.00  0.00    -0.000 C 
BRANCH   8   9
ATOM      9  C   UNL     1      26.490  33.766  12.097  1.00  0.00    -0.003 C 
ATOM     10  C   UNL     1      26.536  34.357  13.504  1.00  0.00     0.004 C 
ENDBRANCH   8   9
ENDBRANCH   7   8
ENDBRANCH   1   7
TORSDOF 6
ENDMDL
MODEL 2
REMARK VINA RESULT:    -3.227      1.661      2.569
REMARK INTER + INTRA:          -4.924
REMARK INTER:                  -4.555
REMARK INTRA:                  -0.370
REMARK UNBOUND:                -0.565
REMARK SMILES CCCCCCCC(=O)[O-]
REMARK SMILES IDX 5 1 6 2 7 3 8 4 9 5 10 6 4 7 3 8 2 9 1 10
REMARK H PARENT
REMARK Flexibility Score: inf
ROOT
ATOM      1  C   UNL     1      22.903  34.640  11.412  1.00  0.00     0.000 C 
ENDROOT
BRANCH   1   2
ATOM      2  C   UNL     1      22.989  34.260  12.902  1.00  0.00     0.006 C 
BRANCH   2   3
ATOM      3  C   UNL     1      22.810  35.477  13.819  1.00  0.00     0.053 C 
BRANCH   3   4
ATOM      4  C   UNL     1      24.080  36.259  13.956  1.00  0.00     0.041 C 
ATOM      5  O   UNL     1      24.048  37.516  14.024  1.00  0.00    -0.550 OA
ATOM      6  O   UNL     1      25.299  35.597  14.042  1.00  0.00    -0.550 OA
ENDBRANCH   3   4
ENDBRANCH   2   3
ENDBRANCH   1   2
BRANCH   1   7
ATOM      7  C   UNL     1      23.741  33.713  10.517  1.00  0.00     0.000 C 
BRANCH   7   8
ATOM      8  C   UNL     1      25.072  33.306  11.169  1.00  0.00    -0.000 C 
BRANCH   8   9
ATOM      9  C   UNL     1      25.327  31.804  10.998  1.00  0.00    -0.003 C 
ATOM     10  C   UNL     1      24.921  31.330   9.604  1.00  0.00     0.004 C 
ENDBRANCH   8   9
ENDBRANCH   7   8
ENDBRANCH   1   7
TORSDOF 6
ENDMDL
MODEL 3
REMARK VINA RESULT:    -3.225      1.288      2.760
REMARK INTER + INTRA:          -4.921
REMARK INTER:                  -4.533
REMARK INTRA:                  -0.388
REMARK UNBOUND:                -0.565
REMARK SMILES CCCCCCCC(=O)[O-]
REMARK SMILES IDX 5 1 6 2 7 3 8 4 9 5 10 6 4 7 3 8 2 9 1 10
REMARK H PARENT
REMARK Flexibility Score: inf
ROOT
ATOM      1  C   UNL     1      26.568  34.283  13.468  1.00  0.00     0.000 C 
ENDROOT
BRANCH   1   2
ATOM      2  C   UNL     1      25.162  34.276  14.093  1.00  0.00     0.006 C 
BRANCH   2   3
ATOM      3  C   UNL     1      24.420  35.599  13.861  1.00  0.00     0.053 C 
BRANCH   3   4
ATOM      4  C   UNL     1      23.049  35.373  13.301  1.00  0.00     0.041 C 
ATOM      5  O   UNL     1      22.887  35.218  12.062  1.00  0.00    -0.550 OA
ATOM      6  O   UNL     1      21.953  35.300  14.152  1.00  0.00    -0.550 OA
ENDBRANCH   3   4
ENDBRANCH   2   3
ENDBRANCH   1   2
BRANCH   1   7
ATOM      7  C   UNL     1      26.570  33.795  12.010  1.00  0.00     0.000 C 
BRANCH   7   8
ATOM      8  C   UNL     1      25.705  32.542  11.805  1.00  0.00    -0.000 C 
BRANCH   8   9
ATOM      9  C   UNL     1      24.814  32.689  10.566  1.00  0.00    -0.003 C 
ATOM     10  C   UNL     1      24.860  31.431   9.701  1.00  0.00     0.004 C 
ENDBRANCH   8   9
ENDBRANCH   7   8
ENDBRANCH   1   7
TORSDOF 6
ENDMDL
MODEL 4
REMARK VINA RESULT:    -3.217      1.339      2.239
REMARK INTER + INTRA:          -4.910
REMARK INTER:                  -4.535
REMARK INTRA:                  -0.375
REMARK UNBOUND:                -0.565
REMARK SMILES CCCCCCCC(=O)[O-]
REMARK SMILES IDX 5 1 6 2 7 3 8 4 9 5 10 6 4 7 3 8 2 9 1 10
REMARK H PARENT
REMARK Flexibility Score: inf
ROOT
ATOM      1  C   UNL     1      23.937  33.889  10.796  1.00  0.00     0.000 C 
ENDROOT
BRANCH   1   2
ATOM      2  C   UNL     1      22.793  34.468  11.648  1.00  0.00     0.006 C 
BRANCH   2   3
ATOM      3  C   UNL     1      23.075  34.350  13.152  1.00  0.00     0.053 C 
BRANCH   3   4
ATOM      4  C   UNL     1      22.924  35.667  13.848  1.00  0.00     0.041 C 
ATOM      5  O   UNL     1      23.732  36.605  13.615  1.00  0.00    -0.550 OA
ATOM      6  O   UNL     1      21.869  35.872  14.730  1.00  0.00    -0.550 OA
ENDBRANCH   3   4
ENDBRANCH   2   3
ENDBRANCH   1   2
BRANCH   1   7
ATOM      7  C   UNL     1      25.088  33.335  11.651  1.00  0.00     0.000 C 
BRANCH   7   8
ATOM      8  C   UNL     1      25.408  31.866  11.330  1.00  0.00    -0.000 C 
BRANCH   8   9
ATOM      9  C   UNL     1      24.579  31.372  10.140  1.00  0.00    -0.003 C 
ATOM     10  C   UNL     1      25.478  30.875   9.010  1.00  0.00     0.004 C 
ENDBRANCH   8   9
ENDBRANCH   7   8
ENDBRANCH   1   7
TORSDOF 6
ENDMDL
MODEL 5
REMARK VINA RESULT:    -3.152      2.464      4.326
REMARK INTER + INTRA:          -4.822
REMARK INTER:                  -4.220
REMARK INTRA:                  -0.602
REMARK UNBOUND:                -0.565
REMARK SMILES CCCCCCCC(=O)[O-]
REMARK SMILES IDX 5 1 6 2 7 3 8 4 9 5 10 6 4 7 3 8 2 9 1 10
REMARK H PARENT
REMARK Flexibility Score: inf
ROOT
ATOM      1  C   UNL     1      26.574  34.490  13.421  1.00  0.00     0.000 C 
ENDROOT
BRANCH   1   2
ATOM      2  C   UNL     1      26.615  33.846  12.024  1.00  0.00     0.006 C 
BRANCH   2   3
ATOM      3  C   UNL     1      25.682  32.632  11.919  1.00  0.00     0.053 C 
BRANCH   3   4
ATOM      4  C   UNL     1      24.825  32.697  10.692  1.00  0.00     0.041 C 
ATOM      5  O   UNL     1      24.033  33.660  10.520  1.00  0.00    -0.550 OA
ATOM      6  O   UNL     1      24.927  31.709   9.720  1.00  0.00    -0.550 OA
ENDBRANCH   3   4
ENDBRANCH   2   3
ENDBRANCH   1   2
BRANCH   1   7
ATOM      7  C   UNL     1      25.190  34.386  14.080  1.00  0.00     0.000 C 
BRANCH   7   8
ATOM      8  C   UNL     1      24.371  35.680  13.946  1.00  0.00    -0.000 C 
BRANCH   8   9
ATOM      9  C   UNL     1      22.975  35.389  13.386  1.00  0.00    -0.003 C 
ATOM     10  C   UNL     1      22.532  33.966  13.719  1.00  0.00     0.004 C 
ENDBRANCH   8   9
ENDBRANCH   7   8
ENDBRANCH   1   7
TORSDOF 6
ENDMDL
MODEL 6
REMARK VINA RESULT:    -3.095     16.948     18.340
REMARK INTER + INTRA:          -4.745
REMARK INTER:                  -4.332
REMARK INTRA:                  -0.413
REMARK UNBOUND:                -0.565
REMARK SMILES CCCCCCCC(=O)[O-]
REMARK SMILES IDX 5 1 6 2 7 3 8 4 9 5 10 6 4 7 3 8 2 9 1 10
REMARK H PARENT
REMARK Flexibility Score: inf
ROOT
ATOM      1  C   UNL     1      10.586  32.426   2.578  1.00  0.00     0.000 C 
ENDROOT
BRANCH   1   2
ATOM      2  C   UNL     1      10.324  31.018   2.014  1.00  0.00     0.006 C 
BRANCH   2   3
ATOM      3  C   UNL     1       9.195  31.012   0.976  1.00  0.00     0.053 C 
BRANCH   3   4
ATOM      4  C   UNL     1       9.729  30.937  -0.422  1.00  0.00     0.041 C 
ATOM      5  O   UNL     1       8.941  30.960  -1.404  1.00  0.00    -0.550 OA
ATOM      6  O   UNL     1      11.099  30.877  -0.641  1.00  0.00    -0.550 OA
ENDBRANCH   3   4
ENDBRANCH   2   3
ENDBRANCH   1   2
BRANCH   1   7
ATOM      7  C   UNL     1      10.526  32.469   4.113  1.00  0.00     0.000 C 
BRANCH   7   8
ATOM      8  C   UNL     1      10.396  31.072   4.739  1.00  0.00    -0.000 C 
BRANCH   8   9
ATOM      9  C   UNL     1       9.224  31.022   5.727  1.00  0.00    -0.003 C 
ATOM     10  C   UNL     1       8.054  31.873   5.238  1.00  0.00     0.004 C 
ENDBRANCH   8   9
ENDBRANCH   7   8
ENDBRANCH   1   7
TORSDOF 6
ENDMDL
MODEL 7
REMARK VINA RESULT:    -3.014      2.733      4.586
REMARK INTER + INTRA:          -4.637
REMARK INTER:                  -4.348
REMARK INTRA:                  -0.289
REMARK UNBOUND:                -0.565
REMARK SMILES CCCCCCCC(=O)[O-]
REMARK SMILES IDX 5 1 6 2 7 3 8 4 9 5 10 6 4 7 3 8 2 9 1 10
REMARK H PARENT
REMARK Flexibility Score: inf
ROOT
ATOM      1  C   UNL     1      23.360  35.629  13.639  1.00  0.00     0.000 C 
ENDROOT
BRANCH   1   2
ATOM      2  C   UNL     1      22.453  34.673  12.844  1.00  0.00     0.006 C 
BRANCH   2   3
ATOM      3  C   UNL     1      23.053  34.308  11.480  1.00  0.00     0.053 C 
BRANCH   3   4
ATOM      4  C   UNL     1      24.169  33.319  11.613  1.00  0.00     0.041 C 
ATOM      5  O   UNL     1      24.029  32.296  12.334  1.00  0.00    -0.550 OA
ATOM      6  O   UNL     1      25.355  33.508  10.913  1.00  0.00    -0.550 OA
ENDBRANCH   3   4
ENDBRANCH   2   3
ENDBRANCH   1   2
BRANCH   1   7
ATOM      7  C   UNL     1      22.642  36.263  14.841  1.00  0.00     0.000 C 
BRANCH   7   8
ATOM      8  C   UNL     1      23.133  37.688  15.140  1.00  0.00    -0.000 C 
BRANCH   8   9
ATOM      9  C   UNL     1      24.259  38.091  14.182  1.00  0.00    -0.003 C 
ATOM     10  C   UNL     1      23.952  39.422  13.499  1.00  0.00     0.004 C 
ENDBRANCH   8   9
ENDBRANCH   7   8
ENDBRANCH   1   7
TORSDOF 6
ENDMDL
MODEL 8
REMARK VINA RESULT:    -3.002      2.880      4.125
REMARK INTER + INTRA:          -4.620
REMARK INTER:                  -4.175
REMARK INTRA:                  -0.444
REMARK UNBOUND:                -0.565
REMARK SMILES CCCCCCCC(=O)[O-]
REMARK SMILES IDX 5 1 6 2 7 3 8 4 9 5 10 6 4 7 3 8 2 9 1 10
REMARK H PARENT
REMARK Flexibility Score: inf
ROOT
ATOM      1  C   UNL     1      22.884  35.016  12.128  1.00  0.00     0.000 C 
ENDROOT
BRANCH   1   2
ATOM      2  C   UNL     1      23.329  33.576  11.817  1.00  0.00     0.006 C 
BRANCH   2   3
ATOM      3  C   UNL     1      24.327  33.518  10.653  1.00  0.00     0.053 C 
BRANCH   3   4
ATOM      4  C   UNL     1      24.960  32.165  10.533  1.00  0.00     0.041 C 
ATOM      5  O   UNL     1      25.638  31.696  11.485  1.00  0.00    -0.550 OA
ATOM      6  O   UNL     1      24.772  31.408   9.383  1.00  0.00    -0.550 OA
ENDBRANCH   3   4
ENDBRANCH   2   3
ENDBRANCH   1   2
BRANCH   1   7
ATOM      7  C   UNL     1      22.969  35.351  13.625  1.00  0.00     0.000 C 
BRANCH   7   8
ATOM      8  C   UNL     1      24.226  36.160  13.981  1.00  0.00    -0.000 C 
BRANCH   8   9
ATOM      9  C   UNL     1      25.236  35.297  14.745  1.00  0.00    -0.003 C 
ATOM     10  C   UNL     1      26.268  34.688  13.800  1.00  0.00     0.004 C 
ENDBRANCH   8   9
ENDBRANCH   7   8
ENDBRANCH   1   7
TORSDOF 6
ENDMDL
MODEL 9
REMARK VINA RESULT:    -3.001      2.797      4.568
REMARK INTER + INTRA:          -4.618
REMARK INTER:                  -4.349
REMARK INTRA:                  -0.269
REMARK UNBOUND:                -0.565
REMARK SMILES CCCCCCCC(=O)[O-]
REMARK SMILES IDX 5 1 6 2 7 3 8 4 9 5 10 6 4 7 3 8 2 9 1 10
REMARK H PARENT
REMARK Flexibility Score: inf
ROOT
ATOM      1  C   UNL     1      25.995  34.933  13.956  1.00  0.00     0.000 C 
ENDROOT
BRANCH   1   2
ATOM      2  C   UNL     1      25.708  33.559  13.324  1.00  0.00     0.006 C 
BRANCH   2   3
ATOM      3  C   UNL     1      26.012  33.540  11.820  1.00  0.00     0.053 C 
BRANCH   3   4
ATOM      4  C   UNL     1      24.776  33.302  11.009  1.00  0.00     0.041 C 
ATOM      5  O   UNL     1      23.759  34.026  11.174  1.00  0.00    -0.550 OA
ATOM      6  O   UNL     1      24.758  32.302  10.044  1.00  0.00    -0.550 OA
ENDBRANCH   3   4
ENDBRANCH   2   3
ENDBRANCH   1   2
BRANCH   1   7
ATOM      7  C   UNL     1      24.766  35.528  14.660  1.00  0.00     0.000 C 
BRANCH   7   8
ATOM      8  C   UNL     1      24.082  36.626  13.830  1.00  0.00    -0.000 C 
BRANCH   8   9
ATOM      9  C   UNL     1      24.332  38.010  14.441  1.00  0.00    -0.003 C 
ATOM     10  C   UNL     1      24.052  39.118  13.429  1.00  0.00     0.004 C 
ENDBRANCH   8   9
ENDBRANCH   7   8
ENDBRANCH   1   7
TORSDOF 6
ENDMDL
