MODEL 1
REMARK VINA RESULT:     5.071      0.000      0.000
REMARK INTER + INTRA:           5.071
REMARK INTER:                   5.071
REMARK INTRA:                   0.000
REMARK UNBOUND:                 0.000
REMARK SMILES C[C@@H]1CCC=C2CC[C@@H]3[C@@H](C3(C)C)[C@]21C
REMARK SMILES IDX 1 1 2 2 3 3 4 4 5 5 6 6 14 7 10 8 9 9 11 10 12 11 13 12 8 13
REMARK SMILES IDX 7 14 15 15
REMARK H PARENT
REMARK Flexibility Score: inf
ROOT
ATOM      1  C   UNL     1     -12.236  -4.059  16.742  1.00  0.00     0.008 C 
ATOM      2  C   UNL     1     -13.757  -3.998  16.501  1.00  0.00    -0.004 C 
ATOM      3  C   UNL     1     -14.140  -4.909  15.324  1.00  0.00     0.008 C 
ATOM      4  C   UNL     1     -15.660  -5.002  15.196  1.00  0.00     0.027 C 
ATOM      5  C   UNL     1     -16.338  -3.661  15.259  1.00  0.00    -0.027 C 
ATOM      6  C   UNL     1     -15.791  -2.577  15.856  1.00  0.00    -0.068 C 
ATOM      7  C   UNL     1     -14.330  -2.544  16.310  1.00  0.00    -0.005 C 
ATOM      8  C   UNL     1     -14.139  -1.722  17.631  1.00  0.00     0.009 C 
ATOM      9  C   UNL     1     -15.290  -0.814  18.124  1.00  0.00    -0.000 C 
ATOM     10  C   UNL     1     -14.860  -2.041  18.956  1.00  0.00    -0.028 C 
ATOM     11  C   UNL     1     -15.818  -3.239  19.093  1.00  0.00     0.012 C 
ATOM     12  C   UNL     1     -14.066  -1.696  20.222  1.00  0.00     0.012 C 
ATOM     13  C   UNL     1     -16.668  -0.869  17.430  1.00  0.00     0.009 C 
ATOM     14  C   UNL     1     -16.599  -1.311  15.975  1.00  0.00     0.031 C 
ATOM     15  C   UNL     1     -13.543  -1.789  15.204  1.00  0.00     0.017 C 
ENDROOT
TORSDOF 0
ENDMDL
