MODEL 1
REMARK VINA RESULT:    -3.660      0.000      0.000
REMARK INTER + INTRA:          -4.813
REMARK INTER:                  -4.730
REMARK INTRA:                  -0.084
REMARK UNBOUND:                -0.084
REMARK SMILES CCCCCCC(=O)[O-]
REMARK SMILES IDX 5 1 6 2 7 3 8 4 9 5 4 6 3 7 2 8 1 9
REMARK H PARENT
REMARK Flexibility Score: inf
ROOT
ATOM      1  C   UNL     1     302.957 323.897 648.343  1.00  0.00     0.006 C 
ENDROOT
BRANCH   1   2
ATOM      2  C   UNL     1     303.941 322.724 648.347  1.00  0.00     0.053 C 
BRANCH   2   3
ATOM      3  C   UNL     1     305.038 322.964 649.335  1.00  0.00     0.041 C 
ATOM      4  O   UNL     1     305.034 322.366 650.444  1.00  0.00    -0.550 OA
ATOM      5  O   UNL     1     306.091 323.810 649.013  1.00  0.00    -0.550 OA
ENDBRANCH   2   3
ENDBRANCH   1   2
BRANCH   1   6
ATOM      6  C   UNL     1     301.763 323.611 647.425  1.00  0.00     0.000 C 
BRANCH   6   7
ATOM      7  C   UNL     1     300.558 324.483 647.800  1.00  0.00    -0.000 C 
BRANCH   7   8
ATOM      8  C   UNL     1     299.255 323.881 647.261  1.00  0.00    -0.003 C 
ATOM      9  C   UNL     1     298.958 324.386 645.852  1.00  0.00     0.004 C 
ENDBRANCH   7   8
ENDBRANCH   6   7
ENDBRANCH   1   6
TORSDOF 5
ENDMDL
MODEL 2
REMARK VINA RESULT:    -3.555      1.294      1.834
REMARK INTER + INTRA:          -4.678
REMARK INTER:                  -4.590
REMARK INTRA:                  -0.088
REMARK UNBOUND:                -0.084
REMARK SMILES CCCCCCC(=O)[O-]
REMARK SMILES IDX 5 1 6 2 7 3 8 4 9 5 4 6 3 7 2 8 1 9
REMARK H PARENT
REMARK Flexibility Score: inf
ROOT
ATOM      1  C   UNL     1     303.967 322.781 648.370  1.00  0.00     0.006 C 
ENDROOT
BRANCH   1   2
ATOM      2  C   UNL     1     305.063 323.018 649.412  1.00  0.00     0.053 C 
BRANCH   2   3
ATOM      3  C   UNL     1     305.297 321.779 650.218  1.00  0.00     0.041 C 
ATOM      4  O   UNL     1     304.845 320.672 649.823  1.00  0.00    -0.550 OA
ATOM      5  O   UNL     1     306.054 321.839 651.380  1.00  0.00    -0.550 OA
ENDBRANCH   2   3
ENDBRANCH   1   2
BRANCH   1   6
ATOM      6  C   UNL     1     302.952 323.930 648.367  1.00  0.00     0.000 C 
BRANCH   6   7
ATOM      7  C   UNL     1     301.798 323.644 647.398  1.00  0.00    -0.000 C 
BRANCH   7   8
ATOM      8  C   UNL     1     300.593 324.542 647.699  1.00  0.00    -0.003 C 
ATOM      9  C   UNL     1     299.282 323.780 647.527  1.00  0.00     0.004 C 
ENDBRANCH   7   8
ENDBRANCH   6   7
ENDBRANCH   1   6
TORSDOF 5
ENDMDL
MODEL 3
REMARK VINA RESULT:    -3.541      1.234      1.978
REMARK INTER + INTRA:          -4.659
REMARK INTER:                  -4.492
REMARK INTRA:                  -0.168
REMARK UNBOUND:                -0.084
REMARK SMILES CCCCCCC(=O)[O-]
REMARK SMILES IDX 5 1 6 2 7 3 8 4 9 5 4 6 3 7 2 8 1 9
REMARK H PARENT
REMARK Flexibility Score: inf
ROOT
ATOM      1  C   UNL     1     301.508 323.611 647.505  1.00  0.00     0.006 C 
ENDROOT
BRANCH   1   2
ATOM      2  C   UNL     1     302.813 324.328 647.860  1.00  0.00     0.053 C 
BRANCH   2   3
ATOM      3  C   UNL     1     303.885 323.337 648.186  1.00  0.00     0.041 C 
ATOM      4  O   UNL     1     304.308 322.548 647.301  1.00  0.00    -0.550 OA
ATOM      5  O   UNL     1     304.451 323.317 649.454  1.00  0.00    -0.550 OA
ENDBRANCH   2   3
ENDBRANCH   1   2
BRANCH   1   6
ATOM      6  C   UNL     1     300.292 324.493 647.813  1.00  0.00     0.000 C 
BRANCH   6   7
ATOM      7  C   UNL     1     299.049 323.999 647.063  1.00  0.00    -0.000 C 
BRANCH   7   8
ATOM      8  C   UNL     1     299.077 324.446 645.597  1.00  0.00    -0.003 C 
ATOM      9  C   UNL     1     298.875 325.954 645.478  1.00  0.00     0.004 C 
ENDBRANCH   7   8
ENDBRANCH   6   7
ENDBRANCH   1   6
TORSDOF 5
ENDMDL
MODEL 4
REMARK VINA RESULT:    -3.512      4.230      5.782
REMARK INTER + INTRA:          -4.622
REMARK INTER:                  -4.319
REMARK INTRA:                  -0.302
REMARK UNBOUND:                -0.084
REMARK SMILES CCCCCCC(=O)[O-]
REMARK SMILES IDX 5 1 6 2 7 3 8 4 9 5 4 6 3 7 2 8 1 9
REMARK H PARENT
REMARK Flexibility Score: inf
ROOT
ATOM      1  C   UNL     1     298.875 324.693 645.954  1.00  0.00     0.006 C 
ENDROOT
BRANCH   1   2
ATOM      2  C   UNL     1     298.909 326.199 646.225  1.00  0.00     0.053 C 
BRANCH   2   3
ATOM      3  C   UNL     1     299.706 326.903 645.173  1.00  0.00     0.041 C 
ATOM      4  O   UNL     1     299.841 328.155 645.213  1.00  0.00    -0.550 OA
ATOM      5  O   UNL     1     300.340 326.174 644.176  1.00  0.00    -0.550 OA
ENDBRANCH   2   3
ENDBRANCH   1   2
BRANCH   1   6
ATOM      6  C   UNL     1     299.252 323.899 647.210  1.00  0.00     0.000 C 
BRANCH   6   7
ATOM      7  C   UNL     1     300.502 324.484 647.878  1.00  0.00    -0.000 C 
BRANCH   7   8
ATOM      8  C   UNL     1     301.745 323.652 647.544  1.00  0.00    -0.003 C 
ATOM      9  C   UNL     1     302.391 324.126 646.245  1.00  0.00     0.004 C 
ENDBRANCH   7   8
ENDBRANCH   6   7
ENDBRANCH   1   6
TORSDOF 5
ENDMDL
MODEL 5
REMARK VINA RESULT:    -3.502      3.304      3.671
REMARK INTER + INTRA:          -4.610
REMARK INTER:                  -4.153
REMARK INTRA:                  -0.457
REMARK UNBOUND:                -0.084
REMARK SMILES CCCCCCC(=O)[O-]
REMARK SMILES IDX 5 1 6 2 7 3 8 4 9 5 4 6 3 7 2 8 1 9
REMARK H PARENT
REMARK Flexibility Score: inf
ROOT
ATOM      1  C   UNL     1     301.708 323.626 647.526  1.00  0.00     0.006 C 
ENDROOT
BRANCH   1   2
ATOM      2  C   UNL     1     302.831 324.466 646.912  1.00  0.00     0.053 C 
BRANCH   2   3
ATOM      3  C   UNL     1     302.512 324.812 645.493  1.00  0.00     0.041 C 
ATOM      4  O   UNL     1     302.330 323.900 644.644  1.00  0.00    -0.550 OA
ATOM      5  O   UNL     1     302.367 326.141 645.117  1.00  0.00    -0.550 OA
ENDBRANCH   2   3
ENDBRANCH   1   2
BRANCH   1   6
ATOM      6  C   UNL     1     300.462 324.479 647.789  1.00  0.00     0.000 C 
BRANCH   6   7
ATOM      7  C   UNL     1     299.212 323.831 647.182  1.00  0.00    -0.000 C 
BRANCH   7   8
ATOM      8  C   UNL     1     298.875 324.453 645.822  1.00  0.00    -0.003 C 
ATOM      9  C   UNL     1     298.888 325.977 645.896  1.00  0.00     0.004 C 
ENDBRANCH   7   8
ENDBRANCH   6   7
ENDBRANCH   1   6
TORSDOF 5
ENDMDL
MODEL 6
REMARK VINA RESULT:    -3.454      3.714      5.413
REMARK INTER + INTRA:          -4.547
REMARK INTER:                  -4.156
REMARK INTRA:                  -0.391
REMARK UNBOUND:                -0.084
REMARK SMILES CCCCCCC(=O)[O-]
REMARK SMILES IDX 5 1 6 2 7 3 8 4 9 5 4 6 3 7 2 8 1 9
REMARK H PARENT
REMARK Flexibility Score: inf
ROOT
ATOM      1  C   UNL     1     299.896 324.756 644.692  1.00  0.00     0.006 C 
ENDROOT
BRANCH   1   2
ATOM      2  C   UNL     1     300.189 326.163 644.164  1.00  0.00     0.053 C 
BRANCH   2   3
ATOM      3  C   UNL     1     300.778 327.016 645.242  1.00  0.00     0.041 C 
ATOM      4  O   UNL     1     301.929 326.766 645.690  1.00  0.00    -0.550 OA
ATOM      5  O   UNL     1     300.078 328.117 645.719  1.00  0.00    -0.550 OA
ENDBRANCH   2   3
ENDBRANCH   1   2
BRANCH   1   6
ATOM      6  C   UNL     1     298.875 324.798 645.835  1.00  0.00     0.000 C 
BRANCH   6   7
ATOM      7  C   UNL     1     299.306 323.889 646.993  1.00  0.00    -0.000 C 
BRANCH   7   8
ATOM      8  C   UNL     1     300.206 324.644 647.978  1.00  0.00    -0.003 C 
ATOM      9  C   UNL     1     301.645 324.140 647.904  1.00  0.00     0.004 C 
ENDBRANCH   7   8
ENDBRANCH   6   7
ENDBRANCH   1   6
TORSDOF 5
ENDMDL
MODEL 7
REMARK VINA RESULT:    -3.417      2.484      3.341
REMARK INTER + INTRA:          -4.500
REMARK INTER:                  -4.098
REMARK INTRA:                  -0.402
REMARK UNBOUND:                -0.084
REMARK SMILES CCCCCCC(=O)[O-]
REMARK SMILES IDX 5 1 6 2 7 3 8 4 9 5 4 6 3 7 2 8 1 9
REMARK H PARENT
REMARK Flexibility Score: inf
ROOT
ATOM      1  C   UNL     1     300.845 323.604 647.366  1.00  0.00     0.006 C 
ENDROOT
BRANCH   1   2
ATOM      2  C   UNL     1     301.912 324.575 647.878  1.00  0.00     0.053 C 
BRANCH   2   3
ATOM      3  C   UNL     1     302.886 324.906 646.792  1.00  0.00     0.041 C 
ATOM      4  O   UNL     1     304.093 325.134 647.071  1.00  0.00    -0.550 OA
ATOM      5  O   UNL     1     302.472 324.916 645.466  1.00  0.00    -0.550 OA
ENDBRANCH   2   3
ENDBRANCH   1   2
BRANCH   1   6
ATOM      6  C   UNL     1     299.466 324.272 647.324  1.00  0.00     0.000 C 
BRANCH   6   7
ATOM      7  C   UNL     1     298.928 324.336 645.890  1.00  0.00    -0.000 C 
BRANCH   7   8
ATOM      8  C   UNL     1     299.045 325.755 645.322  1.00  0.00    -0.003 C 
ATOM      9  C   UNL     1     299.269 326.776 646.434  1.00  0.00     0.004 C 
ENDBRANCH   7   8
ENDBRANCH   6   7
ENDBRANCH   1   6
TORSDOF 5
ENDMDL
MODEL 8
REMARK VINA RESULT:    -3.355      3.990      5.873
REMARK INTER + INTRA:          -4.419
REMARK INTER:                  -4.305
REMARK INTRA:                  -0.114
REMARK UNBOUND:                -0.084
REMARK SMILES CCCCCCC(=O)[O-]
REMARK SMILES IDX 5 1 6 2 7 3 8 4 9 5 4 6 3 7 2 8 1 9
REMARK H PARENT
REMARK Flexibility Score: inf
ROOT
ATOM      1  C   UNL     1     299.801 323.996 647.126  1.00  0.00     0.006 C 
ENDROOT
BRANCH   1   2
ATOM      2  C   UNL     1     298.875 324.363 645.963  1.00  0.00     0.053 C 
BRANCH   2   3
ATOM      3  C   UNL     1     299.126 325.768 645.515  1.00  0.00     0.041 C 
ATOM      4  O   UNL     1     299.353 326.014 644.301  1.00  0.00    -0.550 OA
ATOM      5  O   UNL     1     299.062 326.811 646.429  1.00  0.00    -0.550 OA
ENDBRANCH   2   3
ENDBRANCH   1   2
BRANCH   1   6
ATOM      6  C   UNL     1     301.267 324.274 646.772  1.00  0.00     0.000 C 
BRANCH   6   7
ATOM      7  C   UNL     1     302.169 324.126 648.003  1.00  0.00    -0.000 C 
BRANCH   7   8
ATOM      8  C   UNL     1     303.116 322.930 647.849  1.00  0.00    -0.003 C 
ATOM      9  C   UNL     1     304.319 323.058 648.778  1.00  0.00     0.004 C 
ENDBRANCH   7   8
ENDBRANCH   6   7
ENDBRANCH   1   6
TORSDOF 5
ENDMDL
MODEL 9
REMARK VINA RESULT:    -3.307      3.709      5.724
REMARK INTER + INTRA:          -4.357
REMARK INTER:                  -4.277
REMARK INTRA:                  -0.080
REMARK UNBOUND:                -0.084
REMARK SMILES CCCCCCC(=O)[O-]
REMARK SMILES IDX 5 1 6 2 7 3 8 4 9 5 4 6 3 7 2 8 1 9
REMARK H PARENT
REMARK Flexibility Score: inf
ROOT
ATOM      1  C   UNL     1     301.499 323.697 647.224  1.00  0.00     0.006 C 
ENDROOT
BRANCH   1   2
ATOM      2  C   UNL     1     300.130 324.203 647.687  1.00  0.00     0.053 C 
BRANCH   2   3
ATOM      3  C   UNL     1     299.455 324.965 646.591  1.00  0.00     0.041 C 
ATOM      4  O   UNL     1     298.880 324.351 645.654  1.00  0.00    -0.550 OA
ATOM      5  O   UNL     1     299.418 326.353 646.629  1.00  0.00    -0.550 OA
ENDBRANCH   2   3
ENDBRANCH   1   2
BRANCH   1   6
ATOM      6  C   UNL     1     302.578 323.988 648.273  1.00  0.00     0.000 C 
BRANCH   6   7
ATOM      7  C   UNL     1     303.699 322.944 648.217  1.00  0.00    -0.000 C 
BRANCH   7   8
ATOM      8  C   UNL     1     304.747 323.202 649.305  1.00  0.00    -0.003 C 
ATOM      9  C   UNL     1     305.103 321.915 650.043  1.00  0.00     0.004 C 
ENDBRANCH   7   8
ENDBRANCH   6   7
ENDBRANCH   1   6
TORSDOF 5
ENDMDL
