MODEL 1
REMARK VINA RESULT:    -4.658      0.000      0.000
REMARK INTER + INTRA:          -6.595
REMARK INTER:                  -6.292
REMARK INTRA:                  -0.303
REMARK UNBOUND:                -0.303
REMARK SMILES CCCCCCC=CC(=O)[O-]
REMARK SMILES IDX 5 1 6 2 7 3 8 4 9 5 10 6 11 7 4 8 3 9 2 10 1 11
REMARK H PARENT
REMARK Flexibility Score: inf
ROOT
ATOM      1  C   UNL     1      -0.791  -3.873   6.514  1.00  0.00     0.004 C 
ENDROOT
BRANCH   1   2
ATOM      2  C   UNL     1      -0.292  -5.326   6.569  1.00  0.00     0.027 C 
BRANCH   2   3
ATOM      3  C   UNL     1      -0.376  -5.876   7.967  1.00  0.00    -0.025 C 
ATOM      4  C   UNL     1       0.538  -5.705   8.938  1.00  0.00     0.020 C 
BRANCH   4   5
ATOM      5  C   UNL     1       1.786  -4.917   8.846  1.00  0.00     0.064 C 
ATOM      6  O   UNL     1       2.804  -5.344   8.243  1.00  0.00    -0.545 OA
ATOM      7  O   UNL     1       1.825  -3.656   9.424  1.00  0.00    -0.545 OA
ENDBRANCH   4   5
ENDBRANCH   2   3
ENDBRANCH   1   2
BRANCH   1   8
ATOM      8  C   UNL     1      -1.548  -3.559   5.215  1.00  0.00     0.000 C 
BRANCH   8   9
ATOM      9  C   UNL     1      -1.470  -2.069   4.837  1.00  0.00    -0.000 C 
BRANCH   9  10
ATOM     10  C   UNL     1      -1.478  -1.847   3.316  1.00  0.00    -0.003 C 
ATOM     11  C   UNL     1      -1.272  -3.140   2.527  1.00  0.00     0.004 C 
ENDBRANCH   9  10
ENDBRANCH   8   9
ENDBRANCH   1   8
TORSDOF 6
ENDMDL
MODEL 2
REMARK VINA RESULT:    -4.384      4.625      5.926
REMARK INTER + INTRA:          -6.225
REMARK INTER:                  -5.877
REMARK INTRA:                  -0.348
REMARK UNBOUND:                -0.303
REMARK SMILES CCCCCCC=CC(=O)[O-]
REMARK SMILES IDX 5 1 6 2 7 3 8 4 9 5 10 6 11 7 4 8 3 9 2 10 1 11
REMARK H PARENT
REMARK Flexibility Score: inf
ROOT
ATOM      1  C   UNL     1      -0.376  -6.835   6.856  1.00  0.00     0.004 C 
ENDROOT
BRANCH   1   2
ATOM      2  C   UNL     1      -1.510  -7.053   7.871  1.00  0.00     0.027 C 
BRANCH   2   3
ATOM      3  C   UNL     1      -1.962  -8.488   7.879  1.00  0.00    -0.025 C 
ATOM      4  C   UNL     1      -3.200  -8.923   8.165  1.00  0.00     0.020 C 
BRANCH   4   5
ATOM      5  C   UNL     1      -4.376  -8.087   8.491  1.00  0.00     0.064 C 
ATOM      6  O   UNL     1      -4.863  -8.039   9.650  1.00  0.00    -0.545 OA
ATOM      7  O   UNL     1      -4.946  -7.314   7.489  1.00  0.00    -0.545 OA
ENDBRANCH   4   5
ENDBRANCH   2   3
ENDBRANCH   1   2
BRANCH   1   8
ATOM      8  C   UNL     1       0.506  -5.627   7.209  1.00  0.00     0.000 C 
BRANCH   8   9
ATOM      9  C   UNL     1       0.429  -5.261   8.702  1.00  0.00    -0.000 C 
BRANCH   9  10
ATOM     10  C   UNL     1       1.803  -5.298   9.389  1.00  0.00    -0.003 C 
ATOM     11  C   UNL     1       2.964  -5.250   8.395  1.00  0.00     0.004 C 
ENDBRANCH   9  10
ENDBRANCH   8   9
ENDBRANCH   1   8
TORSDOF 6
ENDMDL
MODEL 3
REMARK VINA RESULT:    -4.364      3.402      4.149
REMARK INTER + INTRA:          -6.198
REMARK INTER:                  -5.869
REMARK INTRA:                  -0.330
REMARK UNBOUND:                -0.303
REMARK SMILES CCCCCCC=CC(=O)[O-]
REMARK SMILES IDX 5 1 6 2 7 3 8 4 9 5 10 6 11 7 4 8 3 9 2 10 1 11
REMARK H PARENT
REMARK Flexibility Score: inf
ROOT
ATOM      1  C   UNL     1      -1.355  -0.065   5.424  1.00  0.00     0.004 C 
ENDROOT
BRANCH   1   2
ATOM      2  C   UNL     1      -1.081  -0.718   6.788  1.00  0.00     0.027 C 
BRANCH   2   3
ATOM      3  C   UNL     1      -1.580   0.147   7.914  1.00  0.00    -0.025 C 
ATOM      4  C   UNL     1      -0.985   0.308   9.108  1.00  0.00     0.020 C 
BRANCH   4   5
ATOM      5  C   UNL     1       0.292  -0.296   9.545  1.00  0.00     0.064 C 
ATOM      6  O   UNL     1       0.373  -1.497   9.913  1.00  0.00    -0.545 OA
ATOM      7  O   UNL     1       1.442   0.482   9.528  1.00  0.00    -0.545 OA
ENDBRANCH   4   5
ENDBRANCH   2   3
ENDBRANCH   1   2
BRANCH   1   8
ATOM      8  C   UNL     1      -1.462  -1.094   4.289  1.00  0.00     0.000 C 
BRANCH   8   9
ATOM      9  C   UNL     1      -1.529  -2.540   4.812  1.00  0.00    -0.000 C 
BRANCH   9  10
ATOM     10  C   UNL     1      -1.578  -3.575   3.677  1.00  0.00    -0.003 C 
ATOM     11  C   UNL     1      -1.188  -2.987   2.321  1.00  0.00     0.004 C 
ENDBRANCH   9  10
ENDBRANCH   8   9
ENDBRANCH   1   8
TORSDOF 6
ENDMDL
MODEL 4
REMARK VINA RESULT:    -4.255      2.554      3.339
REMARK INTER + INTRA:          -6.051
REMARK INTER:                  -5.826
REMARK INTRA:                  -0.225
REMARK UNBOUND:                -0.303
REMARK SMILES CCCCCCC=CC(=O)[O-]
REMARK SMILES IDX 5 1 6 2 7 3 8 4 9 5 10 6 11 7 4 8 3 9 2 10 1 11
REMARK H PARENT
REMARK Flexibility Score: inf
ROOT
ATOM      1  C   UNL     1      -1.201   0.384   6.987  1.00  0.00     0.004 C 
ENDROOT
BRANCH   1   2
ATOM      2  C   UNL     1      -0.932  -0.931   7.737  1.00  0.00     0.027 C 
BRANCH   2   3
ATOM      3  C   UNL     1      -0.470  -0.669   9.144  1.00  0.00    -0.025 C 
ATOM      4  C   UNL     1       0.105  -1.563   9.965  1.00  0.00     0.020 C 
BRANCH   4   5
ATOM      5  C   UNL     1       0.436  -2.969   9.645  1.00  0.00     0.064 C 
ATOM      6  O   UNL     1      -0.452  -3.824   9.389  1.00  0.00    -0.545 OA
ATOM      7  O   UNL     1       1.769  -3.351   9.603  1.00  0.00    -0.545 OA
ENDBRANCH   4   5
ENDBRANCH   2   3
ENDBRANCH   1   2
BRANCH   1   8
ATOM      8  C   UNL     1      -1.246   0.195   5.463  1.00  0.00     0.000 C 
BRANCH   8   9
ATOM      9  C   UNL     1      -1.484  -1.271   5.060  1.00  0.00    -0.000 C 
BRANCH   9  10
ATOM     10  C   UNL     1      -1.469  -1.473   3.537  1.00  0.00    -0.003 C 
ATOM     11  C   UNL     1      -1.339  -2.942   3.136  1.00  0.00     0.004 C 
ENDBRANCH   9  10
ENDBRANCH   8   9
ENDBRANCH   1   8
TORSDOF 6
ENDMDL
MODEL 5
REMARK VINA RESULT:    -4.251      1.965      2.663
REMARK INTER + INTRA:          -6.046
REMARK INTER:                  -5.695
REMARK INTRA:                  -0.350
REMARK UNBOUND:                -0.303
REMARK SMILES CCCCCCC=CC(=O)[O-]
REMARK SMILES IDX 5 1 6 2 7 3 8 4 9 5 10 6 11 7 4 8 3 9 2 10 1 11
REMARK H PARENT
REMARK Flexibility Score: inf
ROOT
ATOM      1  C   UNL     1      -1.018  -3.432   6.111  1.00  0.00     0.004 C 
ENDROOT
BRANCH   1   2
ATOM      2  C   UNL     1      -0.892  -4.952   6.298  1.00  0.00     0.027 C 
BRANCH   2   3
ATOM      3  C   UNL     1       0.375  -5.305   7.029  1.00  0.00    -0.025 C 
ATOM      4  C   UNL     1       0.494  -5.495   8.354  1.00  0.00     0.020 C 
BRANCH   4   5
ATOM      5  C   UNL     1      -0.593  -5.434   9.355  1.00  0.00     0.064 C 
ATOM      6  O   UNL     1      -0.879  -4.373   9.969  1.00  0.00    -0.545 OA
ATOM      7  O   UNL     1      -1.336  -6.579   9.607  1.00  0.00    -0.545 OA
ENDBRANCH   4   5
ENDBRANCH   2   3
ENDBRANCH   1   2
BRANCH   1   8
ATOM      8  C   UNL     1      -1.542  -3.051   4.718  1.00  0.00     0.000 C 
BRANCH   8   9
ATOM      9  C   UNL     1      -1.576  -1.528   4.500  1.00  0.00    -0.000 C 
BRANCH   9  10
ATOM     10  C   UNL     1      -1.329  -0.742   5.798  1.00  0.00    -0.003 C 
ATOM     11  C   UNL     1      -1.104   0.750   5.554  1.00  0.00     0.004 C 
ENDBRANCH   9  10
ENDBRANCH   8   9
ENDBRANCH   1   8
TORSDOF 6
ENDMDL
MODEL 6
REMARK VINA RESULT:    -3.983      2.606      2.939
REMARK INTER + INTRA:          -5.683
REMARK INTER:                  -5.358
REMARK INTRA:                  -0.325
REMARK UNBOUND:                -0.303
REMARK SMILES CCCCCCC=CC(=O)[O-]
REMARK SMILES IDX 5 1 6 2 7 3 8 4 9 5 10 6 11 7 4 8 3 9 2 10 1 11
REMARK H PARENT
REMARK Flexibility Score: inf
ROOT
ATOM      1  C   UNL     1      -1.140  -4.213   6.003  1.00  0.00     0.004 C 
ENDROOT
BRANCH   1   2
ATOM      2  C   UNL     1      -0.248  -4.891   7.056  1.00  0.00     0.027 C 
BRANCH   2   3
ATOM      3  C   UNL     1      -0.061  -6.352   6.748  1.00  0.00    -0.025 C 
ATOM      4  C   UNL     1      -0.770  -7.365   7.274  1.00  0.00     0.020 C 
BRANCH   4   5
ATOM      5  C   UNL     1      -1.896  -7.253   8.226  1.00  0.00     0.064 C 
ATOM      6  O   UNL     1      -3.084  -7.500   7.891  1.00  0.00    -0.545 OA
ATOM      7  O   UNL     1      -1.629  -6.886   9.538  1.00  0.00    -0.545 OA
ENDBRANCH   4   5
ENDBRANCH   2   3
ENDBRANCH   1   2
BRANCH   1   8
ATOM      8  C   UNL     1      -1.134  -2.681   6.124  1.00  0.00     0.000 C 
BRANCH   8   9
ATOM      9  C   UNL     1      -1.394  -1.986   4.776  1.00  0.00    -0.000 C 
BRANCH   9  10
ATOM     10  C   UNL     1      -1.543  -2.985   3.618  1.00  0.00    -0.003 C 
ATOM     11  C   UNL     1      -1.197  -2.373   2.260  1.00  0.00     0.004 C 
ENDBRANCH   9  10
ENDBRANCH   8   9
ENDBRANCH   1   8
TORSDOF 6
ENDMDL
MODEL 7
REMARK VINA RESULT:    -3.913     14.042     15.049
REMARK INTER + INTRA:          -5.588
REMARK INTER:                  -5.103
REMARK INTRA:                  -0.486
REMARK UNBOUND:                -0.303
REMARK SMILES CCCCCCC=CC(=O)[O-]
REMARK SMILES IDX 5 1 6 2 7 3 8 4 9 5 10 6 11 7 4 8 3 9 2 10 1 11
REMARK H PARENT
REMARK Flexibility Score: inf
ROOT
ATOM      1  C   UNL     1       4.955   9.416   7.784  1.00  0.00     0.004 C 
ENDROOT
BRANCH   1   2
ATOM      2  C   UNL     1       6.358   9.756   8.315  1.00  0.00     0.027 C 
BRANCH   2   3
ATOM      3  C   UNL     1       7.313  10.029   7.185  1.00  0.00    -0.025 C 
ATOM      4  C   UNL     1       8.610   9.680   7.148  1.00  0.00     0.020 C 
BRANCH   4   5
ATOM      5  C   UNL     1       9.351   8.929   8.184  1.00  0.00     0.064 C 
ATOM      6  O   UNL     1       9.625   7.707   8.058  1.00  0.00    -0.545 OA
ATOM      7  O   UNL     1       9.778   9.601   9.322  1.00  0.00    -0.545 OA
ENDBRANCH   4   5
ENDBRANCH   2   3
ENDBRANCH   1   2
BRANCH   1   8
ATOM      8  C   UNL     1       4.692  10.008   6.391  1.00  0.00     0.000 C 
BRANCH   8   9
ATOM      9  C   UNL     1       4.229   8.944   5.380  1.00  0.00    -0.000 C 
BRANCH   9  10
ATOM     10  C   UNL     1       5.349   8.522   4.415  1.00  0.00    -0.003 C 
ATOM     11  C   UNL     1       5.047   7.207   3.696  1.00  0.00     0.004 C 
ENDBRANCH   9  10
ENDBRANCH   8   9
ENDBRANCH   1   8
TORSDOF 6
ENDMDL
MODEL 8
REMARK VINA RESULT:    -3.881     13.614     14.592
REMARK INTER + INTRA:          -5.545
REMARK INTER:                  -5.142
REMARK INTRA:                  -0.403
REMARK UNBOUND:                -0.303
REMARK SMILES CCCCCCC=CC(=O)[O-]
REMARK SMILES IDX 5 1 6 2 7 3 8 4 9 5 10 6 11 7 4 8 3 9 2 10 1 11
REMARK H PARENT
REMARK Flexibility Score: inf
ROOT
ATOM      1  C   UNL     1       7.001   9.632   6.236  1.00  0.00     0.004 C 
ENDROOT
BRANCH   1   2
ATOM      2  C   UNL     1       7.817  10.125   7.442  1.00  0.00     0.027 C 
BRANCH   2   3
ATOM      3  C   UNL     1       9.043   9.278   7.651  1.00  0.00    -0.025 C 
ATOM      4  C   UNL     1       9.107   8.151   8.380  1.00  0.00     0.020 C 
BRANCH   4   5
ATOM      5  C   UNL     1       7.988   7.495   9.091  1.00  0.00     0.064 C 
ATOM      6  O   UNL     1       7.460   7.998  10.117  1.00  0.00    -0.545 OA
ATOM      7  O   UNL     1       7.491   6.297   8.596  1.00  0.00    -0.545 OA
ENDBRANCH   4   5
ENDBRANCH   2   3
ENDBRANCH   1   2
BRANCH   1   8
ATOM      8  C   UNL     1       5.590   9.170   6.628  1.00  0.00     0.000 C 
BRANCH   8   9
ATOM      9  C   UNL     1       4.665   9.012   5.408  1.00  0.00    -0.000 C 
BRANCH   9  10
ATOM     10  C   UNL     1       5.428   8.598   4.140  1.00  0.00    -0.003 C 
ATOM     11  C   UNL     1       5.193   7.136   3.758  1.00  0.00     0.004 C 
ENDBRANCH   9  10
ENDBRANCH   8   9
ENDBRANCH   1   8
TORSDOF 6
ENDMDL
MODEL 9
REMARK VINA RESULT:    -3.871     12.146     13.074
REMARK INTER + INTRA:          -5.532
REMARK INTER:                  -5.022
REMARK INTRA:                  -0.510
REMARK UNBOUND:                -0.303
REMARK SMILES CCCCCCC=CC(=O)[O-]
REMARK SMILES IDX 5 1 6 2 7 3 8 4 9 5 10 6 11 7 4 8 3 9 2 10 1 11
REMARK H PARENT
REMARK Flexibility Score: inf
ROOT
ATOM      1  C   UNL     1       5.036  -6.913  -3.808  1.00  0.00     0.004 C 
ENDROOT
BRANCH   1   2
ATOM      2  C   UNL     1       6.439  -7.525  -3.953  1.00  0.00     0.027 C 
BRANCH   2   3
ATOM      3  C   UNL     1       7.200  -7.448  -2.658  1.00  0.00    -0.025 C 
ATOM      4  C   UNL     1       8.009  -6.445  -2.277  1.00  0.00     0.020 C 
BRANCH   4   5
ATOM      5  C   UNL     1       8.287  -5.202  -3.028  1.00  0.00     0.064 C 
ATOM      6  O   UNL     1       7.753  -4.103  -2.725  1.00  0.00    -0.545 OA
ATOM      7  O   UNL     1       9.182  -5.246  -4.088  1.00  0.00    -0.545 OA
ENDBRANCH   4   5
ENDBRANCH   2   3
ENDBRANCH   1   2
BRANCH   1   8
ATOM      8  C   UNL     1       3.943  -7.787  -4.442  1.00  0.00     0.000 C 
BRANCH   8   9
ATOM      9  C   UNL     1       4.221  -9.290  -4.268  1.00  0.00    -0.000 C 
BRANCH   9  10
ATOM     10  C   UNL     1       4.203 -10.050  -5.603  1.00  0.00    -0.003 C 
ATOM     11  C   UNL     1       4.633  -9.181  -6.785  1.00  0.00     0.004 C 
ENDBRANCH   9  10
ENDBRANCH   8   9
ENDBRANCH   1   8
TORSDOF 6
ENDMDL
