MODEL 1
REMARK VINA RESULT:    -1.780      0.000      0.000
REMARK INTER + INTRA:          -4.112
REMARK INTER:                  -3.445
REMARK INTRA:                  -0.667
REMARK UNBOUND:                -0.667
REMARK SMILES CCCCCCCCCCCCCCCCCC(=O)[O-]
REMARK SMILES IDX 10 1 11 2 12 3 13 4 14 5 15 6 16 7 17 8 18 9 19 10 20 11
REMARK SMILES IDX 9 12 8 13 7 14 6 15 5 16 4 17 3 18 2 19 1 20
REMARK H PARENT
REMARK Flexibility Score: inf
ROOT
ATOM      1  C   UNL     1      -6.675 -11.105   5.633  1.00  0.00     0.000 C 
ENDROOT
BRANCH   1   2
ATOM      2  C   UNL     1      -5.678 -11.089   4.461  1.00  0.00     0.000 C 
BRANCH   2   3
ATOM      3  C   UNL     1      -6.140 -11.943   3.266  1.00  0.00     0.000 C 
BRANCH   3   4
ATOM      4  C   UNL     1      -6.981 -11.197   2.214  1.00  0.00     0.000 C 
BRANCH   4   5
ATOM      5  C   UNL     1      -7.933 -12.125   1.441  1.00  0.00     0.000 C 
BRANCH   5   6
ATOM      6  C   UNL     1      -9.089 -11.360   0.776  1.00  0.00     0.000 C 
BRANCH   6   7
ATOM      7  C   UNL     1     -10.469 -11.789   1.306  1.00  0.00     0.006 C 
BRANCH   7   8
ATOM      8  C   UNL     1     -11.608 -10.976   0.679  1.00  0.00     0.053 C 
BRANCH   8   9
ATOM      9  C   UNL     1     -11.297 -10.584  -0.734  1.00  0.00     0.041 C 
ATOM     10  O   UNL     1     -11.315 -11.447  -1.651  1.00  0.00    -0.550 OA
ATOM     11  O   UNL     1     -10.952  -9.272  -1.031  1.00  0.00    -0.550 OA
ENDBRANCH   8   9
ENDBRANCH   7   8
ENDBRANCH   6   7
ENDBRANCH   5   6
ENDBRANCH   4   5
ENDBRANCH   3   4
ENDBRANCH   2   3
ENDBRANCH   1   2
BRANCH   1  12
ATOM     12  C   UNL     1      -7.826 -12.100   5.411  1.00  0.00     0.000 C 
BRANCH  12  13
ATOM     13  C   UNL     1      -8.826 -12.108   6.581  1.00  0.00    -0.000 C 
BRANCH  13  14
ATOM     14  C   UNL     1      -8.138 -11.983   7.949  1.00  0.00    -0.000 C 
BRANCH  14  15
ATOM     15  C   UNL     1      -9.119 -12.122   9.123  1.00  0.00    -0.000 C 
BRANCH  15  16
ATOM     16  C   UNL     1     -10.392 -11.302   8.877  1.00  0.00    -0.000 C 
BRANCH  16  17
ATOM     17  C   UNL     1     -10.327  -9.952   9.604  1.00  0.00    -0.000 C 
BRANCH  17  18
ATOM     18  C   UNL     1     -11.653  -9.582  10.288  1.00  0.00    -0.000 C 
BRANCH  18  19
ATOM     19  C   UNL     1     -11.662  -9.925  11.785  1.00  0.00    -0.003 C 
ATOM     20  C   UNL     1     -11.316  -8.703  12.631  1.00  0.00     0.004 C 
ENDBRANCH  18  19
ENDBRANCH  17  18
ENDBRANCH  16  17
ENDBRANCH  15  16
ENDBRANCH  14  15
ENDBRANCH  13  14
ENDBRANCH  12  13
ENDBRANCH   1  12
TORSDOF 16
ENDMDL
MODEL 2
REMARK VINA RESULT:    -1.627      2.326      3.938
REMARK INTER + INTRA:          -3.816
REMARK INTER:                  -3.082
REMARK INTRA:                  -0.733
REMARK UNBOUND:                -0.667
REMARK SMILES CCCCCCCCCCCCCCCCCC(=O)[O-]
REMARK SMILES IDX 10 1 11 2 12 3 13 4 14 5 15 6 16 7 17 8 18 9 19 10 20 11
REMARK SMILES IDX 9 12 8 13 7 14 6 15 5 16 4 17 3 18 2 19 1 20
REMARK H PARENT
REMARK Flexibility Score: inf
ROOT
ATOM      1  C   UNL     1      -7.534 -11.621   2.432  1.00  0.00     0.000 C 
ENDROOT
BRANCH   1   2
ATOM      2  C   UNL     1      -7.685 -11.849   0.918  1.00  0.00     0.000 C 
BRANCH   2   3
ATOM      3  C   UNL     1      -9.117 -11.593   0.411  1.00  0.00     0.000 C 
BRANCH   3   4
ATOM      4  C   UNL     1      -9.333 -11.834  -1.094  1.00  0.00     0.000 C 
BRANCH   4   5
ATOM      5  C   UNL     1      -9.559 -10.534  -1.883  1.00  0.00     0.000 C 
BRANCH   5   6
ATOM      6  C   UNL     1     -10.902 -10.523  -2.629  1.00  0.00     0.000 C 
BRANCH   6   7
ATOM      7  C   UNL     1     -11.254 -11.890  -3.242  1.00  0.00     0.006 C 
BRANCH   7   8
ATOM      8  C   UNL     1     -10.714 -12.042  -4.669  1.00  0.00     0.053 C 
BRANCH   8   9
ATOM      9  C   UNL     1     -10.849 -10.771  -5.451  1.00  0.00     0.041 C 
ATOM     10  O   UNL     1      -9.834 -10.074  -5.711  1.00  0.00    -0.550 OA
ATOM     11  O   UNL     1     -12.104 -10.338  -5.861  1.00  0.00    -0.550 OA
ENDBRANCH   8   9
ENDBRANCH   7   8
ENDBRANCH   6   7
ENDBRANCH   5   6
ENDBRANCH   4   5
ENDBRANCH   3   4
ENDBRANCH   2   3
ENDBRANCH   1   2
BRANCH   1  12
ATOM     12  C   UNL     1      -6.193 -10.962   2.796  1.00  0.00     0.000 C 
BRANCH  12  13
ATOM     13  C   UNL     1      -5.909 -11.008   4.307  1.00  0.00    -0.000 C 
BRANCH  13  14
ATOM     14  C   UNL     1      -6.736 -12.082   5.032  1.00  0.00    -0.000 C 
BRANCH  14  15
ATOM     15  C   UNL     1      -7.284 -11.600   6.383  1.00  0.00    -0.000 C 
BRANCH  15  16
ATOM     16  C   UNL     1      -8.706 -12.125   6.619  1.00  0.00    -0.000 C 
BRANCH  16  17
ATOM     17  C   UNL     1      -9.130 -11.927   8.081  1.00  0.00    -0.000 C 
BRANCH  17  18
ATOM     18  C   UNL     1     -10.656 -11.842   8.250  1.00  0.00    -0.000 C 
BRANCH  18  19
ATOM     19  C   UNL     1     -11.087 -10.672   9.146  1.00  0.00    -0.003 C 
ATOM     20  C   UNL     1      -9.938  -9.690   9.358  1.00  0.00     0.004 C 
ENDBRANCH  18  19
ENDBRANCH  17  18
ENDBRANCH  16  17
ENDBRANCH  15  16
ENDBRANCH  14  15
ENDBRANCH  13  14
ENDBRANCH  12  13
ENDBRANCH   1  12
TORSDOF 16
ENDMDL
MODEL 3
REMARK VINA RESULT:    -1.588     22.069     25.009
REMARK INTER + INTRA:          -3.741
REMARK INTER:                  -3.204
REMARK INTRA:                  -0.537
REMARK UNBOUND:                -0.667
REMARK SMILES CCCCCCCCCCCCCCCCCC(=O)[O-]
REMARK SMILES IDX 10 1 11 2 12 3 13 4 14 5 15 6 16 7 17 8 18 9 19 10 20 11
REMARK SMILES IDX 9 12 8 13 7 14 6 15 5 16 4 17 3 18 2 19 1 20
REMARK H PARENT
REMARK Flexibility Score: inf
ROOT
ATOM      1  C   UNL     1       5.470   3.947   1.524  1.00  0.00     0.000 C 
ENDROOT
BRANCH   1   2
ATOM      2  C   UNL     1       6.913   3.503   1.227  1.00  0.00     0.000 C 
BRANCH   2   3
ATOM      3  C   UNL     1       7.956   4.584   1.565  1.00  0.00     0.000 C 
BRANCH   3   4
ATOM      4  C   UNL     1       7.608   5.478   2.769  1.00  0.00     0.000 C 
BRANCH   4   5
ATOM      5  C   UNL     1       8.120   6.920   2.614  1.00  0.00     0.000 C 
BRANCH   5   6
ATOM      6  C   UNL     1       7.035   7.966   2.911  1.00  0.00     0.000 C 
BRANCH   6   7
ATOM      7  C   UNL     1       5.800   7.363   3.605  1.00  0.00     0.006 C 
BRANCH   7   8
ATOM      8  C   UNL     1       4.504   8.076   3.202  1.00  0.00     0.053 C 
BRANCH   8   9
ATOM      9  C   UNL     1       3.299   7.226   3.463  1.00  0.00     0.041 C 
ATOM     10  O   UNL     1       2.497   6.957   2.530  1.00  0.00    -0.550 OA
ATOM     11  O   UNL     1       3.041   6.760   4.746  1.00  0.00    -0.550 OA
ENDBRANCH   8   9
ENDBRANCH   7   8
ENDBRANCH   6   7
ENDBRANCH   5   6
ENDBRANCH   4   5
ENDBRANCH   3   4
ENDBRANCH   2   3
ENDBRANCH   1   2
BRANCH   1  12
ATOM     12  C   UNL     1       4.835   4.706   0.347  1.00  0.00     0.000 C 
BRANCH  12  13
ATOM     13  C   UNL     1       4.987   6.231   0.485  1.00  0.00    -0.000 C 
BRANCH  13  14
ATOM     14  C   UNL     1       6.255   6.764  -0.201  1.00  0.00    -0.000 C 
BRANCH  14  15
ATOM     15  C   UNL     1       6.037   8.124  -0.880  1.00  0.00    -0.000 C 
BRANCH  15  16
ATOM     16  C   UNL     1       6.545   8.105  -2.328  1.00  0.00    -0.000 C 
BRANCH  16  17
ATOM     17  C   UNL     1       5.376   8.046  -3.321  1.00  0.00    -0.000 C 
BRANCH  17  18
ATOM     18  C   UNL     1       5.742   7.321  -4.626  1.00  0.00    -0.000 C 
BRANCH  18  19
ATOM     19  C   UNL     1       6.731   8.120  -5.488  1.00  0.00    -0.003 C 
ATOM     20  C   UNL     1       8.125   8.121  -4.867  1.00  0.00     0.004 C 
ENDBRANCH  18  19
ENDBRANCH  17  18
ENDBRANCH  16  17
ENDBRANCH  15  16
ENDBRANCH  14  15
ENDBRANCH  13  14
ENDBRANCH  12  13
ENDBRANCH   1  12
TORSDOF 16
ENDMDL
MODEL 4
REMARK VINA RESULT:    -1.135      4.534     10.465
REMARK INTER + INTRA:          -2.863
REMARK INTER:                  -2.344
REMARK INTRA:                  -0.520
REMARK UNBOUND:                -0.667
REMARK SMILES CCCCCCCCCCCCCCCCCC(=O)[O-]
REMARK SMILES IDX 10 1 11 2 12 3 13 4 14 5 15 6 16 7 17 8 18 9 19 10 20 11
REMARK SMILES IDX 9 12 8 13 7 14 6 15 5 16 4 17 3 18 2 19 1 20
REMARK H PARENT
REMARK Flexibility Score: inf
ROOT
ATOM      1  C   UNL     1      -8.202 -11.190   1.292  1.00  0.00     0.000 C 
ENDROOT
BRANCH   1   2
ATOM      2  C   UNL     1      -7.144 -12.083   1.961  1.00  0.00     0.000 C 
BRANCH   2   3
ATOM      3  C   UNL     1      -6.450 -11.402   3.155  1.00  0.00     0.000 C 
BRANCH   3   4
ATOM      4  C   UNL     1      -6.615 -12.120   4.507  1.00  0.00     0.000 C 
BRANCH   4   5
ATOM      5  C   UNL     1      -7.983 -11.860   5.160  1.00  0.00     0.000 C 
BRANCH   5   6
ATOM      6  C   UNL     1      -7.878 -11.626   6.675  1.00  0.00     0.000 C 
BRANCH   6   7
ATOM      7  C   UNL     1      -9.116 -12.125   7.441  1.00  0.00     0.006 C 
BRANCH   7   8
ATOM      8  C   UNL     1      -8.932 -12.035   8.961  1.00  0.00     0.053 C 
BRANCH   8   9
ATOM      9  C   UNL     1     -10.246 -11.998   9.678  1.00  0.00     0.041 C 
ATOM     10  O   UNL     1     -10.283 -11.979  10.937  1.00  0.00    -0.550 OA
ATOM     11  O   UNL     1     -11.433 -12.023   8.956  1.00  0.00    -0.550 OA
ENDBRANCH   8   9
ENDBRANCH   7   8
ENDBRANCH   6   7
ENDBRANCH   5   6
ENDBRANCH   4   5
ENDBRANCH   3   4
ENDBRANCH   2   3
ENDBRANCH   1   2
BRANCH   1  12
ATOM     12  C   UNL     1      -8.359 -11.487  -0.209  1.00  0.00     0.000 C 
BRANCH  12  13
ATOM     13  C   UNL     1      -9.820 -11.767  -0.601  1.00  0.00    -0.000 C 
BRANCH  13  14
ATOM     14  C   UNL     1     -10.060 -11.649  -2.115  1.00  0.00    -0.000 C 
BRANCH  14  15
ATOM     15  C   UNL     1     -10.702 -10.311  -2.512  1.00  0.00    -0.000 C 
BRANCH  15  16
ATOM     16  C   UNL     1     -10.156  -9.817  -3.858  1.00  0.00    -0.000 C 
BRANCH  16  17
ATOM     17  C   UNL     1      -9.887 -10.992  -4.808  1.00  0.00    -0.000 C 
BRANCH  17  18
ATOM     18  C   UNL     1      -8.387 -11.273  -4.994  1.00  0.00    -0.000 C 
BRANCH  18  19
ATOM     19  C   UNL     1      -7.524 -10.015  -4.811  1.00  0.00    -0.003 C 
ATOM     20  C   UNL     1      -7.577  -9.128  -6.052  1.00  0.00     0.004 C 
ENDBRANCH  18  19
ENDBRANCH  17  18
ENDBRANCH  16  17
ENDBRANCH  15  16
ENDBRANCH  14  15
ENDBRANCH  13  14
ENDBRANCH  12  13
ENDBRANCH   1  12
TORSDOF 16
ENDMDL
MODEL 5
REMARK VINA RESULT:    -0.877      5.482     10.602
REMARK INTER + INTRA:          -2.365
REMARK INTER:                  -1.833
REMARK INTRA:                  -0.531
REMARK UNBOUND:                -0.667
REMARK SMILES CCCCCCCCCCCCCCCCCC(=O)[O-]
REMARK SMILES IDX 10 1 11 2 12 3 13 4 14 5 15 6 16 7 17 8 18 9 19 10 20 11
REMARK SMILES IDX 9 12 8 13 7 14 6 15 5 16 4 17 3 18 2 19 1 20
REMARK H PARENT
REMARK Flexibility Score: inf
ROOT
ATOM      1  C   UNL     1     -10.598 -11.126   7.528  1.00  0.00     0.000 C 
ENDROOT
BRANCH   1   2
ATOM      2  C   UNL     1     -10.645 -12.031   8.771  1.00  0.00     0.000 C 
BRANCH   2   3
ATOM      3  C   UNL     1     -10.442 -11.257  10.087  1.00  0.00     0.000 C 
BRANCH   3   4
ATOM      4  C   UNL     1     -10.399 -12.125  11.358  1.00  0.00     0.000 C 
BRANCH   4   5
ATOM      5  C   UNL     1     -10.208 -11.299  12.641  1.00  0.00     0.000 C 
BRANCH   5   6
ATOM      6  C   UNL     1     -11.229 -11.659  13.731  1.00  0.00     0.000 C 
BRANCH   6   7
ATOM      7  C   UNL     1     -12.124 -10.470  14.125  1.00  0.00     0.006 C 
BRANCH   7   8
ATOM      8  C   UNL     1     -12.042  -9.323  13.110  1.00  0.00     0.053 C 
BRANCH   8   9
ATOM      9  C   UNL     1     -11.245  -8.170  13.640  1.00  0.00     0.041 C 
ATOM     10  O   UNL     1      -9.998  -8.270  13.780  1.00  0.00    -0.550 OA
ATOM     11  O   UNL     1     -11.887  -6.996  14.014  1.00  0.00    -0.550 OA
ENDBRANCH   8   9
ENDBRANCH   7   8
ENDBRANCH   6   7
ENDBRANCH   5   6
ENDBRANCH   4   5
ENDBRANCH   3   4
ENDBRANCH   2   3
ENDBRANCH   1   2
BRANCH   1  12
ATOM     12  C   UNL     1     -10.709 -11.921   6.217  1.00  0.00     0.000 C 
BRANCH  12  13
ATOM     13  C   UNL     1     -12.112 -11.826   5.592  1.00  0.00    -0.000 C 
BRANCH  13  14
ATOM     14  C   UNL     1     -12.109 -12.122   4.084  1.00  0.00    -0.000 C 
BRANCH  14  15
ATOM     15  C   UNL     1     -10.848 -11.599   3.378  1.00  0.00    -0.000 C 
BRANCH  15  16
ATOM     16  C   UNL     1     -10.851 -11.980   1.892  1.00  0.00    -0.000 C 
BRANCH  16  17
ATOM     17  C   UNL     1     -11.892 -11.162   1.115  1.00  0.00    -0.000 C 
BRANCH  17  18
ATOM     18  C   UNL     1     -11.253 -10.206   0.094  1.00  0.00    -0.000 C 
BRANCH  18  19
ATOM     19  C   UNL     1     -10.157 -10.883  -0.743  1.00  0.00    -0.003 C 
ATOM     20  C   UNL     1      -9.990 -10.189  -2.091  1.00  0.00     0.004 C 
ENDBRANCH  18  19
ENDBRANCH  17  18
ENDBRANCH  16  17
ENDBRANCH  15  16
ENDBRANCH  14  15
ENDBRANCH  13  14
ENDBRANCH  12  13
ENDBRANCH   1  12
TORSDOF 16
ENDMDL
MODEL 6
REMARK VINA RESULT:    -0.741      4.099      9.356
REMARK INTER + INTRA:          -2.101
REMARK INTER:                  -2.958
REMARK INTRA:                   0.857
REMARK UNBOUND:                -0.667
REMARK SMILES CCCCCCCCCCCCCCCCCC(=O)[O-]
REMARK SMILES IDX 10 1 11 2 12 3 13 4 14 5 15 6 16 7 17 8 18 9 19 10 20 11
REMARK SMILES IDX 9 12 8 13 7 14 6 15 5 16 4 17 3 18 2 19 1 20
REMARK H PARENT
REMARK Flexibility Score: inf
ROOT
ATOM      1  C   UNL     1     -10.249 -11.258   8.342  1.00  0.00     0.000 C 
ENDROOT
BRANCH   1   2
ATOM      2  C   UNL     1      -9.795 -12.125   9.530  1.00  0.00     0.000 C 
BRANCH   2   3
ATOM      3  C   UNL     1     -10.758 -12.052  10.729  1.00  0.00     0.000 C 
BRANCH   3   4
ATOM      4  C   UNL     1     -10.086 -12.104  12.114  1.00  0.00     0.000 C 
BRANCH   4   5
ATOM      5  C   UNL     1     -10.993 -11.583  13.241  1.00  0.00     0.000 C 
BRANCH   5   6
ATOM      6  C   UNL     1     -12.029 -10.564  12.740  1.00  0.00     0.000 C 
BRANCH   6   7
ATOM      7  C   UNL     1     -11.408  -9.469  11.855  1.00  0.00     0.006 C 
BRANCH   7   8
ATOM      8  C   UNL     1     -12.125  -9.339  10.506  1.00  0.00     0.053 C 
BRANCH   8   9
ATOM      9  C   UNL     1     -11.265  -8.660   9.483  1.00  0.00     0.041 C 
ATOM     10  O   UNL     1     -11.762  -8.265   8.397  1.00  0.00    -0.550 OA
ATOM     11  O   UNL     1      -9.905  -8.497   9.717  1.00  0.00    -0.550 OA
ENDBRANCH   8   9
ENDBRANCH   7   8
ENDBRANCH   6   7
ENDBRANCH   5   6
ENDBRANCH   4   5
ENDBRANCH   3   4
ENDBRANCH   2   3
ENDBRANCH   1   2
BRANCH   1  12
ATOM     12  C   UNL     1     -10.688 -12.101   7.133  1.00  0.00     0.000 C 
BRANCH  12  13
ATOM     13  C   UNL     1     -11.753 -11.390   6.280  1.00  0.00    -0.000 C 
BRANCH  13  14
ATOM     14  C   UNL     1     -12.042 -12.125   4.962  1.00  0.00    -0.000 C 
BRANCH  14  15
ATOM     15  C   UNL     1     -11.589 -11.332   3.726  1.00  0.00    -0.000 C 
BRANCH  15  16
ATOM     16  C   UNL     1     -12.007 -12.042   2.433  1.00  0.00    -0.000 C 
BRANCH  16  17
ATOM     17  C   UNL     1     -11.046 -11.705   1.284  1.00  0.00    -0.000 C 
BRANCH  17  18
ATOM     18  C   UNL     1     -11.482 -10.461   0.493  1.00  0.00    -0.000 C 
BRANCH  18  19
ATOM     19  C   UNL     1     -10.711 -10.300  -0.826  1.00  0.00    -0.003 C 
ATOM     20  C   UNL     1      -9.488 -11.212  -0.862  1.00  0.00     0.004 C 
ENDBRANCH  18  19
ENDBRANCH  17  18
ENDBRANCH  16  17
ENDBRANCH  15  16
ENDBRANCH  14  15
ENDBRANCH  13  14
ENDBRANCH  12  13
ENDBRANCH   1  12
TORSDOF 16
ENDMDL
MODEL 7
REMARK VINA RESULT:    -0.614      5.418     10.536
REMARK INTER + INTRA:          -1.855
REMARK INTER:                  -1.231
REMARK INTRA:                  -0.624
REMARK UNBOUND:                -0.667
REMARK SMILES CCCCCCCCCCCCCCCCCC(=O)[O-]
REMARK SMILES IDX 10 1 11 2 12 3 13 4 14 5 15 6 16 7 17 8 18 9 19 10 20 11
REMARK SMILES IDX 9 12 8 13 7 14 6 15 5 16 4 17 3 18 2 19 1 20
REMARK H PARENT
REMARK Flexibility Score: inf
ROOT
ATOM      1  C   UNL     1     -10.178 -10.987   5.864  1.00  0.00     0.000 C 
ENDROOT
BRANCH   1   2
ATOM      2  C   UNL     1      -9.364 -11.672   6.975  1.00  0.00     0.000 C 
BRANCH   2   3
ATOM      3  C   UNL     1     -10.231 -12.125   8.164  1.00  0.00     0.000 C 
BRANCH   3   4
ATOM      4  C   UNL     1      -9.528 -12.106   9.533  1.00  0.00     0.000 C 
BRANCH   4   5
ATOM      5  C   UNL     1     -10.513 -12.028  10.712  1.00  0.00     0.000 C 
BRANCH   5   6
ATOM      6  C   UNL     1     -11.626 -10.993  10.482  1.00  0.00     0.000 C 
BRANCH   6   7
ATOM      7  C   UNL     1     -11.378  -9.676  11.239  1.00  0.00     0.006 C 
BRANCH   7   8
ATOM      8  C   UNL     1     -11.998  -9.689  12.641  1.00  0.00     0.053 C 
BRANCH   8   9
ATOM      9  C   UNL     1     -11.306  -8.731  13.562  1.00  0.00     0.041 C 
ATOM     10  O   UNL     1     -11.832  -7.620  13.836  1.00  0.00    -0.550 OA
ATOM     11  O   UNL     1     -10.061  -9.051  14.090  1.00  0.00    -0.550 OA
ENDBRANCH   8   9
ENDBRANCH   7   8
ENDBRANCH   6   7
ENDBRANCH   5   6
ENDBRANCH   4   5
ENDBRANCH   3   4
ENDBRANCH   2   3
ENDBRANCH   1   2
BRANCH   1  12
ATOM     12  C   UNL     1     -10.657 -11.978   4.790  1.00  0.00     0.000 C 
BRANCH  12  13
ATOM     13  C   UNL     1     -11.795 -11.403   3.929  1.00  0.00    -0.000 C 
BRANCH  13  14
ATOM     14  C   UNL     1     -11.937 -12.123   2.578  1.00  0.00    -0.000 C 
BRANCH  14  15
ATOM     15  C   UNL     1     -12.030 -11.151   1.393  1.00  0.00    -0.000 C 
BRANCH  15  16
ATOM     16  C   UNL     1     -11.043 -11.539   0.284  1.00  0.00    -0.000 C 
BRANCH  16  17
ATOM     17  C   UNL     1     -11.784 -12.043  -0.962  1.00  0.00    -0.000 C 
BRANCH  17  18
ATOM     18  C   UNL     1     -11.110 -11.603  -2.271  1.00  0.00    -0.000 C 
BRANCH  18  19
ATOM     19  C   UNL     1      -9.780 -10.873  -2.034  1.00  0.00    -0.003 C 
ATOM     20  C   UNL     1      -9.034 -10.651  -3.347  1.00  0.00     0.004 C 
ENDBRANCH  18  19
ENDBRANCH  17  18
ENDBRANCH  16  17
ENDBRANCH  15  16
ENDBRANCH  14  15
ENDBRANCH  13  14
ENDBRANCH  12  13
ENDBRANCH   1  12
TORSDOF 16
ENDMDL
