MODEL 1
REMARK VINA RESULT:    -4.329      0.000      0.000
REMARK INTER + INTRA:          -4.329
REMARK INTER:                  -4.329
REMARK INTRA:                   0.000
REMARK UNBOUND:                 0.000
REMARK SMILES O=c1ccc2ccccc2o1
REMARK SMILES IDX 7 1 8 2 9 3 10 4 5 5 6 6 4 7 3 8 2 9 1 10 11 11
REMARK H PARENT
REMARK Flexibility Score: inf
ROOT
ATOM      1  C   UNL     1      11.606  14.233  24.044  1.00  0.00     0.001 A 
ATOM      2  C   UNL     1      10.407  13.518  24.124  1.00  0.00     0.004 A 
ATOM      3  C   UNL     1       9.879  12.898  22.986  1.00  0.00     0.048 A 
ATOM      4  C   UNL     1      10.550  12.992  21.762  1.00  0.00     0.138 A 
ATOM      5  C   UNL     1      11.762  13.715  21.681  1.00  0.00     0.018 A 
ATOM      6  C   UNL     1      12.286  14.333  22.825  1.00  0.00     0.012 A 
ATOM      7  C   UNL     1      12.411  13.791  20.444  1.00  0.00     0.019 A 
ATOM      8  C   UNL     1      11.848  13.159  19.336  1.00  0.00     0.094 A 
ATOM      9  C   UNL     1      10.645  12.461  19.492  1.00  0.00     0.336 A 
ATOM     10  O   UNL     1      10.122  11.884  18.503  1.00  0.00    -0.246 OA
ATOM     11  O   UNL     1      10.048  12.403  20.680  1.00  0.00    -0.423 OA
ENDROOT
TORSDOF 0
ENDMDL
MODEL 2
REMARK VINA RESULT:    -4.234      2.281      3.498
REMARK INTER + INTRA:          -4.234
REMARK INTER:                  -4.234
REMARK INTRA:                   0.000
REMARK UNBOUND:                 0.000
REMARK SMILES O=c1ccc2ccccc2o1
REMARK SMILES IDX 7 1 8 2 9 3 10 4 5 5 6 6 4 7 3 8 2 9 1 10 11 11
REMARK H PARENT
REMARK Flexibility Score: inf
ROOT
ATOM      1  C   UNL     1      15.125  16.630  20.760  1.00  0.00     0.001 A 
ATOM      2  C   UNL     1      14.590  16.444  22.039  1.00  0.00     0.004 A 
ATOM      3  C   UNL     1      13.463  15.633  22.219  1.00  0.00     0.048 A 
ATOM      4  C   UNL     1      12.869  15.005  21.120  1.00  0.00     0.138 A 
ATOM      5  C   UNL     1      13.409  15.193  19.827  1.00  0.00     0.018 A 
ATOM      6  C   UNL     1      14.538  16.007  19.653  1.00  0.00     0.012 A 
ATOM      7  C   UNL     1      12.794  14.552  18.747  1.00  0.00     0.019 A 
ATOM      8  C   UNL     1      11.673  13.754  18.974  1.00  0.00     0.094 A 
ATOM      9  C   UNL     1      11.193  13.614  20.281  1.00  0.00     0.336 A 
ATOM     10  O   UNL     1      10.183  12.897  20.505  1.00  0.00    -0.246 OA
ATOM     11  O   UNL     1      11.798  14.234  21.292  1.00  0.00    -0.423 OA
ENDROOT
TORSDOF 0
ENDMDL
MODEL 3
REMARK VINA RESULT:    -4.167      1.412      2.226
REMARK INTER + INTRA:          -4.167
REMARK INTER:                  -4.167
REMARK INTRA:                   0.000
REMARK UNBOUND:                 0.000
REMARK SMILES O=c1ccc2ccccc2o1
REMARK SMILES IDX 7 1 8 2 9 3 10 4 5 5 6 6 4 7 3 8 2 9 1 10 11 11
REMARK H PARENT
REMARK Flexibility Score: inf
ROOT
ATOM      1  C   UNL     1      10.258  13.363  24.062  1.00  0.00     0.001 A 
ATOM      2  C   UNL     1      11.397  14.173  24.124  1.00  0.00     0.004 A 
ATOM      3  C   UNL     1      12.160  14.402  22.974  1.00  0.00     0.048 A 
ATOM      4  C   UNL     1      11.786  13.822  21.757  1.00  0.00     0.138 A 
ATOM      5  C   UNL     1      10.635  13.004  21.695  1.00  0.00     0.018 A 
ATOM      6  C   UNL     1       9.873  12.778  22.850  1.00  0.00     0.012 A 
ATOM      7  C   UNL     1      10.285  12.438  20.464  1.00  0.00     0.019 A 
ATOM      8  C   UNL     1      11.076  12.693  19.344  1.00  0.00     0.094 A 
ATOM      9  C   UNL     1      12.202  13.513  19.481  1.00  0.00     0.336 A 
ATOM     10  O   UNL     1      12.927  13.755  18.482  1.00  0.00    -0.246 OA
ATOM     11  O   UNL     1      12.512  14.040  20.664  1.00  0.00    -0.423 OA
ENDROOT
TORSDOF 0
ENDMDL
MODEL 4
REMARK VINA RESULT:    -4.076      1.639      3.131
REMARK INTER + INTRA:          -4.076
REMARK INTER:                  -4.076
REMARK INTRA:                   0.000
REMARK UNBOUND:                 0.000
REMARK SMILES O=c1ccc2ccccc2o1
REMARK SMILES IDX 7 1 8 2 9 3 10 4 5 5 6 6 4 7 3 8 2 9 1 10 11 11
REMARK H PARENT
REMARK Flexibility Score: inf
ROOT
ATOM      1  C   UNL     1      13.899  15.829  21.486  1.00  0.00     0.001 A 
ATOM      2  C   UNL     1      14.077  15.987  20.108  1.00  0.00     0.004 A 
ATOM      3  C   UNL     1      13.287  15.262  19.208  1.00  0.00     0.048 A 
ATOM      4  C   UNL     1      12.315  14.376  19.685  1.00  0.00     0.138 A 
ATOM      5  C   UNL     1      12.135  14.216  21.078  1.00  0.00     0.018 A 
ATOM      6  C   UNL     1      12.929  14.945  21.974  1.00  0.00     0.012 A 
ATOM      7  C   UNL     1      11.155  13.324  21.525  1.00  0.00     0.019 A 
ATOM      8  C   UNL     1      10.392  12.622  20.592  1.00  0.00     0.094 A 
ATOM      9  C   UNL     1      10.626  12.831  19.229  1.00  0.00     0.336 A 
ATOM     10  O   UNL     1       9.947  12.208  18.372  1.00  0.00    -0.246 OA
ATOM     11  O   UNL     1      11.564  13.687  18.829  1.00  0.00    -0.423 OA
ENDROOT
TORSDOF 0
ENDMDL
MODEL 5
REMARK VINA RESULT:    -4.030      2.100      2.763
REMARK INTER + INTRA:          -4.030
REMARK INTER:                  -4.030
REMARK INTRA:                   0.000
REMARK UNBOUND:                 0.000
REMARK SMILES O=c1ccc2ccccc2o1
REMARK SMILES IDX 7 1 8 2 9 3 10 4 5 5 6 6 4 7 3 8 2 9 1 10 11 11
REMARK H PARENT
REMARK Flexibility Score: inf
ROOT
ATOM      1  C   UNL     1      14.361  16.381  23.169  1.00  0.00     0.001 A 
ATOM      2  C   UNL     1      13.387  15.602  23.802  1.00  0.00     0.004 A 
ATOM      3  C   UNL     1      12.497  14.834  23.043  1.00  0.00     0.048 A 
ATOM      4  C   UNL     1      12.579  14.842  21.647  1.00  0.00     0.138 A 
ATOM      5  C   UNL     1      13.564  15.629  21.007  1.00  0.00     0.018 A 
ATOM      6  C   UNL     1      14.453  16.397  21.773  1.00  0.00     0.012 A 
ATOM      7  C   UNL     1      13.622  15.617  19.609  1.00  0.00     0.019 A 
ATOM      8  C   UNL     1      12.715  14.837  18.893  1.00  0.00     0.094 A 
ATOM      9  C   UNL     1      11.767  14.083  19.594  1.00  0.00     0.336 A 
ATOM     10  O   UNL     1      10.940  13.373  18.965  1.00  0.00    -0.246 OA
ATOM     11  O   UNL     1      11.733  14.111  20.925  1.00  0.00    -0.423 OA
ENDROOT
TORSDOF 0
ENDMDL
MODEL 6
REMARK VINA RESULT:    -3.998      1.381      3.622
REMARK INTER + INTRA:          -3.998
REMARK INTER:                  -3.998
REMARK INTRA:                   0.000
REMARK UNBOUND:                 0.000
REMARK SMILES O=c1ccc2ccccc2o1
REMARK SMILES IDX 7 1 8 2 9 3 10 4 5 5 6 6 4 7 3 8 2 9 1 10 11 11
REMARK H PARENT
REMARK Flexibility Score: inf
ROOT
ATOM      1  C   UNL     1      13.464  15.249  19.468  1.00  0.00     0.001 A 
ATOM      2  C   UNL     1      12.589  14.468  18.707  1.00  0.00     0.004 A 
ATOM      3  C   UNL     1      11.612  13.688  19.336  1.00  0.00     0.048 A 
ATOM      4  C   UNL     1      11.508  13.687  20.731  1.00  0.00     0.138 A 
ATOM      5  C   UNL     1      12.392  14.476  21.501  1.00  0.00     0.018 A 
ATOM      6  C   UNL     1      13.369  15.256  20.865  1.00  0.00     0.012 A 
ATOM      7  C   UNL     1      12.263  14.455  22.894  1.00  0.00     0.019 A 
ATOM      8  C   UNL     1      11.276  13.662  23.478  1.00  0.00     0.094 A 
ATOM      9  C   UNL     1      10.436  12.907  22.652  1.00  0.00     0.336 A 
ATOM     10  O   UNL     1       9.539  12.186  23.161  1.00  0.00    -0.246 OA
ATOM     11  O   UNL     1      10.579  12.945  21.329  1.00  0.00    -0.423 OA
ENDROOT
TORSDOF 0
ENDMDL
MODEL 7
REMARK VINA RESULT:    -3.978      1.698      2.133
REMARK INTER + INTRA:          -3.978
REMARK INTER:                  -3.978
REMARK INTRA:                   0.000
REMARK UNBOUND:                 0.000
REMARK SMILES O=c1ccc2ccccc2o1
REMARK SMILES IDX 7 1 8 2 9 3 10 4 5 5 6 6 4 7 3 8 2 9 1 10 11 11
REMARK H PARENT
REMARK Flexibility Score: inf
ROOT
ATOM      1  C   UNL     1      11.209  13.548  24.125  1.00  0.00     0.001 A 
ATOM      2  C   UNL     1      10.445  12.754  23.264  1.00  0.00     0.004 A 
ATOM      3  C   UNL     1      10.594  12.873  21.877  1.00  0.00     0.048 A 
ATOM      4  C   UNL     1      11.510  13.787  21.347  1.00  0.00     0.138 A 
ATOM      5  C   UNL     1      12.283  14.590  22.217  1.00  0.00     0.018 A 
ATOM      6  C   UNL     1      12.129  14.466  23.606  1.00  0.00     0.012 A 
ATOM      7  C   UNL     1      13.192  15.495  21.658  1.00  0.00     0.019 A 
ATOM      8  C   UNL     1      13.307  15.579  20.271  1.00  0.00     0.094 A 
ATOM      9  C   UNL     1      12.509  14.753  19.472  1.00  0.00     0.336 A 
ATOM     10  O   UNL     1      12.600  14.815  18.219  1.00  0.00    -0.246 OA
ATOM     11  O   UNL     1      11.653  13.899  20.029  1.00  0.00    -0.423 OA
ENDROOT
TORSDOF 0
ENDMDL
MODEL 8
REMARK VINA RESULT:    -3.924      2.329      3.764
REMARK INTER + INTRA:          -3.924
REMARK INTER:                  -3.924
REMARK INTRA:                   0.000
REMARK UNBOUND:                 0.000
REMARK SMILES O=c1ccc2ccccc2o1
REMARK SMILES IDX 7 1 8 2 9 3 10 4 5 5 6 6 4 7 3 8 2 9 1 10 11 11
REMARK H PARENT
REMARK Flexibility Score: inf
ROOT
ATOM      1  C   UNL     1      10.236  11.875  19.599  1.00  0.00     0.001 A 
ATOM      2  C   UNL     1      10.180  11.915  20.996  1.00  0.00     0.004 A 
ATOM      3  C   UNL     1      10.921  12.869  21.703  1.00  0.00     0.048 A 
ATOM      4  C   UNL     1      11.721  13.787  21.015  1.00  0.00     0.138 A 
ATOM      5  C   UNL     1      11.778  13.747  19.602  1.00  0.00     0.018 A 
ATOM      6  C   UNL     1      11.033  12.789  18.899  1.00  0.00     0.012 A 
ATOM      7  C   UNL     1      12.585  14.678  18.941  1.00  0.00     0.019 A 
ATOM      8  C   UNL     1      13.307  15.609  19.687  1.00  0.00     0.094 A 
ATOM      9  C   UNL     1      13.202  15.589  21.082  1.00  0.00     0.336 A 
ATOM     10  O   UNL     1      13.845  16.423  21.772  1.00  0.00    -0.246 OA
ATOM     11  O   UNL     1      12.425  14.693  21.687  1.00  0.00    -0.423 OA
ENDROOT
TORSDOF 0
ENDMDL
MODEL 9
REMARK VINA RESULT:    -3.877      2.276      4.038
REMARK INTER + INTRA:          -3.877
REMARK INTER:                  -3.877
REMARK INTRA:                   0.000
REMARK UNBOUND:                 0.000
REMARK SMILES O=c1ccc2ccccc2o1
REMARK SMILES IDX 7 1 8 2 9 3 10 4 5 5 6 6 4 7 3 8 2 9 1 10 11 11
REMARK H PARENT
REMARK Flexibility Score: inf
ROOT
ATOM      1  C   UNL     1       9.875  11.875  19.902  1.00  0.00     0.001 A 
ATOM      2  C   UNL     1       9.943  12.739  18.804  1.00  0.00     0.004 A 
ATOM      3  C   UNL     1      10.731  13.894  18.866  1.00  0.00     0.048 A 
ATOM      4  C   UNL     1      11.455  14.188  20.026  1.00  0.00     0.138 A 
ATOM      5  C   UNL     1      11.386  13.314  21.136  1.00  0.00     0.018 A 
ATOM      6  C   UNL     1      10.595  12.159  21.068  1.00  0.00     0.012 A 
ATOM      7  C   UNL     1      12.121  13.634  22.282  1.00  0.00     0.019 A 
ATOM      8  C   UNL     1      12.892  14.795  22.299  1.00  0.00     0.094 A 
ATOM      9  C   UNL     1      12.912  15.613  21.164  1.00  0.00     0.336 A 
ATOM     10  O   UNL     1      13.602  16.665  21.160  1.00  0.00    -0.246 OA
ATOM     11  O   UNL     1      12.204  15.286  20.084  1.00  0.00    -0.423 OA
ENDROOT
TORSDOF 0
ENDMDL
