MODEL 1
REMARK VINA RESULT:    -5.003      0.000      0.000
REMARK INTER + INTRA:          -6.626
REMARK INTER:                  -7.050
REMARK INTRA:                   0.424
REMARK UNBOUND:                 0.424
REMARK SMILES CC1=CCC(=C(C)C)C(=O)CC(C)=CCC1
REMARK SMILES IDX 12 1 14 2 13 3 15 4 16 5 2 6 1 7 3 8 11 10 9 11 10 12 5 13
REMARK SMILES IDX 6 14 7 15 8 16 4 17
REMARK H PARENT
REMARK Flexibility Score: 60.00
ROOT
ATOM      1  C   UNL     1     132.969 136.092 113.747  1.00  0.00    -0.070 C 
ATOM      2  C   UNL     1     133.603 136.472 112.611  1.00  0.00    -0.027 C 
ATOM      3  C   UNL     1     131.578 135.525 113.609  1.00  0.00     0.039 C 
ENDROOT
BRANCH   2   4
ATOM      4  C   UNL     1     134.946 137.156 112.524  1.00  0.00     0.032 C 
BRANCH   4   5
ATOM      5  C   UNL     1     136.119 136.194 112.789  1.00  0.00     0.034 C 
BRANCH   5   6
ATOM      6  C   UNL     1     137.110 136.761 113.787  1.00  0.00    -0.077 C 
ATOM      7  C   UNL     1     137.771 138.078 113.469  1.00  0.00     0.039 C 
ATOM      8  C   UNL     1     137.418 136.165 114.960  1.00  0.00    -0.023 CG0
ATOM      9  G   UNL     1     136.837 134.867 115.470  1.00  0.00     0.000 G0
ENDBRANCH   5   6
ENDBRANCH   4   5
ENDBRANCH   2   4
BRANCH   1  10
ATOM     10  C   UNL     1     133.553 136.268 115.139  1.00  0.00     0.111 C 
BRANCH  10  11
ATOM     11  C   UNL     1     134.296 135.034 115.588  1.00  0.00     0.163 C 
ATOM     12  O   UNL     1     133.804 133.909 115.308  1.00  0.00    -0.294 OA
BRANCH  11  13
ATOM     13  C   UNL     1     135.609 135.117 116.302  1.00  0.00    -0.002 C 
ATOM     14  C   UNL     1     135.691 135.472 117.620  1.00  0.00    -0.069 C 
ATOM     15  C   UNL     1     137.019 135.517 118.344  1.00  0.00     0.039 C 
ATOM     16  C   UNL     1     134.464 135.873 118.409  1.00  0.00     0.039 C 
BRANCH  13  17
ATOM     17  C   UNL     1     136.859 134.862 115.479  1.00  0.00     0.066 CG0
ATOM     18  G   UNL     1     137.412 136.170 114.967  1.00  0.00     0.000 G0
ENDBRANCH  13  17
ENDBRANCH  11  13
ENDBRANCH  10  11
ENDBRANCH   1  10
TORSDOF 0
ENDMDL
MODEL 2
REMARK VINA RESULT:    -4.643      1.974      4.094
REMARK INTER + INTRA:          -6.119
REMARK INTER:                  -7.035
REMARK INTRA:                   0.915
REMARK UNBOUND:                 0.424
REMARK SMILES CC1=CCC(=C(C)C)C(=O)CC(C)=CCC1
REMARK SMILES IDX 12 1 14 2 13 3 15 4 16 5 2 6 1 7 3 8 11 10 9 11 10 12 5 13
REMARK SMILES IDX 6 14 7 15 8 16 4 17
REMARK H PARENT
REMARK Flexibility Score: 60.00
ROOT
ATOM      1  C   UNL     1     134.352 134.624 112.691  1.00  0.00    -0.070 C 
ATOM      2  C   UNL     1     134.413 133.559 113.527  1.00  0.00    -0.027 C 
ATOM      3  C   UNL     1     135.089 134.519 111.379  1.00  0.00     0.039 C 
ENDROOT
BRANCH   2   4
ATOM      4  C   UNL     1     133.843 133.485 114.923  1.00  0.00     0.032 C 
BRANCH   4   5
ATOM      5  C   UNL     1     134.510 134.483 115.888  1.00  0.00     0.034 C 
BRANCH   5   6
ATOM      6  C   UNL     1     136.000 134.613 115.638  1.00  0.00    -0.077 C 
ATOM      7  C   UNL     1     136.868 133.396 115.838  1.00  0.00     0.039 C 
ATOM      8  C   UNL     1     136.595 135.753 115.221  1.00  0.00    -0.023 CG0
ATOM      9  G   UNL     1     135.894 137.059 114.933  1.00  0.00     0.000 G0
ENDBRANCH   5   6
ENDBRANCH   4   5
ENDBRANCH   2   4
BRANCH   1  10
ATOM     10  C   UNL     1     133.645 135.925 113.031  1.00  0.00     0.111 C 
BRANCH  10  11
ATOM     11  C   UNL     1     134.521 137.121 112.754  1.00  0.00     0.163 C 
ATOM     12  O   UNL     1     134.090 138.001 111.962  1.00  0.00    -0.294 OA
BRANCH  11  13
ATOM     13  C   UNL     1     135.845 137.307 113.427  1.00  0.00    -0.002 C 
ATOM     14  C   UNL     1     136.975 137.611 112.720  1.00  0.00    -0.069 C 
ATOM     15  C   UNL     1     138.302 137.834 113.412  1.00  0.00     0.039 C 
ATOM     16  C   UNL     1     136.964 137.704 111.210  1.00  0.00     0.039 C 
BRANCH  13  17
ATOM     17  C   UNL     1     135.896 137.068 114.925  1.00  0.00     0.066 CG0
ATOM     18  G   UNL     1     136.576 135.750 115.212  1.00  0.00     0.000 G0
ENDBRANCH  13  17
ENDBRANCH  11  13
ENDBRANCH  10  11
ENDBRANCH   1  10
TORSDOF 0
ENDMDL
MODEL 3
REMARK VINA RESULT:    -4.561      2.015      4.467
REMARK INTER + INTRA:          -6.004
REMARK INTER:                  -6.695
REMARK INTRA:                   0.691
REMARK UNBOUND:                 0.424
REMARK SMILES CC1=CCC(=C(C)C)C(=O)CC(C)=CCC1
REMARK SMILES IDX 12 1 14 2 13 3 15 4 16 5 2 6 1 7 3 8 11 10 9 11 10 12 5 13
REMARK SMILES IDX 6 14 7 15 8 16 4 17
REMARK H PARENT
REMARK Flexibility Score: 60.00
ROOT
ATOM      1  C   UNL     1     134.786 136.320 116.164  1.00  0.00    -0.070 C 
ATOM      2  C   UNL     1     133.664 135.724 115.693  1.00  0.00    -0.027 C 
ATOM      3  C   UNL     1     135.148 136.072 117.608  1.00  0.00     0.039 C 
ENDROOT
BRANCH   2   4
ATOM      4  C   UNL     1     133.060 135.915 114.322  1.00  0.00     0.032 C 
BRANCH   4   5
ATOM      5  C   UNL     1     133.114 134.635 113.467  1.00  0.00     0.034 C 
BRANCH   5   6
ATOM      6  C   UNL     1     134.423 133.889 113.636  1.00  0.00    -0.077 C 
ATOM      7  C   UNL     1     134.407 132.575 114.377  1.00  0.00     0.039 C 
ATOM      8  C   UNL     1     135.603 134.321 113.138  1.00  0.00    -0.023 CG0
ATOM      9  G   UNL     1     135.815 135.586 112.342  1.00  0.00     0.000 G0
ENDBRANCH   5   6
ENDBRANCH   4   5
ENDBRANCH   2   4
BRANCH   1  10
ATOM     10  C   UNL     1     135.649 137.264 115.346  1.00  0.00     0.111 C 
BRANCH  10  11
ATOM     11  C   UNL     1     136.708 136.517 114.572  1.00  0.00     0.163 C 
ATOM     12  O   UNL     1     137.541 135.829 115.219  1.00  0.00    -0.294 OA
BRANCH  11  13
ATOM     13  C   UNL     1     136.757 136.536 113.076  1.00  0.00    -0.002 C 
ATOM     14  C   UNL     1     137.554 137.411 112.393  1.00  0.00    -0.069 C 
ATOM     15  C   UNL     1     137.626 137.398 110.882  1.00  0.00     0.039 C 
ATOM     16  C   UNL     1     138.376 138.459 113.110  1.00  0.00     0.039 C 
BRANCH  13  17
ATOM     17  C   UNL     1     135.823 135.588 112.344  1.00  0.00     0.066 CG0
ATOM     18  G   UNL     1     135.617 134.336 113.163  1.00  0.00     0.000 G0
ENDBRANCH  13  17
ENDBRANCH  11  13
ENDBRANCH  10  11
ENDBRANCH   1  10
TORSDOF 0
ENDMDL
MODEL 4
REMARK VINA RESULT:    -4.500      5.614      8.582
REMARK INTER + INTRA:          -5.918
REMARK INTER:                  -6.576
REMARK INTRA:                   0.659
REMARK UNBOUND:                 0.424
REMARK SMILES CC1=CCC(=C(C)C)C(=O)CC(C)=CCC1
REMARK SMILES IDX 12 1 14 2 13 3 15 4 16 5 2 6 1 7 3 8 11 10 9 11 10 12 5 13
REMARK SMILES IDX 6 14 7 15 8 16 4 17
REMARK H PARENT
REMARK Flexibility Score: 60.00
ROOT
ATOM      1  C   UNL     1     142.881 140.283 112.434  1.00  0.00    -0.070 C 
ATOM      2  C   UNL     1     143.701 140.249 113.512  1.00  0.00    -0.027 C 
ATOM      3  C   UNL     1     142.853 139.063 111.546  1.00  0.00     0.039 C 
ENDROOT
BRANCH   2   4
ATOM      4  C   UNL     1     143.964 141.387 114.470  1.00  0.00     0.032 C 
BRANCH   4   5
ATOM      5  C   UNL     1     142.695 141.839 115.216  1.00  0.00     0.034 C 
BRANCH   5   6
ATOM      6  C   UNL     1     141.910 140.667 115.771  1.00  0.00    -0.077 C 
ATOM      7  C   UNL     1     142.562 139.800 116.819  1.00  0.00     0.039 C 
ATOM      8  C   UNL     1     140.646 140.366 115.398  1.00  0.00    -0.023 CG0
ATOM      9  G   UNL     1     139.816 141.132 114.396  1.00  0.00     0.000 G0
ENDBRANCH   5   6
ENDBRANCH   4   5
ENDBRANCH   2   4
BRANCH   1  10
ATOM     10  C   UNL     1     142.050 141.492 112.042  1.00  0.00     0.111 C 
BRANCH  10  11
ATOM     11  C   UNL     1     140.584 141.150 111.942  1.00  0.00     0.163 C 
ATOM     12  O   UNL     1     139.978 141.445 110.878  1.00  0.00    -0.294 OA
BRANCH  11  13
ATOM     13  C   UNL     1     139.862 140.434 113.039  1.00  0.00    -0.002 C 
ATOM     14  C   UNL     1     139.226 139.243 112.825  1.00  0.00    -0.069 C 
ATOM     15  C   UNL     1     138.529 138.507 113.949  1.00  0.00     0.039 C 
ATOM     16  C   UNL     1     139.155 138.619 111.448  1.00  0.00     0.039 C 
BRANCH  13  17
ATOM     17  C   UNL     1     139.799 141.125 114.390  1.00  0.00     0.066 CG0
ATOM     18  G   UNL     1     140.637 140.369 115.393  1.00  0.00     0.000 G0
ENDBRANCH  13  17
ENDBRANCH  11  13
ENDBRANCH  10  11
ENDBRANCH   1  10
TORSDOF 0
ENDMDL
MODEL 5
REMARK VINA RESULT:    -4.410      1.607      3.082
REMARK INTER + INTRA:          -5.790
REMARK INTER:                  -6.730
REMARK INTRA:                   0.939
REMARK UNBOUND:                 0.424
REMARK SMILES CC1=CCC(=C(C)C)C(=O)CC(C)=CCC1
REMARK SMILES IDX 12 1 14 2 13 3 15 4 16 5 2 6 1 7 3 8 11 10 9 11 10 12 5 13
REMARK SMILES IDX 6 14 7 15 8 16 4 17
REMARK H PARENT
REMARK Flexibility Score: 60.00
ROOT
ATOM      1  C   UNL     1     133.727 135.616 115.381  1.00  0.00    -0.070 C 
ATOM      2  C   UNL     1     132.961 135.726 114.269  1.00  0.00    -0.027 C 
ATOM      3  C   UNL     1     133.742 136.788 116.331  1.00  0.00     0.039 C 
ENDROOT
BRANCH   2   4
ATOM      4  C   UNL     1     132.879 134.727 113.139  1.00  0.00     0.032 C 
BRANCH   4   5
ATOM      5  C   UNL     1     133.579 135.221 111.859  1.00  0.00     0.034 C 
BRANCH   5   6
ATOM      6  C   UNL     1     134.184 136.601 112.034  1.00  0.00    -0.077 C 
ATOM      7  C   UNL     1     133.301 137.802 111.807  1.00  0.00     0.039 C 
ATOM      8  C   UNL     1     135.465 136.817 112.406  1.00  0.00    -0.023 CG0
ATOM      9  G   UNL     1     136.488 135.749 112.711  1.00  0.00     0.000 G0
ENDBRANCH   5   6
ENDBRANCH   4   5
ENDBRANCH   2   4
BRANCH   1  10
ATOM     10  C   UNL     1     134.611 134.418 115.684  1.00  0.00     0.111 C 
BRANCH  10  11
ATOM     11  C   UNL     1     135.718 134.275 114.668  1.00  0.00     0.163 C 
ATOM     12  O   UNL     1     135.926 133.134 114.175  1.00  0.00    -0.294 OA
BRANCH  11  13
ATOM     13  C   UNL     1     136.524 135.447 114.205  1.00  0.00    -0.002 C 
ATOM     14  C   UNL     1     137.202 136.247 115.083  1.00  0.00    -0.069 C 
ATOM     15  C   UNL     1     138.046 137.407 114.604  1.00  0.00     0.039 C 
ATOM     16  C   UNL     1     137.113 136.034 116.578  1.00  0.00     0.039 C 
BRANCH  13  17
ATOM     17  C   UNL     1     136.498 135.758 112.719  1.00  0.00     0.066 CG0
ATOM     18  G   UNL     1     135.453 136.810 112.433  1.00  0.00     0.000 G0
ENDBRANCH  13  17
ENDBRANCH  11  13
ENDBRANCH  10  11
ENDBRANCH   1  10
TORSDOF 0
ENDMDL
MODEL 6
REMARK VINA RESULT:    -4.400      1.789      3.518
REMARK INTER + INTRA:          -5.776
REMARK INTER:                  -6.340
REMARK INTRA:                   0.564
REMARK UNBOUND:                 0.424
REMARK SMILES CC1=CCC(=C(C)C)C(=O)CC(C)=CCC1
REMARK SMILES IDX 12 1 14 2 13 3 15 4 16 5 2 6 1 7 3 8 11 10 9 11 10 12 5 13
REMARK SMILES IDX 6 14 7 15 8 16 4 17
REMARK H PARENT
REMARK Flexibility Score: 60.00
ROOT
ATOM      1  C   UNL     1     136.830 135.973 113.681  1.00  0.00    -0.070 C 
ATOM      2  C   UNL     1     136.236 136.020 112.464  1.00  0.00    -0.027 C 
ATOM      3  C   UNL     1     137.527 137.221 114.162  1.00  0.00     0.039 C 
ENDROOT
BRANCH   2   4
ATOM      4  C   UNL     1     135.578 134.867 111.746  1.00  0.00     0.032 C 
BRANCH   4   5
ATOM      5  C   UNL     1     134.048 135.024 111.650  1.00  0.00     0.034 C 
BRANCH   5   6
ATOM      6  C   UNL     1     133.561 136.297 112.313  1.00  0.00    -0.077 C 
ATOM      7  C   UNL     1     133.472 137.550 111.477  1.00  0.00     0.039 C 
ATOM      8  C   UNL     1     133.178 136.371 113.606  1.00  0.00    -0.023 CG0
ATOM      9  G   UNL     1     133.161 135.224 114.588  1.00  0.00     0.000 G0
ENDBRANCH   5   6
ENDBRANCH   4   5
ENDBRANCH   2   4
BRANCH   1  10
ATOM     10  C   UNL     1     136.886 134.725 114.546  1.00  0.00     0.111 C 
BRANCH  10  11
ATOM     11  C   UNL     1     135.505 134.243 114.916  1.00  0.00     0.163 C 
ATOM     12  O   UNL     1     135.270 133.007 114.848  1.00  0.00    -0.294 OA
BRANCH  11  13
ATOM     13  C   UNL     1     134.444 135.179 115.402  1.00  0.00    -0.002 C 
ATOM     14  C   UNL     1     134.596 135.905 116.551  1.00  0.00    -0.069 C 
ATOM     15  C   UNL     1     133.534 136.878 117.015  1.00  0.00     0.039 C 
ATOM     16  C   UNL     1     135.815 135.746 117.433  1.00  0.00     0.039 C 
BRANCH  13  17
ATOM     17  C   UNL     1     133.154 135.234 114.603  1.00  0.00     0.066 CG0
ATOM     18  G   UNL     1     133.213 136.370 113.610  1.00  0.00     0.000 G0
ENDBRANCH  13  17
ENDBRANCH  11  13
ENDBRANCH  10  11
ENDBRANCH   1  10
TORSDOF 0
ENDMDL
MODEL 7
REMARK VINA RESULT:    -4.321      5.893      8.548
REMARK INTER + INTRA:          -5.665
REMARK INTER:                  -6.769
REMARK INTRA:                   1.103
REMARK UNBOUND:                 0.424
REMARK SMILES CC1=CCC(=C(C)C)C(=O)CC(C)=CCC1
REMARK SMILES IDX 12 1 14 2 13 3 15 4 16 5 2 6 1 7 3 8 11 10 9 11 10 12 5 13
REMARK SMILES IDX 6 14 7 15 8 16 4 17
REMARK H PARENT
REMARK Flexibility Score: 60.00
ROOT
ATOM      1  C   UNL     1     142.763 140.968 115.375  1.00  0.00    -0.070 C 
ATOM      2  C   UNL     1     143.561 140.820 114.290  1.00  0.00    -0.027 C 
ATOM      3  C   UNL     1     142.731 139.834 116.372  1.00  0.00     0.039 C 
ENDROOT
BRANCH   2   4
ATOM      4  C   UNL     1     143.666 141.773 113.124  1.00  0.00     0.032 C 
BRANCH   4   5
ATOM      5  C   UNL     1     142.799 141.342 111.926  1.00  0.00     0.034 C 
BRANCH   5   6
ATOM      6  C   UNL     1     142.254 139.936 112.090  1.00  0.00    -0.077 C 
ATOM      7  C   UNL     1     143.196 138.776 111.884  1.00  0.00     0.039 C 
ATOM      8  C   UNL     1     140.977 139.662 112.435  1.00  0.00    -0.023 CG0
ATOM      9  G   UNL     1     139.900 140.683 112.717  1.00  0.00     0.000 G0
ENDBRANCH   5   6
ENDBRANCH   4   5
ENDBRANCH   2   4
BRANCH   1  10
ATOM     10  C   UNL     1     141.861 142.168 115.604  1.00  0.00     0.111 C 
BRANCH  10  11
ATOM     11  C   UNL     1     140.775 142.253 114.561  1.00  0.00     0.163 C 
ATOM     12  O   UNL     1     140.616 143.348 113.957  1.00  0.00    -0.294 OA
BRANCH  11  13
ATOM     13  C   UNL     1     139.931 141.072 114.198  1.00  0.00    -0.002 C 
ATOM     14  C   UNL     1     139.276 140.337 115.146  1.00  0.00    -0.069 C 
ATOM     15  C   UNL     1     138.394 139.167 114.767  1.00  0.00     0.039 C 
ATOM     16  C   UNL     1     139.427 140.633 116.622  1.00  0.00     0.039 C 
BRANCH  13  17
ATOM     17  C   UNL     1     139.893 140.676 112.732  1.00  0.00     0.066 CG0
ATOM     18  G   UNL     1     140.971 139.658 112.448  1.00  0.00     0.000 G0
ENDBRANCH  13  17
ENDBRANCH  11  13
ENDBRANCH  10  11
ENDBRANCH   1  10
TORSDOF 0
ENDMDL
MODEL 8
REMARK VINA RESULT:    -4.313      1.722      3.530
REMARK INTER + INTRA:          -5.655
REMARK INTER:                  -6.319
REMARK INTRA:                   0.665
REMARK UNBOUND:                 0.424
REMARK SMILES CC1=CCC(=C(C)C)C(=O)CC(C)=CCC1
REMARK SMILES IDX 12 1 14 2 13 3 15 4 16 5 2 6 1 7 3 8 11 10 9 11 10 12 5 13
REMARK SMILES IDX 6 14 7 15 8 16 4 17
REMARK H PARENT
REMARK Flexibility Score: 60.00
ROOT
ATOM      1  C   UNL     1     136.196 137.453 112.844  1.00  0.00    -0.070 C 
ATOM      2  C   UNL     1     135.374 137.238 111.788  1.00  0.00    -0.027 C 
ATOM      3  C   UNL     1     137.636 137.791 112.544  1.00  0.00     0.039 C 
ENDROOT
BRANCH   2   4
ATOM      4  C   UNL     1     133.934 136.788 111.856  1.00  0.00     0.032 C 
BRANCH   4   5
ATOM      5  C   UNL     1     133.788 135.342 112.367  1.00  0.00     0.034 C 
BRANCH   5   6
ATOM      6  C   UNL     1     132.920 135.259 113.607  1.00  0.00    -0.077 C 
ATOM      7  C   UNL     1     131.502 135.765 113.523  1.00  0.00     0.039 C 
ATOM      8  C   UNL     1     133.337 134.734 114.781  1.00  0.00    -0.023 CG0
ATOM      9  G   UNL     1     134.702 134.147 115.050  1.00  0.00     0.000 G0
ENDBRANCH   5   6
ENDBRANCH   4   5
ENDBRANCH   2   4
BRANCH   1  10
ATOM     10  C   UNL     1     135.766 137.309 114.293  1.00  0.00     0.111 C 
BRANCH  10  11
ATOM     11  C   UNL     1     136.380 136.090 114.936  1.00  0.00     0.163 C 
ATOM     12  O   UNL     1     137.614 135.893 114.775  1.00  0.00    -0.294 OA
BRANCH  11  13
ATOM     13  C   UNL     1     135.580 135.156 115.787  1.00  0.00    -0.002 C 
ATOM     14  C   UNL     1     135.678 135.161 117.151  1.00  0.00    -0.069 C 
ATOM     15  C   UNL     1     134.838 134.239 118.006  1.00  0.00     0.039 C 
ATOM     16  C   UNL     1     136.657 136.062 117.871  1.00  0.00     0.039 C 
BRANCH  13  17
ATOM     17  C   UNL     1     134.705 134.144 115.067  1.00  0.00     0.066 CG0
ATOM     18  G   UNL     1     133.350 134.748 114.783  1.00  0.00     0.000 G0
ENDBRANCH  13  17
ENDBRANCH  11  13
ENDBRANCH  10  11
ENDBRANCH   1  10
TORSDOF 0
ENDMDL
MODEL 9
REMARK VINA RESULT:    -4.236      6.503      8.940
REMARK INTER + INTRA:          -5.545
REMARK INTER:                  -6.445
REMARK INTRA:                   0.900
REMARK UNBOUND:                 0.424
REMARK SMILES CC1=CCC(=C(C)C)C(=O)CC(C)=CCC1
REMARK SMILES IDX 12 1 14 2 13 3 15 4 16 5 2 6 1 7 3 8 11 10 9 11 10 12 5 13
REMARK SMILES IDX 6 14 7 15 8 16 4 17
REMARK H PARENT
REMARK Flexibility Score: 60.00
ROOT
ATOM      1  C   UNL     1     140.915 140.870 116.691  1.00  0.00    -0.070 C 
ATOM      2  C   UNL     1     139.836 140.196 116.225  1.00  0.00    -0.027 C 
ATOM      3  C   UNL     1     140.705 141.781 117.876  1.00  0.00     0.039 C 
ENDROOT
BRANCH   2   4
ATOM      4  C   UNL     1     139.793 139.319 114.997  1.00  0.00     0.032 C 
BRANCH   4   5
ATOM      5  C   UNL     1     138.914 139.909 113.878  1.00  0.00     0.034 C 
BRANCH   5   6
ATOM      6  C   UNL     1     139.553 139.761 112.511  1.00  0.00    -0.077 C 
ATOM      7  C   UNL     1     139.084 138.639 111.620  1.00  0.00     0.039 C 
ATOM      8  C   UNL     1     140.504 140.594 112.032  1.00  0.00    -0.023 CG0
ATOM      9  G   UNL     1     141.075 141.790 112.756  1.00  0.00     0.000 G0
ENDBRANCH   5   6
ENDBRANCH   4   5
ENDBRANCH   2   4
BRANCH   1  10
ATOM     10  C   UNL     1     142.291 140.807 116.051  1.00  0.00     0.111 C 
BRANCH  10  11
ATOM     11  C   UNL     1     142.430 141.814 114.936  1.00  0.00     0.163 C 
ATOM     12  O   UNL     1     142.665 143.013 115.244  1.00  0.00    -0.294 OA
BRANCH  11  13
ATOM     13  C   UNL     1     142.347 141.416 113.496  1.00  0.00    -0.002 C 
ATOM     14  C   UNL     1     143.388 140.800 112.858  1.00  0.00    -0.069 C 
ATOM     15  C   UNL     1     143.282 140.367 111.412  1.00  0.00     0.039 C 
ATOM     16  C   UNL     1     144.708 140.553 113.554  1.00  0.00     0.039 C 
BRANCH  13  17
ATOM     17  C   UNL     1     141.082 141.795 112.747  1.00  0.00     0.066 CG0
ATOM     18  G   UNL     1     140.525 140.585 112.035  1.00  0.00     0.000 G0
ENDBRANCH  13  17
ENDBRANCH  11  13
ENDBRANCH  10  11
ENDBRANCH   1  10
TORSDOF 0
ENDMDL
