MODEL 1
REMARK VINA RESULT:    -3.679      0.000      0.000
REMARK INTER + INTRA:          -4.341
REMARK INTER:                  -4.324
REMARK INTRA:                  -0.017
REMARK UNBOUND:                -0.017
REMARK SMILES CCCCC(=O)[O-]
REMARK SMILES IDX 4 1 5 2 6 3 7 4 3 5 2 6 1 7
REMARK H PARENT
REMARK Flexibility Score: inf
ROOT
ATOM      1  C   UNL     1     -99.624 -61.765 -65.965  1.00  0.00     0.053 C 
ENDROOT
BRANCH   1   2
ATOM      2  C   UNL     1    -100.085 -60.379 -66.300  1.00  0.00     0.041 C 
ATOM      3  O   UNL     1     -99.287 -59.555 -66.818  1.00  0.00    -0.550 OA
ATOM      4  O   UNL     1    -101.404 -60.008 -66.070  1.00  0.00    -0.550 OA
ENDBRANCH   1   2
BRANCH   1   5
ATOM      5  C   UNL     1     -99.170 -61.878 -64.504  1.00  0.00     0.006 C 
BRANCH   5   6
ATOM      6  C   UNL     1     -99.348 -63.298 -63.948  1.00  0.00    -0.003 C 
ATOM      7  C   UNL     1     -98.007 -63.906 -63.549  1.00  0.00     0.004 C 
ENDBRANCH   5   6
ENDBRANCH   1   5
TORSDOF 3
ENDMDL
MODEL 2
REMARK VINA RESULT:    -3.508      3.033      3.471
REMARK INTER + INTRA:          -4.140
REMARK INTER:                  -4.097
REMARK INTRA:                  -0.044
REMARK UNBOUND:                -0.017
REMARK SMILES CCCCC(=O)[O-]
REMARK SMILES IDX 4 1 5 2 6 3 7 4 3 5 2 6 1 7
REMARK H PARENT
REMARK Flexibility Score: inf
ROOT
ATOM      1  C   UNL     1     -99.362 -59.279 -66.657  1.00  0.00     0.053 C 
ENDROOT
BRANCH   1   2
ATOM      2  C   UNL     1     -97.968 -58.767 -66.859  1.00  0.00     0.041 C 
ATOM      3  O   UNL     1     -97.353 -59.012 -67.930  1.00  0.00    -0.550 OA
ATOM      4  O   UNL     1     -97.362 -57.990 -65.880  1.00  0.00    -0.550 OA
ENDBRANCH   1   2
BRANCH   1   5
ATOM      5  C   UNL     1     -99.382 -60.791 -66.399  1.00  0.00     0.006 C 
BRANCH   5   6
ATOM      6  C   UNL     1    -100.326 -61.532 -67.358  1.00  0.00    -0.003 C 
ATOM      7  C   UNL     1     -99.623 -62.714 -68.018  1.00  0.00     0.004 C 
ENDBRANCH   5   6
ENDBRANCH   1   5
TORSDOF 3
ENDMDL
MODEL 3
REMARK VINA RESULT:    -3.471      2.191      2.754
REMARK INTER + INTRA:          -4.097
REMARK INTER:                  -4.044
REMARK INTRA:                  -0.053
REMARK UNBOUND:                -0.017
REMARK SMILES CCCCC(=O)[O-]
REMARK SMILES IDX 4 1 5 2 6 3 7 4 3 5 2 6 1 7
REMARK H PARENT
REMARK Flexibility Score: inf
ROOT
ATOM      1  C   UNL     1     -99.422 -59.387 -66.680  1.00  0.00     0.053 C 
ENDROOT
BRANCH   1   2
ATOM      2  C   UNL     1     -98.046 -58.811 -66.825  1.00  0.00     0.041 C 
ATOM      3  O   UNL     1     -97.401 -58.973 -67.894  1.00  0.00    -0.550 OA
ATOM      4  O   UNL     1     -97.490 -58.067 -65.792  1.00  0.00    -0.550 OA
ENDBRANCH   1   2
BRANCH   1   5
ATOM      5  C   UNL     1     -99.391 -60.916 -66.565  1.00  0.00     0.006 C 
BRANCH   5   6
ATOM      6  C   UNL     1     -99.894 -61.407 -65.199  1.00  0.00    -0.003 C 
ATOM      7  C   UNL     1     -98.742 -61.919 -64.340  1.00  0.00     0.004 C 
ENDBRANCH   5   6
ENDBRANCH   1   5
TORSDOF 3
ENDMDL
MODEL 4
REMARK VINA RESULT:    -3.455      2.883      4.351
REMARK INTER + INTRA:          -4.078
REMARK INTER:                  -4.060
REMARK INTRA:                  -0.017
REMARK UNBOUND:                -0.017
REMARK SMILES CCCCC(=O)[O-]
REMARK SMILES IDX 4 1 5 2 6 3 7 4 3 5 2 6 1 7
REMARK H PARENT
REMARK Flexibility Score: inf
ROOT
ATOM      1  C   UNL     1     -98.807 -61.883 -64.389  1.00  0.00     0.053 C 
ENDROOT
BRANCH   1   2
ATOM      2  C   UNL     1     -98.840 -63.206 -63.687  1.00  0.00     0.041 C 
ATOM      3  O   UNL     1     -99.939 -63.702 -63.325  1.00  0.00    -0.550 OA
ATOM      4  O   UNL     1     -97.662 -63.907 -63.464  1.00  0.00    -0.550 OA
ENDBRANCH   1   2
BRANCH   1   5
ATOM      5  C   UNL     1     -99.584 -61.918 -65.711  1.00  0.00     0.006 C 
BRANCH   5   6
ATOM      6  C   UNL     1     -99.726 -60.524 -66.339  1.00  0.00    -0.003 C 
ATOM      7  C   UNL     1    -101.136 -59.975 -66.147  1.00  0.00     0.004 C 
ENDBRANCH   5   6
ENDBRANCH   1   5
TORSDOF 3
ENDMDL
MODEL 5
REMARK VINA RESULT:    -3.384      3.013      3.776
REMARK INTER + INTRA:          -3.994
REMARK INTER:                  -3.979
REMARK INTRA:                  -0.015
REMARK UNBOUND:                -0.017
REMARK SMILES CCCCC(=O)[O-]
REMARK SMILES IDX 4 1 5 2 6 3 7 4 3 5 2 6 1 7
REMARK H PARENT
REMARK Flexibility Score: inf
ROOT
ATOM      1  C   UNL     1     -99.482 -59.222 -67.004  1.00  0.00     0.053 C 
ENDROOT
BRANCH   1   2
ATOM      2  C   UNL     1    -100.522 -60.247 -66.666  1.00  0.00     0.041 C 
ATOM      3  O   UNL     1    -101.509 -59.933 -65.950  1.00  0.00    -0.550 OA
ATOM      4  O   UNL     1    -100.418 -61.537 -67.169  1.00  0.00    -0.550 OA
ENDBRANCH   1   2
BRANCH   1   5
ATOM      5  C   UNL     1     -98.179 -59.453 -66.228  1.00  0.00     0.006 C 
BRANCH   5   6
ATOM      6  C   UNL     1     -97.329 -58.178 -66.125  1.00  0.00    -0.003 C 
ATOM      7  C   UNL     1     -96.433 -58.212 -64.892  1.00  0.00     0.004 C 
ENDBRANCH   5   6
ENDBRANCH   1   5
TORSDOF 3
ENDMDL
MODEL 6
REMARK VINA RESULT:    -3.376      2.669      3.833
REMARK INTER + INTRA:          -3.985
REMARK INTER:                  -3.924
REMARK INTRA:                  -0.061
REMARK UNBOUND:                -0.017
REMARK SMILES CCCCC(=O)[O-]
REMARK SMILES IDX 4 1 5 2 6 3 7 4 3 5 2 6 1 7
REMARK H PARENT
REMARK Flexibility Score: inf
ROOT
ATOM      1  C   UNL     1     -99.427 -59.395 -66.515  1.00  0.00     0.053 C 
ENDROOT
BRANCH   1   2
ATOM      2  C   UNL     1     -99.644 -60.868 -66.351  1.00  0.00     0.041 C 
ATOM      3  O   UNL     1     -99.913 -61.584 -67.351  1.00  0.00    -0.550 OA
ATOM      4  O   UNL     1     -99.516 -61.456 -65.098  1.00  0.00    -0.550 OA
ENDBRANCH   1   2
BRANCH   1   5
ATOM      5  C   UNL     1     -98.009 -59.079 -67.010  1.00  0.00     0.006 C 
BRANCH   5   6
ATOM      6  C   UNL     1     -97.335 -57.979 -66.178  1.00  0.00    -0.003 C 
ATOM      7  C   UNL     1     -96.691 -58.555 -64.921  1.00  0.00     0.004 C 
ENDBRANCH   5   6
ENDBRANCH   1   5
TORSDOF 3
ENDMDL
MODEL 7
REMARK VINA RESULT:    -2.862      1.809      2.626
REMARK INTER + INTRA:          -3.381
REMARK INTER:                  -3.401
REMARK INTRA:                   0.020
REMARK UNBOUND:                -0.017
REMARK SMILES CCCCC(=O)[O-]
REMARK SMILES IDX 4 1 5 2 6 3 7 4 3 5 2 6 1 7
REMARK H PARENT
REMARK Flexibility Score: inf
ROOT
ATOM      1  C   UNL     1     -99.216 -60.860 -65.706  1.00  0.00     0.053 C 
ENDROOT
BRANCH   1   2
ATOM      2  C   UNL     1    -100.067 -59.762 -66.268  1.00  0.00     0.041 C 
ATOM      3  O   UNL     1     -99.573 -58.925 -67.068  1.00  0.00    -0.550 OA
ATOM      4  O   UNL     1    -101.414 -59.684 -65.935  1.00  0.00    -0.550 OA
ENDBRANCH   1   2
BRANCH   1   5
ATOM      5  C   UNL     1     -99.638 -62.237 -66.235  1.00  0.00     0.006 C 
BRANCH   5   6
ATOM      6  C   UNL     1    -100.064 -62.188 -67.710  1.00  0.00    -0.003 C 
ATOM      7  C   UNL     1     -99.367 -63.276 -68.520  1.00  0.00     0.004 C 
ENDBRANCH   5   6
ENDBRANCH   1   5
TORSDOF 3
ENDMDL
MODEL 8
REMARK VINA RESULT:    -2.791      2.428      3.563
REMARK INTER + INTRA:          -3.297
REMARK INTER:                  -3.221
REMARK INTRA:                  -0.076
REMARK UNBOUND:                -0.017
REMARK SMILES CCCCC(=O)[O-]
REMARK SMILES IDX 4 1 5 2 6 3 7 4 3 5 2 6 1 7
REMARK H PARENT
REMARK Flexibility Score: inf
ROOT
ATOM      1  C   UNL     1     -98.956 -60.951 -65.471  1.00  0.00     0.053 C 
ENDROOT
BRANCH   1   2
ATOM      2  C   UNL     1     -98.831 -61.953 -64.364  1.00  0.00     0.041 C 
ATOM      3  O   UNL     1     -97.723 -62.126 -63.790  1.00  0.00    -0.550 OA
ATOM      4  O   UNL     1     -99.943 -62.670 -63.943  1.00  0.00    -0.550 OA
ENDBRANCH   1   2
BRANCH   1   5
ATOM      5  C   UNL     1    -100.398 -60.845 -65.984  1.00  0.00     0.006 C 
BRANCH   5   6
ATOM      6  C   UNL     1    -100.498 -61.100 -67.495  1.00  0.00    -0.003 C 
ATOM      7  C   UNL     1     -99.844 -62.424 -67.874  1.00  0.00     0.004 C 
ENDBRANCH   5   6
ENDBRANCH   1   5
TORSDOF 3
ENDMDL
MODEL 9
REMARK VINA RESULT:    -2.668      6.768      7.454
REMARK INTER + INTRA:          -3.153
REMARK INTER:                  -3.086
REMARK INTRA:                  -0.067
REMARK UNBOUND:                -0.017
REMARK SMILES CCCCC(=O)[O-]
REMARK SMILES IDX 4 1 5 2 6 3 7 4 3 5 2 6 1 7
REMARK H PARENT
REMARK Flexibility Score: inf
ROOT
ATOM      1  C   UNL     1     -95.717 -62.946 -70.376  1.00  0.00     0.053 C 
ENDROOT
BRANCH   1   2
ATOM      2  C   UNL     1     -96.227 -61.615 -70.837  1.00  0.00     0.041 C 
ATOM      3  O   UNL     1     -96.865 -61.522 -71.919  1.00  0.00    -0.550 OA
ATOM      4  O   UNL     1     -96.028 -60.483 -70.056  1.00  0.00    -0.550 OA
ENDBRANCH   1   2
BRANCH   1   5
ATOM      5  C   UNL     1     -94.231 -62.888 -70.000  1.00  0.00     0.006 C 
BRANCH   5   6
ATOM      6  C   UNL     1     -93.317 -63.217 -71.189  1.00  0.00    -0.003 C 
ATOM      7  C   UNL     1     -94.022 -64.125 -72.191  1.00  0.00     0.004 C 
ENDBRANCH   5   6
ENDBRANCH   1   5
TORSDOF 3
ENDMDL
