MODEL 1
REMARK VINA RESULT:    -3.889      0.000      0.000
REMARK INTER + INTRA:          -3.889
REMARK INTER:                  -3.889
REMARK INTRA:                   0.000
REMARK UNBOUND:                 0.000
REMARK SMILES O=C1CCCCC1
REMARK SMILES IDX 5 1 4 2 3 3 2 4 1 5 7 6 6 7
REMARK H PARENT
REMARK Flexibility Score: inf
ROOT
ATOM      1  C   UNL     1      15.700  41.643 -13.546  1.00  0.00     0.001 C 
ATOM      2  C   UNL     1      16.178  42.661 -14.593  1.00  0.00     0.008 C 
ATOM      3  C   UNL     1      15.037  43.582 -15.040  1.00  0.00     0.075 C 
ATOM      4  C   UNL     1      14.339  44.171 -13.845  1.00  0.00     0.132 C 
ATOM      5  O   UNL     1      14.030  45.352 -13.831  1.00  0.00    -0.300 OA
ATOM      6  C   UNL     1      13.942  43.269 -12.709  1.00  0.00     0.075 C 
ATOM      7  C   UNL     1      15.110  42.355 -12.319  1.00  0.00     0.008 C 
ENDROOT
TORSDOF 0
ENDMDL
MODEL 2
REMARK VINA RESULT:    -3.785      1.572      2.692
REMARK INTER + INTRA:          -3.785
REMARK INTER:                  -3.785
REMARK INTRA:                   0.000
REMARK UNBOUND:                 0.000
REMARK SMILES O=C1CCCCC1
REMARK SMILES IDX 5 1 4 2 3 3 2 4 1 5 7 6 6 7
REMARK H PARENT
REMARK Flexibility Score: inf
ROOT
ATOM      1  C   UNL     1      13.987  42.877 -12.466  1.00  0.00     0.001 C 
ATOM      2  C   UNL     1      15.336  42.182 -12.223  1.00  0.00     0.008 C 
ATOM      3  C   UNL     1      15.941  41.662 -13.533  1.00  0.00     0.075 C 
ATOM      4  C   UNL     1      15.958  42.750 -14.571  1.00  0.00     0.132 C 
ATOM      5  O   UNL     1      16.940  42.913 -15.278  1.00  0.00    -0.300 OA
ATOM      6  C   UNL     1      14.718  43.570 -14.794  1.00  0.00     0.075 C 
ATOM      7  C   UNL     1      14.142  44.044 -13.453  1.00  0.00     0.008 C 
ENDROOT
TORSDOF 0
ENDMDL
MODEL 3
REMARK VINA RESULT:    -3.665     14.449     15.518
REMARK INTER + INTRA:          -3.665
REMARK INTER:                  -3.665
REMARK INTRA:                   0.000
REMARK UNBOUND:                 0.000
REMARK SMILES O=C1CCCCC1
REMARK SMILES IDX 5 1 4 2 3 3 2 4 1 5 7 6 6 7
REMARK H PARENT
REMARK Flexibility Score: inf
ROOT
ATOM      1  C   UNL     1      17.500  43.323   1.681  1.00  0.00     0.001 C 
ATOM      2  C   UNL     1      17.582  41.981   0.938  1.00  0.00     0.008 C 
ATOM      3  C   UNL     1      18.700  41.990  -0.112  1.00  0.00     0.075 C 
ATOM      4  C   UNL     1      19.989  42.464   0.499  1.00  0.00     0.132 C 
ATOM      5  O   UNL     1      21.038  41.894   0.245  1.00  0.00    -0.300 OA
ATOM      6  C   UNL     1      19.986  43.704   1.349  1.00  0.00     0.075 C 
ATOM      7  C   UNL     1      18.836  43.654   2.363  1.00  0.00     0.008 C 
ENDROOT
TORSDOF 0
ENDMDL
MODEL 4
REMARK VINA RESULT:    -3.605     14.085     14.990
REMARK INTER + INTRA:          -3.605
REMARK INTER:                  -3.605
REMARK INTRA:                   0.000
REMARK UNBOUND:                 0.000
REMARK SMILES O=C1CCCCC1
REMARK SMILES IDX 5 1 4 2 3 3 2 4 1 5 7 6 6 7
REMARK H PARENT
REMARK Flexibility Score: inf
ROOT
ATOM      1  C   UNL     1      17.899  42.345   1.711  1.00  0.00     0.001 C 
ATOM      2  C   UNL     1      19.384  42.725   1.822  1.00  0.00     0.008 C 
ATOM      3  C   UNL     1      19.911  43.311   0.507  1.00  0.00     0.075 C 
ATOM      4  C   UNL     1      19.003  44.407   0.019  1.00  0.00     0.132 C 
ATOM      5  O   UNL     1      19.470  45.445  -0.421  1.00  0.00    -0.300 OA
ATOM      6  C   UNL     1      17.519  44.171  -0.008  1.00  0.00     0.075 C 
ATOM      7  C   UNL     1      17.049  43.563   1.319  1.00  0.00     0.008 C 
ENDROOT
TORSDOF 0
ENDMDL
MODEL 5
REMARK VINA RESULT:    -3.527     14.346     15.167
REMARK INTER + INTRA:          -3.527
REMARK INTER:                  -3.527
REMARK INTRA:                   0.000
REMARK UNBOUND:                 0.000
REMARK SMILES O=C1CCCCC1
REMARK SMILES IDX 5 1 4 2 3 3 2 4 1 5 7 6 6 7
REMARK H PARENT
REMARK Flexibility Score: inf
ROOT
ATOM      1  C   UNL     1      20.028  43.397   0.396  1.00  0.00     0.001 C 
ATOM      2  C   UNL     1      19.223  44.658   0.042  1.00  0.00     0.008 C 
ATOM      3  C   UNL     1      17.718  44.365  -0.005  1.00  0.00     0.075 C 
ATOM      4  C   UNL     1      17.282  43.657   1.248  1.00  0.00     0.132 C 
ATOM      5  O   UNL     1      16.248  43.979   1.811  1.00  0.00    -0.300 OA
ATOM      6  C   UNL     1      18.082  42.484   1.743  1.00  0.00     0.075 C 
ATOM      7  C   UNL     1      19.578  42.822   1.747  1.00  0.00     0.008 C 
ENDROOT
TORSDOF 0
ENDMDL
MODEL 6
REMARK VINA RESULT:    -3.524     13.897     14.861
REMARK INTER + INTRA:          -3.524
REMARK INTER:                  -3.524
REMARK INTRA:                   0.000
REMARK UNBOUND:                 0.000
REMARK SMILES O=C1CCCCC1
REMARK SMILES IDX 5 1 4 2 3 3 2 4 1 5 7 6 6 7
REMARK H PARENT
REMARK Flexibility Score: inf
ROOT
ATOM      1  C   UNL     1      19.800  44.177   1.499  1.00  0.00     0.001 C 
ATOM      2  C   UNL     1      19.623  42.652   1.562  1.00  0.00     0.008 C 
ATOM      3  C   UNL     1      18.173  42.244   1.278  1.00  0.00     0.075 C 
ATOM      4  C   UNL     1      17.684  42.894   0.013  1.00  0.00     0.132 C 
ATOM      5  O   UNL     1      17.034  42.254  -0.798  1.00  0.00    -0.300 OA
ATOM      6  C   UNL     1      17.922  44.364  -0.196  1.00  0.00     0.075 C 
ATOM      7  C   UNL     1      19.379  44.720   0.125  1.00  0.00     0.008 C 
ENDROOT
TORSDOF 0
ENDMDL
MODEL 7
REMARK VINA RESULT:    -3.502     14.019     14.911
REMARK INTER + INTRA:          -3.502
REMARK INTER:                  -3.502
REMARK INTRA:                   0.000
REMARK UNBOUND:                 0.000
REMARK SMILES O=C1CCCCC1
REMARK SMILES IDX 5 1 4 2 3 3 2 4 1 5 7 6 6 7
REMARK H PARENT
REMARK Flexibility Score: inf
ROOT
ATOM      1  C   UNL     1      18.061  42.103   1.545  1.00  0.00     0.001 C 
ATOM      2  C   UNL     1      17.458  42.488   0.184  1.00  0.00     0.008 C 
ATOM      3  C   UNL     1      17.529  44.002  -0.051  1.00  0.00     0.075 C 
ATOM      4  C   UNL     1      18.924  44.507   0.199  1.00  0.00     0.132 C 
ATOM      5  O   UNL     1      19.434  45.312  -0.563  1.00  0.00    -0.300 OA
ATOM      6  C   UNL     1      19.644  44.082   1.449  1.00  0.00     0.075 C 
ATOM      7  C   UNL     1      19.522  42.566   1.648  1.00  0.00     0.008 C 
ENDROOT
TORSDOF 0
ENDMDL
MODEL 8
REMARK VINA RESULT:    -3.482     14.421     15.413
REMARK INTER + INTRA:          -3.482
REMARK INTER:                  -3.482
REMARK INTRA:                   0.000
REMARK UNBOUND:                 0.000
REMARK SMILES O=C1CCCCC1
REMARK SMILES IDX 5 1 4 2 3 3 2 4 1 5 7 6 6 7
REMARK H PARENT
REMARK Flexibility Score: inf
ROOT
ATOM      1  C   UNL     1      16.957  44.084  -0.023  1.00  0.00     0.001 C 
ATOM      2  C   UNL     1      16.954  43.718   1.470  1.00  0.00     0.008 C 
ATOM      3  C   UNL     1      18.308  43.148   1.909  1.00  0.00     0.075 C 
ATOM      4  C   UNL     1      19.425  44.056   1.474  1.00  0.00     0.132 C 
ATOM      5  O   UNL     1      20.345  44.310   2.234  1.00  0.00    -0.300 OA
ATOM      6  C   UNL     1      19.445  44.568   0.060  1.00  0.00     0.075 C 
ATOM      7  C   UNL     1      18.063  45.103  -0.334  1.00  0.00     0.008 C 
ENDROOT
TORSDOF 0
ENDMDL
MODEL 9
REMARK VINA RESULT:    -3.476     14.263     15.312
REMARK INTER + INTRA:          -3.476
REMARK INTER:                  -3.476
REMARK INTRA:                   0.000
REMARK UNBOUND:                 0.000
REMARK SMILES O=C1CCCCC1
REMARK SMILES IDX 5 1 4 2 3 3 2 4 1 5 7 6 6 7
REMARK H PARENT
REMARK Flexibility Score: inf
ROOT
ATOM      1  C   UNL     1      19.790  43.893   1.992  1.00  0.00     0.001 C 
ATOM      2  C   UNL     1      18.283  43.590   1.994  1.00  0.00     0.008 C 
ATOM      3  C   UNL     1      17.785  43.222   0.591  1.00  0.00     0.075 C 
ATOM      4  C   UNL     1      18.654  42.152  -0.010  1.00  0.00     0.132 C 
ATOM      5  O   UNL     1      18.152  41.214  -0.608  1.00  0.00    -0.300 OA
ATOM      6  C   UNL     1      20.149  42.300   0.051  1.00  0.00     0.075 C 
ATOM      7  C   UNL     1      20.590  42.692   1.466  1.00  0.00     0.008 C 
ENDROOT
TORSDOF 0
ENDMDL
