MODEL 1
REMARK VINA RESULT:    -4.993      0.000      0.000
REMARK INTER + INTRA:          -5.678
REMARK INTER:                  -5.723
REMARK INTRA:                   0.045
REMARK UNBOUND:                 0.045
REMARK SMILES CC=Cc1ccc(O)c(OC)c1
REMARK SMILES IDX 4 1 12 2 9 3 7 4 6 5 5 6 3 7 1 8 2 9 10 10 11 11 8 12
REMARK H PARENT 8 13
REMARK Flexibility Score: inf
ROOT
ATOM      1  C   UNL     1      -8.954  -6.396   4.429  1.00  0.00    -0.022 A 
ATOM      2  C   UNL     1      -8.147  -6.049   5.522  1.00  0.00     0.058 A 
ATOM      3  C   UNL     1      -8.263  -4.781   6.127  1.00  0.00     0.161 A 
ATOM      4  C   UNL     1      -9.186  -3.855   5.607  1.00  0.00     0.157 A 
ATOM      5  C   UNL     1      -9.968  -4.192   4.499  1.00  0.00     0.051 A 
ATOM      6  C   UNL     1      -9.848  -5.450   3.905  1.00  0.00     0.012 A 
ENDROOT
BRANCH   1   7
ATOM      7  C   UNL     1      -8.786  -7.723   3.802  1.00  0.00     0.003 C 
ATOM      8  C   UNL     1      -8.177  -6.815   1.543  1.00  0.00     0.035 C 
ATOM      9  C   UNL     1      -8.421  -7.920   2.527  1.00  0.00    -0.030 C 
ENDBRANCH   1   7
BRANCH   3  10
ATOM     10  O   UNL     1      -7.483  -4.412   7.234  1.00  0.00    -0.493 OA
ATOM     11  C   UNL     1      -7.022  -5.313   8.235  1.00  0.00     0.278 C 
ENDBRANCH   3  10
BRANCH   4  12
ATOM     12  O   UNL     1      -9.336  -2.590   6.176  1.00  0.00    -0.504 OA
ATOM     13  H   UNL     1      -9.264  -1.740   5.630  1.00  0.00     0.293 HD
ENDBRANCH   4  12
TORSDOF 3
ENDMDL
MODEL 2
REMARK VINA RESULT:    -4.983      1.055      2.498
REMARK INTER + INTRA:          -5.667
REMARK INTER:                  -5.446
REMARK INTRA:                  -0.221
REMARK UNBOUND:                 0.045
REMARK SMILES CC=Cc1ccc(O)c(OC)c1
REMARK SMILES IDX 4 1 12 2 9 3 7 4 6 5 5 6 3 7 1 8 2 9 10 10 11 11 8 12
REMARK H PARENT 8 13
REMARK Flexibility Score: inf
ROOT
ATOM      1  C   UNL     1      -9.033  -6.577   4.457  1.00  0.00    -0.022 A 
ATOM      2  C   UNL     1      -9.342  -5.266   4.849  1.00  0.00     0.058 A 
ATOM      3  C   UNL     1      -8.605  -4.628   5.867  1.00  0.00     0.161 A 
ATOM      4  C   UNL     1      -7.566  -5.329   6.504  1.00  0.00     0.157 A 
ATOM      5  C   UNL     1      -7.279  -6.646   6.133  1.00  0.00     0.051 A 
ATOM      6  C   UNL     1      -8.013  -7.272   5.123  1.00  0.00     0.012 A 
ENDROOT
BRANCH   1   7
ATOM      7  C   UNL     1      -9.844  -7.225   3.406  1.00  0.00     0.003 C 
ATOM      8  C   UNL     1      -8.189  -6.800   1.569  1.00  0.00     0.035 C 
ATOM      9  C   UNL     1      -9.469  -7.348   2.126  1.00  0.00    -0.030 C 
ENDBRANCH   1   7
BRANCH   3  10
ATOM     10  O   UNL     1      -8.878  -3.310   6.267  1.00  0.00    -0.493 OA
ATOM     11  C   UNL     1      -9.963  -2.526   5.783  1.00  0.00     0.278 C 
ENDBRANCH   3  10
BRANCH   4  12
ATOM     12  O   UNL     1      -6.809  -4.736   7.516  1.00  0.00    -0.504 OA
ATOM     13  H   UNL     1      -6.617  -5.205   8.393  1.00  0.00     0.293 HD
ENDBRANCH   4  12
TORSDOF 3
ENDMDL
MODEL 3
REMARK VINA RESULT:    -4.941      1.763      4.275
REMARK INTER + INTRA:          -5.618
REMARK INTER:                  -5.413
REMARK INTRA:                  -0.205
REMARK UNBOUND:                 0.045
REMARK SMILES CC=Cc1ccc(O)c(OC)c1
REMARK SMILES IDX 4 1 12 2 9 3 7 4 6 5 5 6 3 7 1 8 2 9 10 10 11 11 8 12
REMARK H PARENT 8 13
REMARK Flexibility Score: inf
ROOT
ATOM      1  C   UNL     1      -7.582  -5.284   6.370  1.00  0.00    -0.022 A 
ATOM      2  C   UNL     1      -8.409  -4.160   6.234  1.00  0.00     0.058 A 
ATOM      3  C   UNL     1      -9.412  -4.122   5.243  1.00  0.00     0.161 A 
ATOM      4  C   UNL     1      -9.561  -5.219   4.376  1.00  0.00     0.157 A 
ATOM      5  C   UNL     1      -8.716  -6.327   4.495  1.00  0.00     0.051 A 
ATOM      6  C   UNL     1      -7.725  -6.357   5.478  1.00  0.00     0.012 A 
ENDROOT
BRANCH   1   7
ATOM      7  C   UNL     1      -6.523  -5.278   7.401  1.00  0.00     0.003 C 
ATOM      8  C   UNL     1      -8.030  -6.034   9.258  1.00  0.00     0.035 C 
ATOM      9  C   UNL     1      -6.707  -5.630   8.680  1.00  0.00    -0.030 C 
ENDBRANCH   1   7
BRANCH   3  10
ATOM     10  O   UNL     1     -10.268  -3.019   5.094  1.00  0.00    -0.493 OA
ATOM     11  C   UNL     1     -10.272  -1.878   5.946  1.00  0.00     0.278 C 
ENDBRANCH   3  10
BRANCH   4  12
ATOM     12  O   UNL     1     -10.542  -5.226   3.383  1.00  0.00    -0.504 OA
ATOM     13  H   UNL     1     -10.502  -5.853   2.589  1.00  0.00     0.293 HD
ENDBRANCH   4  12
TORSDOF 3
ENDMDL
MODEL 4
REMARK VINA RESULT:    -4.773      2.034      4.470
REMARK INTER + INTRA:          -5.426
REMARK INTER:                  -5.380
REMARK INTRA:                  -0.046
REMARK UNBOUND:                 0.045
REMARK SMILES CC=Cc1ccc(O)c(OC)c1
REMARK SMILES IDX 4 1 12 2 9 3 7 4 6 5 5 6 3 7 1 8 2 9 10 10 11 11 8 12
REMARK H PARENT 8 13
REMARK Flexibility Score: inf
ROOT
ATOM      1  C   UNL     1      -7.688  -5.222   6.146  1.00  0.00    -0.022 A 
ATOM      2  C   UNL     1      -7.833  -6.358   5.336  1.00  0.00     0.058 A 
ATOM      3  C   UNL     1      -8.826  -6.405   4.336  1.00  0.00     0.161 A 
ATOM      4  C   UNL     1      -9.687  -5.305   4.173  1.00  0.00     0.157 A 
ATOM      5  C   UNL     1      -9.560  -4.186   5.001  1.00  0.00     0.051 A 
ATOM      6  C   UNL     1      -8.574  -4.147   5.989  1.00  0.00     0.012 A 
ENDROOT
BRANCH   1   7
ATOM      7  C   UNL     1      -6.655  -5.219   7.203  1.00  0.00     0.003 C 
ATOM      8  C   UNL     1      -8.295  -5.206   9.102  1.00  0.00     0.035 C 
ATOM      9  C   UNL     1      -6.915  -5.233   8.517  1.00  0.00    -0.030 C 
ENDBRANCH   1   7
BRANCH   3  10
ATOM     10  O   UNL     1      -8.983  -7.520   3.497  1.00  0.00    -0.493 OA
ATOM     11  C   UNL     1      -8.368  -7.665   2.222  1.00  0.00     0.278 C 
ENDBRANCH   3  10
BRANCH   4  12
ATOM     12  O   UNL     1     -10.682  -5.308   3.194  1.00  0.00    -0.504 OA
ATOM     13  H   UNL     1     -10.767  -4.568   2.508  1.00  0.00     0.293 HD
ENDBRANCH   4  12
TORSDOF 3
ENDMDL
MODEL 5
REMARK VINA RESULT:    -4.635      1.665      2.381
REMARK INTER + INTRA:          -5.268
REMARK INTER:                  -5.030
REMARK INTRA:                  -0.237
REMARK UNBOUND:                 0.045
REMARK SMILES CC=Cc1ccc(O)c(OC)c1
REMARK SMILES IDX 4 1 12 2 9 3 7 4 6 5 5 6 3 7 1 8 2 9 10 10 11 11 8 12
REMARK H PARENT 8 13
REMARK Flexibility Score: inf
ROOT
ATOM      1  C   UNL     1      -8.647  -7.421   3.326  1.00  0.00    -0.022 A 
ATOM      2  C   UNL     1      -8.646  -6.758   4.561  1.00  0.00     0.058 A 
ATOM      3  C   UNL     1      -9.247  -5.490   4.697  1.00  0.00     0.161 A 
ATOM      4  C   UNL     1      -9.832  -4.885   3.570  1.00  0.00     0.157 A 
ATOM      5  C   UNL     1      -9.806  -5.534   2.332  1.00  0.00     0.051 A 
ATOM      6  C   UNL     1      -9.209  -6.790   2.206  1.00  0.00     0.012 A 
ENDROOT
BRANCH   1   7
ATOM      7  C   UNL     1      -7.982  -8.736   3.213  1.00  0.00     0.003 C 
ATOM      8  C   UNL     1     -10.028 -10.058   3.817  1.00  0.00     0.035 C 
ATOM      9  C   UNL     1      -8.592  -9.913   3.408  1.00  0.00    -0.030 C 
ENDBRANCH   1   7
BRANCH   3  10
ATOM     10  O   UNL     1      -9.279  -4.810   5.925  1.00  0.00    -0.493 OA
ATOM     11  C   UNL     1      -8.202  -4.769   6.854  1.00  0.00     0.278 C 
ENDBRANCH   3  10
BRANCH   4  12
ATOM     12  O   UNL     1     -10.441  -3.632   3.659  1.00  0.00    -0.504 OA
ATOM     13  H   UNL     1     -10.332  -3.035   4.470  1.00  0.00     0.293 HD
ENDBRANCH   4  12
TORSDOF 3
ENDMDL
MODEL 6
REMARK VINA RESULT:    -4.611      2.953      4.666
REMARK INTER + INTRA:          -5.240
REMARK INTER:                  -5.197
REMARK INTRA:                  -0.043
REMARK UNBOUND:                 0.045
REMARK SMILES CC=Cc1ccc(O)c(OC)c1
REMARK SMILES IDX 4 1 12 2 9 3 7 4 6 5 5 6 3 7 1 8 2 9 10 10 11 11 8 12
REMARK H PARENT 8 13
REMARK Flexibility Score: inf
ROOT
ATOM      1  C   UNL     1      -8.458  -6.561   4.422  1.00  0.00    -0.022 A 
ATOM      2  C   UNL     1      -8.307  -7.183   3.174  1.00  0.00     0.058 A 
ATOM      3  C   UNL     1      -8.998  -6.704   2.043  1.00  0.00     0.161 A 
ATOM      4  C   UNL     1      -9.861  -5.602   2.183  1.00  0.00     0.157 A 
ATOM      5  C   UNL     1     -10.034  -5.002   3.433  1.00  0.00     0.051 A 
ATOM      6  C   UNL     1      -9.346  -5.482   4.549  1.00  0.00     0.012 A 
ENDROOT
BRANCH   1   7
ATOM      7  C   UNL     1      -7.741  -7.107   5.592  1.00  0.00     0.003 C 
ATOM      8  C   UNL     1      -6.455  -5.003   6.053  1.00  0.00     0.035 C 
ATOM      9  C   UNL     1      -6.865  -6.417   6.335  1.00  0.00    -0.030 C 
ENDBRANCH   1   7
BRANCH   3  10
ATOM     10  O   UNL     1      -8.851  -7.294   0.778  1.00  0.00    -0.493 OA
ATOM     11  C   UNL     1      -9.670  -8.344   0.276  1.00  0.00     0.278 C 
ENDBRANCH   3  10
BRANCH   4  12
ATOM     12  O   UNL     1     -10.563  -5.093   1.089  1.00  0.00    -0.504 OA
ATOM     13  H   UNL     1     -11.514  -5.373   0.879  1.00  0.00     0.293 HD
ENDBRANCH   4  12
TORSDOF 3
ENDMDL
MODEL 7
REMARK VINA RESULT:    -4.567      1.941      3.494
REMARK INTER + INTRA:          -5.190
REMARK INTER:                  -4.987
REMARK INTRA:                  -0.203
REMARK UNBOUND:                 0.045
REMARK SMILES CC=Cc1ccc(O)c(OC)c1
REMARK SMILES IDX 4 1 12 2 9 3 7 4 6 5 5 6 3 7 1 8 2 9 10 10 11 11 8 12
REMARK H PARENT 8 13
REMARK Flexibility Score: inf
ROOT
ATOM      1  C   UNL     1      -8.773  -7.242   2.174  1.00  0.00    -0.022 A 
ATOM      2  C   UNL     1      -9.266  -6.300   3.089  1.00  0.00     0.058 A 
ATOM      3  C   UNL     1      -8.971  -6.410   4.464  1.00  0.00     0.161 A 
ATOM      4  C   UNL     1      -8.190  -7.490   4.913  1.00  0.00     0.157 A 
ATOM      5  C   UNL     1      -7.724  -8.444   4.003  1.00  0.00     0.051 A 
ATOM      6  C   UNL     1      -8.020  -8.329   2.644  1.00  0.00     0.012 A 
ENDROOT
BRANCH   1   7
ATOM      7  C   UNL     1      -9.125  -7.112   0.746  1.00  0.00     0.003 C 
ATOM      8  C   UNL     1     -11.149  -8.588   0.892  1.00  0.00     0.035 C 
ATOM      9  C   UNL     1     -10.190  -7.688   0.172  1.00  0.00    -0.030 C 
ENDBRANCH   1   7
BRANCH   3  10
ATOM     10  O   UNL     1      -9.434  -5.473   5.400  1.00  0.00    -0.493 OA
ATOM     11  C   UNL     1      -8.691  -4.347   5.853  1.00  0.00     0.278 C 
ENDBRANCH   3  10
BRANCH   4  12
ATOM     12  O   UNL     1      -7.871  -7.637   6.263  1.00  0.00    -0.504 OA
ATOM     13  H   UNL     1      -8.530  -8.008   6.937  1.00  0.00     0.293 HD
ENDBRANCH   4  12
TORSDOF 3
ENDMDL
MODEL 8
REMARK VINA RESULT:    -4.564      3.252      5.449
REMARK INTER + INTRA:          -5.187
REMARK INTER:                  -5.087
REMARK INTRA:                  -0.100
REMARK UNBOUND:                 0.045
REMARK SMILES CC=Cc1ccc(O)c(OC)c1
REMARK SMILES IDX 4 1 12 2 9 3 7 4 6 5 5 6 3 7 1 8 2 9 10 10 11 11 8 12
REMARK H PARENT 8 13
REMARK Flexibility Score: inf
ROOT
ATOM      1  C   UNL     1      -8.627  -6.579   4.424  1.00  0.00    -0.022 A 
ATOM      2  C   UNL     1      -8.748  -6.358   3.044  1.00  0.00     0.058 A 
ATOM      3  C   UNL     1      -8.531  -7.407   2.127  1.00  0.00     0.161 A 
ATOM      4  C   UNL     1      -8.169  -8.677   2.610  1.00  0.00     0.157 A 
ATOM      5  C   UNL     1      -8.020  -8.888   3.984  1.00  0.00     0.051 A 
ATOM      6  C   UNL     1      -8.237  -7.845   4.887  1.00  0.00     0.012 A 
ENDROOT
BRANCH   1   7
ATOM      7  C   UNL     1      -8.834  -5.451   5.355  1.00  0.00     0.003 C 
ATOM      8  C   UNL     1      -6.422  -5.285   6.025  1.00  0.00     0.035 C 
ATOM      9  C   UNL     1      -7.858  -4.856   6.054  1.00  0.00    -0.030 C 
ENDBRANCH   1   7
BRANCH   3  10
ATOM     10  O   UNL     1      -8.663  -7.221   0.742  1.00  0.00    -0.493 OA
ATOM     11  C   UNL     1      -9.906  -7.115   0.055  1.00  0.00     0.278 C 
ENDBRANCH   3  10
BRANCH   4  12
ATOM     12  O   UNL     1      -7.947  -9.744   1.738  1.00  0.00    -0.504 OA
ATOM     13  H   UNL     1      -8.650 -10.451   1.560  1.00  0.00     0.293 HD
ENDBRANCH   4  12
TORSDOF 3
ENDMDL
MODEL 9
REMARK VINA RESULT:    -4.479      1.749      2.293
REMARK INTER + INTRA:          -5.090
REMARK INTER:                  -4.962
REMARK INTRA:                  -0.127
REMARK UNBOUND:                 0.045
REMARK SMILES CC=Cc1ccc(O)c(OC)c1
REMARK SMILES IDX 4 1 12 2 9 3 7 4 6 5 5 6 3 7 1 8 2 9 10 10 11 11 8 12
REMARK H PARENT 8 13
REMARK Flexibility Score: inf
ROOT
ATOM      1  C   UNL     1      -8.961  -6.750   2.405  1.00  0.00    -0.022 A 
ATOM      2  C   UNL     1      -8.226  -7.214   3.506  1.00  0.00     0.058 A 
ATOM      3  C   UNL     1      -8.358  -6.601   4.768  1.00  0.00     0.161 A 
ATOM      4  C   UNL     1      -9.221  -5.500   4.909  1.00  0.00     0.157 A 
ATOM      5  C   UNL     1      -9.930  -5.019   3.804  1.00  0.00     0.051 A 
ATOM      6  C   UNL     1      -9.795  -5.632   2.557  1.00  0.00     0.012 A 
ENDROOT
BRANCH   1   7
ATOM      7  C   UNL     1      -8.777  -7.398   1.090  1.00  0.00     0.003 C 
ATOM      8  C   UNL     1     -10.673  -9.015   1.385  1.00  0.00     0.035 C 
ATOM      9  C   UNL     1      -9.545  -8.390   0.620  1.00  0.00    -0.030 C 
ENDBRANCH   1   7
BRANCH   3  10
ATOM     10  O   UNL     1      -7.650  -7.056   5.892  1.00  0.00    -0.493 OA
ATOM     11  C   UNL     1      -6.555  -6.371   6.490  1.00  0.00     0.278 C 
ENDBRANCH   3  10
BRANCH   4  12
ATOM     12  O   UNL     1      -9.384  -4.864   6.141  1.00  0.00    -0.504 OA
ATOM     13  H   UNL     1      -8.691  -4.927   6.877  1.00  0.00     0.293 HD
ENDBRANCH   4  12
TORSDOF 3
ENDMDL
