MODEL 1
REMARK VINA RESULT:    -3.106      0.000      0.000
REMARK INTER + INTRA:          -4.512
REMARK INTER:                  -4.740
REMARK INTRA:                   0.228
REMARK UNBOUND:                 0.228
REMARK SMILES CC1=CCC[C@H](C)C(=O)C[C@@H](C(C)C)C(=O)C1
REMARK SMILES IDX 8 1 9 2 6 3 7 4 5 5 4 6 3 7 2 8 1 9 10 11 11 12 15 13 16 14
REMARK SMILES IDX 17 15 12 17 13 18 14 19
REMARK H PARENT
REMARK Flexibility Score: 70.00
ROOT
ATOM      1  C   UNL     1      97.702   7.739  76.804  1.00  0.00     0.136 C 
ATOM      2  O   UNL     1      97.233   8.866  76.879  1.00  0.00    -0.299 OA
ENDROOT
BRANCH   1   3
ATOM      3  C   UNL     1      97.126   6.748  75.813  1.00  0.00     0.053 C 
ATOM      4  C   UNL     1      97.886   6.882  74.489  1.00  0.00     0.016 C 
BRANCH   3   5
ATOM      5  C   UNL     1      97.196   5.286  76.322  1.00  0.00     0.015 C 
BRANCH   5   6
ATOM      6  C   UNL     1      98.044   4.349  75.447  1.00  0.00     0.028 C 
BRANCH   6   7
ATOM      7  C   UNL     1      98.630   3.190  76.220  1.00  0.00    -0.028 C 
ATOM      8  C   UNL     1      99.837   3.171  76.832  1.00  0.00    -0.070 CG0
ATOM      9  C   UNL     1     100.172   1.974  77.689  1.00  0.00     0.039 C 
ATOM     10  G   UNL     1     100.822   4.326  76.776  1.00  0.00     0.000 G0
ENDBRANCH   6   7
ENDBRANCH   5   6
ENDBRANCH   3   5
ENDBRANCH   1   3
BRANCH   1  11
ATOM     11  C   UNL     1      98.757   7.319  77.802  1.00  0.00     0.087 C 
BRANCH  11  12
ATOM     12  C   UNL     1     100.064   6.830  77.122  1.00  0.00     0.066 C 
BRANCH  12  13
ATOM     13  C   UNL     1     100.499   5.475  77.683  1.00  0.00     0.140 C 
ATOM     14  O   UNL     1     100.492   5.271  78.886  1.00  0.00    -0.299 OA
BRANCH  13  15
ATOM     15  C   UNL     1     100.842   4.318  76.776  1.00  0.00     0.106 CG0
ATOM     16  G   UNL     1      99.825   3.192  76.842  1.00  0.00     0.000 G0
ENDBRANCH  13  15
ENDBRANCH  12  13
BRANCH  12  17
ATOM     17  C   UNL     1     101.169   7.937  77.147  1.00  0.00    -0.006 C 
ATOM     18  C   UNL     1     101.078   8.902  78.343  1.00  0.00     0.008 C 
ATOM     19  C   UNL     1     102.584   7.346  77.029  1.00  0.00     0.008 C 
ENDBRANCH  12  17
ENDBRANCH  11  12
ENDBRANCH   1  11
TORSDOF 1
ENDMDL
MODEL 2
REMARK VINA RESULT:    -2.984      1.996      3.803
REMARK INTER + INTRA:          -4.327
REMARK INTER:                  -4.090
REMARK INTRA:                  -0.237
REMARK UNBOUND:                 0.228
REMARK SMILES CC1=CCC[C@H](C)C(=O)C[C@@H](C(C)C)C(=O)C1
REMARK SMILES IDX 8 1 9 2 6 3 7 4 5 5 4 6 3 7 2 8 1 9 10 11 11 12 15 13 16 14
REMARK SMILES IDX 17 15 12 17 13 18 14 19
REMARK H PARENT
REMARK Flexibility Score: 70.00
ROOT
ATOM      1  C   UNL     1     102.675   5.417  76.046  1.00  0.00     0.136 C 
ATOM      2  O   UNL     1     103.791   5.706  76.454  1.00  0.00    -0.299 OA
ENDROOT
BRANCH   1   3
ATOM      3  C   UNL     1     102.444   4.083  75.365  1.00  0.00     0.053 C 
ATOM      4  C   UNL     1     103.458   3.935  74.225  1.00  0.00     0.016 C 
BRANCH   3   5
ATOM      5  C   UNL     1     102.562   2.886  76.342  1.00  0.00     0.015 C 
BRANCH   5   6
ATOM      6  C   UNL     1     101.247   2.509  77.044  1.00  0.00     0.028 C 
BRANCH   6   7
ATOM      7  C   UNL     1     100.063   2.488  76.104  1.00  0.00    -0.028 C 
ATOM      8  C   UNL     1      98.983   3.302  76.166  1.00  0.00    -0.070 CG0
ATOM      9  C   UNL     1      97.982   3.230  75.039  1.00  0.00     0.039 C 
ATOM     10  G   UNL     1      98.779   4.341  77.256  1.00  0.00     0.000 G0
ENDBRANCH   6   7
ENDBRANCH   5   6
ENDBRANCH   3   5
ENDBRANCH   1   3
BRANCH   1  11
ATOM     11  C   UNL     1     101.581   6.458  76.111  1.00  0.00     0.087 C 
BRANCH  11  12
ATOM     12  C   UNL     1     100.632   6.255  77.322  1.00  0.00     0.066 C 
BRANCH  12  13
ATOM     13  C   UNL     1      99.266   5.738  76.866  1.00  0.00     0.140 C 
ATOM     14  O   UNL     1      98.581   6.391  76.096  1.00  0.00    -0.299 OA
BRANCH  13  15
ATOM     15  C   UNL     1      98.769   4.367  77.258  1.00  0.00     0.106 CG0
ATOM     16  G   UNL     1      98.974   3.328  76.169  1.00  0.00     0.000 G0
ENDBRANCH  13  15
ENDBRANCH  12  13
BRANCH  12  17
ATOM     17  C   UNL     1     100.582   7.529  78.229  1.00  0.00    -0.006 C 
ATOM     18  C   UNL     1     101.385   7.411  79.537  1.00  0.00     0.008 C 
ATOM     19  C   UNL     1     100.973   8.802  77.462  1.00  0.00     0.008 C 
ENDBRANCH  12  17
ENDBRANCH  11  12
ENDBRANCH   1  11
TORSDOF 1
ENDMDL
MODEL 3
REMARK VINA RESULT:    -2.875     16.783     18.928
REMARK INTER + INTRA:          -4.159
REMARK INTER:                  -4.126
REMARK INTRA:                  -0.033
REMARK UNBOUND:                 0.228
REMARK SMILES CC1=CCC[C@H](C)C(=O)C[C@@H](C(C)C)C(=O)C1
REMARK SMILES IDX 8 1 9 2 6 3 7 4 5 5 4 6 3 7 2 8 1 9 10 11 11 12 15 13 16 14
REMARK SMILES IDX 17 15 12 17 13 18 14 19
REMARK H PARENT
REMARK Flexibility Score: 70.00
ROOT
ATOM      1  C   UNL     1     110.234  -4.666  68.890  1.00  0.00     0.136 C 
ATOM      2  O   UNL     1     110.218  -3.687  69.623  1.00  0.00    -0.299 OA
ENDROOT
BRANCH   1   3
ATOM      3  C   UNL     1     111.503  -5.025  68.142  1.00  0.00     0.053 C 
ATOM      4  C   UNL     1     112.209  -3.729  67.727  1.00  0.00     0.016 C 
BRANCH   3   5
ATOM      5  C   UNL     1     112.459  -5.909  68.981  1.00  0.00     0.015 C 
BRANCH   5   6
ATOM      6  C   UNL     1     112.544  -7.371  68.513  1.00  0.00     0.028 C 
BRANCH   6   7
ATOM      7  C   UNL     1     112.173  -7.548  67.059  1.00  0.00    -0.028 C 
ATOM      8  C   UNL     1     111.049  -8.139  66.591  1.00  0.00    -0.070 CG0
ATOM      9  C   UNL     1     110.786  -8.073  65.106  1.00  0.00     0.039 C 
ATOM     10  G   UNL     1     110.002  -8.776  67.488  1.00  0.00     0.000 G0
ENDBRANCH   6   7
ENDBRANCH   5   6
ENDBRANCH   3   5
ENDBRANCH   1   3
BRANCH   1  11
ATOM     11  C   UNL     1     108.945  -5.414  68.642  1.00  0.00     0.087 C 
BRANCH  11  12
ATOM     12  C   UNL     1     109.023  -6.903  69.077  1.00  0.00     0.066 C 
BRANCH  12  13
ATOM     13  C   UNL     1     108.893  -7.833  67.869  1.00  0.00     0.140 C 
ATOM     14  O   UNL     1     107.924  -7.759  67.131  1.00  0.00    -0.299 OA
BRANCH  13  15
ATOM     15  C   UNL     1     109.996  -8.789  67.486  1.00  0.00     0.106 CG0
ATOM     16  G   UNL     1     111.050  -8.152  66.596  1.00  0.00     0.000 G0
ENDBRANCH  13  15
ENDBRANCH  12  13
BRANCH  12  17
ATOM     17  C   UNL     1     108.036  -7.208  70.250  1.00  0.00    -0.006 C 
ATOM     18  C   UNL     1     108.400  -6.528  71.583  1.00  0.00     0.008 C 
ATOM     19  C   UNL     1     106.575  -6.916  69.870  1.00  0.00     0.008 C 
ENDBRANCH  12  17
ENDBRANCH  11  12
ENDBRANCH   1  11
TORSDOF 1
ENDMDL
MODEL 4
REMARK VINA RESULT:    -2.826      1.735      2.403
REMARK INTER + INTRA:          -4.086
REMARK INTER:                  -4.374
REMARK INTRA:                   0.289
REMARK UNBOUND:                 0.228
REMARK SMILES CC1=CCC[C@H](C)C(=O)C[C@@H](C(C)C)C(=O)C1
REMARK SMILES IDX 8 1 9 2 6 3 7 4 5 5 4 6 3 7 2 8 1 9 10 11 11 12 15 13 16 14
REMARK SMILES IDX 17 15 12 17 13 18 14 19
REMARK H PARENT
REMARK Flexibility Score: 70.00
ROOT
ATOM      1  C   UNL     1      97.734   4.821  75.914  1.00  0.00     0.136 C 
ATOM      2  O   UNL     1      97.153   3.777  76.175  1.00  0.00    -0.299 OA
ENDROOT
BRANCH   1   3
ATOM      3  C   UNL     1      97.956   5.217  74.468  1.00  0.00     0.053 C 
ATOM      4  C   UNL     1      98.214   6.726  74.407  1.00  0.00     0.016 C 
BRANCH   3   5
ATOM      5  C   UNL     1      99.132   4.448  73.814  1.00  0.00     0.015 C 
BRANCH   5   6
ATOM      6  C   UNL     1      99.308   3.007  74.323  1.00  0.00     0.028 C 
BRANCH   6   7
ATOM      7  C   UNL     1     100.687   2.743  74.880  1.00  0.00    -0.028 C 
ATOM      8  C   UNL     1     100.996   2.558  76.185  1.00  0.00    -0.070 CG0
ATOM      9  C   UNL     1     102.409   2.147  76.522  1.00  0.00     0.039 C 
ATOM     10  G   UNL     1      99.977   2.650  77.308  1.00  0.00     0.000 G0
ENDBRANCH   6   7
ENDBRANCH   5   6
ENDBRANCH   3   5
ENDBRANCH   1   3
BRANCH   1  11
ATOM     11  C   UNL     1      98.337   5.625  77.043  1.00  0.00     0.087 C 
BRANCH  11  12
ATOM     12  C   UNL     1      99.837   5.300  77.274  1.00  0.00     0.066 C 
BRANCH  12  13
ATOM     13  C   UNL     1     100.002   3.982  78.032  1.00  0.00     0.140 C 
ATOM     14  O   UNL     1     100.066   3.971  79.251  1.00  0.00    -0.299 OA
BRANCH  13  15
ATOM     15  C   UNL     1      99.979   2.652  77.318  1.00  0.00     0.106 CG0
ATOM     16  G   UNL     1     100.987   2.570  76.185  1.00  0.00     0.000 G0
ENDBRANCH  13  15
ENDBRANCH  12  13
BRANCH  12  17
ATOM     17  C   UNL     1     100.595   6.516  77.901  1.00  0.00    -0.006 C 
ATOM     18  C   UNL     1     101.958   6.821  77.253  1.00  0.00     0.008 C 
ATOM     19  C   UNL     1      99.721   7.781  77.951  1.00  0.00     0.008 C 
ENDBRANCH  12  17
ENDBRANCH  11  12
ENDBRANCH   1  11
TORSDOF 1
ENDMDL
MODEL 5
REMARK VINA RESULT:    -2.812      2.067      4.212
REMARK INTER + INTRA:          -4.064
REMARK INTER:                  -4.135
REMARK INTRA:                   0.071
REMARK UNBOUND:                 0.228
REMARK SMILES CC1=CCC[C@H](C)C(=O)C[C@@H](C(C)C)C(=O)C1
REMARK SMILES IDX 8 1 9 2 6 3 7 4 5 5 4 6 3 7 2 8 1 9 10 11 11 12 15 13 16 14
REMARK SMILES IDX 17 15 12 17 13 18 14 19
REMARK H PARENT
REMARK Flexibility Score: 70.00
ROOT
ATOM      1  C   UNL     1     100.904   3.358  76.910  1.00  0.00     0.136 C 
ATOM      2  O   UNL     1     100.658   2.880  78.008  1.00  0.00    -0.299 OA
ENDROOT
BRANCH   1   3
ATOM      3  C   UNL     1     100.914   2.464  75.685  1.00  0.00     0.053 C 
ATOM      4  C   UNL     1     101.760   1.224  75.991  1.00  0.00     0.016 C 
BRANCH   3   5
ATOM      5  C   UNL     1      99.490   2.043  75.244  1.00  0.00     0.015 C 
BRANCH   5   6
ATOM      6  C   UNL     1      98.421   3.134  75.427  1.00  0.00     0.028 C 
BRANCH   6   7
ATOM      7  C   UNL     1      98.216   3.972  74.186  1.00  0.00    -0.028 C 
ATOM      8  C   UNL     1      98.144   5.322  74.141  1.00  0.00    -0.070 CG0
ATOM      9  C   UNL     1      98.096   5.979  72.783  1.00  0.00     0.039 C 
ATOM     10  G   UNL     1      98.205   6.206  75.375  1.00  0.00     0.000 G0
ENDBRANCH   6   7
ENDBRANCH   5   6
ENDBRANCH   3   5
ENDBRANCH   1   3
BRANCH   1  11
ATOM     11  C   UNL     1     101.329   4.805  76.821  1.00  0.00     0.087 C 
BRANCH  11  12
ATOM     12  C   UNL     1     100.168   5.790  77.124  1.00  0.00     0.066 C 
BRANCH  12  13
ATOM     13  C   UNL     1      99.644   6.431  75.837  1.00  0.00     0.140 C 
ATOM     14  O   UNL     1     100.395   7.058  75.106  1.00  0.00    -0.299 OA
BRANCH  13  15
ATOM     15  C   UNL     1      98.224   6.220  75.371  1.00  0.00     0.106 CG0
ATOM     16  G   UNL     1      98.128   5.324  74.148  1.00  0.00     0.000 G0
ENDBRANCH  13  15
ENDBRANCH  12  13
BRANCH  12  17
ATOM     17  C   UNL     1     100.556   6.803  78.250  1.00  0.00    -0.006 C 
ATOM     18  C   UNL     1     102.059   7.132  78.321  1.00  0.00     0.008 C 
ATOM     19  C   UNL     1      99.719   8.091  78.186  1.00  0.00     0.008 C 
ENDBRANCH  12  17
ENDBRANCH  11  12
ENDBRANCH   1  11
TORSDOF 1
ENDMDL
MODEL 6
REMARK VINA RESULT:    -2.767      6.099      8.505
REMARK INTER + INTRA:          -3.995
REMARK INTER:                  -3.897
REMARK INTRA:                  -0.098
REMARK UNBOUND:                 0.228
REMARK SMILES CC1=CCC[C@H](C)C(=O)C[C@@H](C(C)C)C(=O)C1
REMARK SMILES IDX 8 1 9 2 6 3 7 4 5 5 4 6 3 7 2 8 1 9 10 11 11 12 15 13 16 14
REMARK SMILES IDX 17 15 12 17 13 18 14 19
REMARK H PARENT
REMARK Flexibility Score: 70.00
ROOT
ATOM      1  C   UNL     1      97.404   3.275  71.772  1.00  0.00     0.136 C 
ATOM      2  O   UNL     1      97.395   2.234  72.414  1.00  0.00    -0.299 OA
ENDROOT
BRANCH   1   3
ATOM      3  C   UNL     1      97.857   4.562  72.432  1.00  0.00     0.053 C 
ATOM      4  C   UNL     1      97.757   4.393  73.952  1.00  0.00     0.016 C 
BRANCH   3   5
ATOM      5  C   UNL     1      99.300   4.961  72.033  1.00  0.00     0.015 C 
BRANCH   5   6
ATOM      6  C   UNL     1      99.438   6.400  71.510  1.00  0.00     0.028 C 
BRANCH   6   7
ATOM      7  C   UNL     1      98.105   7.069  71.265  1.00  0.00    -0.028 C 
ATOM      8  C   UNL     1      97.410   7.059  70.104  1.00  0.00    -0.070 CG0
ATOM      9  C   UNL     1      96.022   7.651  70.109  1.00  0.00     0.039 C 
ATOM     10  G   UNL     1      97.917   6.402  68.831  1.00  0.00     0.000 G0
ENDBRANCH   6   7
ENDBRANCH   5   6
ENDBRANCH   3   5
ENDBRANCH   1   3
BRANCH   1  11
ATOM     11  C   UNL     1      96.832   3.276  70.373  1.00  0.00     0.087 C 
BRANCH  11  12
ATOM     12  C   UNL     1      97.844   3.786  69.312  1.00  0.00     0.066 C 
BRANCH  12  13
ATOM     13  C   UNL     1      97.305   5.024  68.593  1.00  0.00     0.140 C 
ATOM     14  O   UNL     1      96.315   4.947  67.882  1.00  0.00    -0.299 OA
BRANCH  13  15
ATOM     15  C   UNL     1      97.902   6.392  68.819  1.00  0.00     0.106 CG0
ATOM     16  G   UNL     1      97.419   7.045  70.103  1.00  0.00     0.000 G0
ENDBRANCH  13  15
ENDBRANCH  12  13
BRANCH  12  17
ATOM     17  C   UNL     1      98.314   2.631  68.369  1.00  0.00    -0.006 C 
ATOM     18  C   UNL     1      99.280   3.072  67.254  1.00  0.00     0.008 C 
ATOM     19  C   UNL     1      98.893   1.442  69.153  1.00  0.00     0.008 C 
ENDBRANCH  12  17
ENDBRANCH  11  12
ENDBRANCH   1  11
TORSDOF 1
ENDMDL
MODEL 7
REMARK VINA RESULT:    -2.759      2.440      4.182
REMARK INTER + INTRA:          -3.982
REMARK INTER:                  -4.049
REMARK INTRA:                   0.067
REMARK UNBOUND:                 0.228
REMARK SMILES CC1=CCC[C@H](C)C(=O)C[C@@H](C(C)C)C(=O)C1
REMARK SMILES IDX 8 1 9 2 6 3 7 4 5 5 4 6 3 7 2 8 1 9 10 11 11 12 15 13 16 14
REMARK SMILES IDX 17 15 12 17 13 18 14 19
REMARK H PARENT
REMARK Flexibility Score: 70.00
ROOT
ATOM      1  C   UNL     1      99.297   5.305  75.388  1.00  0.00     0.136 C 
ATOM      2  O   UNL     1      99.374   4.119  75.096  1.00  0.00    -0.299 OA
ENDROOT
BRANCH   1   3
ATOM      3  C   UNL     1      97.942   5.981  75.439  1.00  0.00     0.053 C 
ATOM      4  C   UNL     1      96.977   5.084  76.222  1.00  0.00     0.016 C 
BRANCH   3   5
ATOM      5  C   UNL     1      98.003   7.389  76.084  1.00  0.00     0.015 C 
BRANCH   5   6
ATOM      6  C   UNL     1      98.158   7.380  77.613  1.00  0.00     0.028 C 
BRANCH   6   7
ATOM      7  C   UNL     1      99.087   8.460  78.118  1.00  0.00    -0.028 C 
ATOM      8  C   UNL     1     100.334   8.271  78.610  1.00  0.00    -0.070 CG0
ATOM      9  C   UNL     1     101.163   9.495  78.913  1.00  0.00     0.039 C 
ATOM     10  G   UNL     1     100.967   6.901  78.781  1.00  0.00     0.000 G0
ENDBRANCH   6   7
ENDBRANCH   5   6
ENDBRANCH   3   5
ENDBRANCH   1   3
BRANCH   1  11
ATOM     11  C   UNL     1     100.572   6.100  75.557  1.00  0.00     0.087 C 
BRANCH  11  12
ATOM     12  C   UNL     1     101.523   5.487  76.620  1.00  0.00     0.066 C 
BRANCH  12  13
ATOM     13  C   UNL     1     101.910   6.527  77.673  1.00  0.00     0.140 C 
ATOM     14  O   UNL     1     102.957   7.147  77.577  1.00  0.00    -0.299 OA
BRANCH  13  15
ATOM     15  C   UNL     1     100.973   6.901  78.795  1.00  0.00     0.106 CG0
ATOM     16  G   UNL     1     100.345   8.272  78.611  1.00  0.00     0.000 G0
ENDBRANCH  13  15
ENDBRANCH  12  13
BRANCH  12  17
ATOM     17  C   UNL     1     102.730   4.751  75.950  1.00  0.00    -0.006 C 
ATOM     18  C   UNL     1     102.571   3.222  75.853  1.00  0.00     0.008 C 
ATOM     19  C   UNL     1     103.085   5.350  74.579  1.00  0.00     0.008 C 
ENDBRANCH  12  17
ENDBRANCH  11  12
ENDBRANCH   1  11
TORSDOF 1
ENDMDL
MODEL 8
REMARK VINA RESULT:    -2.758      2.252      4.974
REMARK INTER + INTRA:          -3.981
REMARK INTER:                  -3.856
REMARK INTRA:                  -0.125
REMARK UNBOUND:                 0.228
REMARK SMILES CC1=CCC[C@H](C)C(=O)C[C@@H](C(C)C)C(=O)C1
REMARK SMILES IDX 8 1 9 2 6 3 7 4 5 5 4 6 3 7 2 8 1 9 10 11 11 12 15 13 16 14
REMARK SMILES IDX 17 15 12 17 13 18 14 19
REMARK H PARENT
REMARK Flexibility Score: 70.00
ROOT
ATOM      1  C   UNL     1     100.315   5.995  78.106  1.00  0.00     0.136 C 
ATOM      2  O   UNL     1     100.405   5.169  79.004  1.00  0.00    -0.299 OA
ENDROOT
BRANCH   1   3
ATOM      3  C   UNL     1     101.204   7.223  78.123  1.00  0.00     0.053 C 
ATOM      4  C   UNL     1     101.038   7.928  79.473  1.00  0.00     0.016 C 
BRANCH   3   5
ATOM      5  C   UNL     1     102.695   6.882  77.878  1.00  0.00     0.015 C 
BRANCH   5   6
ATOM      6  C   UNL     1     103.281   7.487  76.591  1.00  0.00     0.028 C 
BRANCH   6   7
ATOM      7  C   UNL     1     103.336   6.500  75.448  1.00  0.00    -0.028 C 
ATOM      8  C   UNL     1     102.371   6.303  74.519  1.00  0.00    -0.070 CG0
ATOM      9  C   UNL     1     102.685   5.384  73.363  1.00  0.00     0.039 C 
ATOM     10  G   UNL     1     101.037   7.028  74.532  1.00  0.00     0.000 G0
ENDBRANCH   6   7
ENDBRANCH   5   6
ENDBRANCH   3   5
ENDBRANCH   1   3
BRANCH   1  11
ATOM     11  C   UNL     1      99.223   5.837  77.074  1.00  0.00     0.087 C 
BRANCH  11  12
ATOM     12  C   UNL     1      99.710   5.108  75.793  1.00  0.00     0.066 C 
BRANCH  12  13
ATOM     13  C   UNL     1      99.844   6.086  74.624  1.00  0.00     0.140 C 
ATOM     14  O   UNL     1      98.952   6.192  73.799  1.00  0.00    -0.299 OA
BRANCH  13  15
ATOM     15  C   UNL     1     101.022   7.024  74.511  1.00  0.00     0.106 CG0
ATOM     16  G   UNL     1     102.358   6.302  74.520  1.00  0.00     0.000 G0
ENDBRANCH  13  15
ENDBRANCH  12  13
BRANCH  12  17
ATOM     17  C   UNL     1      98.843   3.841  75.493  1.00  0.00    -0.006 C 
ATOM     18  C   UNL     1      99.455   2.518  75.988  1.00  0.00     0.008 C 
ATOM     19  C   UNL     1      97.398   3.995  75.995  1.00  0.00     0.008 C 
ENDBRANCH  12  17
ENDBRANCH  11  12
ENDBRANCH   1  11
TORSDOF 1
ENDMDL
MODEL 9
REMARK VINA RESULT:    -2.665      2.186      5.056
REMARK INTER + INTRA:          -3.839
REMARK INTER:                  -3.971
REMARK INTRA:                   0.133
REMARK UNBOUND:                 0.228
REMARK SMILES CC1=CCC[C@H](C)C(=O)C[C@@H](C(C)C)C(=O)C1
REMARK SMILES IDX 8 1 9 2 6 3 7 4 5 5 4 6 3 7 2 8 1 9 10 11 11 12 15 13 16 14
REMARK SMILES IDX 17 15 12 17 13 18 14 19
REMARK H PARENT
REMARK Flexibility Score: 70.00
ROOT
ATOM      1  C   UNL     1      99.588   2.729  75.473  1.00  0.00     0.136 C 
ATOM      2  O   UNL     1     100.305   2.121  74.691  1.00  0.00    -0.299 OA
ENDROOT
BRANCH   1   3
ATOM      3  C   UNL     1      99.641   2.403  76.953  1.00  0.00     0.053 C 
ATOM      4  C   UNL     1     100.971   1.703  77.251  1.00  0.00     0.016 C 
BRANCH   3   5
ATOM      5  C   UNL     1      99.487   3.660  77.846  1.00  0.00     0.015 C 
BRANCH   5   6
ATOM      6  C   UNL     1     100.633   4.677  77.712  1.00  0.00     0.028 C 
BRANCH   6   7
ATOM      7  C   UNL     1     100.238   6.070  78.144  1.00  0.00    -0.028 C 
ATOM      8  C   UNL     1      99.937   7.103  77.322  1.00  0.00    -0.070 CG0
ATOM      9  C   UNL     1      99.411   8.371  77.949  1.00  0.00     0.039 C 
ATOM     10  G   UNL     1     100.013   7.017  75.807  1.00  0.00     0.000 G0
ENDBRANCH   6   7
ENDBRANCH   5   6
ENDBRANCH   3   5
ENDBRANCH   1   3
BRANCH   1  11
ATOM     11  C   UNL     1      98.565   3.697  74.926  1.00  0.00     0.087 C 
BRANCH  11  12
ATOM     12  C   UNL     1      99.210   4.976  74.326  1.00  0.00     0.066 C 
BRANCH  12  13
ATOM     13  C   UNL     1      98.907   6.199  75.192  1.00  0.00     0.140 C 
ATOM     14  O   UNL     1      97.755   6.484  75.482  1.00  0.00    -0.299 OA
BRANCH  13  15
ATOM     15  C   UNL     1     100.010   7.027  75.806  1.00  0.00     0.106 CG0
ATOM     16  G   UNL     1      99.921   7.104  77.320  1.00  0.00     0.000 G0
ENDBRANCH  13  15
ENDBRANCH  12  13
BRANCH  12  17
ATOM     17  C   UNL     1      98.856   5.138  72.812  1.00  0.00    -0.006 C 
ATOM     18  C   UNL     1      97.488   4.557  72.411  1.00  0.00     0.008 C 
ATOM     19  C   UNL     1      98.989   6.595  72.338  1.00  0.00     0.008 C 
ENDBRANCH  12  17
ENDBRANCH  11  12
ENDBRANCH   1  11
TORSDOF 1
ENDMDL
