MODEL 1
REMARK VINA RESULT:    -5.450      0.000      0.000
REMARK INTER + INTRA:          -6.701
REMARK INTER:                  -6.405
REMARK INTRA:                  -0.296
REMARK UNBOUND:                -0.296
REMARK SMILES O=c1c(O)c(-c2ccc(O)cc2)oc2cc(O)cc(O)c12
REMARK SMILES IDX 5 1 3 2 2 3 1 4 21 5 19 6 18 7 16 8 15 9 14 10 13 11 6 12
REMARK SMILES IDX 7 13 8 14 9 15 12 16 11 17 10 18 4 20 20 22 17 24
REMARK H PARENT 10 19 4 21 20 23 17 25
REMARK Flexibility Score: inf
ROOT
ATOM      1  C   UNL     1     220.409 217.732 220.286  1.00  0.00     0.180 A 
ATOM      2  C   UNL     1     221.157 218.920 220.247  1.00  0.00     0.208 A 
ATOM      3  C   UNL     1     220.483 220.145 220.115  1.00  0.00     0.238 A 
ATOM      4  O   UNL     1     221.154 221.210 220.134  1.00  0.00    -0.285 OA
ATOM      5  C   UNL     1     219.072 220.164 220.007  1.00  0.00     0.111 A 
ATOM      6  C   UNL     1     218.288 221.344 219.829  1.00  0.00     0.134 A 
ATOM      7  C   UNL     1     216.891 221.257 219.866  1.00  0.00     0.093 A 
ATOM      8  C   UNL     1     216.249 220.025 220.009  1.00  0.00     0.123 A 
ATOM      9  C   UNL     1     217.005 218.861 220.124  1.00  0.00     0.094 A 
ATOM     10  C   UNL     1     218.400 218.919 220.127  1.00  0.00     0.146 A 
ATOM     11  O   UNL     1     219.083 217.787 220.250  1.00  0.00    -0.452 OA
ENDROOT
BRANCH   1  12
ATOM     12  C   UNL     1     221.049 216.400 220.399  1.00  0.00     0.021 A 
ATOM     13  C   UNL     1     221.154 215.788 221.659  1.00  0.00     0.016 A 
ATOM     14  C   UNL     1     221.735 214.522 221.785  1.00  0.00     0.047 A 
ATOM     15  C   UNL     1     222.203 213.847 220.654  1.00  0.00     0.115 A 
ATOM     16  C   UNL     1     221.504 215.708 219.263  1.00  0.00     0.016 A 
ATOM     17  C   UNL     1     222.083 214.442 219.391  1.00  0.00     0.047 A 
BRANCH  15  18
ATOM     18  O   UNL     1     222.780 212.587 220.795  1.00  0.00    -0.508 OA
ATOM     19  H   UNL     1     222.489 211.804 220.220  1.00  0.00     0.293 HD
ENDBRANCH  15  18
ENDBRANCH   1  12
BRANCH   2  20
ATOM     20  O   UNL     1     222.548 218.880 220.377  1.00  0.00    -0.502 OA
ATOM     21  H   UNL     1     223.007 218.634 221.246  1.00  0.00     0.293 HD
ENDBRANCH   2  20
BRANCH   6  22
ATOM     22  O   UNL     1     218.829 222.610 219.585  1.00  0.00    -0.507 OA
ATOM     23  H   UNL     1     218.933 223.334 220.279  1.00  0.00     0.293 HD
ENDBRANCH   6  22
BRANCH   8  24
ATOM     24  O   UNL     1     214.859 219.946 220.030  1.00  0.00    -0.508 OA
ATOM     25  H   UNL     1     214.336 219.589 219.238  1.00  0.00     0.293 HD
ENDBRANCH   8  24
TORSDOF 5
ENDMDL
MODEL 2
REMARK VINA RESULT:    -5.448      4.614      9.036
REMARK INTER + INTRA:          -6.699
REMARK INTER:                  -6.401
REMARK INTRA:                  -0.298
REMARK UNBOUND:                -0.296
REMARK SMILES O=c1c(O)c(-c2ccc(O)cc2)oc2cc(O)cc(O)c12
REMARK SMILES IDX 5 1 3 2 2 3 1 4 21 5 19 6 18 7 16 8 15 9 14 10 13 11 6 12
REMARK SMILES IDX 7 13 8 14 9 15 12 16 11 17 10 18 4 20 20 22 17 24
REMARK H PARENT 10 19 4 21 20 23 17 25
REMARK Flexibility Score: inf
ROOT
ATOM      1  C   UNL     1     213.941 216.652 220.303  1.00  0.00     0.180 A 
ATOM      2  C   UNL     1     213.197 215.460 220.275  1.00  0.00     0.208 A 
ATOM      3  C   UNL     1     213.876 214.237 220.143  1.00  0.00     0.238 A 
ATOM      4  O   UNL     1     213.210 213.169 220.173  1.00  0.00    -0.285 OA
ATOM      5  C   UNL     1     215.287 214.224 220.026  1.00  0.00     0.111 A 
ATOM      6  C   UNL     1     216.074 213.047 219.848  1.00  0.00     0.134 A 
ATOM      7  C   UNL     1     217.471 213.140 219.874  1.00  0.00     0.093 A 
ATOM      8  C   UNL     1     218.109 214.376 220.008  1.00  0.00     0.123 A 
ATOM      9  C   UNL     1     217.348 215.537 220.122  1.00  0.00     0.094 A 
ATOM     10  C   UNL     1     215.953 215.472 220.135  1.00  0.00     0.146 A 
ATOM     11  O   UNL     1     215.266 216.602 220.257  1.00  0.00    -0.452 OA
ENDROOT
BRANCH   1  12
ATOM     12  C   UNL     1     213.295 217.981 220.414  1.00  0.00     0.021 A 
ATOM     13  C   UNL     1     213.171 218.586 221.676  1.00  0.00     0.016 A 
ATOM     14  C   UNL     1     212.585 219.850 221.800  1.00  0.00     0.047 A 
ATOM     15  C   UNL     1     212.130 220.529 220.666  1.00  0.00     0.115 A 
ATOM     16  C   UNL     1     212.854 218.678 219.275  1.00  0.00     0.016 A 
ATOM     17  C   UNL     1     212.269 219.941 219.402  1.00  0.00     0.047 A 
BRANCH  15  18
ATOM     18  O   UNL     1     211.548 221.787 220.805  1.00  0.00    -0.508 OA
ATOM     19  H   UNL     1     211.728 222.530 220.140  1.00  0.00     0.293 HD
ENDBRANCH  15  18
ENDBRANCH   1  12
BRANCH   2  20
ATOM     20  O   UNL     1     211.808 215.494 220.414  1.00  0.00    -0.502 OA
ATOM     21  H   UNL     1     211.339 215.213 221.267  1.00  0.00     0.293 HD
ENDBRANCH   2  20
BRANCH   6  22
ATOM     22  O   UNL     1     215.537 211.777 219.614  1.00  0.00    -0.507 OA
ATOM     23  H   UNL     1     215.092 211.490 218.756  1.00  0.00     0.293 HD
ENDBRANCH   6  22
BRANCH   8  24
ATOM     24  O   UNL     1     219.499 214.461 220.018  1.00  0.00    -0.508 OA
ATOM     25  H   UNL     1     220.020 214.719 219.189  1.00  0.00     0.293 HD
ENDBRANCH   8  24
TORSDOF 5
ENDMDL
MODEL 3
REMARK VINA RESULT:    -5.355      4.427      6.341
REMARK INTER + INTRA:          -6.590
REMARK INTER:                  -6.290
REMARK INTRA:                  -0.300
REMARK UNBOUND:                -0.296
REMARK SMILES O=c1c(O)c(-c2ccc(O)cc2)oc2cc(O)cc(O)c12
REMARK SMILES IDX 5 1 3 2 2 3 1 4 21 5 19 6 18 7 16 8 15 9 14 10 13 11 6 12
REMARK SMILES IDX 7 13 8 14 9 15 12 16 11 17 10 18 4 20 20 22 17 24
REMARK H PARENT 10 19 4 21 20 23 17 25
REMARK Flexibility Score: inf
ROOT
ATOM      1  C   UNL     1     217.707 214.051 220.295  1.00  0.00     0.180 A 
ATOM      2  C   UNL     1     218.891 213.301 220.194  1.00  0.00     0.208 A 
ATOM      3  C   UNL     1     220.116 213.977 220.071  1.00  0.00     0.238 A 
ATOM      4  O   UNL     1     221.178 213.302 220.035  1.00  0.00    -0.285 OA
ATOM      5  C   UNL     1     220.139 215.392 220.036  1.00  0.00     0.111 A 
ATOM      6  C   UNL     1     221.319 216.180 219.874  1.00  0.00     0.134 A 
ATOM      7  C   UNL     1     221.240 217.573 219.984  1.00  0.00     0.093 A 
ATOM      8  C   UNL     1     220.014 218.212 220.185  1.00  0.00     0.123 A 
ATOM      9  C   UNL     1     218.848 217.455 220.284  1.00  0.00     0.094 A 
ATOM     10  C   UNL     1     218.901 216.061 220.215  1.00  0.00     0.146 A 
ATOM     11  O   UNL     1     217.767 215.377 220.325  1.00  0.00    -0.452 OA
ENDROOT
BRANCH   1  12
ATOM     12  C   UNL     1     216.375 213.411 220.402  1.00  0.00     0.021 A 
ATOM     13  C   UNL     1     215.819 213.178 221.671  1.00  0.00     0.016 A 
ATOM     14  C   UNL     1     214.554 212.594 221.794  1.00  0.00     0.047 A 
ATOM     15  C   UNL     1     213.823 212.252 220.652  1.00  0.00     0.115 A 
ATOM     16  C   UNL     1     215.627 213.083 219.257  1.00  0.00     0.016 A 
ATOM     17  C   UNL     1     214.362 212.501 219.383  1.00  0.00     0.047 A 
BRANCH  15  18
ATOM     18  O   UNL     1     212.564 211.672 220.790  1.00  0.00    -0.508 OA
ATOM     19  H   UNL     1     211.738 212.234 220.957  1.00  0.00     0.293 HD
ENDBRANCH  15  18
ENDBRANCH   1  12
BRANCH   2  20
ATOM     20  O   UNL     1     218.847 211.907 220.253  1.00  0.00    -0.502 OA
ATOM     21  H   UNL     1     218.187 211.359 219.713  1.00  0.00     0.293 HD
ENDBRANCH   2  20
BRANCH   6  22
ATOM     22  O   UNL     1     222.578 215.647 219.578  1.00  0.00    -0.507 OA
ATOM     23  H   UNL     1     223.001 215.648 218.663  1.00  0.00     0.293 HD
ENDBRANCH   6  22
BRANCH   8  24
ATOM     24  O   UNL     1     219.942 219.599 220.278  1.00  0.00    -0.508 OA
ATOM     25  H   UNL     1     220.574 220.199 219.761  1.00  0.00     0.293 HD
ENDBRANCH   8  24
TORSDOF 5
ENDMDL
MODEL 4
REMARK VINA RESULT:    -5.347      4.427      6.333
REMARK INTER + INTRA:          -6.580
REMARK INTER:                  -6.280
REMARK INTRA:                  -0.300
REMARK UNBOUND:                -0.296
REMARK SMILES O=c1c(O)c(-c2ccc(O)cc2)oc2cc(O)cc(O)c12
REMARK SMILES IDX 5 1 3 2 2 3 1 4 21 5 19 6 18 7 16 8 15 9 14 10 13 11 6 12
REMARK SMILES IDX 7 13 8 14 9 15 12 16 11 17 10 18 4 20 20 22 17 24
REMARK H PARENT 10 19 4 21 20 23 17 25
REMARK Flexibility Score: inf
ROOT
ATOM      1  C   UNL     1     216.681 220.335 220.313  1.00  0.00     0.180 A 
ATOM      2  C   UNL     1     215.501 221.092 220.204  1.00  0.00     0.208 A 
ATOM      3  C   UNL     1     214.273 220.423 220.078  1.00  0.00     0.238 A 
ATOM      4  O   UNL     1     213.215 221.104 220.035  1.00  0.00    -0.285 OA
ATOM      5  C   UNL     1     214.241 219.008 220.047  1.00  0.00     0.111 A 
ATOM      6  C   UNL     1     213.058 218.227 219.883  1.00  0.00     0.134 A 
ATOM      7  C   UNL     1     213.128 216.834 219.997  1.00  0.00     0.093 A 
ATOM      8  C   UNL     1     214.350 216.188 220.206  1.00  0.00     0.123 A 
ATOM      9  C   UNL     1     215.519 216.938 220.308  1.00  0.00     0.094 A 
ATOM     10  C   UNL     1     215.475 218.333 220.234  1.00  0.00     0.146 A 
ATOM     11  O   UNL     1     216.612 219.010 220.347  1.00  0.00    -0.452 OA
ENDROOT
BRANCH   1  12
ATOM     12  C   UNL     1     218.016 220.968 220.423  1.00  0.00     0.021 A 
ATOM     13  C   UNL     1     218.572 221.192 221.694  1.00  0.00     0.016 A 
ATOM     14  C   UNL     1     219.840 221.768 221.820  1.00  0.00     0.047 A 
ATOM     15  C   UNL     1     220.573 222.112 220.681  1.00  0.00     0.115 A 
ATOM     16  C   UNL     1     218.766 221.298 219.281  1.00  0.00     0.016 A 
ATOM     17  C   UNL     1     220.034 221.873 219.410  1.00  0.00     0.047 A 
BRANCH  15  18
ATOM     18  O   UNL     1     221.835 222.685 220.822  1.00  0.00    -0.508 OA
ATOM     19  H   UNL     1     222.016 223.405 221.513  1.00  0.00     0.293 HD
ENDBRANCH  15  18
ENDBRANCH   1  12
BRANCH   2  20
ATOM     20  O   UNL     1     215.553 222.487 220.259  1.00  0.00    -0.502 OA
ATOM     21  H   UNL     1     216.215 222.984 220.844  1.00  0.00     0.293 HD
ENDBRANCH   2  20
BRANCH   6  22
ATOM     22  O   UNL     1     211.804 218.766 219.579  1.00  0.00    -0.507 OA
ATOM     23  H   UNL     1     210.947 218.531 220.054  1.00  0.00     0.293 HD
ENDBRANCH   6  22
BRANCH   8  24
ATOM     24  O   UNL     1     214.413 214.800 220.304  1.00  0.00    -0.508 OA
ATOM     25  H   UNL     1     214.074 214.201 219.561  1.00  0.00     0.293 HD
ENDBRANCH   8  24
TORSDOF 5
ENDMDL
MODEL 5
REMARK VINA RESULT:    -5.299      3.791      5.900
REMARK INTER + INTRA:          -6.524
REMARK INTER:                  -6.225
REMARK INTRA:                  -0.299
REMARK UNBOUND:                -0.296
REMARK SMILES O=c1c(O)c(-c2ccc(O)cc2)oc2cc(O)cc(O)c12
REMARK SMILES IDX 5 1 3 2 2 3 1 4 21 5 19 6 18 7 16 8 15 9 14 10 13 11 6 12
REMARK SMILES IDX 7 13 8 14 9 15 12 16 11 17 10 18 4 20 20 22 17 24
REMARK H PARENT 10 19 4 21 20 23 17 25
REMARK Flexibility Score: inf
ROOT
ATOM      1  C   UNL     1     217.432 220.013 220.254  1.00  0.00     0.180 A 
ATOM      2  C   UNL     1     217.417 218.613 220.137  1.00  0.00     0.208 A 
ATOM      3  C   UNL     1     216.181 217.952 220.039  1.00  0.00     0.238 A 
ATOM      4  O   UNL     1     216.176 216.703 219.881  1.00  0.00    -0.285 OA
ATOM      5  C   UNL     1     214.979 218.697 220.075  1.00  0.00     0.111 A 
ATOM      6  C   UNL     1     213.670 218.128 220.024  1.00  0.00     0.134 A 
ATOM      7  C   UNL     1     212.554 218.969 219.935  1.00  0.00     0.093 A 
ATOM      8  C   UNL     1     212.695 220.358 219.961  1.00  0.00     0.123 A 
ATOM      9  C   UNL     1     213.964 220.923 220.071  1.00  0.00     0.094 A 
ATOM     10  C   UNL     1     215.099 220.110 220.125  1.00  0.00     0.146 A 
ATOM     11  O   UNL     1     216.290 220.690 220.218  1.00  0.00    -0.452 OA
ENDROOT
BRANCH   1  12
ATOM     12  C   UNL     1     218.693 220.780 220.386  1.00  0.00     0.021 A 
ATOM     13  C   UNL     1     219.288 221.336 219.242  1.00  0.00     0.016 A 
ATOM     14  C   UNL     1     220.467 222.081 219.348  1.00  0.00     0.047 A 
ATOM     15  C   UNL     1     221.056 222.293 220.598  1.00  0.00     0.115 A 
ATOM     16  C   UNL     1     219.279 221.013 221.644  1.00  0.00     0.016 A 
ATOM     17  C   UNL     1     220.457 221.759 221.747  1.00  0.00     0.047 A 
BRANCH  15  18
ATOM     18  O   UNL     1     222.229 223.037 220.688  1.00  0.00    -0.508 OA
ATOM     19  H   UNL     1     222.210 224.045 220.794  1.00  0.00     0.293 HD
ENDBRANCH  15  18
ENDBRANCH   1  12
BRANCH   2  20
ATOM     20  O   UNL     1     218.616 217.899 220.082  1.00  0.00    -0.502 OA
ATOM     21  H   UNL     1     218.853 217.179 220.755  1.00  0.00     0.293 HD
ENDBRANCH   2  20
BRANCH   6  22
ATOM     22  O   UNL     1     213.415 216.755 220.087  1.00  0.00    -0.507 OA
ATOM     23  H   UNL     1     212.584 216.308 219.731  1.00  0.00     0.293 HD
ENDBRANCH   6  22
BRANCH   8  24
ATOM     24  O   UNL     1     211.578 221.187 219.887  1.00  0.00    -0.508 OA
ATOM     25  H   UNL     1     210.894 221.222 220.633  1.00  0.00     0.293 HD
ENDBRANCH   8  24
TORSDOF 5
ENDMDL
MODEL 6
REMARK VINA RESULT:    -5.265      4.988      7.072
REMARK INTER + INTRA:          -6.484
REMARK INTER:                  -6.200
REMARK INTRA:                  -0.284
REMARK UNBOUND:                -0.296
REMARK SMILES O=c1c(O)c(-c2ccc(O)cc2)oc2cc(O)cc(O)c12
REMARK SMILES IDX 5 1 3 2 2 3 1 4 21 5 19 6 18 7 16 8 15 9 14 10 13 11 6 12
REMARK SMILES IDX 7 13 8 14 9 15 12 16 11 17 10 18 4 20 20 22 17 24
REMARK H PARENT 10 19 4 21 20 23 17 25
REMARK Flexibility Score: inf
ROOT
ATOM      1  C   UNL     1     213.769 215.835 220.451  1.00  0.00     0.180 A 
ATOM      2  C   UNL     1     212.620 216.577 220.128  1.00  0.00     0.208 A 
ATOM      3  C   UNL     1     212.736 217.965 219.948  1.00  0.00     0.238 A 
ATOM      4  O   UNL     1     211.715 218.617 219.606  1.00  0.00    -0.285 OA
ATOM      5  C   UNL     1     213.994 218.594 220.110  1.00  0.00     0.111 A 
ATOM      6  C   UNL     1     214.219 219.999 219.991  1.00  0.00     0.134 A 
ATOM      7  C   UNL     1     215.527 220.495 220.042  1.00  0.00     0.093 A 
ATOM      8  C   UNL     1     216.612 219.646 220.273  1.00  0.00     0.123 A 
ATOM      9  C   UNL     1     216.396 218.281 220.450  1.00  0.00     0.094 A 
ATOM     10  C   UNL     1     215.106 217.751 220.368  1.00  0.00     0.146 A 
ATOM     11  O   UNL     1     214.946 216.443 220.531  1.00  0.00    -0.452 OA
ENDROOT
BRANCH   1  12
ATOM     12  C   UNL     1     213.723 214.371 220.681  1.00  0.00     0.021 A 
ATOM     13  C   UNL     1     213.370 213.881 221.949  1.00  0.00     0.016 A 
ATOM     14  C   UNL     1     213.299 212.503 222.181  1.00  0.00     0.047 A 
ATOM     15  C   UNL     1     213.565 211.601 221.147  1.00  0.00     0.115 A 
ATOM     16  C   UNL     1     213.970 213.459 219.639  1.00  0.00     0.016 A 
ATOM     17  C   UNL     1     213.898 212.083 219.874  1.00  0.00     0.047 A 
BRANCH  15  18
ATOM     18  O   UNL     1     213.491 210.232 221.393  1.00  0.00    -0.508 OA
ATOM     19  H   UNL     1     213.206 209.580 220.671  1.00  0.00     0.293 HD
ENDBRANCH  15  18
ENDBRANCH   1  12
BRANCH   2  20
ATOM     20  O   UNL     1     211.393 215.933 219.952  1.00  0.00    -0.502 OA
ATOM     21  H   UNL     1     210.669 215.939 220.661  1.00  0.00     0.293 HD
ENDBRANCH   2  20
BRANCH   6  22
ATOM     22  O   UNL     1     213.197 220.943 219.852  1.00  0.00    -0.507 OA
ATOM     23  H   UNL     1     212.601 221.259 220.600  1.00  0.00     0.293 HD
ENDBRANCH   6  22
BRANCH   8  24
ATOM     24  O   UNL     1     217.909 220.150 220.337  1.00  0.00    -0.508 OA
ATOM     25  H   UNL     1     218.264 220.594 221.176  1.00  0.00     0.293 HD
ENDBRANCH   8  24
TORSDOF 5
ENDMDL
MODEL 7
REMARK VINA RESULT:    -5.242      2.080      6.548
REMARK INTER + INTRA:          -6.458
REMARK INTER:                  -6.167
REMARK INTRA:                  -0.290
REMARK UNBOUND:                -0.296
REMARK SMILES O=c1c(O)c(-c2ccc(O)cc2)oc2cc(O)cc(O)c12
REMARK SMILES IDX 5 1 3 2 2 3 1 4 21 5 19 6 18 7 16 8 15 9 14 10 13 11 6 12
REMARK SMILES IDX 7 13 8 14 9 15 12 16 11 17 10 18 4 20 20 22 17 24
REMARK H PARENT 10 19 4 21 20 23 17 25
REMARK Flexibility Score: inf
ROOT
ATOM      1  C   UNL     1     219.945 218.604 220.596  1.00  0.00     0.180 A 
ATOM      2  C   UNL     1     218.666 218.206 221.021  1.00  0.00     0.208 A 
ATOM      3  C   UNL     1     218.326 216.845 220.970  1.00  0.00     0.238 A 
ATOM      4  O   UNL     1     217.199 216.487 221.403  1.00  0.00    -0.285 OA
ATOM      5  C   UNL     1     219.262 215.902 220.481  1.00  0.00     0.111 A 
ATOM      6  C   UNL     1     219.009 214.503 220.348  1.00  0.00     0.134 A 
ATOM      7  C   UNL     1     220.051 213.646 219.976  1.00  0.00     0.093 A 
ATOM      8  C   UNL     1     221.320 214.145 219.669  1.00  0.00     0.123 A 
ATOM      9  C   UNL     1     221.560 215.515 219.738  1.00  0.00     0.094 A 
ATOM     10  C   UNL     1     220.550 216.391 220.141  1.00  0.00     0.146 A 
ATOM     11  O   UNL     1     220.823 217.689 220.204  1.00  0.00    -0.452 OA
ENDROOT
BRANCH   1  12
ATOM     12  C   UNL     1     220.370 220.024 220.596  1.00  0.00     0.021 A 
ATOM     13  C   UNL     1     221.156 220.511 221.653  1.00  0.00     0.016 A 
ATOM     14  C   UNL     1     221.586 221.842 221.661  1.00  0.00     0.047 A 
ATOM     15  C   UNL     1     221.248 222.697 220.608  1.00  0.00     0.115 A 
ATOM     16  C   UNL     1     220.050 220.883 219.529  1.00  0.00     0.016 A 
ATOM     17  C   UNL     1     220.481 222.213 219.539  1.00  0.00     0.047 A 
BRANCH  15  18
ATOM     18  O   UNL     1     221.683 224.020 220.630  1.00  0.00    -0.508 OA
ATOM     19  H   UNL     1     222.669 224.253 220.657  1.00  0.00     0.293 HD
ENDBRANCH  15  18
ENDBRANCH   1  12
BRANCH   2  20
ATOM     20  O   UNL     1     217.766 219.150 221.520  1.00  0.00    -0.502 OA
ATOM     21  H   UNL     1     217.070 218.922 222.221  1.00  0.00     0.293 HD
ENDBRANCH   2  20
BRANCH   6  22
ATOM     22  O   UNL     1     217.755 213.916 220.541  1.00  0.00    -0.507 OA
ATOM     23  H   UNL     1     217.167 213.562 219.803  1.00  0.00     0.293 HD
ENDBRANCH   6  22
BRANCH   8  24
ATOM     24  O   UNL     1     222.347 213.286 219.284  1.00  0.00    -0.508 OA
ATOM     25  H   UNL     1     222.292 212.287 219.447  1.00  0.00     0.293 HD
ENDBRANCH   8  24
TORSDOF 5
ENDMDL
MODEL 8
REMARK VINA RESULT:    -5.185      4.854      6.330
REMARK INTER + INTRA:          -6.391
REMARK INTER:                  -6.098
REMARK INTRA:                  -0.293
REMARK UNBOUND:                -0.296
REMARK SMILES O=c1c(O)c(-c2ccc(O)cc2)oc2cc(O)cc(O)c12
REMARK SMILES IDX 5 1 3 2 2 3 1 4 21 5 19 6 18 7 16 8 15 9 14 10 13 11 6 12
REMARK SMILES IDX 7 13 8 14 9 15 12 16 11 17 10 18 4 20 20 22 17 24
REMARK H PARENT 10 19 4 21 20 23 17 25
REMARK Flexibility Score: inf
ROOT
ATOM      1  C   UNL     1     214.435 215.848 220.650  1.00  0.00     0.180 A 
ATOM      2  C   UNL     1     215.706 216.259 221.084  1.00  0.00     0.208 A 
ATOM      3  C   UNL     1     216.035 217.623 221.030  1.00  0.00     0.238 A 
ATOM      4  O   UNL     1     217.155 217.993 221.471  1.00  0.00    -0.285 OA
ATOM      5  C   UNL     1     215.096 218.555 220.528  1.00  0.00     0.111 A 
ATOM      6  C   UNL     1     215.337 219.955 220.390  1.00  0.00     0.134 A 
ATOM      7  C   UNL     1     214.291 220.802 220.004  1.00  0.00     0.093 A 
ATOM      8  C   UNL     1     213.029 220.290 219.688  1.00  0.00     0.123 A 
ATOM      9  C   UNL     1     212.801 218.918 219.762  1.00  0.00     0.094 A 
ATOM     10  C   UNL     1     213.815 218.053 220.179  1.00  0.00     0.146 A 
ATOM     11  O   UNL     1     213.552 216.753 220.246  1.00  0.00    -0.452 OA
ENDROOT
BRANCH   1  12
ATOM     12  C   UNL     1     214.023 214.424 220.653  1.00  0.00     0.021 A 
ATOM     13  C   UNL     1     213.247 213.931 221.715  1.00  0.00     0.016 A 
ATOM     14  C   UNL     1     212.830 212.596 221.726  1.00  0.00     0.047 A 
ATOM     15  C   UNL     1     213.169 211.744 220.672  1.00  0.00     0.115 A 
ATOM     16  C   UNL     1     214.345 213.567 219.585  1.00  0.00     0.016 A 
ATOM     17  C   UNL     1     213.925 212.233 219.598  1.00  0.00     0.047 A 
BRANCH  15  18
ATOM     18  O   UNL     1     212.746 210.417 220.696  1.00  0.00    -0.508 OA
ATOM     19  H   UNL     1     213.120 209.730 220.052  1.00  0.00     0.293 HD
ENDBRANCH  15  18
ENDBRANCH   1  12
BRANCH   2  20
ATOM     20  O   UNL     1     216.610 215.326 221.597  1.00  0.00    -0.502 OA
ATOM     21  H   UNL     1     217.166 215.504 222.425  1.00  0.00     0.293 HD
ENDBRANCH   2  20
BRANCH   6  22
ATOM     22  O   UNL     1     216.584 220.555 220.591  1.00  0.00    -0.507 OA
ATOM     23  H   UNL     1     216.963 220.806 221.491  1.00  0.00     0.293 HD
ENDBRANCH   6  22
BRANCH   8  24
ATOM     24  O   UNL     1     211.998 221.138 219.290  1.00  0.00    -0.508 OA
ATOM     25  H   UNL     1     211.989 222.118 219.546  1.00  0.00     0.293 HD
ENDBRANCH   8  24
TORSDOF 5
ENDMDL
MODEL 9
REMARK VINA RESULT:    -5.154      2.932      7.578
REMARK INTER + INTRA:          -6.354
REMARK INTER:                  -6.079
REMARK INTRA:                  -0.275
REMARK UNBOUND:                -0.296
REMARK SMILES O=c1c(O)c(-c2ccc(O)cc2)oc2cc(O)cc(O)c12
REMARK SMILES IDX 5 1 3 2 2 3 1 4 21 5 19 6 18 7 16 8 15 9 14 10 13 11 6 12
REMARK SMILES IDX 7 13 8 14 9 15 12 16 11 17 10 18 4 20 20 22 17 24
REMARK H PARENT 10 19 4 21 20 23 17 25
REMARK Flexibility Score: inf
ROOT
ATOM      1  C   UNL     1     215.792 219.960 220.648  1.00  0.00     0.180 A 
ATOM      2  C   UNL     1     216.188 218.696 221.116  1.00  0.00     0.208 A 
ATOM      3  C   UNL     1     217.546 218.344 221.058  1.00  0.00     0.238 A 
ATOM      4  O   UNL     1     217.903 217.231 221.527  1.00  0.00    -0.285 OA
ATOM      5  C   UNL     1     218.488 219.253 220.520  1.00  0.00     0.111 A 
ATOM      6  C   UNL     1     219.883 218.986 220.375  1.00  0.00     0.134 A 
ATOM      7  C   UNL     1     220.741 220.007 219.950  1.00  0.00     0.093 A 
ATOM      8  C   UNL     1     220.246 221.267 219.603  1.00  0.00     0.123 A 
ATOM      9  C   UNL     1     218.879 221.519 219.683  1.00  0.00     0.094 A 
ATOM     10  C   UNL     1     218.002 220.531 220.138  1.00  0.00     0.146 A 
ATOM     11  O   UNL     1     216.707 220.816 220.210  1.00  0.00    -0.452 OA
ENDROOT
BRANCH   1  12
ATOM     12  C   UNL     1     214.375 220.395 220.653  1.00  0.00     0.021 A 
ATOM     13  C   UNL     1     213.523 219.986 219.614  1.00  0.00     0.016 A 
ATOM     14  C   UNL     1     212.177 220.367 219.611  1.00  0.00     0.047 A 
ATOM     15  C   UNL     1     211.664 221.146 220.652  1.00  0.00     0.115 A 
ATOM     16  C   UNL     1     213.849 221.162 221.708  1.00  0.00     0.016 A 
ATOM     17  C   UNL     1     212.503 221.540 221.703  1.00  0.00     0.047 A 
BRANCH  15  18
ATOM     18  O   UNL     1     210.322 221.517 220.635  1.00  0.00    -0.508 OA
ATOM     19  H   UNL     1     209.667 221.109 219.978  1.00  0.00     0.293 HD
ENDBRANCH  15  18
ENDBRANCH   1  12
BRANCH   2  20
ATOM     20  O   UNL     1     215.246 217.822 221.663  1.00  0.00    -0.502 OA
ATOM     21  H   UNL     1     214.615 217.273 221.091  1.00  0.00     0.293 HD
ENDBRANCH   2  20
BRANCH   6  22
ATOM     22  O   UNL     1     220.465 217.736 220.606  1.00  0.00    -0.507 OA
ATOM     23  H   UNL     1     220.283 216.908 220.062  1.00  0.00     0.293 HD
ENDBRANCH   6  22
BRANCH   8  24
ATOM     24  O   UNL     1     221.106 222.272 219.167  1.00  0.00    -0.508 OA
ATOM     25  H   UNL     1     220.960 222.749 218.284  1.00  0.00     0.293 HD
ENDBRANCH   8  24
TORSDOF 5
ENDMDL
