MODEL 1
REMARK VINA RESULT:    -3.652      0.000      0.000
REMARK INTER + INTRA:          -5.874
REMARK INTER:                  -5.573
REMARK INTRA:                  -0.300
REMARK UNBOUND:                -0.300
REMARK SMILES CCCCCCCCCCC(=O)[O-]
REMARK SMILES IDX 7 1 8 2 9 3 10 4 11 5 12 6 13 7 6 8 5 9 4 10 3 11 2 12 1 13
REMARK H PARENT
REMARK Flexibility Score: inf
ROOT
ATOM      1  C   UNL     1      15.817  -3.849  13.680  1.00  0.00     0.000 C 
ENDROOT
BRANCH   1   2
ATOM      2  C   UNL     1      15.936  -2.930  14.904  1.00  0.00     0.000 C 
BRANCH   2   3
ATOM      3  C   UNL     1      15.400  -1.528  14.590  1.00  0.00     0.006 C 
BRANCH   3   4
ATOM      4  C   UNL     1      16.529  -0.493  14.602  1.00  0.00     0.053 C 
BRANCH   4   5
ATOM      5  C   UNL     1      16.170   0.665  15.479  1.00  0.00     0.041 C 
ATOM      6  O   UNL     1      15.908   1.787  14.973  1.00  0.00    -0.550 OA
ATOM      7  O   UNL     1      16.171   0.515  16.860  1.00  0.00    -0.550 OA
ENDBRANCH   4   5
ENDBRANCH   3   4
ENDBRANCH   2   3
ENDBRANCH   1   2
BRANCH   1   8
ATOM      8  C   UNL     1      15.826  -5.343  14.051  1.00  0.00     0.000 C 
BRANCH   8   9
ATOM      9  C   UNL     1      15.732  -6.315  12.857  1.00  0.00    -0.000 C 
BRANCH   9  10
ATOM     10  C   UNL     1      15.931  -5.674  11.471  1.00  0.00    -0.000 C 
BRANCH  10  11
ATOM     11  C   UNL     1      14.973  -6.240  10.409  1.00  0.00    -0.000 C 
BRANCH  11  12
ATOM     12  C   UNL     1      15.712  -6.736   9.156  1.00  0.00    -0.003 C 
ATOM     13  C   UNL     1      16.744  -5.734   8.639  1.00  0.00     0.004 C 
ENDBRANCH  11  12
ENDBRANCH  10  11
ENDBRANCH   9  10
ENDBRANCH   8   9
ENDBRANCH   1   8
TORSDOF 9
ENDMDL
MODEL 2
REMARK VINA RESULT:    -3.544      1.415      2.186
REMARK INTER + INTRA:          -5.709
REMARK INTER:                  -5.301
REMARK INTRA:                  -0.407
REMARK UNBOUND:                -0.300
REMARK SMILES CCCCCCCCCCC(=O)[O-]
REMARK SMILES IDX 7 1 8 2 9 3 10 4 11 5 12 6 13 7 6 8 5 9 4 10 3 11 2 12 1 13
REMARK H PARENT
REMARK Flexibility Score: inf
ROOT
ATOM      1  C   UNL     1      15.922  -4.645  12.936  1.00  0.00     0.000 C 
ENDROOT
BRANCH   1   2
ATOM      2  C   UNL     1      16.257  -4.767  14.429  1.00  0.00     0.000 C 
BRANCH   2   3
ATOM      3  C   UNL     1      15.790  -3.525  15.199  1.00  0.00     0.006 C 
BRANCH   3   4
ATOM      4  C   UNL     1      15.722  -2.302  14.280  1.00  0.00     0.053 C 
BRANCH   4   5
ATOM      5  C   UNL     1      16.503  -1.166  14.862  1.00  0.00     0.041 C 
ATOM      6  O   UNL     1      16.230   0.021  14.541  1.00  0.00    -0.550 OA
ATOM      7  O   UNL     1      17.563  -1.421  15.723  1.00  0.00    -0.550 OA
ENDBRANCH   4   5
ENDBRANCH   3   4
ENDBRANCH   2   3
ENDBRANCH   1   2
BRANCH   1   8
ATOM      8  C   UNL     1      15.790  -6.010  12.239  1.00  0.00     0.000 C 
BRANCH   8   9
ATOM      9  C   UNL     1      15.972  -5.985  10.708  1.00  0.00    -0.000 C 
BRANCH   9  10
ATOM     10  C   UNL     1      17.158  -6.807  10.173  1.00  0.00    -0.000 C 
BRANCH  10  11
ATOM     11  C   UNL     1      17.988  -6.045   9.125  1.00  0.00    -0.000 C 
BRANCH  11  12
ATOM     12  C   UNL     1      17.147  -5.036   8.329  1.00  0.00    -0.003 C 
ATOM     13  C   UNL     1      17.826  -4.587   7.035  1.00  0.00     0.004 C 
ENDBRANCH  11  12
ENDBRANCH  10  11
ENDBRANCH   9  10
ENDBRANCH   8   9
ENDBRANCH   1   8
TORSDOF 9
ENDMDL
MODEL 3
REMARK VINA RESULT:    -3.529      3.775      6.556
REMARK INTER + INTRA:          -5.686
REMARK INTER:                  -4.989
REMARK INTRA:                  -0.698
REMARK UNBOUND:                -0.300
REMARK SMILES CCCCCCCCCCC(=O)[O-]
REMARK SMILES IDX 7 1 8 2 9 3 10 4 11 5 12 6 13 7 6 8 5 9 4 10 3 11 2 12 1 13
REMARK H PARENT
REMARK Flexibility Score: inf
ROOT
ATOM      1  C   UNL     1      15.378  -5.488  15.413  1.00  0.00     0.000 C 
ENDROOT
BRANCH   1   2
ATOM      2  C   UNL     1      15.646  -6.217  14.089  1.00  0.00     0.000 C 
BRANCH   2   3
ATOM      3  C   UNL     1      15.890  -5.217  12.952  1.00  0.00     0.006 C 
BRANCH   3   4
ATOM      4  C   UNL     1      16.670  -5.869  11.805  1.00  0.00     0.053 C 
BRANCH   4   5
ATOM      5  C   UNL     1      15.872  -5.827  10.540  1.00  0.00     0.041 C 
ATOM      6  O   UNL     1      16.390  -5.392   9.478  1.00  0.00    -0.550 OA
ATOM      7  O   UNL     1      14.541  -6.225  10.545  1.00  0.00    -0.550 OA
ENDBRANCH   4   5
ENDBRANCH   3   4
ENDBRANCH   2   3
ENDBRANCH   1   2
BRANCH   1   8
ATOM      8  C   UNL     1      16.116  -4.141  15.514  1.00  0.00     0.000 C 
BRANCH   8   9
ATOM      9  C   UNL     1      15.392  -3.058  16.340  1.00  0.00    -0.000 C 
BRANCH   9  10
ATOM     10  C   UNL     1      14.750  -1.926  15.519  1.00  0.00    -0.000 C 
BRANCH  10  11
ATOM     11  C   UNL     1      15.549  -1.582  14.250  1.00  0.00    -0.000 C 
BRANCH  11  12
ATOM     12  C   UNL     1      16.537  -0.427  14.472  1.00  0.00    -0.003 C 
ATOM     13  C   UNL     1      16.035   0.596  15.491  1.00  0.00     0.004 C 
ENDBRANCH  11  12
ENDBRANCH  10  11
ENDBRANCH   9  10
ENDBRANCH   8   9
ENDBRANCH   1   8
TORSDOF 9
ENDMDL
MODEL 4
REMARK VINA RESULT:    -3.491      4.432      8.805
REMARK INTER + INTRA:          -5.628
REMARK INTER:                  -5.132
REMARK INTRA:                  -0.496
REMARK UNBOUND:                -0.300
REMARK SMILES CCCCCCCCCCC(=O)[O-]
REMARK SMILES IDX 7 1 8 2 9 3 10 4 11 5 12 6 13 7 6 8 5 9 4 10 3 11 2 12 1 13
REMARK H PARENT
REMARK Flexibility Score: inf
ROOT
ATOM      1  C   UNL     1      15.197   2.126  15.908  1.00  0.00     0.000 C 
ENDROOT
BRANCH   1   2
ATOM      2  C   UNL     1      16.067   1.148  15.106  1.00  0.00     0.000 C 
BRANCH   2   3
ATOM      3  C   UNL     1      16.695   0.092  16.023  1.00  0.00     0.006 C 
BRANCH   3   4
ATOM      4  C   UNL     1      16.815  -1.257  15.307  1.00  0.00     0.053 C 
BRANCH   4   5
ATOM      5  C   UNL     1      15.471  -1.726  14.846  1.00  0.00     0.041 C 
ATOM      6  O   UNL     1      15.269  -1.973  13.628  1.00  0.00    -0.550 OA
ATOM      7  O   UNL     1      14.428  -1.845  15.756  1.00  0.00    -0.550 OA
ENDBRANCH   4   5
ENDBRANCH   3   4
ENDBRANCH   2   3
ENDBRANCH   1   2
BRANCH   1   8
ATOM      8  C   UNL     1      15.465   3.598  15.550  1.00  0.00     0.000 C 
BRANCH   8   9
ATOM      9  C   UNL     1      16.147   3.826  14.185  1.00  0.00    -0.000 C 
BRANCH   9  10
ATOM     10  C   UNL     1      16.856   5.183  14.024  1.00  0.00    -0.000 C 
BRANCH  10  11
ATOM     11  C   UNL     1      16.260   6.279  14.926  1.00  0.00    -0.000 C 
BRANCH  11  12
ATOM     12  C   UNL     1      15.923   7.560  14.148  1.00  0.00    -0.003 C 
ATOM     13  C   UNL     1      16.149   7.419  12.643  1.00  0.00     0.004 C 
ENDBRANCH  11  12
ENDBRANCH  10  11
ENDBRANCH   9  10
ENDBRANCH   8   9
ENDBRANCH   1   8
TORSDOF 9
ENDMDL
MODEL 5
REMARK VINA RESULT:    -3.461     11.362     12.354
REMARK INTER + INTRA:          -5.582
REMARK INTER:                  -4.969
REMARK INTRA:                  -0.613
REMARK UNBOUND:                -0.300
REMARK SMILES CCCCCCCCCCC(=O)[O-]
REMARK SMILES IDX 7 1 8 2 9 3 10 4 11 5 12 6 13 7 6 8 5 9 4 10 3 11 2 12 1 13
REMARK H PARENT
REMARK Flexibility Score: inf
ROOT
ATOM      1  C   UNL     1      20.273   4.468   4.371  1.00  0.00     0.000 C 
ENDROOT
BRANCH   1   2
ATOM      2  C   UNL     1      20.073   2.960   4.576  1.00  0.00     0.000 C 
BRANCH   2   3
ATOM      3  C   UNL     1      21.282   2.338   5.285  1.00  0.00     0.006 C 
BRANCH   3   4
ATOM      4  C   UNL     1      22.423   3.351   5.417  1.00  0.00     0.053 C 
BRANCH   4   5
ATOM      5  C   UNL     1      23.628   2.706   6.026  1.00  0.00     0.041 C 
ATOM      6  O   UNL     1      24.627   3.402   6.346  1.00  0.00    -0.550 OA
ATOM      7  O   UNL     1      23.667   1.327   6.195  1.00  0.00    -0.550 OA
ENDBRANCH   4   5
ENDBRANCH   3   4
ENDBRANCH   2   3
ENDBRANCH   1   2
BRANCH   1   8
ATOM      8  C   UNL     1      19.194   5.315   5.068  1.00  0.00     0.000 C 
BRANCH   8   9
ATOM      9  C   UNL     1      17.927   4.542   5.490  1.00  0.00    -0.000 C 
BRANCH   9  10
ATOM     10  C   UNL     1      16.690   4.775   4.604  1.00  0.00    -0.000 C 
BRANCH  10  11
ATOM     11  C   UNL     1      16.552   3.729   3.485  1.00  0.00    -0.000 C 
BRANCH  11  12
ATOM     12  C   UNL     1      15.349   2.796   3.698  1.00  0.00    -0.003 C 
ATOM     13  C   UNL     1      14.550   3.136   4.956  1.00  0.00     0.004 C 
ENDBRANCH  11  12
ENDBRANCH  10  11
ENDBRANCH   9  10
ENDBRANCH   8   9
ENDBRANCH   1   8
TORSDOF 9
ENDMDL
MODEL 6
REMARK VINA RESULT:    -3.444     13.966     16.713
REMARK INTER + INTRA:          -5.557
REMARK INTER:                  -5.155
REMARK INTRA:                  -0.402
REMARK UNBOUND:                -0.300
REMARK SMILES CCCCCCCCCCC(=O)[O-]
REMARK SMILES IDX 7 1 8 2 9 3 10 4 11 5 12 6 13 7 6 8 5 9 4 10 3 11 2 12 1 13
REMARK H PARENT
REMARK Flexibility Score: inf
ROOT
ATOM      1  C   UNL     1      22.057  11.412   7.367  1.00  0.00     0.000 C 
ENDROOT
BRANCH   1   2
ATOM      2  C   UNL     1      22.700  10.613   6.224  1.00  0.00     0.000 C 
BRANCH   2   3
ATOM      3  C   UNL     1      24.134  10.203   6.581  1.00  0.00     0.006 C 
BRANCH   3   4
ATOM      4  C   UNL     1      24.988  10.038   5.321  1.00  0.00     0.053 C 
BRANCH   4   5
ATOM      5  C   UNL     1      26.322   9.456   5.665  1.00  0.00     0.041 C 
ATOM      6  O   UNL     1      26.917   8.706   4.847  1.00  0.00    -0.550 OA
ATOM      7  O   UNL     1      26.887   9.703   6.910  1.00  0.00    -0.550 OA
ENDBRANCH   4   5
ENDBRANCH   3   4
ENDBRANCH   2   3
ENDBRANCH   1   2
BRANCH   1   8
ATOM      8  C   UNL     1      21.315  10.519   8.378  1.00  0.00     0.000 C 
BRANCH   8   9
ATOM      9  C   UNL     1      20.222  11.230   9.201  1.00  0.00    -0.000 C 
BRANCH   9  10
ATOM     10  C   UNL     1      18.837  10.562   9.169  1.00  0.00    -0.000 C 
BRANCH  10  11
ATOM     11  C   UNL     1      18.862   9.165   8.523  1.00  0.00    -0.000 C 
BRANCH  11  12
ATOM     12  C   UNL     1      18.672   8.039   9.550  1.00  0.00    -0.003 C 
ATOM     13  C   UNL     1      17.756   8.439  10.707  1.00  0.00     0.004 C 
ENDBRANCH  11  12
ENDBRANCH  10  11
ENDBRANCH   9  10
ENDBRANCH   8   9
ENDBRANCH   1   8
TORSDOF 9
ENDMDL
MODEL 7
REMARK VINA RESULT:    -3.404     15.454     17.974
REMARK INTER + INTRA:          -5.495
REMARK INTER:                  -5.163
REMARK INTRA:                  -0.332
REMARK UNBOUND:                -0.300
REMARK SMILES CCCCCCCCCCC(=O)[O-]
REMARK SMILES IDX 7 1 8 2 9 3 10 4 11 5 12 6 13 7 6 8 5 9 4 10 3 11 2 12 1 13
REMARK H PARENT
REMARK Flexibility Score: inf
ROOT
ATOM      1  C   UNL     1      23.854  10.904   5.661  1.00  0.00     0.000 C 
ENDROOT
BRANCH   1   2
ATOM      2  C   UNL     1      25.044  10.017   5.270  1.00  0.00     0.000 C 
BRANCH   2   3
ATOM      3  C   UNL     1      26.005   9.837   6.452  1.00  0.00     0.006 C 
BRANCH   3   4
ATOM      4  C   UNL     1      27.454  10.097   6.026  1.00  0.00     0.053 C 
BRANCH   4   5
ATOM      5  C   UNL     1      27.689  11.562   5.835  1.00  0.00     0.041 C 
ATOM      6  O   UNL     1      27.818  12.319   6.832  1.00  0.00    -0.550 OA
ATOM      7  O   UNL     1      27.717  12.099   4.554  1.00  0.00    -0.550 OA
ENDBRANCH   4   5
ENDBRANCH   3   4
ENDBRANCH   2   3
ENDBRANCH   1   2
BRANCH   1   8
ATOM      8  C   UNL     1      23.207  10.485   6.993  1.00  0.00     0.000 C 
BRANCH   8   9
ATOM      9  C   UNL     1      22.002  11.341   7.434  1.00  0.00    -0.000 C 
BRANCH   9  10
ATOM     10  C   UNL     1      20.672  10.579   7.572  1.00  0.00    -0.000 C 
BRANCH  10  11
ATOM     11  C   UNL     1      20.390  10.124   9.014  1.00  0.00    -0.000 C 
BRANCH  11  12
ATOM     12  C   UNL     1      18.930   9.692   9.220  1.00  0.00    -0.003 C 
ATOM     13  C   UNL     1      18.777   8.181   9.397  1.00  0.00     0.004 C 
ENDBRANCH  11  12
ENDBRANCH  10  11
ENDBRANCH   9  10
ENDBRANCH   8   9
ENDBRANCH   1   8
TORSDOF 9
ENDMDL
MODEL 8
REMARK VINA RESULT:    -3.377     18.258     20.154
REMARK INTER + INTRA:          -5.455
REMARK INTER:                  -4.211
REMARK INTRA:                  -1.244
REMARK UNBOUND:                -0.300
REMARK SMILES CCCCCCCCCCC(=O)[O-]
REMARK SMILES IDX 7 1 8 2 9 3 10 4 11 5 12 6 13 7 6 8 5 9 4 10 3 11 2 12 1 13
REMARK H PARENT
REMARK Flexibility Score: inf
ROOT
ATOM      1  C   UNL     1      27.711  12.013   4.902  1.00  0.00     0.000 C 
ENDROOT
BRANCH   1   2
ATOM      2  C   UNL     1      29.164  11.585   4.650  1.00  0.00     0.000 C 
BRANCH   2   3
ATOM      3  C   UNL     1      29.232  10.460   3.610  1.00  0.00     0.006 C 
BRANCH   3   4
ATOM      4  C   UNL     1      27.877  10.266   2.921  1.00  0.00     0.053 C 
BRANCH   4   5
ATOM      5  C   UNL     1      27.550   8.811   2.809  1.00  0.00     0.041 C 
ATOM      6  O   UNL     1      28.436   7.943   3.023  1.00  0.00    -0.550 OA
ATOM      7  O   UNL     1      26.276   8.414   2.422  1.00  0.00    -0.550 OA
ENDBRANCH   4   5
ENDBRANCH   3   4
ENDBRANCH   2   3
ENDBRANCH   1   2
BRANCH   1   8
ATOM      8  C   UNL     1      27.249  11.739   6.344  1.00  0.00     0.000 C 
BRANCH   8   9
ATOM      9  C   UNL     1      27.308  10.261   6.781  1.00  0.00    -0.000 C 
BRANCH   9  10
ATOM     10  C   UNL     1      26.201   9.361   6.204  1.00  0.00    -0.000 C 
BRANCH  10  11
ATOM     11  C   UNL     1      24.825  10.049   6.179  1.00  0.00    -0.000 C 
BRANCH  11  12
ATOM     12  C   UNL     1      24.235  10.133   4.762  1.00  0.00    -0.003 C 
ATOM     13  C   UNL     1      24.076  11.571   4.269  1.00  0.00     0.004 C 
ENDBRANCH  11  12
ENDBRANCH  10  11
ENDBRANCH   9  10
ENDBRANCH   8   9
ENDBRANCH   1   8
TORSDOF 9
ENDMDL
MODEL 9
REMARK VINA RESULT:    -3.361     11.793     13.245
REMARK INTER + INTRA:          -5.429
REMARK INTER:                  -4.429
REMARK INTRA:                  -1.000
REMARK UNBOUND:                -0.300
REMARK SMILES CCCCCCCCCCC(=O)[O-]
REMARK SMILES IDX 7 1 8 2 9 3 10 4 11 5 12 6 13 7 6 8 5 9 4 10 3 11 2 12 1 13
REMARK H PARENT
REMARK Flexibility Score: inf
ROOT
ATOM      1  C   UNL     1      26.514  -1.128   7.913  1.00  0.00     0.000 C 
ENDROOT
BRANCH   1   2
ATOM      2  C   UNL     1      25.932  -0.507   6.635  1.00  0.00     0.000 C 
BRANCH   2   3
ATOM      3  C   UNL     1      25.290   0.854   6.931  1.00  0.00     0.006 C 
BRANCH   3   4
ATOM      4  C   UNL     1      23.962   1.009   6.183  1.00  0.00     0.053 C 
BRANCH   4   5
ATOM      5  C   UNL     1      23.517   2.437   6.197  1.00  0.00     0.041 C 
ATOM      6  O   UNL     1      22.291   2.719   6.255  1.00  0.00    -0.550 OA
ATOM      7  O   UNL     1      24.454   3.458   6.097  1.00  0.00    -0.550 OA
ENDBRANCH   4   5
ENDBRANCH   3   4
ENDBRANCH   2   3
ENDBRANCH   1   2
BRANCH   1   8
ATOM      8  C   UNL     1      26.150  -0.338   9.182  1.00  0.00     0.000 C 
BRANCH   8   9
ATOM      9  C   UNL     1      27.131  -0.504  10.361  1.00  0.00    -0.000 C 
BRANCH   9  10
ATOM     10  C   UNL     1      27.981   0.737  10.687  1.00  0.00    -0.000 C 
BRANCH  10  11
ATOM     11  C   UNL     1      27.871   1.835   9.615  1.00  0.00    -0.000 C 
BRANCH  11  12
ATOM     12  C   UNL     1      29.130   1.930   8.739  1.00  0.00    -0.003 C 
ATOM     13  C   UNL     1      28.811   1.980   7.245  1.00  0.00     0.004 C 
ENDBRANCH  11  12
ENDBRANCH  10  11
ENDBRANCH   9  10
ENDBRANCH   8   9
ENDBRANCH   1   8
TORSDOF 9
ENDMDL
