MODEL 1
REMARK VINA RESULT:    -2.595      0.000      0.000
REMARK INTER + INTRA:          -4.499
REMARK INTER:                  -3.657
REMARK INTRA:                  -0.842
REMARK UNBOUND:                -0.842
REMARK SMILES CCCCCCCCC(=O)[O-]
REMARK SMILES IDX 6 1 7 2 8 3 9 4 10 5 11 6 5 7 4 8 3 9 2 10 1 11
REMARK H PARENT
REMARK Flexibility Score: inf
ROOT
ATOM      1  C   UNL     1     145.948 165.097 152.407  1.00  0.00     0.000 C 
ENDROOT
BRANCH   1   2
ATOM      2  C   UNL     1     147.032 166.143 152.723  1.00  0.00     0.006 C 
BRANCH   2   3
ATOM      3  C   UNL     1     148.048 165.628 153.750  1.00  0.00     0.053 C 
BRANCH   3   4
ATOM      4  C   UNL     1     147.418 165.410 155.092  1.00  0.00     0.041 C 
ATOM      5  O   UNL     1     146.940 166.383 155.732  1.00  0.00    -0.550 OA
ATOM      6  O   UNL     1     147.392 164.139 155.651  1.00  0.00    -0.550 OA
ENDBRANCH   3   4
ENDBRANCH   2   3
ENDBRANCH   1   2
BRANCH   1   7
ATOM      7  C   UNL     1     146.183 164.382 151.066  1.00  0.00     0.000 C 
BRANCH   7   8
ATOM      8  C   UNL     1     146.500 162.879 151.183  1.00  0.00    -0.000 C 
BRANCH   8   9
ATOM      9  C   UNL     1     146.176 162.279 152.568  1.00  0.00    -0.000 C 
BRANCH   9  10
ATOM     10  C   UNL     1     147.396 161.605 153.212  1.00  0.00    -0.003 C 
ATOM     11  C   UNL     1     148.698 162.168 152.648  1.00  0.00     0.004 C 
ENDBRANCH   9  10
ENDBRANCH   8   9
ENDBRANCH   7   8
ENDBRANCH   1   7
TORSDOF 7
ENDMDL
MODEL 2
REMARK VINA RESULT:    -2.583      1.890      4.122
REMARK INTER + INTRA:          -4.482
REMARK INTER:                  -3.975
REMARK INTRA:                  -0.506
REMARK UNBOUND:                -0.842
REMARK SMILES CCCCCCCCC(=O)[O-]
REMARK SMILES IDX 6 1 7 2 8 3 9 4 10 5 11 6 5 7 4 8 3 9 2 10 1 11
REMARK H PARENT
REMARK Flexibility Score: inf
ROOT
ATOM      1  C   UNL     1     146.518 163.669 150.886  1.00  0.00     0.000 C 
ENDROOT
BRANCH   1   2
ATOM      2  C   UNL     1     146.144 162.465 151.769  1.00  0.00     0.006 C 
BRANCH   2   3
ATOM      3  C   UNL     1     147.213 161.366 151.729  1.00  0.00     0.053 C 
BRANCH   3   4
ATOM      4  C   UNL     1     148.127 161.438 152.915  1.00  0.00     0.041 C 
ATOM      5  O   UNL     1     149.051 160.594 153.054  1.00  0.00    -0.550 OA
ATOM      6  O   UNL     1     147.934 162.414 153.884  1.00  0.00    -0.550 OA
ENDBRANCH   3   4
ENDBRANCH   2   3
ENDBRANCH   1   2
BRANCH   1   7
ATOM      7  C   UNL     1     145.876 164.981 151.365  1.00  0.00     0.000 C 
BRANCH   7   8
ATOM      8  C   UNL     1     146.874 166.049 151.852  1.00  0.00    -0.000 C 
BRANCH   8   9
ATOM      9  C   UNL     1     147.190 165.965 153.361  1.00  0.00    -0.000 C 
BRANCH   9  10
ATOM     10  C   UNL     1     146.026 165.375 154.169  1.00  0.00    -0.003 C 
ATOM     11  C   UNL     1     146.155 165.714 155.651  1.00  0.00     0.004 C 
ENDBRANCH   9  10
ENDBRANCH   8   9
ENDBRANCH   7   8
ENDBRANCH   1   7
TORSDOF 7
ENDMDL
MODEL 3
REMARK VINA RESULT:    -2.546      2.150      4.013
REMARK INTER + INTRA:          -4.430
REMARK INTER:                  -3.731
REMARK INTRA:                  -0.700
REMARK UNBOUND:                -0.842
REMARK SMILES CCCCCCCCC(=O)[O-]
REMARK SMILES IDX 6 1 7 2 8 3 9 4 10 5 11 6 5 7 4 8 3 9 2 10 1 11
REMARK H PARENT
REMARK Flexibility Score: inf
ROOT
ATOM      1  C   UNL     1     147.409 164.613 151.930  1.00  0.00     0.000 C 
ENDROOT
BRANCH   1   2
ATOM      2  C   UNL     1     146.450 163.693 151.154  1.00  0.00     0.006 C 
BRANCH   2   3
ATOM      3  C   UNL     1     145.897 162.563 152.033  1.00  0.00     0.053 C 
BRANCH   3   4
ATOM      4  C   UNL     1     146.961 161.572 152.396  1.00  0.00     0.041 C 
ATOM      5  O   UNL     1     147.552 160.921 151.495  1.00  0.00    -0.550 OA
ATOM      6  O   UNL     1     147.273 161.341 153.729  1.00  0.00    -0.550 OA
ENDBRANCH   3   4
ENDBRANCH   2   3
ENDBRANCH   1   2
BRANCH   1   7
ATOM      7  C   UNL     1     146.693 165.814 152.571  1.00  0.00     0.000 C 
BRANCH   7   8
ATOM      8  C   UNL     1     147.163 166.161 153.997  1.00  0.00    -0.000 C 
BRANCH   8   9
ATOM      9  C   UNL     1     146.260 165.585 155.109  1.00  0.00    -0.000 C 
BRANCH   9  10
ATOM     10  C   UNL     1     146.782 164.246 155.649  1.00  0.00    -0.003 C 
ATOM     11  C   UNL     1     148.302 164.164 155.541  1.00  0.00     0.004 C 
ENDBRANCH   9  10
ENDBRANCH   8   9
ENDBRANCH   7   8
ENDBRANCH   1   7
TORSDOF 7
ENDMDL
MODEL 4
REMARK VINA RESULT:    -2.541      2.601      4.002
REMARK INTER + INTRA:          -4.423
REMARK INTER:                  -3.718
REMARK INTRA:                  -0.705
REMARK UNBOUND:                -0.842
REMARK SMILES CCCCCCCCC(=O)[O-]
REMARK SMILES IDX 6 1 7 2 8 3 9 4 10 5 11 6 5 7 4 8 3 9 2 10 1 11
REMARK H PARENT
REMARK Flexibility Score: inf
ROOT
ATOM      1  C   UNL     1     147.543 165.827 153.813  1.00  0.00     0.000 C 
ENDROOT
BRANCH   1   2
ATOM      2  C   UNL     1     146.719 165.950 152.519  1.00  0.00     0.006 C 
BRANCH   2   3
ATOM      3  C   UNL     1     145.876 164.697 152.250  1.00  0.00     0.053 C 
BRANCH   3   4
ATOM      4  C   UNL     1     146.299 164.004 150.991  1.00  0.00     0.041 C 
ATOM      5  O   UNL     1     146.473 162.757 150.982  1.00  0.00    -0.550 OA
ATOM      6  O   UNL     1     146.537 164.739 149.837  1.00  0.00    -0.550 OA
ENDBRANCH   3   4
ENDBRANCH   2   3
ENDBRANCH   1   2
BRANCH   1   7
ATOM      7  C   UNL     1     146.749 166.236 155.065  1.00  0.00     0.000 C 
BRANCH   7   8
ATOM      8  C   UNL     1     146.228 165.059 155.913  1.00  0.00    -0.000 C 
BRANCH   8   9
ATOM      9  C   UNL     1     147.148 163.819 155.889  1.00  0.00    -0.000 C 
BRANCH   9  10
ATOM     10  C   UNL     1     146.447 162.584 155.305  1.00  0.00    -0.003 C 
ATOM     11  C   UNL     1     147.352 161.852 154.318  1.00  0.00     0.004 C 
ENDBRANCH   9  10
ENDBRANCH   8   9
ENDBRANCH   7   8
ENDBRANCH   1   7
TORSDOF 7
ENDMDL
MODEL 5
REMARK VINA RESULT:    -2.483      1.482      2.869
REMARK INTER + INTRA:          -4.341
REMARK INTER:                  -3.586
REMARK INTRA:                  -0.756
REMARK UNBOUND:                -0.842
REMARK SMILES CCCCCCCCC(=O)[O-]
REMARK SMILES IDX 6 1 7 2 8 3 9 4 10 5 11 6 5 7 4 8 3 9 2 10 1 11
REMARK H PARENT
REMARK Flexibility Score: inf
ROOT
ATOM      1  C   UNL     1     148.306 163.127 154.676  1.00  0.00     0.000 C 
ENDROOT
BRANCH   1   2
ATOM      2  C   UNL     1     147.029 163.504 155.448  1.00  0.00     0.006 C 
BRANCH   2   3
ATOM      3  C   UNL     1     146.109 164.417 154.629  1.00  0.00     0.053 C 
BRANCH   3   4
ATOM      4  C   UNL     1     146.672 165.800 154.499  1.00  0.00     0.041 C 
ATOM      5  O   UNL     1     147.001 166.246 153.368  1.00  0.00    -0.550 OA
ATOM      6  O   UNL     1     146.868 166.581 155.630  1.00  0.00    -0.550 OA
ENDBRANCH   3   4
ENDBRANCH   2   3
ENDBRANCH   1   2
BRANCH   1   7
ATOM      7  C   UNL     1     148.259 161.698 154.109  1.00  0.00     0.000 C 
BRANCH   7   8
ATOM      8  C   UNL     1     148.373 161.609 152.574  1.00  0.00    -0.000 C 
BRANCH   8   9
ATOM      9  C   UNL     1     147.038 161.289 151.868  1.00  0.00    -0.000 C 
BRANCH   9  10
ATOM     10  C   UNL     1     146.294 162.557 151.426  1.00  0.00    -0.003 C 
ATOM     11  C   UNL     1     147.260 163.595 150.863  1.00  0.00     0.004 C 
ENDBRANCH   9  10
ENDBRANCH   8   9
ENDBRANCH   7   8
ENDBRANCH   1   7
TORSDOF 7
ENDMDL
MODEL 6
REMARK VINA RESULT:    -2.457     10.485     11.595
REMARK INTER + INTRA:          -4.305
REMARK INTER:                  -3.447
REMARK INTRA:                  -0.858
REMARK UNBOUND:                -0.842
REMARK SMILES CCCCCCCCC(=O)[O-]
REMARK SMILES IDX 6 1 7 2 8 3 9 4 10 5 11 6 5 7 4 8 3 9 2 10 1 11
REMARK H PARENT
REMARK Flexibility Score: inf
ROOT
ATOM      1  C   UNL     1     148.788 156.455 162.521  1.00  0.00     0.000 C 
ENDROOT
BRANCH   1   2
ATOM      2  C   UNL     1     147.427 156.209 163.195  1.00  0.00     0.006 C 
BRANCH   2   3
ATOM      3  C   UNL     1     146.254 156.530 162.260  1.00  0.00     0.053 C 
BRANCH   3   4
ATOM      4  C   UNL     1     146.312 157.943 161.764  1.00  0.00     0.041 C 
ATOM      5  O   UNL     1     146.124 158.902 162.558  1.00  0.00    -0.550 OA
ATOM      6  O   UNL     1     146.536 158.199 160.417  1.00  0.00    -0.550 OA
ENDBRANCH   3   4
ENDBRANCH   2   3
ENDBRANCH   1   2
BRANCH   1   7
ATOM      7  C   UNL     1     149.183 155.330 161.550  1.00  0.00     0.000 C 
BRANCH   7   8
ATOM      8  C   UNL     1     149.263 155.753 160.070  1.00  0.00    -0.000 C 
BRANCH   8   9
ATOM      9  C   UNL     1     148.094 155.229 159.208  1.00  0.00    -0.000 C 
BRANCH   9  10
ATOM     10  C   UNL     1     147.549 153.888 159.719  1.00  0.00    -0.003 C 
ATOM     11  C   UNL     1     146.023 153.876 159.715  1.00  0.00     0.004 C 
ENDBRANCH   9  10
ENDBRANCH   8   9
ENDBRANCH   7   8
ENDBRANCH   1   7
TORSDOF 7
ENDMDL
MODEL 7
REMARK VINA RESULT:    -2.398      1.554      2.491
REMARK INTER + INTRA:          -4.221
REMARK INTER:                  -3.574
REMARK INTRA:                  -0.646
REMARK UNBOUND:                -0.842
REMARK SMILES CCCCCCCCC(=O)[O-]
REMARK SMILES IDX 6 1 7 2 8 3 9 4 10 5 11 6 5 7 4 8 3 9 2 10 1 11
REMARK H PARENT
REMARK Flexibility Score: inf
ROOT
ATOM      1  C   UNL     1     147.243 165.921 153.818  1.00  0.00     0.000 C 
ENDROOT
BRANCH   1   2
ATOM      2  C   UNL     1     147.465 165.468 155.273  1.00  0.00     0.006 C 
BRANCH   2   3
ATOM      3  C   UNL     1     146.636 164.226 155.623  1.00  0.00     0.053 C 
BRANCH   3   4
ATOM      4  C   UNL     1     147.478 162.986 155.647  1.00  0.00     0.041 C 
ATOM      5  O   UNL     1     148.628 162.992 155.135  1.00  0.00    -0.550 OA
ATOM      6  O   UNL     1     146.977 161.815 156.202  1.00  0.00    -0.550 OA
ENDBRANCH   3   4
ENDBRANCH   2   3
ENDBRANCH   1   2
BRANCH   1   7
ATOM      7  C   UNL     1     145.887 165.466 153.254  1.00  0.00     0.000 C 
BRANCH   7   8
ATOM      8  C   UNL     1     145.934 164.938 151.807  1.00  0.00    -0.000 C 
BRANCH   8   9
ATOM      9  C   UNL     1     146.996 163.842 151.577  1.00  0.00    -0.000 C 
BRANCH   9  10
ATOM     10  C   UNL     1     146.381 162.438 151.509  1.00  0.00    -0.003 C 
ATOM     11  C   UNL     1     147.268 161.412 152.211  1.00  0.00     0.004 C 
ENDBRANCH   9  10
ENDBRANCH   8   9
ENDBRANCH   7   8
ENDBRANCH   1   7
TORSDOF 7
ENDMDL
MODEL 8
REMARK VINA RESULT:    -2.391      1.279      3.099
REMARK INTER + INTRA:          -4.211
REMARK INTER:                  -3.284
REMARK INTRA:                  -0.927
REMARK UNBOUND:                -0.842
REMARK SMILES CCCCCCCCC(=O)[O-]
REMARK SMILES IDX 6 1 7 2 8 3 9 4 10 5 11 6 5 7 4 8 3 9 2 10 1 11
REMARK H PARENT
REMARK Flexibility Score: inf
ROOT
ATOM      1  C   UNL     1     148.526 162.541 152.678  1.00  0.00     0.000 C 
ENDROOT
BRANCH   1   2
ATOM      2  C   UNL     1     148.452 162.450 154.212  1.00  0.00     0.006 C 
BRANCH   2   3
ATOM      3  C   UNL     1     148.121 163.802 154.855  1.00  0.00     0.053 C 
BRANCH   3   4
ATOM      4  C   UNL     1     146.661 163.921 155.176  1.00  0.00     0.041 C 
ATOM      5  O   UNL     1     145.908 162.917 155.077  1.00  0.00    -0.550 OA
ATOM      6  O   UNL     1     146.128 165.148 155.550  1.00  0.00    -0.550 OA
ENDBRANCH   3   4
ENDBRANCH   2   3
ENDBRANCH   1   2
BRANCH   1   7
ATOM      7  C   UNL     1     147.404 161.755 151.979  1.00  0.00     0.000 C 
BRANCH   7   8
ATOM      8  C   UNL     1     146.215 162.612 151.502  1.00  0.00    -0.000 C 
BRANCH   8   9
ATOM      9  C   UNL     1     146.628 163.982 150.922  1.00  0.00    -0.000 C 
BRANCH   9  10
ATOM     10  C   UNL     1     146.009 165.153 151.696  1.00  0.00    -0.003 C 
ATOM     11  C   UNL     1     147.074 166.164 152.112  1.00  0.00     0.004 C 
ENDBRANCH   9  10
ENDBRANCH   8   9
ENDBRANCH   7   8
ENDBRANCH   1   7
TORSDOF 7
ENDMDL
MODEL 9
REMARK VINA RESULT:    -2.353     10.522     11.504
REMARK INTER + INTRA:          -4.157
REMARK INTER:                  -3.325
REMARK INTRA:                  -0.833
REMARK UNBOUND:                -0.842
REMARK SMILES CCCCCCCCC(=O)[O-]
REMARK SMILES IDX 6 1 7 2 8 3 9 4 10 5 11 6 5 7 4 8 3 9 2 10 1 11
REMARK H PARENT
REMARK Flexibility Score: inf
ROOT
ATOM      1  C   UNL     1     146.238 154.597 160.553  1.00  0.00     0.000 C 
ENDROOT
BRANCH   1   2
ATOM      2  C   UNL     1     145.877 156.091 160.638  1.00  0.00     0.006 C 
BRANCH   2   3
ATOM      3  C   UNL     1     145.885 156.605 162.084  1.00  0.00     0.053 C 
BRANCH   3   4
ATOM      4  C   UNL     1     146.704 157.852 162.224  1.00  0.00     0.041 C 
ATOM      5  O   UNL     1     146.940 158.329 163.365  1.00  0.00    -0.550 OA
ATOM      6  O   UNL     1     147.173 158.508 161.093  1.00  0.00    -0.550 OA
ENDBRANCH   3   4
ENDBRANCH   2   3
ENDBRANCH   1   2
BRANCH   1   7
ATOM      7  C   UNL     1     147.529 154.341 159.757  1.00  0.00     0.000 C 
BRANCH   7   8
ATOM      8  C   UNL     1     148.277 155.614 159.313  1.00  0.00    -0.000 C 
BRANCH   8   9
ATOM      9  C   UNL     1     149.612 155.841 160.052  1.00  0.00    -0.000 C 
BRANCH   9  10
ATOM     10  C   UNL     1     149.760 154.934 161.281  1.00  0.00    -0.003 C 
ATOM     11  C   UNL     1     149.624 155.732 162.575  1.00  0.00     0.004 C 
ENDBRANCH   9  10
ENDBRANCH   8   9
ENDBRANCH   7   8
ENDBRANCH   1   7
TORSDOF 7
ENDMDL
