MODEL 1
REMARK VINA RESULT:    -4.150      0.000      0.000
REMARK INTER + INTRA:          -9.282
REMARK INTER:                  -7.546
REMARK INTRA:                  -1.736
REMARK UNBOUND:                -1.736
REMARK SMILES CCCCCCCCCCCCCC[C@@H](C)C(=O)[O-]
REMARK SMILES IDX 9 1 10 2 11 3 12 4 13 5 14 6 15 7 16 8 17 9 18 10 19 11 8 12
REMARK SMILES IDX 7 13 6 14 5 15 4 16 3 17 2 18 1 19
REMARK H PARENT
REMARK Flexibility Score: inf
ROOT
ATOM      1  C   UNL     1    -101.612  31.542 -33.467  1.00  0.00     0.000 C 
ENDROOT
BRANCH   1   2
ATOM      2  C   UNL     1    -102.992  30.892 -33.277  1.00  0.00     0.000 C 
BRANCH   2   3
ATOM      3  C   UNL     1    -103.955  31.204 -34.432  1.00  0.00     0.000 C 
BRANCH   3   4
ATOM      4  C   UNL     1    -103.183  31.578 -35.704  1.00  0.00     0.000 C 
BRANCH   4   5
ATOM      5  C   UNL     1    -103.632  30.717 -36.895  1.00  0.00     0.001 C 
BRANCH   5   6
ATOM      6  C   UNL     1    -103.361  31.407 -38.249  1.00  0.00     0.009 C 
BRANCH   6   7
ATOM      7  C   UNL     1    -104.638  31.664 -39.081  1.00  0.00     0.032 C 
ATOM      8  C   UNL     1    -105.329  30.365 -39.515  1.00  0.00     0.014 C 
BRANCH   7   9
ATOM      9  C   UNL     1    -105.600  32.504 -38.287  1.00  0.00     0.044 C 
ATOM     10  O   UNL     1    -105.282  33.672 -37.940  1.00  0.00    -0.550 OA
ATOM     11  O   UNL     1    -106.845  32.000 -37.931  1.00  0.00    -0.550 OA
ENDBRANCH   7   9
ENDBRANCH   6   7
ENDBRANCH   5   6
ENDBRANCH   4   5
ENDBRANCH   3   4
ENDBRANCH   2   3
ENDBRANCH   1   2
BRANCH   1  12
ATOM     12  C   UNL     1    -100.481  30.506 -33.589  1.00  0.00     0.000 C 
BRANCH  12  13
ATOM     13  C   UNL     1     -99.578  30.762 -34.807  1.00  0.00    -0.000 C 
BRANCH  13  14
ATOM     14  C   UNL     1     -99.980  29.916 -36.027  1.00  0.00    -0.000 C 
BRANCH  14  15
ATOM     15  C   UNL     1     -99.703  30.631 -37.359  1.00  0.00    -0.000 C 
BRANCH  15  16
ATOM     16  C   UNL     1     -99.788  32.160 -37.236  1.00  0.00    -0.000 C 
BRANCH  16  17
ATOM     17  C   UNL     1     -98.403  32.803 -37.410  1.00  0.00    -0.000 C 
BRANCH  17  18
ATOM     18  C   UNL     1     -98.210  33.418 -38.805  1.00  0.00    -0.003 C 
ATOM     19  C   UNL     1     -97.121  32.716 -39.617  1.00  0.00     0.004 C 
ENDBRANCH  17  18
ENDBRANCH  16  17
ENDBRANCH  15  16
ENDBRANCH  14  15
ENDBRANCH  13  14
ENDBRANCH  12  13
ENDBRANCH   1  12
TORSDOF 14
ENDMDL
MODEL 2
REMARK VINA RESULT:    -3.642      1.837      5.001
REMARK INTER + INTRA:          -8.360
REMARK INTER:                  -6.047
REMARK INTRA:                  -2.313
REMARK UNBOUND:                -1.736
REMARK SMILES CCCCCCCCCCCCCC[C@@H](C)C(=O)[O-]
REMARK SMILES IDX 9 1 10 2 11 3 12 4 13 5 14 6 15 7 16 8 17 9 18 10 19 11 8 12
REMARK SMILES IDX 7 13 6 14 5 15 4 16 3 17 2 18 1 19
REMARK H PARENT
REMARK Flexibility Score: inf
ROOT
ATOM      1  C   UNL     1    -100.149  31.951 -36.255  1.00  0.00     0.000 C 
ENDROOT
BRANCH   1   2
ATOM      2  C   UNL     1     -99.618  31.824 -37.692  1.00  0.00     0.000 C 
BRANCH   2   3
ATOM      3  C   UNL     1    -100.392  30.785 -38.517  1.00  0.00     0.000 C 
BRANCH   3   4
ATOM      4  C   UNL     1    -101.713  30.413 -37.831  1.00  0.00     0.000 C 
BRANCH   4   5
ATOM      5  C   UNL     1    -102.913  30.723 -38.738  1.00  0.00     0.001 C 
BRANCH   5   6
ATOM      6  C   UNL     1    -103.874  31.754 -38.105  1.00  0.00     0.009 C 
BRANCH   6   7
ATOM      7  C   UNL     1    -103.954  31.661 -36.564  1.00  0.00     0.032 C 
ATOM      8  C   UNL     1    -103.830  33.031 -35.885  1.00  0.00     0.014 C 
BRANCH   7   9
ATOM      9  C   UNL     1    -105.253  31.017 -36.161  1.00  0.00     0.044 C 
ATOM     10  O   UNL     1    -105.767  31.277 -35.042  1.00  0.00    -0.550 OA
ATOM     11  O   UNL     1    -105.893  30.132 -37.021  1.00  0.00    -0.550 OA
ENDBRANCH   7   9
ENDBRANCH   6   7
ENDBRANCH   5   6
ENDBRANCH   4   5
ENDBRANCH   3   4
ENDBRANCH   2   3
ENDBRANCH   1   2
BRANCH   1  12
ATOM     12  C   UNL     1     -99.188  31.354 -35.212  1.00  0.00     0.000 C 
BRANCH  12  13
ATOM     13  C   UNL     1     -99.916  30.501 -34.161  1.00  0.00    -0.000 C 
BRANCH  13  14
ATOM     14  C   UNL     1    -101.205  31.168 -33.652  1.00  0.00    -0.000 C 
BRANCH  14  15
ATOM     15  C   UNL     1    -102.365  30.171 -33.495  1.00  0.00    -0.000 C 
BRANCH  15  16
ATOM     16  C   UNL     1    -103.416  30.645 -32.481  1.00  0.00    -0.000 C 
BRANCH  16  17
ATOM     17  C   UNL     1    -103.456  32.180 -32.407  1.00  0.00    -0.000 C 
BRANCH  17  18
ATOM     18  C   UNL     1    -104.776  32.709 -31.827  1.00  0.00    -0.003 C 
ATOM     19  C   UNL     1    -105.363  33.860 -32.644  1.00  0.00     0.004 C 
ENDBRANCH  17  18
ENDBRANCH  16  17
ENDBRANCH  15  16
ENDBRANCH  14  15
ENDBRANCH  13  14
ENDBRANCH  12  13
ENDBRANCH   1  12
TORSDOF 14
ENDMDL
MODEL 3
REMARK VINA RESULT:    -3.615      1.879      2.783
REMARK INTER + INTRA:          -8.309
REMARK INTER:                  -6.966
REMARK INTRA:                  -1.343
REMARK UNBOUND:                -1.736
REMARK SMILES CCCCCCCCCCCCCC[C@@H](C)C(=O)[O-]
REMARK SMILES IDX 9 1 10 2 11 3 12 4 13 5 14 6 15 7 16 8 17 9 18 10 19 11 8 12
REMARK SMILES IDX 7 13 6 14 5 15 4 16 3 17 2 18 1 19
REMARK H PARENT
REMARK Flexibility Score: inf
ROOT
ATOM      1  C   UNL     1    -102.375  32.718 -35.109  1.00  0.00     0.000 C 
ENDROOT
BRANCH   1   2
ATOM      2  C   UNL     1    -103.799  32.702 -35.688  1.00  0.00     0.000 C 
BRANCH   2   3
ATOM      3  C   UNL     1    -104.010  31.569 -36.703  1.00  0.00     0.000 C 
BRANCH   3   4
ATOM      4  C   UNL     1    -104.337  32.131 -38.092  1.00  0.00     0.000 C 
BRANCH   4   5
ATOM      5  C   UNL     1    -105.476  33.160 -38.018  1.00  0.00     0.001 C 
BRANCH   5   6
ATOM      6  C   UNL     1    -106.868  32.491 -38.004  1.00  0.00     0.009 C 
BRANCH   6   7
ATOM      7  C   UNL     1    -107.762  32.944 -36.827  1.00  0.00     0.032 C 
ATOM      8  C   UNL     1    -109.060  33.611 -37.298  1.00  0.00     0.014 C 
BRANCH   7   9
ATOM      9  C   UNL     1    -108.090  31.764 -35.954  1.00  0.00     0.044 C 
ATOM     10  O   UNL     1    -107.196  30.927 -35.661  1.00  0.00    -0.550 OA
ATOM     11  O   UNL     1    -109.379  31.588 -35.466  1.00  0.00    -0.550 OA
ENDBRANCH   7   9
ENDBRANCH   6   7
ENDBRANCH   5   6
ENDBRANCH   4   5
ENDBRANCH   3   4
ENDBRANCH   2   3
ENDBRANCH   1   2
BRANCH   1  12
ATOM     12  C   UNL     1    -101.845  31.307 -34.800  1.00  0.00     0.000 C 
BRANCH  12  13
ATOM     13  C   UNL     1    -100.312  31.224 -34.883  1.00  0.00    -0.000 C 
BRANCH  13  14
ATOM     14  C   UNL     1     -99.832  30.272 -35.992  1.00  0.00    -0.000 C 
BRANCH  14  15
ATOM     15  C   UNL     1    -100.445  30.604 -37.362  1.00  0.00    -0.000 C 
BRANCH  15  16
ATOM     16  C   UNL     1     -99.462  31.344 -38.283  1.00  0.00    -0.000 C 
BRANCH  16  17
ATOM     17  C   UNL     1     -99.125  32.734 -37.722  1.00  0.00    -0.000 C 
BRANCH  17  18
ATOM     18  C   UNL     1     -97.700  33.185 -38.078  1.00  0.00    -0.003 C 
ATOM     19  C   UNL     1     -97.294  32.797 -39.499  1.00  0.00     0.004 C 
ENDBRANCH  17  18
ENDBRANCH  16  17
ENDBRANCH  15  16
ENDBRANCH  14  15
ENDBRANCH  13  14
ENDBRANCH  12  13
ENDBRANCH   1  12
TORSDOF 14
ENDMDL
MODEL 4
REMARK VINA RESULT:    -3.542     14.129     16.164
REMARK INTER + INTRA:          -8.176
REMARK INTER:                  -6.444
REMARK INTRA:                  -1.733
REMARK UNBOUND:                -1.736
REMARK SMILES CCCCCCCCCCCCCC[C@@H](C)C(=O)[O-]
REMARK SMILES IDX 9 1 10 2 11 3 12 4 13 5 14 6 15 7 16 8 17 9 18 10 19 11 8 12
REMARK SMILES IDX 7 13 6 14 5 15 4 16 3 17 2 18 1 19
REMARK H PARENT
REMARK Flexibility Score: inf
ROOT
ATOM      1  C   UNL     1    -100.145  38.070 -48.584  1.00  0.00     0.000 C 
ENDROOT
BRANCH   1   2
ATOM      2  C   UNL     1     -98.636  37.920 -48.839  1.00  0.00     0.000 C 
BRANCH   2   3
ATOM      3  C   UNL     1     -97.995  39.213 -49.365  1.00  0.00     0.000 C 
BRANCH   3   4
ATOM      4  C   UNL     1     -99.069  40.233 -49.766  1.00  0.00     0.000 C 
BRANCH   4   5
ATOM      5  C   UNL     1     -98.502  41.661 -49.766  1.00  0.00     0.001 C 
BRANCH   5   6
ATOM      6  C   UNL     1     -97.359  41.837 -48.742  1.00  0.00     0.009 C 
BRANCH   6   7
ATOM      7  C   UNL     1     -97.300  43.249 -48.115  1.00  0.00     0.032 C 
ATOM      8  C   UNL     1     -98.657  43.704 -47.565  1.00  0.00     0.014 C 
BRANCH   7   9
ATOM      9  C   UNL     1     -96.277  43.272 -47.013  1.00  0.00     0.044 C 
ATOM     10  O   UNL     1     -96.641  43.210 -45.810  1.00  0.00    -0.550 OA
ATOM     11  O   UNL     1     -94.923  43.361 -47.314  1.00  0.00    -0.550 OA
ENDBRANCH   7   9
ENDBRANCH   6   7
ENDBRANCH   5   6
ENDBRANCH   4   5
ENDBRANCH   3   4
ENDBRANCH   2   3
ENDBRANCH   1   2
BRANCH   1  12
ATOM     12  C   UNL     1    -100.947  36.838 -49.040  1.00  0.00     0.000 C 
BRANCH  12  13
ATOM     13  C   UNL     1    -102.245  37.220 -49.769  1.00  0.00    -0.000 C 
BRANCH  13  14
ATOM     14  C   UNL     1    -102.498  38.737 -49.768  1.00  0.00    -0.000 C 
BRANCH  14  15
ATOM     15  C   UNL     1    -103.765  39.125 -48.990  1.00  0.00    -0.000 C 
BRANCH  15  16
ATOM     16  C   UNL     1    -103.663  40.521 -48.356  1.00  0.00    -0.000 C 
BRANCH  16  17
ATOM     17  C   UNL     1    -102.216  41.036 -48.394  1.00  0.00    -0.000 C 
BRANCH  17  18
ATOM     18  C   UNL     1    -102.003  42.265 -47.496  1.00  0.00    -0.003 C 
ATOM     19  C   UNL     1    -102.089  41.931 -46.007  1.00  0.00     0.004 C 
ENDBRANCH  17  18
ENDBRANCH  16  17
ENDBRANCH  15  16
ENDBRANCH  14  15
ENDBRANCH  13  14
ENDBRANCH  12  13
ENDBRANCH   1  12
TORSDOF 14
ENDMDL
MODEL 5
REMARK VINA RESULT:    -3.524      1.492      4.422
REMARK INTER + INTRA:          -8.144
REMARK INTER:                  -6.148
REMARK INTRA:                  -1.996
REMARK UNBOUND:                -1.736
REMARK SMILES CCCCCCCCCCCCCC[C@@H](C)C(=O)[O-]
REMARK SMILES IDX 9 1 10 2 11 3 12 4 13 5 14 6 15 7 16 8 17 9 18 10 19 11 8 12
REMARK SMILES IDX 7 13 6 14 5 15 4 16 3 17 2 18 1 19
REMARK H PARENT
REMARK Flexibility Score: inf
ROOT
ATOM      1  C   UNL     1     -99.904  31.670 -35.821  1.00  0.00     0.000 C 
ENDROOT
BRANCH   1   2
ATOM      2  C   UNL     1     -99.685  31.373 -37.314  1.00  0.00     0.000 C 
BRANCH   2   3
ATOM      3  C   UNL     1    -100.981  30.969 -38.032  1.00  0.00     0.000 C 
BRANCH   3   4
ATOM      4  C   UNL     1    -102.212  31.398 -37.224  1.00  0.00     0.000 C 
BRANCH   4   5
ATOM      5  C   UNL     1    -103.484  30.719 -37.753  1.00  0.00     0.001 C 
BRANCH   5   6
ATOM      6  C   UNL     1    -104.259  31.618 -38.741  1.00  0.00     0.009 C 
BRANCH   6   7
ATOM      7  C   UNL     1    -105.789  31.613 -38.516  1.00  0.00     0.032 C 
ATOM      8  C   UNL     1    -106.231  30.543 -37.510  1.00  0.00     0.014 C 
BRANCH   7   9
ATOM      9  C   UNL     1    -106.235  32.967 -38.038  1.00  0.00     0.044 C 
ATOM     10  O   UNL     1    -107.427  33.148 -37.675  1.00  0.00    -0.550 OA
ATOM     11  O   UNL     1    -105.338  34.028 -37.995  1.00  0.00    -0.550 OA
ENDBRANCH   7   9
ENDBRANCH   6   7
ENDBRANCH   5   6
ENDBRANCH   4   5
ENDBRANCH   3   4
ENDBRANCH   2   3
ENDBRANCH   1   2
BRANCH   1  12
ATOM     12  C   UNL     1     -99.062  30.763 -34.907  1.00  0.00     0.000 C 
BRANCH  12  13
ATOM     13  C   UNL     1     -99.853  30.258 -33.690  1.00  0.00    -0.000 C 
BRANCH  13  14
ATOM     14  C   UNL     1    -101.374  30.378 -33.884  1.00  0.00    -0.000 C 
BRANCH  14  15
ATOM     15  C   UNL     1    -101.986  31.528 -33.068  1.00  0.00    -0.000 C 
BRANCH  15  16
ATOM     16  C   UNL     1    -103.470  31.297 -32.745  1.00  0.00    -0.000 C 
BRANCH  16  17
ATOM     17  C   UNL     1    -104.294  31.141 -34.032  1.00  0.00    -0.000 C 
BRANCH  17  18
ATOM     18  C   UNL     1    -104.714  32.493 -34.632  1.00  0.00    -0.003 C 
ATOM     19  C   UNL     1    -106.186  32.820 -34.380  1.00  0.00     0.004 C 
ENDBRANCH  17  18
ENDBRANCH  16  17
ENDBRANCH  15  16
ENDBRANCH  14  15
ENDBRANCH  13  14
ENDBRANCH  12  13
ENDBRANCH   1  12
TORSDOF 14
ENDMDL
MODEL 6
REMARK VINA RESULT:    -3.454      2.505      4.747
REMARK INTER + INTRA:          -8.017
REMARK INTER:                  -6.113
REMARK INTRA:                  -1.904
REMARK UNBOUND:                -1.736
REMARK SMILES CCCCCCCCCCCCCC[C@@H](C)C(=O)[O-]
REMARK SMILES IDX 9 1 10 2 11 3 12 4 13 5 14 6 15 7 16 8 17 9 18 10 19 11 8 12
REMARK SMILES IDX 7 13 6 14 5 15 4 16 3 17 2 18 1 19
REMARK H PARENT
REMARK Flexibility Score: inf
ROOT
ATOM      1  C   UNL     1    -105.080  32.769 -38.149  1.00  0.00     0.000 C 
ENDROOT
BRANCH   1   2
ATOM      2  C   UNL     1    -106.548  32.959 -37.731  1.00  0.00     0.000 C 
BRANCH   2   3
ATOM      3  C   UNL     1    -107.177  31.671 -37.180  1.00  0.00     0.000 C 
BRANCH   3   4
ATOM      4  C   UNL     1    -106.458  31.212 -35.905  1.00  0.00     0.000 C 
BRANCH   4   5
ATOM      5  C   UNL     1    -106.873  32.068 -34.698  1.00  0.00     0.001 C 
BRANCH   5   6
ATOM      6  C   UNL     1    -105.700  32.906 -34.145  1.00  0.00     0.009 C 
BRANCH   6   7
ATOM      7  C   UNL     1    -104.311  32.284 -34.418  1.00  0.00     0.032 C 
ATOM      8  C   UNL     1    -103.351  33.268 -35.099  1.00  0.00     0.014 C 
BRANCH   7   9
ATOM      9  C   UNL     1    -103.708  31.804 -33.127  1.00  0.00     0.044 C 
ATOM     10  O   UNL     1    -104.276  32.053 -32.032  1.00  0.00    -0.550 OA
ATOM     11  O   UNL     1    -102.519  31.082 -33.133  1.00  0.00    -0.550 OA
ENDBRANCH   7   9
ENDBRANCH   6   7
ENDBRANCH   5   6
ENDBRANCH   4   5
ENDBRANCH   3   4
ENDBRANCH   2   3
ENDBRANCH   1   2
BRANCH   1  12
ATOM     12  C   UNL     1    -104.900  31.639 -39.178  1.00  0.00     0.000 C 
BRANCH  12  13
ATOM     13  C   UNL     1    -103.595  30.855 -38.968  1.00  0.00    -0.000 C 
BRANCH  13  14
ATOM     14  C   UNL     1    -102.832  31.306 -37.711  1.00  0.00    -0.000 C 
BRANCH  14  15
ATOM     15  C   UNL     1    -102.090  30.149 -37.023  1.00  0.00    -0.000 C 
BRANCH  15  16
ATOM     16  C   UNL     1    -100.605  30.463 -36.781  1.00  0.00    -0.000 C 
BRANCH  16  17
ATOM     17  C   UNL     1    -100.252  31.870 -37.288  1.00  0.00    -0.000 C 
BRANCH  17  18
ATOM     18  C   UNL     1     -99.124  31.855 -38.332  1.00  0.00    -0.003 C 
ATOM     19  C   UNL     1     -98.315  33.152 -38.348  1.00  0.00     0.004 C 
ENDBRANCH  17  18
ENDBRANCH  16  17
ENDBRANCH  15  16
ENDBRANCH  14  15
ENDBRANCH  13  14
ENDBRANCH  12  13
ENDBRANCH   1  12
TORSDOF 14
ENDMDL
MODEL 7
REMARK VINA RESULT:    -3.368     13.148     15.757
REMARK INTER + INTRA:          -7.861
REMARK INTER:                  -5.576
REMARK INTRA:                  -2.285
REMARK UNBOUND:                -1.736
REMARK SMILES CCCCCCCCCCCCCC[C@@H](C)C(=O)[O-]
REMARK SMILES IDX 9 1 10 2 11 3 12 4 13 5 14 6 15 7 16 8 17 9 18 10 19 11 8 12
REMARK SMILES IDX 7 13 6 14 5 15 4 16 3 17 2 18 1 19
REMARK H PARENT
REMARK Flexibility Score: inf
ROOT
ATOM      1  C   UNL     1    -109.602  45.801 -40.017  1.00  0.00     0.000 C 
ENDROOT
BRANCH   1   2
ATOM      2  C   UNL     1    -108.118  45.474 -40.253  1.00  0.00     0.000 C 
BRANCH   2   3
ATOM      3  C   UNL     1    -107.792  43.995 -39.997  1.00  0.00     0.000 C 
BRANCH   3   4
ATOM      4  C   UNL     1    -107.420  43.281 -41.303  1.00  0.00     0.000 C 
BRANCH   4   5
ATOM      5  C   UNL     1    -108.517  42.291 -41.723  1.00  0.00     0.001 C 
BRANCH   5   6
ATOM      6  C   UNL     1    -109.141  41.562 -40.513  1.00  0.00     0.009 C 
BRANCH   6   7
ATOM      7  C   UNL     1    -110.683  41.661 -40.457  1.00  0.00     0.032 C 
ATOM      8  C   UNL     1    -111.253  42.571 -41.553  1.00  0.00     0.014 C 
BRANCH   7   9
ATOM      9  C   UNL     1    -111.284  40.288 -40.580  1.00  0.00     0.044 C 
ATOM     10  O   UNL     1    -111.101  39.435 -39.673  1.00  0.00    -0.550 OA
ATOM     11  O   UNL     1    -112.046  39.952 -41.693  1.00  0.00    -0.550 OA
ENDBRANCH   7   9
ENDBRANCH   6   7
ENDBRANCH   5   6
ENDBRANCH   4   5
ENDBRANCH   3   4
ENDBRANCH   2   3
ENDBRANCH   1   2
BRANCH   1  12
ATOM     12  C   UNL     1    -110.341  46.170 -41.315  1.00  0.00     0.000 C 
BRANCH  12  13
ATOM     13  C   UNL     1    -109.427  46.110 -42.549  1.00  0.00    -0.000 C 
BRANCH  13  14
ATOM     14  C   UNL     1    -110.023  45.257 -43.683  1.00  0.00    -0.000 C 
BRANCH  14  15
ATOM     15  C   UNL     1    -108.997  44.934 -44.781  1.00  0.00    -0.000 C 
BRANCH  15  16
ATOM     16  C   UNL     1    -109.117  43.490 -45.293  1.00  0.00    -0.000 C 
BRANCH  16  17
ATOM     17  C   UNL     1    -109.164  43.454 -46.828  1.00  0.00    -0.000 C 
BRANCH  17  18
ATOM     18  C   UNL     1    -110.567  43.138 -47.369  1.00  0.00    -0.003 C 
ATOM     19  C   UNL     1    -111.489  42.537 -46.308  1.00  0.00     0.004 C 
ENDBRANCH  17  18
ENDBRANCH  16  17
ENDBRANCH  15  16
ENDBRANCH  14  15
ENDBRANCH  13  14
ENDBRANCH  12  13
ENDBRANCH   1  12
TORSDOF 14
ENDMDL
MODEL 8
REMARK VINA RESULT:    -3.359     14.088     17.030
REMARK INTER + INTRA:          -7.845
REMARK INTER:                  -5.750
REMARK INTRA:                  -2.095
REMARK UNBOUND:                -1.736
REMARK SMILES CCCCCCCCCCCCCC[C@@H](C)C(=O)[O-]
REMARK SMILES IDX 9 1 10 2 11 3 12 4 13 5 14 6 15 7 16 8 17 9 18 10 19 11 8 12
REMARK SMILES IDX 7 13 6 14 5 15 4 16 3 17 2 18 1 19
REMARK H PARENT
REMARK Flexibility Score: inf
ROOT
ATOM      1  C   UNL     1    -107.618  48.624 -43.596  1.00  0.00     0.000 C 
ENDROOT
BRANCH   1   2
ATOM      2  C   UNL     1    -108.179  48.608 -42.165  1.00  0.00     0.000 C 
BRANCH   2   3
ATOM      3  C   UNL     1    -107.370  47.702 -41.225  1.00  0.00     0.000 C 
BRANCH   3   4
ATOM      4  C   UNL     1    -108.298  46.911 -40.293  1.00  0.00     0.000 C 
BRANCH   4   5
ATOM      5  C   UNL     1    -108.006  45.405 -40.373  1.00  0.00     0.001 C 
BRANCH   5   6
ATOM      6  C   UNL     1    -109.286  44.573 -40.606  1.00  0.00     0.009 C 
BRANCH   6   7
ATOM      7  C   UNL     1    -109.015  43.167 -41.187  1.00  0.00     0.032 C 
ATOM      8  C   UNL     1    -107.579  43.011 -41.703  1.00  0.00     0.014 C 
BRANCH   7   9
ATOM      9  C   UNL     1    -109.289  42.123 -40.139  1.00  0.00     0.044 C 
ATOM     10  O   UNL     1    -109.473  40.924 -40.474  1.00  0.00    -0.550 OA
ATOM     11  O   UNL     1    -109.340  42.474 -38.795  1.00  0.00    -0.550 OA
ENDBRANCH   7   9
ENDBRANCH   6   7
ENDBRANCH   5   6
ENDBRANCH   4   5
ENDBRANCH   3   4
ENDBRANCH   2   3
ENDBRANCH   1   2
BRANCH   1  12
ATOM     12  C   UNL     1    -108.359  47.655 -44.535  1.00  0.00     0.000 C 
BRANCH  12  13
ATOM     13  C   UNL     1    -109.793  47.365 -44.066  1.00  0.00    -0.000 C 
BRANCH  13  14
ATOM     14  C   UNL     1    -110.043  45.866 -43.826  1.00  0.00    -0.000 C 
BRANCH  14  15
ATOM     15  C   UNL     1    -108.976  44.976 -44.483  1.00  0.00    -0.000 C 
BRANCH  15  16
ATOM     16  C   UNL     1    -109.518  43.589 -44.863  1.00  0.00    -0.000 C 
BRANCH  16  17
ATOM     17  C   UNL     1    -109.424  43.361 -46.380  1.00  0.00    -0.000 C 
BRANCH  17  18
ATOM     18  C   UNL     1    -108.849  44.576 -47.126  1.00  0.00    -0.003 C 
ATOM     19  C   UNL     1    -108.807  44.375 -48.640  1.00  0.00     0.004 C 
ENDBRANCH  17  18
ENDBRANCH  16  17
ENDBRANCH  15  16
ENDBRANCH  14  15
ENDBRANCH  13  14
ENDBRANCH  12  13
ENDBRANCH   1  12
TORSDOF 14
ENDMDL
MODEL 9
REMARK VINA RESULT:    -3.350      2.435      4.665
REMARK INTER + INTRA:          -7.829
REMARK INTER:                  -5.649
REMARK INTRA:                  -2.180
REMARK UNBOUND:                -1.736
REMARK SMILES CCCCCCCCCCCCCC[C@@H](C)C(=O)[O-]
REMARK SMILES IDX 9 1 10 2 11 3 12 4 13 5 14 6 15 7 16 8 17 9 18 10 19 11 8 12
REMARK SMILES IDX 7 13 6 14 5 15 4 16 3 17 2 18 1 19
REMARK H PARENT
REMARK Flexibility Score: inf
ROOT
ATOM      1  C   UNL     1    -103.493  31.653 -38.787  1.00  0.00     0.000 C 
ENDROOT
BRANCH   1   2
ATOM      2  C   UNL     1    -105.018  31.648 -38.597  1.00  0.00     0.000 C 
BRANCH   2   3
ATOM      3  C   UNL     1    -105.537  32.942 -37.953  1.00  0.00     0.000 C 
BRANCH   3   4
ATOM      4  C   UNL     1    -107.024  32.819 -37.596  1.00  0.00     0.000 C 
BRANCH   4   5
ATOM      5  C   UNL     1    -107.232  32.862 -36.074  1.00  0.00     0.001 C 
BRANCH   5   6
ATOM      6  C   UNL     1    -105.916  32.638 -35.298  1.00  0.00     0.009 C 
BRANCH   6   7
ATOM      7  C   UNL     1    -105.899  31.334 -34.467  1.00  0.00     0.032 C 
ATOM      8  C   UNL     1    -105.096  30.217 -35.145  1.00  0.00     0.014 C 
BRANCH   7   9
ATOM      9  C   UNL     1    -105.329  31.609 -33.103  1.00  0.00     0.044 C 
ATOM     10  O   UNL     1    -104.254  31.060 -32.745  1.00  0.00    -0.550 OA
ATOM     11  O   UNL     1    -105.982  32.469 -32.229  1.00  0.00    -0.550 OA
ENDBRANCH   7   9
ENDBRANCH   6   7
ENDBRANCH   5   6
ENDBRANCH   4   5
ENDBRANCH   3   4
ENDBRANCH   2   3
ENDBRANCH   1   2
BRANCH   1  12
ATOM     12  C   UNL     1    -102.850  30.295 -38.451  1.00  0.00     0.000 C 
BRANCH  12  13
ATOM     13  C   UNL     1    -101.496  30.097 -39.149  1.00  0.00    -0.000 C 
BRANCH  13  14
ATOM     14  C   UNL     1    -100.311  30.171 -38.171  1.00  0.00    -0.000 C 
BRANCH  14  15
ATOM     15  C   UNL     1     -99.658  31.562 -38.137  1.00  0.00    -0.000 C 
BRANCH  15  16
ATOM     16  C   UNL     1     -99.534  32.120 -36.711  1.00  0.00    -0.000 C 
BRANCH  16  17
ATOM     17  C   UNL     1     -99.973  31.076 -35.673  1.00  0.00    -0.000 C 
BRANCH  17  18
ATOM     18  C   UNL     1    -101.083  31.595 -34.746  1.00  0.00    -0.003 C 
ATOM     19  C   UNL     1    -102.122  32.441 -35.483  1.00  0.00     0.004 C 
ENDBRANCH  17  18
ENDBRANCH  16  17
ENDBRANCH  15  16
ENDBRANCH  14  15
ENDBRANCH  13  14
ENDBRANCH  12  13
ENDBRANCH   1  12
TORSDOF 14
ENDMDL
