MODEL 1
REMARK VINA RESULT:    -4.712      0.000      0.000
REMARK INTER + INTRA:         -11.298
REMARK INTER:                  -8.844
REMARK INTRA:                  -2.454
REMARK UNBOUND:                -2.454
REMARK SMILES CCCCCCCCC=CCCCCCCCC(=O)[O-]
REMARK SMILES IDX 10 1 9 2 11 3 12 4 13 5 14 6 15 7 16 8 17 9 18 10 19 11
REMARK SMILES IDX 20 12 8 13 7 14 6 15 5 16 4 17 3 18 2 19 1 20
REMARK H PARENT
REMARK Flexibility Score: inf
ROOT
ATOM      1  C   UNL     1     -23.176  19.503 -22.445  1.00  0.00    -0.031 C 
ATOM      2  C   UNL     1     -23.523  18.210 -22.543  1.00  0.00    -0.031 C 
ENDROOT
BRANCH   1   3
ATOM      3  C   UNL     1     -22.805  20.121 -21.125  1.00  0.00     0.027 C 
BRANCH   3   4
ATOM      4  C   UNL     1     -23.369  21.544 -21.003  1.00  0.00     0.004 C 
BRANCH   4   5
ATOM      5  C   UNL     1     -24.170  21.970 -22.244  1.00  0.00     0.000 C 
BRANCH   5   6
ATOM      6  C   UNL     1     -23.660  23.290 -22.849  1.00  0.00     0.000 C 
BRANCH   6   7
ATOM      7  C   UNL     1     -23.685  23.282 -24.386  1.00  0.00     0.000 C 
BRANCH   7   8
ATOM      8  C   UNL     1     -22.976  22.053 -24.982  1.00  0.00     0.006 C 
BRANCH   8   9
ATOM      9  C   UNL     1     -21.449  22.155 -24.869  1.00  0.00     0.053 C 
BRANCH   9  10
ATOM     10  C   UNL     1     -20.940  23.457 -25.405  1.00  0.00     0.041 C 
ATOM     11  O   UNL     1     -20.371  24.280 -24.641  1.00  0.00    -0.550 OA
ATOM     12  O   UNL     1     -21.123  23.776 -26.746  1.00  0.00    -0.550 OA
ENDBRANCH   9  10
ENDBRANCH   8   9
ENDBRANCH   7   8
ENDBRANCH   6   7
ENDBRANCH   5   6
ENDBRANCH   4   5
ENDBRANCH   3   4
ENDBRANCH   1   3
BRANCH   2  13
ATOM     13  C   UNL     1     -23.892  17.592 -23.863  1.00  0.00     0.027 C 
BRANCH  13  14
ATOM     14  C   UNL     1     -23.215  18.330 -25.028  1.00  0.00     0.004 C 
BRANCH  14  15
ATOM     15  C   UNL     1     -21.949  17.615 -25.525  1.00  0.00     0.000 C 
BRANCH  15  16
ATOM     16  C   UNL     1     -20.660  18.254 -24.981  1.00  0.00     0.000 C 
BRANCH  16  17
ATOM     17  C   UNL     1     -19.944  17.367 -23.945  1.00  0.00    -0.000 C 
BRANCH  17  18
ATOM     18  C   UNL     1     -20.604  15.998 -23.684  1.00  0.00    -0.000 C 
BRANCH  18  19
ATOM     19  C   UNL     1     -20.913  15.696 -22.207  1.00  0.00    -0.003 C 
ATOM     20  C   UNL     1     -20.148  14.484 -21.675  1.00  0.00     0.004 C 
ENDBRANCH  18  19
ENDBRANCH  17  18
ENDBRANCH  16  17
ENDBRANCH  15  16
ENDBRANCH  14  15
ENDBRANCH  13  14
ENDBRANCH   2  13
TORSDOF 15
ENDMDL
MODEL 2
REMARK VINA RESULT:    -4.708      1.910      3.481
REMARK INTER + INTRA:         -11.290
REMARK INTER:                  -9.063
REMARK INTRA:                  -2.227
REMARK UNBOUND:                -2.454
REMARK SMILES CCCCCCCCC=CCCCCCCCC(=O)[O-]
REMARK SMILES IDX 10 1 9 2 11 3 12 4 13 5 14 6 15 7 16 8 17 9 18 10 19 11
REMARK SMILES IDX 20 12 8 13 7 14 6 15 5 16 4 17 3 18 2 19 1 20
REMARK H PARENT
REMARK Flexibility Score: inf
ROOT
ATOM      1  C   UNL     1     -22.963  22.305 -23.705  1.00  0.00    -0.031 C 
ATOM      2  C   UNL     1     -22.799  21.481 -24.752  1.00  0.00    -0.031 C 
ENDROOT
BRANCH   1   3
ATOM      3  C   UNL     1     -24.325  22.779 -23.281  1.00  0.00     0.027 C 
BRANCH   3   4
ATOM      4  C   UNL     1     -24.894  23.795 -24.283  1.00  0.00     0.004 C 
BRANCH   4   5
ATOM      5  C   UNL     1     -24.084  25.100 -24.323  1.00  0.00     0.000 C 
BRANCH   5   6
ATOM      6  C   UNL     1     -23.762  25.550 -25.760  1.00  0.00     0.000 C 
BRANCH   6   7
ATOM      7  C   UNL     1     -22.254  25.720 -25.999  1.00  0.00     0.000 C 
BRANCH   7   8
ATOM      8  C   UNL     1     -21.568  24.406 -26.413  1.00  0.00     0.006 C 
BRANCH   8   9
ATOM      9  C   UNL     1     -20.042  24.483 -26.282  1.00  0.00     0.053 C 
BRANCH   9  10
ATOM     10  C   UNL     1     -19.396  24.896 -27.569  1.00  0.00     0.041 C 
ATOM     11  O   UNL     1     -18.873  24.033 -28.322  1.00  0.00    -0.550 OA
ATOM     12  O   UNL     1     -19.343  26.239 -27.921  1.00  0.00    -0.550 OA
ENDBRANCH   9  10
ENDBRANCH   8   9
ENDBRANCH   7   8
ENDBRANCH   6   7
ENDBRANCH   5   6
ENDBRANCH   4   5
ENDBRANCH   3   4
ENDBRANCH   1   3
BRANCH   2  13
ATOM     13  C   UNL     1     -21.436  21.007 -25.175  1.00  0.00     0.027 C 
BRANCH  13  14
ATOM     14  C   UNL     1     -21.503  19.591 -25.767  1.00  0.00     0.004 C 
BRANCH  14  15
ATOM     15  C   UNL     1     -20.562  18.606 -25.054  1.00  0.00     0.000 C 
BRANCH  15  16
ATOM     16  C   UNL     1     -21.322  17.458 -24.370  1.00  0.00     0.000 C 
BRANCH  16  17
ATOM     17  C   UNL     1     -22.847  17.549 -24.563  1.00  0.00    -0.000 C 
BRANCH  17  18
ATOM     18  C   UNL     1     -23.651  17.890 -23.292  1.00  0.00    -0.000 C 
BRANCH  18  19
ATOM     19  C   UNL     1     -22.812  18.028 -22.010  1.00  0.00    -0.003 C 
ATOM     20  C   UNL     1     -22.785  19.458 -21.467  1.00  0.00     0.004 C 
ENDBRANCH  18  19
ENDBRANCH  17  18
ENDBRANCH  16  17
ENDBRANCH  15  16
ENDBRANCH  14  15
ENDBRANCH  13  14
ENDBRANCH   2  13
TORSDOF 15
ENDMDL
MODEL 3
REMARK VINA RESULT:    -4.663      3.260      5.659
REMARK INTER + INTRA:         -11.207
REMARK INTER:                  -9.092
REMARK INTRA:                  -2.114
REMARK UNBOUND:                -2.454
REMARK SMILES CCCCCCCCC=CCCCCCCCC(=O)[O-]
REMARK SMILES IDX 10 1 9 2 11 3 12 4 13 5 14 6 15 7 16 8 17 9 18 10 19 11
REMARK SMILES IDX 20 12 8 13 7 14 6 15 5 16 4 17 3 18 2 19 1 20
REMARK H PARENT
REMARK Flexibility Score: inf
ROOT
ATOM      1  C   UNL     1     -20.387  16.492 -23.625  1.00  0.00    -0.031 C 
ATOM      2  C   UNL     1     -20.337  16.360 -22.290  1.00  0.00    -0.031 C 
ENDROOT
BRANCH   1   3
ATOM      3  C   UNL     1     -20.190  17.824 -24.293  1.00  0.00     0.027 C 
BRANCH   3   4
ATOM      4  C   UNL     1     -21.199  18.027 -25.432  1.00  0.00     0.004 C 
BRANCH   4   5
ATOM      5  C   UNL     1     -22.472  17.185 -25.250  1.00  0.00     0.000 C 
BRANCH   5   6
ATOM      6  C   UNL     1     -23.563  17.931 -24.461  1.00  0.00     0.000 C 
BRANCH   6   7
ATOM      7  C   UNL     1     -23.900  17.244 -23.128  1.00  0.00     0.000 C 
BRANCH   7   8
ATOM      8  C   UNL     1     -24.139  18.250 -21.988  1.00  0.00     0.006 C 
BRANCH   8   9
ATOM      9  C   UNL     1     -22.864  19.016 -21.616  1.00  0.00     0.053 C 
BRANCH   9  10
ATOM     10  C   UNL     1     -23.056  20.498 -21.728  1.00  0.00     0.041 C 
ATOM     11  O   UNL     1     -23.274  21.189 -20.699  1.00  0.00    -0.550 OA
ATOM     12  O   UNL     1     -23.026  21.110 -22.975  1.00  0.00    -0.550 OA
ENDBRANCH   9  10
ENDBRANCH   8   9
ENDBRANCH   7   8
ENDBRANCH   6   7
ENDBRANCH   5   6
ENDBRANCH   4   5
ENDBRANCH   3   4
ENDBRANCH   1   3
BRANCH   2  13
ATOM     13  C   UNL     1     -20.534  15.027 -21.622  1.00  0.00     0.027 C 
BRANCH  13  14
ATOM     14  C   UNL     1     -22.011  14.608 -21.649  1.00  0.00     0.004 C 
BRANCH  14  15
ATOM     15  C   UNL     1     -22.293  13.372 -20.780  1.00  0.00     0.000 C 
BRANCH  15  16
ATOM     16  C   UNL     1     -23.794  13.060 -20.668  1.00  0.00     0.000 C 
BRANCH  16  17
ATOM     17  C   UNL     1     -24.669  14.326 -20.654  1.00  0.00    -0.000 C 
BRANCH  17  18
ATOM     18  C   UNL     1     -25.049  14.847 -19.253  1.00  0.00    -0.000 C 
BRANCH  18  19
ATOM     19  C   UNL     1     -25.074  13.778 -18.147  1.00  0.00    -0.003 C 
ATOM     20  C   UNL     1     -24.903  14.366 -16.746  1.00  0.00     0.004 C 
ENDBRANCH  18  19
ENDBRANCH  17  18
ENDBRANCH  16  17
ENDBRANCH  15  16
ENDBRANCH  14  15
ENDBRANCH  13  14
ENDBRANCH   2  13
TORSDOF 15
ENDMDL
MODEL 4
REMARK VINA RESULT:    -4.630      3.596      6.901
REMARK INTER + INTRA:         -11.145
REMARK INTER:                  -8.964
REMARK INTRA:                  -2.181
REMARK UNBOUND:                -2.454
REMARK SMILES CCCCCCCCC=CCCCCCCCC(=O)[O-]
REMARK SMILES IDX 10 1 9 2 11 3 12 4 13 5 14 6 15 7 16 8 17 9 18 10 19 11
REMARK SMILES IDX 20 12 8 13 7 14 6 15 5 16 4 17 3 18 2 19 1 20
REMARK H PARENT
REMARK Flexibility Score: inf
ROOT
ATOM      1  C   UNL     1     -22.232  21.068 -24.813  1.00  0.00    -0.031 C 
ATOM      2  C   UNL     1     -21.783  22.328 -24.931  1.00  0.00    -0.031 C 
ENDROOT
BRANCH   1   3
ATOM      3  C   UNL     1     -21.580  19.927 -25.544  1.00  0.00     0.027 C 
BRANCH   3   4
ATOM      4  C   UNL     1     -22.340  18.613 -25.310  1.00  0.00     0.004 C 
BRANCH   4   5
ATOM      5  C   UNL     1     -21.553  17.384 -25.791  1.00  0.00     0.000 C 
BRANCH   5   6
ATOM      6  C   UNL     1     -21.280  16.379 -24.657  1.00  0.00     0.000 C 
BRANCH   6   7
ATOM      7  C   UNL     1     -20.206  16.875 -23.676  1.00  0.00     0.000 C 
BRANCH   7   8
ATOM      8  C   UNL     1     -20.416  16.338 -22.249  1.00  0.00     0.006 C 
BRANCH   8   9
ATOM      9  C   UNL     1     -20.879  14.876 -22.243  1.00  0.00     0.053 C 
BRANCH   9  10
ATOM     10  C   UNL     1     -21.615  14.534 -20.984  1.00  0.00     0.041 C 
ATOM     11  O   UNL     1     -20.985  14.133 -19.970  1.00  0.00    -0.550 OA
ATOM     12  O   UNL     1     -23.000  14.627 -20.941  1.00  0.00    -0.550 OA
ENDBRANCH   9  10
ENDBRANCH   8   9
ENDBRANCH   7   8
ENDBRANCH   6   7
ENDBRANCH   5   6
ENDBRANCH   4   5
ENDBRANCH   3   4
ENDBRANCH   1   3
BRANCH   2  13
ATOM     13  C   UNL     1     -22.436  23.468 -24.200  1.00  0.00     0.027 C 
BRANCH  13  14
ATOM     14  C   UNL     1     -23.966  23.333 -24.219  1.00  0.00     0.004 C 
BRANCH  14  15
ATOM     15  C   UNL     1     -24.551  23.012 -22.835  1.00  0.00     0.000 C 
BRANCH  15  16
ATOM     16  C   UNL     1     -23.508  23.139 -21.712  1.00  0.00     0.000 C 
BRANCH  16  17
ATOM     17  C   UNL     1     -23.279  21.817 -20.955  1.00  0.00    -0.000 C 
BRANCH  17  18
ATOM     18  C   UNL     1     -23.782  20.551 -21.678  1.00  0.00    -0.000 C 
BRANCH  18  19
ATOM     19  C   UNL     1     -22.848  19.332 -21.580  1.00  0.00    -0.003 C 
ATOM     20  C   UNL     1     -23.579  18.004 -21.776  1.00  0.00     0.004 C 
ENDBRANCH  18  19
ENDBRANCH  17  18
ENDBRANCH  16  17
ENDBRANCH  15  16
ENDBRANCH  14  15
ENDBRANCH  13  14
ENDBRANCH   2  13
TORSDOF 15
ENDMDL
MODEL 5
REMARK VINA RESULT:    -4.630      2.447      3.887
REMARK INTER + INTRA:         -11.144
REMARK INTER:                  -8.929
REMARK INTRA:                  -2.215
REMARK UNBOUND:                -2.454
REMARK SMILES CCCCCCCCC=CCCCCCCCC(=O)[O-]
REMARK SMILES IDX 10 1 9 2 11 3 12 4 13 5 14 6 15 7 16 8 17 9 18 10 19 11
REMARK SMILES IDX 20 12 8 13 7 14 6 15 5 16 4 17 3 18 2 19 1 20
REMARK H PARENT
REMARK Flexibility Score: inf
ROOT
ATOM      1  C   UNL     1     -23.675  21.202 -22.154  1.00  0.00    -0.031 C 
ATOM      2  C   UNL     1     -22.903  20.413 -21.391  1.00  0.00    -0.031 C 
ENDROOT
BRANCH   1   3
ATOM      3  C   UNL     1     -23.684  22.697 -21.985  1.00  0.00     0.027 C 
BRANCH   3   4
ATOM      4  C   UNL     1     -23.591  23.408 -23.343  1.00  0.00     0.004 C 
BRANCH   4   5
ATOM      5  C   UNL     1     -23.335  22.433 -24.503  1.00  0.00     0.000 C 
BRANCH   5   6
ATOM      6  C   UNL     1     -21.859  22.411 -24.939  1.00  0.00     0.000 C 
BRANCH   6   7
ATOM      7  C   UNL     1     -21.511  21.170 -25.776  1.00  0.00     0.000 C 
BRANCH   7   8
ATOM      8  C   UNL     1     -22.072  19.872 -25.170  1.00  0.00     0.006 C 
BRANCH   8   9
ATOM      9  C   UNL     1     -21.054  18.726 -25.212  1.00  0.00     0.053 C 
BRANCH   9  10
ATOM     10  C   UNL     1     -21.468  17.652 -26.171  1.00  0.00     0.041 C 
ATOM     11  O   UNL     1     -21.662  16.477 -25.763  1.00  0.00    -0.550 OA
ATOM     12  O   UNL     1     -21.609  17.943 -27.523  1.00  0.00    -0.550 OA
ENDBRANCH   9  10
ENDBRANCH   8   9
ENDBRANCH   7   8
ENDBRANCH   6   7
ENDBRANCH   5   6
ENDBRANCH   4   5
ENDBRANCH   3   4
ENDBRANCH   1   3
BRANCH   2  13
ATOM     13  C   UNL     1     -22.893  18.919 -21.561  1.00  0.00     0.027 C 
BRANCH  13  14
ATOM     14  C   UNL     1     -24.074  18.454 -22.427  1.00  0.00     0.004 C 
BRANCH  14  15
ATOM     15  C   UNL     1     -24.183  16.923 -22.507  1.00  0.00     0.000 C 
BRANCH  15  16
ATOM     16  C   UNL     1     -23.945  16.244 -21.148  1.00  0.00     0.000 C 
BRANCH  16  17
ATOM     17  C   UNL     1     -23.236  14.883 -21.274  1.00  0.00    -0.000 C 
BRANCH  17  18
ATOM     18  C   UNL     1     -21.734  14.891 -20.925  1.00  0.00    -0.000 C 
BRANCH  18  19
ATOM     19  C   UNL     1     -20.786  14.973 -22.135  1.00  0.00    -0.003 C 
ATOM     20  C   UNL     1     -20.360  16.405 -22.461  1.00  0.00     0.004 C 
ENDBRANCH  18  19
ENDBRANCH  17  18
ENDBRANCH  16  17
ENDBRANCH  15  16
ENDBRANCH  14  15
ENDBRANCH  13  14
ENDBRANCH   2  13
TORSDOF 15
ENDMDL
MODEL 6
REMARK VINA RESULT:    -4.611      4.169      7.313
REMARK INTER + INTRA:         -11.109
REMARK INTER:                  -8.760
REMARK INTRA:                  -2.350
REMARK UNBOUND:                -2.454
REMARK SMILES CCCCCCCCC=CCCCCCCCC(=O)[O-]
REMARK SMILES IDX 10 1 9 2 11 3 12 4 13 5 14 6 15 7 16 8 17 9 18 10 19 11
REMARK SMILES IDX 20 12 8 13 7 14 6 15 5 16 4 17 3 18 2 19 1 20
REMARK H PARENT
REMARK Flexibility Score: inf
ROOT
ATOM      1  C   UNL     1     -21.804  19.140 -25.223  1.00  0.00    -0.031 C 
ATOM      2  C   UNL     1     -21.715  20.378 -25.735  1.00  0.00    -0.031 C 
ENDROOT
BRANCH   1   3
ATOM      3  C   UNL     1     -21.812  17.922 -26.104  1.00  0.00     0.027 C 
BRANCH   3   4
ATOM      4  C   UNL     1     -21.421  16.665 -25.314  1.00  0.00     0.004 C 
BRANCH   4   5
ATOM      5  C   UNL     1     -20.625  16.992 -24.041  1.00  0.00     0.000 C 
BRANCH   5   6
ATOM      6  C   UNL     1     -20.555  15.802 -23.068  1.00  0.00     0.000 C 
BRANCH   6   7
ATOM      7  C   UNL     1     -21.114  16.144 -21.678  1.00  0.00     0.000 C 
BRANCH   7   8
ATOM      8  C   UNL     1     -22.310  15.257 -21.287  1.00  0.00     0.006 C 
BRANCH   8   9
ATOM      9  C   UNL     1     -21.872  13.996 -20.532  1.00  0.00     0.053 C 
BRANCH   9  10
ATOM     10  C   UNL     1     -22.163  12.752 -21.315  1.00  0.00     0.041 C 
ATOM     11  O   UNL     1     -23.190  12.069 -21.062  1.00  0.00    -0.550 OA
ATOM     12  O   UNL     1     -21.281  12.330 -22.302  1.00  0.00    -0.550 OA
ENDBRANCH   9  10
ENDBRANCH   8   9
ENDBRANCH   7   8
ENDBRANCH   6   7
ENDBRANCH   5   6
ENDBRANCH   4   5
ENDBRANCH   3   4
ENDBRANCH   1   3
BRANCH   2  13
ATOM     13  C   UNL     1     -21.707  21.596 -24.854  1.00  0.00     0.027 C 
BRANCH  13  14
ATOM     14  C   UNL     1     -23.130  21.970 -24.413  1.00  0.00     0.004 C 
BRANCH  14  15
ATOM     15  C   UNL     1     -23.186  22.490 -22.968  1.00  0.00     0.000 C 
BRANCH  15  16
ATOM     16  C   UNL     1     -23.971  21.554 -22.036  1.00  0.00     0.000 C 
BRANCH  16  17
ATOM     17  C   UNL     1     -23.061  20.596 -21.244  1.00  0.00    -0.000 C 
BRANCH  17  18
ATOM     18  C   UNL     1     -23.026  19.144 -21.764  1.00  0.00    -0.000 C 
BRANCH  18  19
ATOM     19  C   UNL     1     -24.403  18.525 -22.058  1.00  0.00    -0.003 C 
ATOM     20  C   UNL     1     -24.371  17.517 -23.207  1.00  0.00     0.004 C 
ENDBRANCH  18  19
ENDBRANCH  17  18
ENDBRANCH  16  17
ENDBRANCH  15  16
ENDBRANCH  14  15
ENDBRANCH  13  14
ENDBRANCH   2  13
TORSDOF 15
ENDMDL
MODEL 7
REMARK VINA RESULT:    -4.601      3.927      7.363
REMARK INTER + INTRA:         -11.089
REMARK INTER:                  -8.718
REMARK INTRA:                  -2.371
REMARK UNBOUND:                -2.454
REMARK SMILES CCCCCCCCC=CCCCCCCCC(=O)[O-]
REMARK SMILES IDX 10 1 9 2 11 3 12 4 13 5 14 6 15 7 16 8 17 9 18 10 19 11
REMARK SMILES IDX 20 12 8 13 7 14 6 15 5 16 4 17 3 18 2 19 1 20
REMARK H PARENT
REMARK Flexibility Score: inf
ROOT
ATOM      1  C   UNL     1     -22.354  19.715 -23.949  1.00  0.00    -0.031 C 
ATOM      2  C   UNL     1     -23.337  18.943 -23.459  1.00  0.00    -0.031 C 
ENDROOT
BRANCH   1   3
ATOM      3  C   UNL     1     -21.798  19.500 -25.329  1.00  0.00     0.027 C 
BRANCH   3   4
ATOM      4  C   UNL     1     -21.184  18.099 -25.466  1.00  0.00     0.004 C 
BRANCH   4   5
ATOM      5  C   UNL     1     -20.053  17.850 -24.456  1.00  0.00     0.000 C 
BRANCH   5   6
ATOM      6  C   UNL     1     -20.246  16.541 -23.669  1.00  0.00     0.000 C 
BRANCH   6   7
ATOM      7  C   UNL     1     -20.808  16.779 -22.258  1.00  0.00     0.000 C 
BRANCH   7   8
ATOM      8  C   UNL     1     -21.416  15.507 -21.642  1.00  0.00     0.006 C 
BRANCH   8   9
ATOM      9  C   UNL     1     -22.903  15.680 -21.307  1.00  0.00     0.053 C 
BRANCH   9  10
ATOM     10  C   UNL     1     -23.526  14.389 -20.871  1.00  0.00     0.041 C 
ATOM     11  O   UNL     1     -24.774  14.233 -20.939  1.00  0.00    -0.550 OA
ATOM     12  O   UNL     1     -22.731  13.371 -20.360  1.00  0.00    -0.550 OA
ENDBRANCH   9  10
ENDBRANCH   8   9
ENDBRANCH   7   8
ENDBRANCH   6   7
ENDBRANCH   5   6
ENDBRANCH   4   5
ENDBRANCH   3   4
ENDBRANCH   1   3
BRANCH   2  13
ATOM     13  C   UNL     1     -23.893  19.159 -22.078  1.00  0.00     0.027 C 
BRANCH  13  14
ATOM     14  C   UNL     1     -22.980  20.077 -21.251  1.00  0.00     0.004 C 
BRANCH  14  15
ATOM     15  C   UNL     1     -23.685  21.366 -20.802  1.00  0.00     0.000 C 
BRANCH  15  16
ATOM     16  C   UNL     1     -23.323  22.573 -21.682  1.00  0.00     0.000 C 
BRANCH  16  17
ATOM     17  C   UNL     1     -24.295  22.768 -22.861  1.00  0.00    -0.000 C 
BRANCH  17  18
ATOM     18  C   UNL     1     -23.630  23.082 -24.216  1.00  0.00    -0.000 C 
BRANCH  18  19
ATOM     19  C   UNL     1     -22.139  23.456 -24.138  1.00  0.00    -0.003 C 
ATOM     20  C   UNL     1     -21.380  23.150 -25.429  1.00  0.00     0.004 C 
ENDBRANCH  18  19
ENDBRANCH  17  18
ENDBRANCH  16  17
ENDBRANCH  15  16
ENDBRANCH  14  15
ENDBRANCH  13  14
ENDBRANCH   2  13
TORSDOF 15
ENDMDL
MODEL 8
REMARK VINA RESULT:    -4.598      2.486      4.936
REMARK INTER + INTRA:         -11.084
REMARK INTER:                  -8.307
REMARK INTRA:                  -2.777
REMARK UNBOUND:                -2.454
REMARK SMILES CCCCCCCCC=CCCCCCCCC(=O)[O-]
REMARK SMILES IDX 10 1 9 2 11 3 12 4 13 5 14 6 15 7 16 8 17 9 18 10 19 11
REMARK SMILES IDX 20 12 8 13 7 14 6 15 5 16 4 17 3 18 2 19 1 20
REMARK H PARENT
REMARK Flexibility Score: inf
ROOT
ATOM      1  C   UNL     1     -21.609  16.771 -21.839  1.00  0.00    -0.031 C 
ATOM      2  C   UNL     1     -22.734  16.102 -22.136  1.00  0.00    -0.031 C 
ENDROOT
BRANCH   1   3
ATOM      3  C   UNL     1     -20.402  16.719 -22.734  1.00  0.00     0.027 C 
BRANCH   3   4
ATOM      4  C   UNL     1     -20.778  16.236 -24.143  1.00  0.00     0.004 C 
BRANCH   4   5
ATOM      5  C   UNL     1     -20.950  17.394 -25.137  1.00  0.00     0.000 C 
BRANCH   5   6
ATOM      6  C   UNL     1     -22.379  17.480 -25.701  1.00  0.00     0.000 C 
BRANCH   6   7
ATOM      7  C   UNL     1     -23.309  18.332 -24.823  1.00  0.00     0.000 C 
BRANCH   7   8
ATOM      8  C   UNL     1     -22.616  19.594 -24.279  1.00  0.00     0.006 C 
BRANCH   8   9
ATOM      9  C   UNL     1     -23.057  19.926 -22.849  1.00  0.00     0.053 C 
BRANCH   9  10
ATOM     10  C   UNL     1     -23.341  21.388 -22.681  1.00  0.00     0.041 C 
ATOM     11  O   UNL     1     -23.184  22.179 -23.648  1.00  0.00    -0.550 OA
ATOM     12  O   UNL     1     -23.747  21.880 -21.447  1.00  0.00    -0.550 OA
ENDBRANCH   9  10
ENDBRANCH   8   9
ENDBRANCH   7   8
ENDBRANCH   6   7
ENDBRANCH   5   6
ENDBRANCH   4   5
ENDBRANCH   3   4
ENDBRANCH   1   3
BRANCH   2  13
ATOM     13  C   UNL     1     -23.941  16.156 -21.241  1.00  0.00     0.027 C 
BRANCH  13  14
ATOM     14  C   UNL     1     -24.523  14.753 -21.013  1.00  0.00     0.004 C 
BRANCH  14  15
ATOM     15  C   UNL     1     -24.006  14.099 -19.722  1.00  0.00     0.000 C 
BRANCH  15  16
ATOM     16  C   UNL     1     -22.920  13.045 -19.991  1.00  0.00     0.000 C 
BRANCH  16  17
ATOM     17  C   UNL     1     -21.494  13.581 -19.763  1.00  0.00    -0.000 C 
BRANCH  17  18
ATOM     18  C   UNL     1     -20.452  13.144 -20.813  1.00  0.00    -0.000 C 
BRANCH  18  19
ATOM     19  C   UNL     1     -21.018  12.880 -22.219  1.00  0.00    -0.003 C 
ATOM     20  C   UNL     1     -19.927  12.669 -23.270  1.00  0.00     0.004 C 
ENDBRANCH  18  19
ENDBRANCH  17  18
ENDBRANCH  16  17
ENDBRANCH  15  16
ENDBRANCH  14  15
ENDBRANCH  13  14
ENDBRANCH   2  13
TORSDOF 15
ENDMDL
MODEL 9
REMARK VINA RESULT:    -4.583      1.759      3.383
REMARK INTER + INTRA:         -11.056
REMARK INTER:                  -8.961
REMARK INTRA:                  -2.095
REMARK UNBOUND:                -2.454
REMARK SMILES CCCCCCCCC=CCCCCCCCC(=O)[O-]
REMARK SMILES IDX 10 1 9 2 11 3 12 4 13 5 14 6 15 7 16 8 17 9 18 10 19 11
REMARK SMILES IDX 20 12 8 13 7 14 6 15 5 16 4 17 3 18 2 19 1 20
REMARK H PARENT
REMARK Flexibility Score: inf
ROOT
ATOM      1  C   UNL     1     -22.865  20.346 -23.765  1.00  0.00    -0.031 C 
ATOM      2  C   UNL     1     -22.893  20.410 -22.425  1.00  0.00    -0.031 C 
ENDROOT
BRANCH   1   3
ATOM      3  C   UNL     1     -22.826  21.587 -24.613  1.00  0.00     0.027 C 
BRANCH   3   4
ATOM      4  C   UNL     1     -23.104  22.841 -23.772  1.00  0.00     0.004 C 
BRANCH   4   5
ATOM      5  C   UNL     1     -22.597  24.127 -24.444  1.00  0.00     0.000 C 
BRANCH   5   6
ATOM      6  C   UNL     1     -21.178  24.510 -23.986  1.00  0.00     0.000 C 
BRANCH   6   7
ATOM      7  C   UNL     1     -20.100  24.097 -25.001  1.00  0.00     0.000 C 
BRANCH   7   8
ATOM      8  C   UNL     1     -20.650  23.985 -26.435  1.00  0.00     0.006 C 
BRANCH   8   9
ATOM      9  C   UNL     1     -19.949  24.949 -27.400  1.00  0.00     0.053 C 
BRANCH   9  10
ATOM     10  C   UNL     1     -20.811  26.130 -27.726  1.00  0.00     0.041 C 
ATOM     11  O   UNL     1     -22.056  26.076 -27.548  1.00  0.00    -0.550 OA
ATOM     12  O   UNL     1     -20.241  27.281 -28.258  1.00  0.00    -0.550 OA
ENDBRANCH   9  10
ENDBRANCH   8   9
ENDBRANCH   7   8
ENDBRANCH   6   7
ENDBRANCH   5   6
ENDBRANCH   4   5
ENDBRANCH   3   4
ENDBRANCH   1   3
BRANCH   2  13
ATOM     13  C   UNL     1     -22.932  19.169 -21.578  1.00  0.00     0.027 C 
BRANCH  13  14
ATOM     14  C   UNL     1     -23.627  18.016 -22.317  1.00  0.00     0.004 C 
BRANCH  14  15
ATOM     15  C   UNL     1     -22.792  16.726 -22.322  1.00  0.00     0.000 C 
BRANCH  15  16
ATOM     16  C   UNL     1     -21.280  17.003 -22.316  1.00  0.00     0.000 C 
BRANCH  16  17
ATOM     17  C   UNL     1     -20.610  16.698 -23.669  1.00  0.00    -0.000 C 
BRANCH  17  18
ATOM     18  C   UNL     1     -20.054  17.926 -24.418  1.00  0.00    -0.000 C 
BRANCH  18  19
ATOM     19  C   UNL     1     -20.754  18.246 -25.750  1.00  0.00    -0.003 C 
ATOM     20  C   UNL     1     -22.053  17.463 -25.944  1.00  0.00     0.004 C 
ENDBRANCH  18  19
ENDBRANCH  17  18
ENDBRANCH  16  17
ENDBRANCH  15  16
ENDBRANCH  14  15
ENDBRANCH  13  14
ENDBRANCH   2  13
TORSDOF 15
ENDMDL
