MODEL 1
REMARK VINA RESULT:    -2.807      0.000      0.000
REMARK INTER + INTRA:          -3.053
REMARK INTER:                  -3.053
REMARK INTRA:                   0.000
REMARK UNBOUND:                 0.000
REMARK SMILES [NH3+]CC(=O)[O-]
REMARK SMILES IDX 2 1 1 2 3 6 4 7 5 8
REMARK H PARENT 1 3 1 4 1 5
REMARK Flexibility Score: inf
ROOT
ATOM      1  C   UNL     1     -18.809  -4.472 -13.496  1.00  0.00     0.312 C 
ENDROOT
BRANCH   1   2
ATOM      2  N   UNL     1     -18.049  -4.330 -14.735  1.00  0.00    -0.353 N 
ATOM      3  H   UNL     1     -17.077  -4.019 -14.507  1.00  0.00     0.344 HD
ATOM      4  H   UNL     1     -18.002  -5.249 -15.235  1.00  0.00     0.344 HD
ATOM      5  H   UNL     1     -18.497  -3.615 -15.352  1.00  0.00     0.344 HD
ENDBRANCH   1   2
BRANCH   1   6
ATOM      6  C   UNL     1     -19.322  -3.143 -13.035  1.00  0.00     0.096 C 
ATOM      7  O   UNL     1     -20.525  -2.828 -13.228  1.00  0.00    -0.544 OA
ATOM      8  O   UNL     1     -18.458  -2.234 -12.438  1.00  0.00    -0.544 OA
ENDBRANCH   1   6
TORSDOF 2
ENDMDL
MODEL 2
REMARK VINA RESULT:    -2.782      3.769      4.179
REMARK INTER + INTRA:          -3.026
REMARK INTER:                  -3.026
REMARK INTRA:                   0.000
REMARK UNBOUND:                 0.000
REMARK SMILES [NH3+]CC(=O)[O-]
REMARK SMILES IDX 2 1 1 2 3 6 4 7 5 8
REMARK H PARENT 1 3 1 4 1 5
REMARK Flexibility Score: inf
ROOT
ATOM      1  C   UNL     1     -21.913  -0.966 -13.561  1.00  0.00     0.312 C 
ENDROOT
BRANCH   1   2
ATOM      2  N   UNL     1     -22.672   0.204 -13.127  1.00  0.00    -0.353 N 
ATOM      3  H   UNL     1     -23.638   0.152 -13.523  1.00  0.00     0.344 HD
ATOM      4  H   UNL     1     -22.735   0.224 -12.082  1.00  0.00     0.344 HD
ATOM      5  H   UNL     1     -22.212   1.079 -13.470  1.00  0.00     0.344 HD
ENDBRANCH   1   2
BRANCH   1   6
ATOM      6  C   UNL     1     -21.191  -1.587 -12.406  1.00  0.00     0.096 C 
ATOM      7  O   UNL     1     -20.020  -2.026 -12.552  1.00  0.00    -0.544 OA
ATOM      8  O   UNL     1     -21.830  -1.726 -11.181  1.00  0.00    -0.544 OA
ENDBRANCH   1   6
TORSDOF 2
ENDMDL
MODEL 3
REMARK VINA RESULT:    -2.780      2.511      2.649
REMARK INTER + INTRA:          -3.023
REMARK INTER:                  -3.023
REMARK INTRA:                   0.000
REMARK UNBOUND:                 0.000
REMARK SMILES [NH3+]CC(=O)[O-]
REMARK SMILES IDX 2 1 1 2 3 6 4 7 5 8
REMARK H PARENT 1 3 1 4 1 5
REMARK Flexibility Score: inf
ROOT
ATOM      1  C   UNL     1     -17.412  -2.794 -11.452  1.00  0.00     0.312 C 
ENDROOT
BRANCH   1   2
ATOM      2  N   UNL     1     -17.015  -1.437 -11.818  1.00  0.00    -0.353 N 
ATOM      3  H   UNL     1     -16.597  -1.449 -12.777  1.00  0.00     0.344 HD
ATOM      4  H   UNL     1     -17.851  -0.806 -11.821  1.00  0.00     0.344 HD
ATOM      5  H   UNL     1     -16.302  -1.076 -11.143  1.00  0.00     0.344 HD
ENDBRANCH   1   2
BRANCH   1   6
ATOM      6  C   UNL     1     -18.672  -3.186 -12.160  1.00  0.00     0.096 C 
ATOM      7  O   UNL     1     -18.900  -4.396 -12.423  1.00  0.00    -0.544 OA
ATOM      8  O   UNL     1     -19.569  -2.210 -12.573  1.00  0.00    -0.544 OA
ENDBRANCH   1   6
TORSDOF 2
ENDMDL
MODEL 4
REMARK VINA RESULT:    -2.749      9.464      9.711
REMARK INTER + INTRA:          -2.990
REMARK INTER:                  -2.990
REMARK INTRA:                   0.000
REMARK UNBOUND:                 0.000
REMARK SMILES [NH3+]CC(=O)[O-]
REMARK SMILES IDX 2 1 1 2 3 6 4 7 5 8
REMARK H PARENT 1 3 1 4 1 5
REMARK Flexibility Score: inf
ROOT
ATOM      1  C   UNL     1     -14.225  -7.326 -19.764  1.00  0.00     0.312 C 
ENDROOT
BRANCH   1   2
ATOM      2  N   UNL     1     -15.305  -7.309 -18.780  1.00  0.00    -0.353 N 
ATOM      3  H   UNL     1     -15.459  -8.279 -18.424  1.00  0.00     0.344 HD
ATOM      4  H   UNL     1     -15.048  -6.690 -17.976  1.00  0.00     0.344 HD
ATOM      5  H   UNL     1     -16.188  -6.965 -19.222  1.00  0.00     0.344 HD
ENDBRANCH   1   2
BRANCH   1   6
ATOM      6  C   UNL     1     -14.732  -7.782 -21.097  1.00  0.00     0.096 C 
ATOM      7  O   UNL     1     -15.260  -6.959 -21.890  1.00  0.00    -0.544 OA
ATOM      8  O   UNL     1     -14.667  -9.126 -21.442  1.00  0.00    -0.544 OA
ENDBRANCH   1   6
TORSDOF 2
ENDMDL
MODEL 5
REMARK VINA RESULT:    -2.700      9.551      9.773
REMARK INTER + INTRA:          -2.937
REMARK INTER:                  -2.937
REMARK INTRA:                   0.000
REMARK UNBOUND:                 0.000
REMARK SMILES [NH3+]CC(=O)[O-]
REMARK SMILES IDX 2 1 1 2 3 6 4 7 5 8
REMARK H PARENT 1 3 1 4 1 5
REMARK Flexibility Score: inf
ROOT
ATOM      1  C   UNL     1     -13.999  -8.982 -20.795  1.00  0.00     0.312 C 
ENDROOT
BRANCH   1   2
ATOM      2  N   UNL     1     -14.989  -9.970 -21.220  1.00  0.00    -0.353 N 
ATOM      3  H   UNL     1     -14.542 -10.635 -21.892  1.00  0.00     0.344 HD
ATOM      4  H   UNL     1     -15.338 -10.508 -20.393  1.00  0.00     0.344 HD
ATOM      5  H   UNL     1     -15.789  -9.494 -21.696  1.00  0.00     0.344 HD
ENDBRANCH   1   2
BRANCH   1   6
ATOM      6  C   UNL     1     -14.652  -7.662 -20.525  1.00  0.00     0.096 C 
ATOM      7  O   UNL     1     -15.065  -6.953 -21.481  1.00  0.00    -0.544 OA
ATOM      8  O   UNL     1     -14.759  -7.193 -19.223  1.00  0.00    -0.544 OA
ENDBRANCH   1   6
TORSDOF 2
ENDMDL
MODEL 6
REMARK VINA RESULT:    -2.549      2.579      3.067
REMARK INTER + INTRA:          -2.773
REMARK INTER:                  -2.773
REMARK INTRA:                   0.000
REMARK UNBOUND:                 0.000
REMARK SMILES [NH3+]CC(=O)[O-]
REMARK SMILES IDX 2 1 1 2 3 6 4 7 5 8
REMARK H PARENT 1 3 1 4 1 5
REMARK Flexibility Score: inf
ROOT
ATOM      1  C   UNL     1     -20.968  -2.279 -12.939  1.00  0.00     0.312 C 
ENDROOT
BRANCH   1   2
ATOM      2  N   UNL     1     -21.065  -1.386 -11.786  1.00  0.00    -0.353 N 
ATOM      3  H   UNL     1     -21.441  -1.920 -10.970  1.00  0.00     0.344 HD
ATOM      4  H   UNL     1     -20.118  -1.014 -11.540  1.00  0.00     0.344 HD
ATOM      5  H   UNL     1     -21.712  -0.593 -12.000  1.00  0.00     0.344 HD
ENDBRANCH   1   2
BRANCH   1   6
ATOM      6  C   UNL     1     -19.644  -2.978 -12.956  1.00  0.00     0.096 C 
ATOM      7  O   UNL     1     -18.599  -2.364 -12.616  1.00  0.00    -0.544 OA
ATOM      8  O   UNL     1     -19.559  -4.293 -13.396  1.00  0.00    -0.544 OA
ENDBRANCH   1   6
TORSDOF 2
ENDMDL
MODEL 7
REMARK VINA RESULT:    -2.548      4.702      4.795
REMARK INTER + INTRA:          -2.771
REMARK INTER:                  -2.771
REMARK INTRA:                   0.000
REMARK UNBOUND:                 0.000
REMARK SMILES [NH3+]CC(=O)[O-]
REMARK SMILES IDX 2 1 1 2 3 6 4 7 5 8
REMARK H PARENT 1 3 1 4 1 5
REMARK Flexibility Score: inf
ROOT
ATOM      1  C   UNL     1     -21.818  -0.886 -12.524  1.00  0.00     0.312 C 
ENDROOT
BRANCH   1   2
ATOM      2  N   UNL     1     -22.564   0.161 -13.218  1.00  0.00    -0.353 N 
ATOM      3  H   UNL     1     -23.387  -0.267 -13.700  1.00  0.00     0.344 HD
ATOM      4  H   UNL     1     -22.907   0.873 -12.531  1.00  0.00     0.344 HD
ATOM      5  H   UNL     1     -21.955   0.623 -13.932  1.00  0.00     0.344 HD
ENDBRANCH   1   2
BRANCH   1   6
ATOM      6  C   UNL     1     -22.698  -1.603 -11.547  1.00  0.00     0.096 C 
ATOM      7  O   UNL     1     -23.769  -2.141 -11.936  1.00  0.00    -0.544 OA
ATOM      8  O   UNL     1     -22.361  -1.635 -10.201  1.00  0.00    -0.544 OA
ENDBRANCH   1   6
TORSDOF 2
ENDMDL
MODEL 8
REMARK VINA RESULT:    -2.548      4.061      4.403
REMARK INTER + INTRA:          -2.771
REMARK INTER:                  -2.771
REMARK INTRA:                   0.000
REMARK UNBOUND:                 0.000
REMARK SMILES [NH3+]CC(=O)[O-]
REMARK SMILES IDX 2 1 1 2 3 6 4 7 5 8
REMARK H PARENT 1 3 1 4 1 5
REMARK Flexibility Score: inf
ROOT
ATOM      1  C   UNL     1     -22.576  -1.456 -11.114  1.00  0.00     0.312 C 
ENDROOT
BRANCH   1   2
ATOM      2  N   UNL     1     -21.809  -1.613  -9.880  1.00  0.00    -0.353 N 
ATOM      3  H   UNL     1     -22.267  -2.338  -9.282  1.00  0.00     0.344 HD
ATOM      4  H   UNL     1     -20.834  -1.921 -10.100  1.00  0.00     0.344 HD
ATOM      5  H   UNL     1     -21.784  -0.708  -9.355  1.00  0.00     0.344 HD
ENDBRANCH   1   2
BRANCH   1   6
ATOM      6  C   UNL     1     -21.668  -1.155 -12.266  1.00  0.00     0.096 C 
ATOM      7  O   UNL     1     -21.995  -0.292 -13.121  1.00  0.00    -0.544 OA
ATOM      8  O   UNL     1     -20.484  -1.865 -12.421  1.00  0.00    -0.544 OA
ENDBRANCH   1   6
TORSDOF 2
ENDMDL
MODEL 9
REMARK VINA RESULT:    -2.496      3.165      3.432
REMARK INTER + INTRA:          -2.715
REMARK INTER:                  -2.715
REMARK INTRA:                   0.000
REMARK UNBOUND:                 0.000
REMARK SMILES [NH3+]CC(=O)[O-]
REMARK SMILES IDX 2 1 1 2 3 6 4 7 5 8
REMARK H PARENT 1 3 1 4 1 5
REMARK Flexibility Score: inf
ROOT
ATOM      1  C   UNL     1     -20.693  -2.278 -12.741  1.00  0.00     0.312 C 
ENDROOT
BRANCH   1   2
ATOM      2  N   UNL     1     -19.366  -2.116 -12.151  1.00  0.00    -0.353 N 
ATOM      3  H   UNL     1     -19.035  -3.040 -11.791  1.00  0.00     0.344 HD
ATOM      4  H   UNL     1     -18.691  -1.773 -12.874  1.00  0.00     0.344 HD
ATOM      5  H   UNL     1     -19.406  -1.437 -11.357  1.00  0.00     0.344 HD
ENDBRANCH   1   2
BRANCH   1   6
ATOM      6  C   UNL     1     -21.642  -1.257 -12.195  1.00  0.00     0.096 C 
ATOM      7  O   UNL     1     -22.073  -1.359 -11.017  1.00  0.00    -0.544 OA
ATOM      8  O   UNL     1     -22.090  -0.222 -13.005  1.00  0.00    -0.544 OA
ENDBRANCH   1   6
TORSDOF 2
ENDMDL
