MODEL 1
REMARK VINA RESULT:    -3.510      0.000      0.000
REMARK INTER + INTRA:          -6.032
REMARK INTER:                  -5.561
REMARK INTRA:                  -0.471
REMARK UNBOUND:                -0.471
REMARK SMILES CCCCCCCCCCCC(=O)[O-]
REMARK SMILES IDX 7 1 8 2 9 3 10 4 11 5 12 6 13 7 14 8 6 9 5 10 4 11 3 12 2 13
REMARK SMILES IDX 1 14
REMARK H PARENT
REMARK Flexibility Score: inf
ROOT
ATOM      1  C   UNL     1      35.087 105.889 265.011  1.00  0.00     0.000 C 
ENDROOT
BRANCH   1   2
ATOM      2  C   UNL     1      35.166 106.306 263.532  1.00  0.00     0.000 C 
BRANCH   2   3
ATOM      3  C   UNL     1      36.417 105.808 262.778  1.00  0.00     0.000 C 
BRANCH   3   4
ATOM      4  C   UNL     1      36.192 105.464 261.295  1.00  0.00     0.006 C 
BRANCH   4   5
ATOM      5  C   UNL     1      37.203 106.146 260.365  1.00  0.00     0.053 C 
BRANCH   5   6
ATOM      6  C   UNL     1      37.813 105.146 259.435  1.00  0.00     0.041 C 
ATOM      7  O   UNL     1      38.656 104.315 259.863  1.00  0.00    -0.550 OA
ATOM      8  O   UNL     1      37.488 105.164 258.085  1.00  0.00    -0.550 OA
ENDBRANCH   5   6
ENDBRANCH   4   5
ENDBRANCH   3   4
ENDBRANCH   2   3
ENDBRANCH   1   2
BRANCH   1   9
ATOM      9  C   UNL     1      35.031 104.366 265.201  1.00  0.00     0.000 C 
BRANCH   9  10
ATOM     10  C   UNL     1      34.978 104.000 266.689  1.00  0.00    -0.000 C 
BRANCH  10  11
ATOM     11  C   UNL     1      34.875 105.258 267.562  1.00  0.00    -0.000 C 
BRANCH  11  12
ATOM     12  C   UNL     1      35.244 104.993 269.031  1.00  0.00    -0.000 C 
BRANCH  12  13
ATOM     13  C   UNL     1      35.699 106.264 269.764  1.00  0.00    -0.003 C 
ATOM     14  C   UNL     1      34.977 107.496 269.225  1.00  0.00     0.004 C 
ENDBRANCH  12  13
ENDBRANCH  11  12
ENDBRANCH  10  11
ENDBRANCH   9  10
ENDBRANCH   1   9
TORSDOF 10
ENDMDL
MODEL 2
REMARK VINA RESULT:    -2.931      1.244      1.800
REMARK INTER + INTRA:          -5.116
REMARK INTER:                  -5.308
REMARK INTRA:                   0.192
REMARK UNBOUND:                -0.471
REMARK SMILES CCCCCCCCCCCC(=O)[O-]
REMARK SMILES IDX 7 1 8 2 9 3 10 4 11 5 12 6 13 7 14 8 6 9 5 10 4 11 3 12 2 13
REMARK SMILES IDX 1 14
REMARK H PARENT
REMARK Flexibility Score: inf
ROOT
ATOM      1  C   UNL     1      35.402 104.741 264.512  1.00  0.00     0.000 C 
ENDROOT
BRANCH   1   2
ATOM      2  C   UNL     1      35.255 105.450 263.154  1.00  0.00     0.000 C 
BRANCH   2   3
ATOM      3  C   UNL     1      36.464 106.312 262.733  1.00  0.00     0.000 C 
BRANCH   3   4
ATOM      4  C   UNL     1      37.290 105.751 261.562  1.00  0.00     0.006 C 
BRANCH   4   5
ATOM      5  C   UNL     1      36.420 105.139 260.457  1.00  0.00     0.053 C 
BRANCH   5   6
ATOM      6  C   UNL     1      36.882 105.603 259.112  1.00  0.00     0.041 C 
ATOM      7  O   UNL     1      37.919 105.111 258.595  1.00  0.00    -0.550 OA
ATOM      8  O   UNL     1      36.195 106.614 258.452  1.00  0.00    -0.550 OA
ENDBRANCH   5   6
ENDBRANCH   4   5
ENDBRANCH   3   4
ENDBRANCH   2   3
ENDBRANCH   1   2
BRANCH   1   9
ATOM      9  C   UNL     1      34.875 105.580 265.684  1.00  0.00     0.000 C 
BRANCH   9  10
ATOM     10  C   UNL     1      35.070 107.078 265.419  1.00  0.00    -0.000 C 
BRANCH  10  11
ATOM     11  C   UNL     1      35.690 107.777 266.638  1.00  0.00    -0.000 C 
BRANCH  11  12
ATOM     12  C   UNL     1      34.889 107.538 267.929  1.00  0.00    -0.000 C 
BRANCH  12  13
ATOM     13  C   UNL     1      35.388 106.317 268.715  1.00  0.00    -0.003 C 
ATOM     14  C   UNL     1      35.486 106.629 270.206  1.00  0.00     0.004 C 
ENDBRANCH  12  13
ENDBRANCH  11  12
ENDBRANCH  10  11
ENDBRANCH   9  10
ENDBRANCH   1   9
TORSDOF 10
ENDMDL
MODEL 3
REMARK VINA RESULT:    -2.707      4.021      7.728
REMARK INTER + INTRA:          -4.759
REMARK INTER:                  -4.341
REMARK INTRA:                  -0.419
REMARK UNBOUND:                -0.471
REMARK SMILES CCCCCCCCCCCC(=O)[O-]
REMARK SMILES IDX 7 1 8 2 9 3 10 4 11 5 12 6 13 7 14 8 6 9 5 10 4 11 3 12 2 13
REMARK SMILES IDX 1 14
REMARK H PARENT
REMARK Flexibility Score: inf
ROOT
ATOM      1  C   UNL     1      35.319 106.207 265.665  1.00  0.00     0.000 C 
ENDROOT
BRANCH   1   2
ATOM      2  C   UNL     1      35.063 107.722 265.566  1.00  0.00     0.000 C 
BRANCH   2   3
ATOM      3  C   UNL     1      34.876 108.443 266.917  1.00  0.00     0.000 C 
BRANCH   3   4
ATOM      4  C   UNL     1      35.723 107.889 268.076  1.00  0.00     0.006 C 
BRANCH   4   5
ATOM      5  C   UNL     1      34.879 107.191 269.150  1.00  0.00     0.053 C 
BRANCH   5   6
ATOM      6  C   UNL     1      35.398 105.811 269.405  1.00  0.00     0.041 C 
ATOM      7  O   UNL     1      36.300 105.623 270.263  1.00  0.00    -0.550 OA
ATOM      8  O   UNL     1      34.919 104.740 268.663  1.00  0.00    -0.550 OA
ENDBRANCH   5   6
ENDBRANCH   4   5
ENDBRANCH   3   4
ENDBRANCH   2   3
ENDBRANCH   1   2
BRANCH   1   9
ATOM      9  C   UNL     1      34.951 105.454 264.378  1.00  0.00     0.000 C 
BRANCH   9  10
ATOM     10  C   UNL     1      35.314 106.277 263.136  1.00  0.00    -0.000 C 
BRANCH  10  11
ATOM     11  C   UNL     1      36.019 105.406 262.086  1.00  0.00    -0.000 C 
BRANCH  11  12
ATOM     12  C   UNL     1      37.131 106.161 261.339  1.00  0.00    -0.000 C 
BRANCH  12  13
ATOM     13  C   UNL     1      37.113 105.894 259.827  1.00  0.00    -0.003 C 
ATOM     14  C   UNL     1      37.813 104.579 259.495  1.00  0.00     0.004 C 
ENDBRANCH  12  13
ENDBRANCH  11  12
ENDBRANCH  10  11
ENDBRANCH   9  10
ENDBRANCH   1   9
TORSDOF 10
ENDMDL
MODEL 4
REMARK VINA RESULT:    -2.670      3.984      8.021
REMARK INTER + INTRA:          -4.702
REMARK INTER:                  -4.311
REMARK INTRA:                  -0.391
REMARK UNBOUND:                -0.471
REMARK SMILES CCCCCCCCCCCC(=O)[O-]
REMARK SMILES IDX 7 1 8 2 9 3 10 4 11 5 12 6 13 7 14 8 6 9 5 10 4 11 3 12 2 13
REMARK SMILES IDX 1 14
REMARK H PARENT
REMARK Flexibility Score: inf
ROOT
ATOM      1  C   UNL     1      35.640 105.435 264.260  1.00  0.00     0.000 C 
ENDROOT
BRANCH   1   2
ATOM      2  C   UNL     1      35.461 103.999 264.784  1.00  0.00     0.000 C 
BRANCH   2   3
ATOM      3  C   UNL     1      34.981 103.891 266.246  1.00  0.00     0.000 C 
BRANCH   3   4
ATOM      4  C   UNL     1      34.876 105.230 267.000  1.00  0.00     0.006 C 
BRANCH   4   5
ATOM      5  C   UNL     1      35.239 105.107 268.485  1.00  0.00     0.053 C 
BRANCH   5   6
ATOM      6  C   UNL     1      35.493 106.459 269.073  1.00  0.00     0.041 C 
ATOM      7  O   UNL     1      35.592 106.598 270.320  1.00  0.00    -0.550 OA
ATOM      8  O   UNL     1      35.570 107.573 268.247  1.00  0.00    -0.550 OA
ENDBRANCH   5   6
ENDBRANCH   4   5
ENDBRANCH   3   4
ENDBRANCH   2   3
ENDBRANCH   1   2
BRANCH   1   9
ATOM      9  C   UNL     1      35.777 105.501 262.733  1.00  0.00     0.000 C 
BRANCH   9  10
ATOM     10  C   UNL     1      36.945 106.407 262.324  1.00  0.00    -0.000 C 
BRANCH  10  11
ATOM     11  C   UNL     1      37.595 105.913 261.024  1.00  0.00    -0.000 C 
BRANCH  11  12
ATOM     12  C   UNL     1      36.809 106.332 259.771  1.00  0.00    -0.000 C 
BRANCH  12  13
ATOM     13  C   UNL     1      37.201 105.519 258.528  1.00  0.00    -0.003 C 
ATOM     14  C   UNL     1      38.204 104.424 258.884  1.00  0.00     0.004 C 
ENDBRANCH  12  13
ENDBRANCH  11  12
ENDBRANCH  10  11
ENDBRANCH   9  10
ENDBRANCH   1   9
TORSDOF 10
ENDMDL
MODEL 5
REMARK VINA RESULT:    -2.286      3.753      7.362
REMARK INTER + INTRA:          -4.092
REMARK INTER:                  -3.650
REMARK INTRA:                  -0.443
REMARK UNBOUND:                -0.471
REMARK SMILES CCCCCCCCCCCC(=O)[O-]
REMARK SMILES IDX 7 1 8 2 9 3 10 4 11 5 12 6 13 7 14 8 6 9 5 10 4 11 3 12 2 13
REMARK SMILES IDX 1 14
REMARK H PARENT
REMARK Flexibility Score: inf
ROOT
ATOM      1  C   UNL     1      35.988 103.834 265.566  1.00  0.00     0.000 C 
ENDROOT
BRANCH   1   2
ATOM      2  C   UNL     1      35.097 103.527 266.783  1.00  0.00     0.000 C 
BRANCH   2   3
ATOM      3  C   UNL     1      34.948 104.683 267.793  1.00  0.00     0.000 C 
BRANCH   3   4
ATOM      4  C   UNL     1      34.881 106.090 267.171  1.00  0.00     0.006 C 
BRANCH   4   5
ATOM      5  C   UNL     1      35.212 107.201 268.174  1.00  0.00     0.053 C 
BRANCH   5   6
ATOM      6  C   UNL     1      35.169 108.538 267.504  1.00  0.00     0.041 C 
ATOM      7  O   UNL     1      35.415 108.637 266.273  1.00  0.00    -0.550 OA
ATOM      8  O   UNL     1      34.905 109.680 268.249  1.00  0.00    -0.550 OA
ENDBRANCH   5   6
ENDBRANCH   4   5
ENDBRANCH   3   4
ENDBRANCH   2   3
ENDBRANCH   1   2
BRANCH   1   9
ATOM      9  C   UNL     1      35.200 103.893 264.249  1.00  0.00     0.000 C 
BRANCH   9  10
ATOM     10  C   UNL     1      35.525 105.173 263.471  1.00  0.00    -0.000 C 
BRANCH  10  11
ATOM     11  C   UNL     1      35.648 104.886 261.967  1.00  0.00    -0.000 C 
BRANCH  11  12
ATOM     12  C   UNL     1      36.666 105.804 261.270  1.00  0.00    -0.000 C 
BRANCH  12  13
ATOM     13  C   UNL     1      37.605 105.036 260.328  1.00  0.00    -0.003 C 
ATOM     14  C   UNL     1      37.155 105.170 258.876  1.00  0.00     0.004 C 
ENDBRANCH  12  13
ENDBRANCH  11  12
ENDBRANCH  10  11
ENDBRANCH   9  10
ENDBRANCH   1   9
TORSDOF 10
ENDMDL
MODEL 6
REMARK VINA RESULT:    -2.035      1.697      2.484
REMARK INTER + INTRA:          -3.695
REMARK INTER:                  -3.908
REMARK INTRA:                   0.213
REMARK UNBOUND:                -0.471
REMARK SMILES CCCCCCCCCCCC(=O)[O-]
REMARK SMILES IDX 7 1 8 2 9 3 10 4 11 5 12 6 13 7 14 8 6 9 5 10 4 11 3 12 2 13
REMARK SMILES IDX 1 14
REMARK H PARENT
REMARK Flexibility Score: inf
ROOT
ATOM      1  C   UNL     1      36.933 106.397 263.354  1.00  0.00     0.000 C 
ENDROOT
BRANCH   1   2
ATOM      2  C   UNL     1      36.779 105.898 261.906  1.00  0.00     0.000 C 
BRANCH   2   3
ATOM      3  C   UNL     1      38.045 106.020 261.034  1.00  0.00     0.000 C 
BRANCH   3   4
ATOM      4  C   UNL     1      38.229 104.905 259.989  1.00  0.00     0.006 C 
BRANCH   4   5
ATOM      5  C   UNL     1      37.959 105.380 258.556  1.00  0.00     0.053 C 
BRANCH   5   6
ATOM      6  C   UNL     1      36.591 105.976 258.454  1.00  0.00     0.041 C 
ATOM      7  O   UNL     1      35.667 105.343 257.878  1.00  0.00    -0.550 OA
ATOM      8  O   UNL     1      36.348 107.249 258.952  1.00  0.00    -0.550 OA
ENDBRANCH   5   6
ENDBRANCH   4   5
ENDBRANCH   3   4
ENDBRANCH   2   3
ENDBRANCH   1   2
BRANCH   1   9
ATOM      9  C   UNL     1      35.840 105.862 264.290  1.00  0.00     0.000 C 
BRANCH   9  10
ATOM     10  C   UNL     1      34.875 106.980 264.704  1.00  0.00    -0.000 C 
BRANCH  10  11
ATOM     11  C   UNL     1      35.285 107.590 266.051  1.00  0.00    -0.000 C 
BRANCH  11  12
ATOM     12  C   UNL     1      34.881 106.713 267.247  1.00  0.00    -0.000 C 
BRANCH  12  13
ATOM     13  C   UNL     1      35.409 107.257 268.584  1.00  0.00    -0.003 C 
ATOM     14  C   UNL     1      35.007 106.347 269.742  1.00  0.00     0.004 C 
ENDBRANCH  12  13
ENDBRANCH  11  12
ENDBRANCH  10  11
ENDBRANCH   9  10
ENDBRANCH   1   9
TORSDOF 10
ENDMDL
MODEL 7
REMARK VINA RESULT:    -1.781      1.217      1.919
REMARK INTER + INTRA:          -3.292
REMARK INTER:                  -2.895
REMARK INTRA:                  -0.397
REMARK UNBOUND:                -0.471
REMARK SMILES CCCCCCCCCCCC(=O)[O-]
REMARK SMILES IDX 7 1 8 2 9 3 10 4 11 5 12 6 13 7 14 8 6 9 5 10 4 11 3 12 2 13
REMARK SMILES IDX 1 14
REMARK H PARENT
REMARK Flexibility Score: inf
ROOT
ATOM      1  C   UNL     1      35.280 104.864 265.550  1.00  0.00     0.000 C 
ENDROOT
BRANCH   1   2
ATOM      2  C   UNL     1      34.992 106.264 264.980  1.00  0.00     0.000 C 
BRANCH   2   3
ATOM      3  C   UNL     1      35.060 106.371 263.443  1.00  0.00     0.000 C 
BRANCH   3   4
ATOM      4  C   UNL     1      36.379 105.890 262.812  1.00  0.00     0.006 C 
BRANCH   4   5
ATOM      5  C   UNL     1      36.192 105.327 261.398  1.00  0.00     0.053 C 
BRANCH   5   6
ATOM      6  C   UNL     1      37.321 105.754 260.514  1.00  0.00     0.041 C 
ATOM      7  O   UNL     1      38.496 105.799 260.964  1.00  0.00    -0.550 OA
ATOM      8  O   UNL     1      37.069 106.148 259.206  1.00  0.00    -0.550 OA
ENDBRANCH   5   6
ENDBRANCH   4   5
ENDBRANCH   3   4
ENDBRANCH   2   3
ENDBRANCH   1   2
BRANCH   1   9
ATOM      9  C   UNL     1      34.876 104.724 267.025  1.00  0.00     0.000 C 
BRANCH   9  10
ATOM     10  C   UNL     1      34.988 106.068 267.755  1.00  0.00    -0.000 C 
BRANCH  10  11
ATOM     11  C   UNL     1      34.875 105.879 269.275  1.00  0.00    -0.000 C 
BRANCH  11  12
ATOM     12  C   UNL     1      36.213 105.492 269.925  1.00  0.00    -0.000 C 
BRANCH  12  13
ATOM     13  C   UNL     1      37.041 106.716 270.344  1.00  0.00    -0.003 C 
ATOM     14  C   UNL     1      38.368 106.292 270.968  1.00  0.00     0.004 C 
ENDBRANCH  12  13
ENDBRANCH  11  12
ENDBRANCH  10  11
ENDBRANCH   9  10
ENDBRANCH   1   9
TORSDOF 10
ENDMDL
MODEL 8
REMARK VINA RESULT:    -1.220      2.057      3.812
REMARK INTER + INTRA:          -2.403
REMARK INTER:                  -1.888
REMARK INTRA:                  -0.515
REMARK UNBOUND:                -0.471
REMARK SMILES CCCCCCCCCCCC(=O)[O-]
REMARK SMILES IDX 7 1 8 2 9 3 10 4 11 5 12 6 13 7 14 8 6 9 5 10 4 11 3 12 2 13
REMARK SMILES IDX 1 14
REMARK H PARENT
REMARK Flexibility Score: inf
ROOT
ATOM      1  C   UNL     1      38.300 106.065 262.175  1.00  0.00     0.000 C 
ENDROOT
BRANCH   1   2
ATOM      2  C   UNL     1      38.495 106.084 260.648  1.00  0.00     0.000 C 
BRANCH   2   3
ATOM      3  C   UNL     1      38.471 104.699 259.969  1.00  0.00     0.000 C 
BRANCH   3   4
ATOM      4  C   UNL     1      37.679 104.632 258.651  1.00  0.00     0.006 C 
BRANCH   4   5
ATOM      5  C   UNL     1      37.518 106.003 257.982  1.00  0.00     0.053 C 
BRANCH   5   6
ATOM      6  C   UNL     1      36.096 106.458 258.061  1.00  0.00     0.041 C 
ATOM      7  O   UNL     1      35.158 105.639 257.878  1.00  0.00    -0.550 OA
ATOM      8  O   UNL     1      35.806 107.797 258.289  1.00  0.00    -0.550 OA
ENDBRANCH   5   6
ENDBRANCH   4   5
ENDBRANCH   3   4
ENDBRANCH   2   3
ENDBRANCH   1   2
BRANCH   1   9
ATOM      9  C   UNL     1      37.020 106.785 262.622  1.00  0.00     0.000 C 
BRANCH   9  10
ATOM     10  C   UNL     1      35.830 105.820 262.659  1.00  0.00    -0.000 C 
BRANCH  10  11
ATOM     11  C   UNL     1      35.262 105.700 264.081  1.00  0.00    -0.000 C 
BRANCH  11  12
ATOM     12  C   UNL     1      34.876 104.257 264.445  1.00  0.00    -0.000 C 
BRANCH  12  13
ATOM     13  C   UNL     1      34.985 103.979 265.952  1.00  0.00    -0.003 C 
ATOM     14  C   UNL     1      35.162 105.276 266.737  1.00  0.00     0.004 C 
ENDBRANCH  12  13
ENDBRANCH  11  12
ENDBRANCH  10  11
ENDBRANCH   9  10
ENDBRANCH   1   9
TORSDOF 10
ENDMDL
