MODEL 1
REMARK VINA RESULT:    -3.322      0.000      0.000
REMARK INTER + INTRA:          -5.053
REMARK INTER:                  -5.070
REMARK INTRA:                   0.017
REMARK UNBOUND:                 0.017
REMARK SMILES CC1=CCC[C@@H](C)C(=O)C[C@@H](C(C)C)C(=O)C1
REMARK SMILES IDX 8 1 9 2 6 3 7 4 5 5 4 6 3 7 2 8 1 9 10 11 11 12 15 13 16 14
REMARK SMILES IDX 17 15 12 17 13 18 14 19
REMARK H PARENT
REMARK Flexibility Score: 70.00
ROOT
ATOM      1  C   UNL     1      -0.566   4.312  64.805  1.00  0.00     0.136 C 
ATOM      2  O   UNL     1       0.115   3.666  65.590  1.00  0.00    -0.299 OA
ENDROOT
BRANCH   1   3
ATOM      3  C   UNL     1      -2.031   4.584  65.112  1.00  0.00     0.053 C 
ATOM      4  C   UNL     1      -2.926   4.442  63.869  1.00  0.00     0.016 C 
BRANCH   3   5
ATOM      5  C   UNL     1      -2.224   5.959  65.787  1.00  0.00     0.015 C 
BRANCH   5   6
ATOM      6  C   UNL     1      -2.354   7.137  64.794  1.00  0.00     0.028 C 
BRANCH   6   7
ATOM      7  C   UNL     1      -1.553   8.327  65.263  1.00  0.00    -0.028 C 
ATOM      8  C   UNL     1      -0.293   8.634  64.870  1.00  0.00    -0.070 CG0
ATOM      9  C   UNL     1       0.379   9.816  65.521  1.00  0.00     0.039 C 
ATOM     10  G   UNL     1       0.455   7.872  63.786  1.00  0.00     0.000 G0
ENDBRANCH   6   7
ENDBRANCH   5   6
ENDBRANCH   3   5
ENDBRANCH   1   3
BRANCH   1  11
ATOM     11  C   UNL     1       0.068   4.811  63.527  1.00  0.00     0.087 C 
BRANCH  11  12
ATOM     12  C   UNL     1       1.503   5.378  63.719  1.00  0.00     0.066 C 
BRANCH  12  13
ATOM     13  C   UNL     1       1.451   6.803  64.260  1.00  0.00     0.140 C 
ATOM     14  O   UNL     1       2.233   7.114  65.147  1.00  0.00    -0.299 OA
BRANCH  13  15
ATOM     15  C   UNL     1       0.478   7.866  63.783  1.00  0.00     0.106 CG0
ATOM     16  G   UNL     1      -0.283   8.607  64.872  1.00  0.00     0.000 G0
ENDBRANCH  13  15
ENDBRANCH  12  13
BRANCH  12  17
ATOM     17  C   UNL     1       2.322   5.335  62.390  1.00  0.00    -0.006 C 
ATOM     18  C   UNL     1       3.276   4.128  62.356  1.00  0.00     0.008 C 
ATOM     19  C   UNL     1       1.414   5.284  61.148  1.00  0.00     0.008 C 
ENDBRANCH  12  17
ENDBRANCH  11  12
ENDBRANCH   1  11
TORSDOF 1
ENDMDL
MODEL 2
REMARK VINA RESULT:    -3.244      2.017      4.174
REMARK INTER + INTRA:          -4.934
REMARK INTER:                  -4.578
REMARK INTRA:                  -0.356
REMARK UNBOUND:                 0.017
REMARK SMILES CC1=CCC[C@@H](C)C(=O)C[C@@H](C(C)C)C(=O)C1
REMARK SMILES IDX 8 1 9 2 6 3 7 4 5 5 4 6 3 7 2 8 1 9 10 11 11 12 15 13 16 14
REMARK SMILES IDX 17 15 12 17 13 18 14 19
REMARK H PARENT
REMARK Flexibility Score: 70.00
ROOT
ATOM      1  C   UNL     1       0.013   4.674  65.145  1.00  0.00     0.136 C 
ATOM      2  O   UNL     1      -0.555   3.740  65.695  1.00  0.00    -0.299 OA
ENDROOT
BRANCH   1   3
ATOM      3  C   UNL     1      -0.470   5.171  63.792  1.00  0.00     0.053 C 
ATOM      4  C   UNL     1      -1.928   4.772  63.507  1.00  0.00     0.016 C 
BRANCH   3   5
ATOM      5  C   UNL     1       0.468   4.718  62.652  1.00  0.00     0.015 C 
BRANCH   5   6
ATOM      6  C   UNL     1       1.223   5.876  61.959  1.00  0.00     0.028 C 
BRANCH   6   7
ATOM      7  C   UNL     1       2.713   5.742  62.159  1.00  0.00    -0.028 C 
ATOM      8  C   UNL     1       3.484   6.563  62.914  1.00  0.00    -0.070 CG0
ATOM      9  C   UNL     1       4.972   6.323  62.918  1.00  0.00     0.039 C 
ATOM     10  G   UNL     1       2.920   7.682  63.777  1.00  0.00     0.000 G0
ENDBRANCH   6   7
ENDBRANCH   5   6
ENDBRANCH   3   5
ENDBRANCH   1   3
BRANCH   1  11
ATOM     11  C   UNL     1       1.208   5.303  65.825  1.00  0.00     0.087 C 
BRANCH  11  12
ATOM     12  C   UNL     1       1.247   6.854  65.714  1.00  0.00     0.066 C 
BRANCH  12  13
ATOM     13  C   UNL     1       2.613   7.324  65.223  1.00  0.00     0.140 C 
ATOM     14  O   UNL     1       3.515   7.432  66.040  1.00  0.00    -0.299 OA
BRANCH  13  15
ATOM     15  C   UNL     1       2.927   7.686  63.783  1.00  0.00     0.106 CG0
ATOM     16  G   UNL     1       3.467   6.557  62.917  1.00  0.00     0.000 G0
ENDBRANCH  13  15
ENDBRANCH  12  13
BRANCH  12  17
ATOM     17  C   UNL     1       0.898   7.538  67.073  1.00  0.00    -0.006 C 
ATOM     18  C   UNL     1      -0.600   7.880  67.163  1.00  0.00     0.008 C 
ATOM     19  C   UNL     1       1.279   6.663  68.281  1.00  0.00     0.008 C 
ENDBRANCH  12  17
ENDBRANCH  11  12
ENDBRANCH   1  11
TORSDOF 1
ENDMDL
MODEL 3
REMARK VINA RESULT:    -3.204     12.478     15.377
REMARK INTER + INTRA:          -4.873
REMARK INTER:                  -4.500
REMARK INTRA:                  -0.373
REMARK UNBOUND:                 0.017
REMARK SMILES CC1=CCC[C@@H](C)C(=O)C[C@@H](C(C)C)C(=O)C1
REMARK SMILES IDX 8 1 9 2 6 3 7 4 5 5 4 6 3 7 2 8 1 9 10 11 11 12 15 13 16 14
REMARK SMILES IDX 17 15 12 17 13 18 14 19
REMARK H PARENT
REMARK Flexibility Score: 70.00
ROOT
ATOM      1  C   UNL     1       1.441  19.622  73.076  1.00  0.00     0.136 C 
ATOM      2  O   UNL     1       2.362  19.677  72.272  1.00  0.00    -0.299 OA
ENDROOT
BRANCH   1   3
ATOM      3  C   UNL     1       0.078  20.192  72.715  1.00  0.00     0.053 C 
ATOM      4  C   UNL     1      -0.783  20.481  73.955  1.00  0.00     0.016 C 
BRANCH   3   5
ATOM      5  C   UNL     1      -0.669  19.287  71.712  1.00  0.00     0.015 C 
BRANCH   5   6
ATOM      6  C   UNL     1      -1.412  18.099  72.367  1.00  0.00     0.028 C 
BRANCH   6   7
ATOM      7  C   UNL     1      -0.747  16.789  72.018  1.00  0.00    -0.028 C 
ATOM      8  C   UNL     1      -0.042  16.010  72.874  1.00  0.00    -0.070 CG0
ATOM      9  C   UNL     1       0.628  14.781  72.316  1.00  0.00     0.039 C 
ATOM     10  G   UNL     1       0.073  16.295  74.364  1.00  0.00     0.000 G0
ENDBRANCH   6   7
ENDBRANCH   5   6
ENDBRANCH   3   5
ENDBRANCH   1   3
BRANCH   1  11
ATOM     11  C   UNL     1       1.691  18.999  74.430  1.00  0.00     0.087 C 
BRANCH  11  12
ATOM     12  C   UNL     1       2.410  17.622  74.364  1.00  0.00     0.066 C 
BRANCH  12  13
ATOM     13  C   UNL     1       1.496  16.511  74.871  1.00  0.00     0.140 C 
ATOM     14  O   UNL     1       1.924  15.760  75.735  1.00  0.00    -0.299 OA
BRANCH  13  15
ATOM     15  C   UNL     1       0.087  16.262  74.363  1.00  0.00     0.106 CG0
ATOM     16  G   UNL     1      -0.047  16.029  72.866  1.00  0.00     0.000 G0
ENDBRANCH  13  15
ENDBRANCH  12  13
BRANCH  12  17
ATOM     17  C   UNL     1       3.747  17.631  75.171  1.00  0.00    -0.006 C 
ATOM     18  C   UNL     1       4.945  17.257  74.280  1.00  0.00     0.008 C 
ATOM     19  C   UNL     1       4.023  18.997  75.824  1.00  0.00     0.008 C 
ENDBRANCH  12  17
ENDBRANCH  11  12
ENDBRANCH   1  11
TORSDOF 1
ENDMDL
MODEL 4
REMARK VINA RESULT:    -3.025     13.235     15.570
REMARK INTER + INTRA:          -4.599
REMARK INTER:                  -4.420
REMARK INTRA:                  -0.179
REMARK UNBOUND:                 0.017
REMARK SMILES CC1=CCC[C@@H](C)C(=O)C[C@@H](C(C)C)C(=O)C1
REMARK SMILES IDX 8 1 9 2 6 3 7 4 5 5 4 6 3 7 2 8 1 9 10 11 11 12 15 13 16 14
REMARK SMILES IDX 17 15 12 17 13 18 14 19
REMARK H PARENT
REMARK Flexibility Score: 70.00
ROOT
ATOM      1  C   UNL     1       6.361  17.461  71.253  1.00  0.00     0.136 C 
ATOM      2  O   UNL     1       7.272  17.852  70.536  1.00  0.00    -0.299 OA
ENDROOT
BRANCH   1   3
ATOM      3  C   UNL     1       6.087  15.972  71.395  1.00  0.00     0.053 C 
ATOM      4  C   UNL     1       6.701  15.151  70.249  1.00  0.00     0.016 C 
BRANCH   3   5
ATOM      5  C   UNL     1       4.578  15.685  71.545  1.00  0.00     0.015 C 
BRANCH   5   6
ATOM      6  C   UNL     1       4.201  14.962  72.860  1.00  0.00     0.028 C 
BRANCH   6   7
ATOM      7  C   UNL     1       2.862  15.437  73.370  1.00  0.00    -0.028 C 
ATOM      8  C   UNL     1       2.671  16.357  74.346  1.00  0.00    -0.070 CG0
ATOM      9  C   UNL     1       1.256  16.635  74.784  1.00  0.00     0.039 C 
ATOM     10  G   UNL     1       3.804  17.143  74.990  1.00  0.00     0.000 G0
ENDBRANCH   6   7
ENDBRANCH   5   6
ENDBRANCH   3   5
ENDBRANCH   1   3
BRANCH   1  11
ATOM     11  C   UNL     1       5.510  18.482  71.973  1.00  0.00     0.087 C 
BRANCH  11  12
ATOM     12  C   UNL     1       5.659  18.443  73.520  1.00  0.00     0.066 C 
BRANCH  12  13
ATOM     13  C   UNL     1       4.291  18.366  74.192  1.00  0.00     0.140 C 
ATOM     14  O   UNL     1       3.543  19.327  74.093  1.00  0.00    -0.299 OA
BRANCH  13  15
ATOM     15  C   UNL     1       3.797  17.175  74.993  1.00  0.00     0.106 CG0
ATOM     16  G   UNL     1       2.681  16.362  74.355  1.00  0.00     0.000 G0
ENDBRANCH  13  15
ENDBRANCH  12  13
BRANCH  12  17
ATOM     17  C   UNL     1       6.451  19.678  74.054  1.00  0.00    -0.006 C 
ATOM     18  C   UNL     1       7.944  19.353  74.238  1.00  0.00     0.008 C 
ATOM     19  C   UNL     1       6.322  20.899  73.125  1.00  0.00     0.008 C 
ENDBRANCH  12  17
ENDBRANCH  11  12
ENDBRANCH   1  11
TORSDOF 1
ENDMDL
MODEL 5
REMARK VINA RESULT:    -3.021     11.803     14.180
REMARK INTER + INTRA:          -4.594
REMARK INTER:                  -4.171
REMARK INTRA:                  -0.423
REMARK UNBOUND:                 0.017
REMARK SMILES CC1=CCC[C@@H](C)C(=O)C[C@@H](C(C)C)C(=O)C1
REMARK SMILES IDX 8 1 9 2 6 3 7 4 5 5 4 6 3 7 2 8 1 9 10 11 11 12 15 13 16 14
REMARK SMILES IDX 17 15 12 17 13 18 14 19
REMARK H PARENT
REMARK Flexibility Score: 70.00
ROOT
ATOM      1  C   UNL     1       2.454  18.080  73.664  1.00  0.00     0.136 C 
ATOM      2  O   UNL     1       2.565  19.053  72.930  1.00  0.00    -0.299 OA
ENDROOT
BRANCH   1   3
ATOM      3  C   UNL     1       3.646  17.597  74.476  1.00  0.00     0.053 C 
ATOM      4  C   UNL     1       3.853  18.420  75.759  1.00  0.00     0.016 C 
BRANCH   3   5
ATOM      5  C   UNL     1       4.933  17.553  73.625  1.00  0.00     0.015 C 
BRANCH   5   6
ATOM      6  C   UNL     1       5.032  16.321  72.695  1.00  0.00     0.028 C 
BRANCH   6   7
ATOM      7  C   UNL     1       4.662  16.687  71.278  1.00  0.00    -0.028 C 
ATOM      8  C   UNL     1       3.643  16.147  70.565  1.00  0.00    -0.070 CG0
ATOM      9  C   UNL     1       3.486  16.575  69.129  1.00  0.00     0.039 C 
ATOM     10  G   UNL     1       2.638  15.167  71.152  1.00  0.00     0.000 G0
ENDBRANCH   6   7
ENDBRANCH   5   6
ENDBRANCH   3   5
ENDBRANCH   1   3
BRANCH   1  11
ATOM     11  C   UNL     1       1.126  17.362  73.729  1.00  0.00     0.087 C 
BRANCH  11  12
ATOM     12  C   UNL     1       1.197  15.871  73.294  1.00  0.00     0.066 C 
BRANCH  12  13
ATOM     13  C   UNL     1       1.405  15.758  71.787  1.00  0.00     0.140 C 
ATOM     14  O   UNL     1       0.519  16.165  71.049  1.00  0.00    -0.299 OA
BRANCH  13  15
ATOM     15  C   UNL     1       2.636  15.157  71.135  1.00  0.00     0.106 CG0
ATOM     16  G   UNL     1       3.636  16.151  70.562  1.00  0.00     0.000 G0
ENDBRANCH  13  15
ENDBRANCH  12  13
BRANCH  12  17
ATOM     17  C   UNL     1      -0.082  15.084  73.722  1.00  0.00    -0.006 C 
ATOM     18  C   UNL     1       0.143  13.563  73.651  1.00  0.00     0.008 C 
ATOM     19  C   UNL     1      -0.542  15.451  75.145  1.00  0.00     0.008 C 
ENDBRANCH  12  17
ENDBRANCH  11  12
ENDBRANCH   1  11
TORSDOF 1
ENDMDL
MODEL 6
REMARK VINA RESULT:    -2.988     11.935     14.589
REMARK INTER + INTRA:          -4.543
REMARK INTER:                  -3.981
REMARK INTRA:                  -0.562
REMARK UNBOUND:                 0.017
REMARK SMILES CC1=CCC[C@@H](C)C(=O)C[C@@H](C(C)C)C(=O)C1
REMARK SMILES IDX 8 1 9 2 6 3 7 4 5 5 4 6 3 7 2 8 1 9 10 11 11 12 15 13 16 14
REMARK SMILES IDX 17 15 12 17 13 18 14 19
REMARK H PARENT
REMARK Flexibility Score: 70.00
ROOT
ATOM      1  C   UNL     1      -0.008  17.659  72.487  1.00  0.00     0.136 C 
ATOM      2  O   UNL     1      -0.617  18.232  71.594  1.00  0.00    -0.299 OA
ENDROOT
BRANCH   1   3
ATOM      3  C   UNL     1      -0.140  18.132  73.926  1.00  0.00     0.053 C 
ATOM      4  C   UNL     1      -1.600  18.412  74.320  1.00  0.00     0.016 C 
BRANCH   3   5
ATOM      5  C   UNL     1       0.760  19.354  74.208  1.00  0.00     0.015 C 
BRANCH   5   6
ATOM      6  C   UNL     1       2.104  19.003  74.890  1.00  0.00     0.028 C 
BRANCH   6   7
ATOM      7  C   UNL     1       3.234  19.011  73.890  1.00  0.00    -0.028 C 
ATOM      8  C   UNL     1       4.035  17.958  73.597  1.00  0.00    -0.070 CG0
ATOM      9  C   UNL     1       5.172  18.187  72.634  1.00  0.00     0.039 C 
ATOM     10  G   UNL     1       3.821  16.561  74.159  1.00  0.00     0.000 G0
ENDBRANCH   6   7
ENDBRANCH   5   6
ENDBRANCH   3   5
ENDBRANCH   1   3
BRANCH   1  11
ATOM     11  C   UNL     1       0.887  16.494  72.129  1.00  0.00     0.087 C 
BRANCH  11  12
ATOM     12  C   UNL     1       1.401  15.697  73.361  1.00  0.00     0.066 C 
BRANCH  12  13
ATOM     13  C   UNL     1       2.925  15.626  73.359  1.00  0.00     0.140 C 
ATOM     14  O   UNL     1       3.463  14.766  72.676  1.00  0.00    -0.299 OA
BRANCH  13  15
ATOM     15  C   UNL     1       3.827  16.544  74.163  1.00  0.00     0.106 CG0
ATOM     16  G   UNL     1       4.011  17.949  73.608  1.00  0.00     0.000 G0
ENDBRANCH  13  15
ENDBRANCH  12  13
BRANCH  12  17
ATOM     17  C   UNL     1       0.794  14.260  73.413  1.00  0.00    -0.006 C 
ATOM     18  C   UNL     1       0.098  13.990  74.759  1.00  0.00     0.008 C 
ATOM     19  C   UNL     1      -0.214  14.012  72.275  1.00  0.00     0.008 C 
ENDBRANCH  12  17
ENDBRANCH  11  12
ENDBRANCH   1  11
TORSDOF 1
ENDMDL
MODEL 7
REMARK VINA RESULT:    -2.926     10.616     13.406
REMARK INTER + INTRA:          -4.449
REMARK INTER:                  -3.913
REMARK INTRA:                  -0.536
REMARK UNBOUND:                 0.017
REMARK SMILES CC1=CCC[C@@H](C)C(=O)C[C@@H](C(C)C)C(=O)C1
REMARK SMILES IDX 8 1 9 2 6 3 7 4 5 5 4 6 3 7 2 8 1 9 10 11 11 12 15 13 16 14
REMARK SMILES IDX 17 15 12 17 13 18 14 19
REMARK H PARENT
REMARK Flexibility Score: 70.00
ROOT
ATOM      1  C   UNL     1       0.601  15.158  71.146  1.00  0.00     0.136 C 
ATOM      2  O   UNL     1      -0.080  15.368  70.151  1.00  0.00    -0.299 OA
ENDROOT
BRANCH   1   3
ATOM      3  C   UNL     1       0.334  13.935  72.009  1.00  0.00     0.053 C 
ATOM      4  C   UNL     1       0.737  12.626  71.311  1.00  0.00     0.016 C 
BRANCH   3   5
ATOM      5  C   UNL     1      -1.133  13.887  72.488  1.00  0.00     0.015 C 
BRANCH   5   6
ATOM      6  C   UNL     1      -1.376  14.584  73.847  1.00  0.00     0.028 C 
BRANCH   6   7
ATOM      7  C   UNL     1      -1.893  15.988  73.646  1.00  0.00    -0.028 C 
ATOM      8  C   UNL     1      -1.273  17.122  74.054  1.00  0.00    -0.070 CG0
ATOM      9  C   UNL     1      -1.991  18.430  73.843  1.00  0.00     0.039 C 
ATOM     10  G   UNL     1       0.117  17.141  74.674  1.00  0.00     0.000 G0
ENDBRANCH   6   7
ENDBRANCH   5   6
ENDBRANCH   3   5
ENDBRANCH   1   3
BRANCH   1  11
ATOM     11  C   UNL     1       1.689  16.143  71.506  1.00  0.00     0.087 C 
BRANCH  11  12
ATOM     12  C   UNL     1       2.023  16.181  73.024  1.00  0.00     0.066 C 
BRANCH  12  13
ATOM     13  C   UNL     1       1.282  17.326  73.710  1.00  0.00     0.140 C 
ATOM     14  O   UNL     1       1.646  18.470  73.480  1.00  0.00    -0.299 OA
BRANCH  13  15
ATOM     15  C   UNL     1       0.128  17.141  74.678  1.00  0.00     0.106 CG0
ATOM     16  G   UNL     1      -1.260  17.105  74.057  1.00  0.00     0.000 G0
ENDBRANCH  13  15
ENDBRANCH  12  13
BRANCH  12  17
ATOM     17  C   UNL     1       3.559  16.307  73.275  1.00  0.00    -0.006 C 
ATOM     18  C   UNL     1       3.907  16.095  74.759  1.00  0.00     0.008 C 
ATOM     19  C   UNL     1       4.370  15.309  72.428  1.00  0.00     0.008 C 
ENDBRANCH  12  17
ENDBRANCH  11  12
ENDBRANCH   1  11
TORSDOF 1
ENDMDL
MODEL 8
REMARK VINA RESULT:    -2.919      2.055      4.522
REMARK INTER + INTRA:          -4.438
REMARK INTER:                  -3.978
REMARK INTRA:                  -0.460
REMARK UNBOUND:                 0.017
REMARK SMILES CC1=CCC[C@@H](C)C(=O)C[C@@H](C(C)C)C(=O)C1
REMARK SMILES IDX 8 1 9 2 6 3 7 4 5 5 4 6 3 7 2 8 1 9 10 11 11 12 15 13 16 14
REMARK SMILES IDX 17 15 12 17 13 18 14 19
REMARK H PARENT
REMARK Flexibility Score: 70.00
ROOT
ATOM      1  C   UNL     1       0.507   6.646  64.851  1.00  0.00     0.136 C 
ATOM      2  O   UNL     1       0.961   5.934  65.736  1.00  0.00    -0.299 OA
ENDROOT
BRANCH   1   3
ATOM      3  C   UNL     1      -0.297   6.033  63.715  1.00  0.00     0.053 C 
ATOM      4  C   UNL     1      -1.678   5.539  64.174  1.00  0.00     0.016 C 
BRANCH   3   5
ATOM      5  C   UNL     1       0.491   4.913  63.002  1.00  0.00     0.015 C 
BRANCH   5   6
ATOM      6  C   UNL     1       1.115   5.341  61.653  1.00  0.00     0.028 C 
BRANCH   6   7
ATOM      7  C   UNL     1       2.564   5.725  61.828  1.00  0.00    -0.028 C 
ATOM      8  C   UNL     1       3.065   6.980  61.723  1.00  0.00    -0.070 CG0
ATOM      9  C   UNL     1       4.557   7.154  61.841  1.00  0.00     0.039 C 
ATOM     10  G   UNL     1       2.197   8.215  61.531  1.00  0.00     0.000 G0
ENDBRANCH   6   7
ENDBRANCH   5   6
ENDBRANCH   3   5
ENDBRANCH   1   3
BRANCH   1  11
ATOM     11  C   UNL     1       0.775   8.133  64.901  1.00  0.00     0.087 C 
BRANCH  11  12
ATOM     12  C   UNL     1       0.539   8.858  63.546  1.00  0.00     0.066 C 
BRANCH  12  13
ATOM     13  C   UNL     1       1.848   8.998  62.774  1.00  0.00     0.140 C 
ATOM     14  O   UNL     1       2.677   9.799  63.182  1.00  0.00    -0.299 OA
BRANCH  13  15
ATOM     15  C   UNL     1       2.189   8.218  61.517  1.00  0.00     0.106 CG0
ATOM     16  G   UNL     1       3.063   6.988  61.715  1.00  0.00     0.000 G0
ENDBRANCH  13  15
ENDBRANCH  12  13
BRANCH  12  17
ATOM     17  C   UNL     1      -0.119  10.260  63.748  1.00  0.00    -0.006 C 
ATOM     18  C   UNL     1      -1.514  10.325  63.103  1.00  0.00     0.008 C 
ATOM     19  C   UNL     1      -0.243  10.634  65.237  1.00  0.00     0.008 C 
ENDBRANCH  12  17
ENDBRANCH  11  12
ENDBRANCH   1  11
TORSDOF 1
ENDMDL
MODEL 9
REMARK VINA RESULT:    -2.888      2.789      5.370
REMARK INTER + INTRA:          -4.390
REMARK INTER:                  -4.165
REMARK INTRA:                  -0.225
REMARK UNBOUND:                 0.017
REMARK SMILES CC1=CCC[C@@H](C)C(=O)C[C@@H](C(C)C)C(=O)C1
REMARK SMILES IDX 8 1 9 2 6 3 7 4 5 5 4 6 3 7 2 8 1 9 10 11 11 12 15 13 16 14
REMARK SMILES IDX 17 15 12 17 13 18 14 19
REMARK H PARENT
REMARK Flexibility Score: 70.00
ROOT
ATOM      1  C   UNL     1      -1.012   6.631  64.207  1.00  0.00     0.136 C 
ATOM      2  O   UNL     1      -0.085   7.422  64.096  1.00  0.00    -0.299 OA
ENDROOT
BRANCH   1   3
ATOM      3  C   UNL     1      -0.824   5.175  63.809  1.00  0.00     0.053 C 
ATOM      4  C   UNL     1      -2.152   4.401  63.774  1.00  0.00     0.016 C 
BRANCH   3   5
ATOM      5  C   UNL     1       0.213   4.469  64.709  1.00  0.00     0.015 C 
BRANCH   5   6
ATOM      6  C   UNL     1      -0.409   3.625  65.846  1.00  0.00     0.028 C 
BRANCH   6   7
ATOM      7  C   UNL     1      -0.240   4.310  67.180  1.00  0.00    -0.028 C 
ATOM      8  C   UNL     1      -1.233   4.883  67.903  1.00  0.00    -0.070 CG0
ATOM      9  C   UNL     1      -0.853   5.602  69.172  1.00  0.00     0.039 C 
ATOM     10  G   UNL     1      -2.703   4.804  67.518  1.00  0.00     0.000 G0
ENDBRANCH   6   7
ENDBRANCH   5   6
ENDBRANCH   3   5
ENDBRANCH   1   3
BRANCH   1  11
ATOM     11  C   UNL     1      -2.341   7.131  64.723  1.00  0.00     0.087 C 
BRANCH  11  12
ATOM     12  C   UNL     1      -2.435   7.173  66.275  1.00  0.00     0.066 C 
BRANCH  12  13
ATOM     13  C   UNL     1      -3.278   6.012  66.795  1.00  0.00     0.140 C 
ATOM     14  O   UNL     1      -4.487   6.053  66.622  1.00  0.00    -0.299 OA
BRANCH  13  15
ATOM     15  C   UNL     1      -2.717   4.809  67.532  1.00  0.00     0.106 CG0
ATOM     16  G   UNL     1      -1.241   4.881  67.894  1.00  0.00     0.000 G0
ENDBRANCH  13  15
ENDBRANCH  12  13
BRANCH  12  17
ATOM     17  C   UNL     1      -3.017   8.530  66.781  1.00  0.00    -0.006 C 
ATOM     18  C   UNL     1      -2.834   8.689  68.301  1.00  0.00     0.008 C 
ATOM     19  C   UNL     1      -2.374   9.738  66.076  1.00  0.00     0.008 C 
ENDBRANCH  12  17
ENDBRANCH  11  12
ENDBRANCH   1  11
TORSDOF 1
ENDMDL
