MODEL 1
REMARK VINA RESULT:    -4.528      0.000      0.000
REMARK INTER + INTRA:          -5.110
REMARK INTER:                  -5.058
REMARK INTRA:                  -0.052
REMARK UNBOUND:                -0.052
REMARK SMILES COc1cc2ccc(=O)oc2c(O)c1O
REMARK SMILES IDX 3 1 14 2 12 3 11 4 5 5 4 6 6 7 7 8 8 9 9 10 10 11 2 12 1 13
REMARK SMILES IDX 15 14 13 16
REMARK H PARENT 15 15 13 17
REMARK Flexibility Score: inf
ROOT
ATOM      1  C   UNL     1      13.963 -14.455 -53.097  1.00  0.00     0.165 A 
ATOM      2  C   UNL     1      13.993 -13.718 -51.901  1.00  0.00     0.204 A 
ATOM      3  C   UNL     1      14.081 -12.304 -51.942  1.00  0.00     0.205 A 
ATOM      4  C   UNL     1      14.137 -11.649 -53.180  1.00  0.00     0.184 A 
ATOM      5  C   UNL     1      14.106 -12.392 -54.378  1.00  0.00     0.025 A 
ATOM      6  C   UNL     1      14.020 -13.787 -54.334  1.00  0.00     0.062 A 
ATOM      7  C   UNL     1      14.164 -11.704 -55.594  1.00  0.00     0.020 A 
ATOM      8  C   UNL     1      14.249 -10.313 -55.591  1.00  0.00     0.094 A 
ATOM      9  C   UNL     1      14.276  -9.640 -54.366  1.00  0.00     0.336 A 
ATOM     10  O   UNL     1      14.353  -8.384 -54.340  1.00  0.00    -0.246 OA
ATOM     11  O   UNL     1      14.220 -10.319 -53.223  1.00  0.00    -0.419 OA
ENDROOT
BRANCH   1  12
ATOM     12  O   UNL     1      13.875 -15.855 -53.012  1.00  0.00    -0.493 OA
ATOM     13  C   UNL     1      13.883 -16.735 -54.132  1.00  0.00     0.278 C 
ENDBRANCH   1  12
BRANCH   2  14
ATOM     14  O   UNL     1      13.934 -14.427 -50.699  1.00  0.00    -0.502 OA
ATOM     15  H   UNL     1      13.655 -14.026 -49.816  1.00  0.00     0.293 HD
ENDBRANCH   2  14
BRANCH   3  16
ATOM     16  O   UNL     1      14.115 -11.520 -50.786  1.00  0.00    -0.502 OA
ATOM     17  H   UNL     1      14.541 -10.606 -50.731  1.00  0.00     0.293 HD
ENDBRANCH   3  16
TORSDOF 3
ENDMDL
MODEL 2
REMARK VINA RESULT:    -4.443      1.773      5.103
REMARK INTER + INTRA:          -5.015
REMARK INTER:                  -4.945
REMARK INTRA:                  -0.070
REMARK UNBOUND:                -0.052
REMARK SMILES COc1cc2ccc(=O)oc2c(O)c1O
REMARK SMILES IDX 3 1 14 2 12 3 11 4 5 5 4 6 6 7 7 8 8 9 9 10 10 11 2 12 1 13
REMARK SMILES IDX 15 14 13 16
REMARK H PARENT 15 15 13 17
REMARK Flexibility Score: inf
ROOT
ATOM      1  C   UNL     1      13.898 -10.881 -55.188  1.00  0.00     0.165 A 
ATOM      2  C   UNL     1      13.893 -12.197 -55.679  1.00  0.00     0.204 A 
ATOM      3  C   UNL     1      13.905 -13.291 -54.778  1.00  0.00     0.205 A 
ATOM      4  C   UNL     1      13.922 -13.050 -53.396  1.00  0.00     0.184 A 
ATOM      5  C   UNL     1      13.928 -11.727 -52.907  1.00  0.00     0.025 A 
ATOM      6  C   UNL     1      13.916 -10.651 -53.799  1.00  0.00     0.062 A 
ATOM      7  C   UNL     1      13.946 -11.526 -51.524  1.00  0.00     0.020 A 
ATOM      8  C   UNL     1      13.956 -12.628 -50.671  1.00  0.00     0.094 A 
ATOM      9  C   UNL     1      13.950 -13.912 -51.225  1.00  0.00     0.336 A 
ATOM     10  O   UNL     1      13.960 -14.921 -50.473  1.00  0.00    -0.246 OA
ATOM     11  O   UNL     1      13.934 -14.075 -52.545  1.00  0.00    -0.419 OA
ENDROOT
BRANCH   1  12
ATOM     12  O   UNL     1      13.886  -9.826 -56.115  1.00  0.00    -0.493 OA
ATOM     13  C   UNL     1      15.016  -9.023 -56.442  1.00  0.00     0.278 C 
ENDBRANCH   1  12
BRANCH   2  14
ATOM     14  O   UNL     1      13.875 -12.373 -57.064  1.00  0.00    -0.502 OA
ATOM     15  H   UNL     1      13.280 -11.857 -57.696  1.00  0.00     0.293 HD
ENDBRANCH   2  14
BRANCH   3  16
ATOM     16  O   UNL     1      13.900 -14.620 -55.209  1.00  0.00    -0.502 OA
ATOM     17  H   UNL     1      14.723 -15.201 -55.270  1.00  0.00     0.293 HD
ENDBRANCH   3  16
TORSDOF 3
ENDMDL
MODEL 3
REMARK VINA RESULT:    -4.377     11.777     13.653
REMARK INTER + INTRA:          -4.941
REMARK INTER:                  -4.972
REMARK INTRA:                   0.031
REMARK UNBOUND:                -0.052
REMARK SMILES COc1cc2ccc(=O)oc2c(O)c1O
REMARK SMILES IDX 3 1 14 2 12 3 11 4 5 5 4 6 6 7 7 8 8 9 9 10 10 11 2 12 1 13
REMARK SMILES IDX 15 14 13 16
REMARK H PARENT 15 15 13 17
REMARK Flexibility Score: inf
ROOT
ATOM      1  C   UNL     1      22.811 -20.164 -56.416  1.00  0.00     0.165 A 
ATOM      2  C   UNL     1      22.782 -20.452 -55.041  1.00  0.00     0.204 A 
ATOM      3  C   UNL     1      23.992 -20.547 -54.309  1.00  0.00     0.205 A 
ATOM      4  C   UNL     1      25.216 -20.354 -54.967  1.00  0.00     0.184 A 
ATOM      5  C   UNL     1      25.241 -20.065 -56.347  1.00  0.00     0.025 A 
ATOM      6  C   UNL     1      24.045 -19.972 -57.065  1.00  0.00     0.062 A 
ATOM      7  C   UNL     1      26.480 -19.879 -56.968  1.00  0.00     0.020 A 
ATOM      8  C   UNL     1      27.648 -19.981 -56.214  1.00  0.00     0.094 A 
ATOM      9  C   UNL     1      27.547 -20.270 -54.850  1.00  0.00     0.336 A 
ATOM     10  O   UNL     1      28.589 -20.367 -54.150  1.00  0.00    -0.246 OA
ATOM     11  O   UNL     1      26.356 -20.443 -54.284  1.00  0.00    -0.419 OA
ENDROOT
BRANCH   1  12
ATOM     12  O   UNL     1      21.589 -20.078 -57.103  1.00  0.00    -0.493 OA
ATOM     13  C   UNL     1      20.754 -18.925 -57.125  1.00  0.00     0.278 C 
ENDBRANCH   1  12
BRANCH   2  14
ATOM     14  O   UNL     1      21.533 -20.634 -54.442  1.00  0.00    -0.502 OA
ATOM     15  H   UNL     1      20.850 -21.312 -54.746  1.00  0.00     0.293 HD
ENDBRANCH   2  14
BRANCH   3  16
ATOM     16  O   UNL     1      24.023 -20.831 -52.942  1.00  0.00    -0.502 OA
ATOM     17  H   UNL     1      24.810 -20.639 -52.339  1.00  0.00     0.293 HD
ENDBRANCH   3  16
TORSDOF 3
ENDMDL
MODEL 4
REMARK VINA RESULT:    -4.308      0.801      4.716
REMARK INTER + INTRA:          -4.863
REMARK INTER:                  -4.810
REMARK INTRA:                  -0.053
REMARK UNBOUND:                -0.052
REMARK SMILES COc1cc2ccc(=O)oc2c(O)c1O
REMARK SMILES IDX 3 1 14 2 12 3 11 4 5 5 4 6 6 7 7 8 8 9 9 10 10 11 2 12 1 13
REMARK SMILES IDX 15 14 13 16
REMARK H PARENT 15 15 13 17
REMARK Flexibility Score: inf
ROOT
ATOM      1  C   UNL     1      14.005 -11.556 -53.455  1.00  0.00     0.165 A 
ATOM      2  C   UNL     1      14.085 -12.119 -52.170  1.00  0.00     0.204 A 
ATOM      3  C   UNL     1      14.095 -13.527 -52.011  1.00  0.00     0.205 A 
ATOM      4  C   UNL     1      14.024 -14.352 -53.144  1.00  0.00     0.184 A 
ATOM      5  C   UNL     1      13.944 -13.783 -54.431  1.00  0.00     0.025 A 
ATOM      6  C   UNL     1      13.934 -12.393 -54.584  1.00  0.00     0.062 A 
ATOM      7  C   UNL     1      13.875 -14.637 -55.536  1.00  0.00     0.020 A 
ATOM      8  C   UNL     1      13.888 -16.016 -55.339  1.00  0.00     0.094 A 
ATOM      9  C   UNL     1      13.969 -16.511 -54.033  1.00  0.00     0.336 A 
ATOM     10  O   UNL     1      13.982 -17.754 -53.832  1.00  0.00    -0.246 OA
ATOM     11  O   UNL     1      14.033 -15.676 -53.000  1.00  0.00    -0.419 OA
ENDROOT
BRANCH   1  12
ATOM     12  O   UNL     1      13.998 -10.155 -53.567  1.00  0.00    -0.493 OA
ATOM     13  C   UNL     1      14.292  -9.438 -54.761  1.00  0.00     0.278 C 
ENDBRANCH   1  12
BRANCH   2  14
ATOM     14  O   UNL     1      14.153 -11.246 -51.081  1.00  0.00    -0.502 OA
ATOM     15  H   UNL     1      14.798 -10.473 -51.012  1.00  0.00     0.293 HD
ENDBRANCH   2  14
BRANCH   3  16
ATOM     16  O   UNL     1      14.173 -14.142 -50.759  1.00  0.00    -0.502 OA
ATOM     17  H   UNL     1      14.049 -15.132 -50.603  1.00  0.00     0.293 HD
ENDBRANCH   3  16
TORSDOF 3
ENDMDL
MODEL 5
REMARK VINA RESULT:    -3.832     11.482     13.565
REMARK INTER + INTRA:          -4.332
REMARK INTER:                  -4.284
REMARK INTRA:                  -0.048
REMARK UNBOUND:                -0.052
REMARK SMILES COc1cc2ccc(=O)oc2c(O)c1O
REMARK SMILES IDX 3 1 14 2 12 3 11 4 5 5 4 6 6 7 7 8 8 9 9 10 10 11 2 12 1 13
REMARK SMILES IDX 15 14 13 16
REMARK H PARENT 15 15 13 17
REMARK Flexibility Score: inf
ROOT
ATOM      1  C   UNL     1      25.906 -19.644 -56.551  1.00  0.00     0.165 A 
ATOM      2  C   UNL     1      25.982 -20.456 -55.407  1.00  0.00     0.204 A 
ATOM      3  C   UNL     1      24.798 -20.975 -54.825  1.00  0.00     0.205 A 
ATOM      4  C   UNL     1      23.555 -20.671 -55.397  1.00  0.00     0.184 A 
ATOM      5  C   UNL     1      23.483 -19.855 -56.545  1.00  0.00     0.025 A 
ATOM      6  C   UNL     1      24.652 -19.345 -57.116  1.00  0.00     0.062 A 
ATOM      7  C   UNL     1      22.225 -19.574 -57.087  1.00  0.00     0.020 A 
ATOM      8  C   UNL     1      21.085 -20.103 -56.486  1.00  0.00     0.094 A 
ATOM      9  C   UNL     1      21.231 -20.905 -55.349  1.00  0.00     0.336 A 
ATOM     10  O   UNL     1      20.214 -21.393 -54.790  1.00  0.00    -0.246 OA
ATOM     11  O   UNL     1      22.439 -21.156 -54.853  1.00  0.00    -0.419 OA
ENDROOT
BRANCH   1  12
ATOM     12  O   UNL     1      27.103 -19.151 -57.096  1.00  0.00    -0.493 OA
ATOM     13  C   UNL     1      27.665 -17.878 -56.793  1.00  0.00     0.278 C 
ENDBRANCH   1  12
BRANCH   2  14
ATOM     14  O   UNL     1      27.249 -20.723 -54.883  1.00  0.00    -0.502 OA
ATOM     15  H   UNL     1      27.963 -21.252 -55.362  1.00  0.00     0.293 HD
ENDBRANCH   2  14
BRANCH   3  16
ATOM     16  O   UNL     1      24.813 -21.787 -53.688  1.00  0.00    -0.502 OA
ATOM     17  H   UNL     1      24.094 -22.458 -53.459  1.00  0.00     0.293 HD
ENDBRANCH   3  16
TORSDOF 3
ENDMDL
MODEL 6
REMARK VINA RESULT:    -3.300      4.050      5.792
REMARK INTER + INTRA:          -3.738
REMARK INTER:                  -3.668
REMARK INTRA:                  -0.069
REMARK UNBOUND:                -0.052
REMARK SMILES COc1cc2ccc(=O)oc2c(O)c1O
REMARK SMILES IDX 3 1 14 2 12 3 11 4 5 5 4 6 6 7 7 8 8 9 9 10 10 11 2 12 1 13
REMARK SMILES IDX 15 14 13 16
REMARK H PARENT 15 15 13 17
REMARK Flexibility Score: inf
ROOT
ATOM      1  C   UNL     1      17.502 -17.811 -56.061  1.00  0.00     0.165 A 
ATOM      2  C   UNL     1      18.191 -16.588 -56.116  1.00  0.00     0.204 A 
ATOM      3  C   UNL     1      17.617 -15.423 -55.547  1.00  0.00     0.205 A 
ATOM      4  C   UNL     1      16.360 -15.501 -54.931  1.00  0.00     0.184 A 
ATOM      5  C   UNL     1      15.671 -16.731 -54.878  1.00  0.00     0.025 A 
ATOM      6  C   UNL     1      16.240 -17.877 -55.440  1.00  0.00     0.062 A 
ATOM      7  C   UNL     1      14.420 -16.769 -54.256  1.00  0.00     0.020 A 
ATOM      8  C   UNL     1      13.889 -15.602 -53.708  1.00  0.00     0.094 A 
ATOM      9  C   UNL     1      14.628 -14.418 -53.798  1.00  0.00     0.336 A 
ATOM     10  O   UNL     1      14.168 -13.353 -53.310  1.00  0.00    -0.246 OA
ATOM     11  O   UNL     1      15.816 -14.409 -54.396  1.00  0.00    -0.419 OA
ENDROOT
BRANCH   1  12
ATOM     12  O   UNL     1      18.107 -18.941 -56.636  1.00  0.00    -0.493 OA
ATOM     13  C   UNL     1      18.607 -20.053 -55.901  1.00  0.00     0.278 C 
ENDBRANCH   1  12
BRANCH   2  14
ATOM     14  O   UNL     1      19.440 -16.574 -56.742  1.00  0.00    -0.502 OA
ATOM     15  H   UNL     1      19.598 -16.843 -57.702  1.00  0.00     0.293 HD
ENDBRANCH   2  14
BRANCH   3  16
ATOM     16  O   UNL     1      18.257 -14.181 -55.572  1.00  0.00    -0.502 OA
ATOM     17  H   UNL     1      17.794 -13.300 -55.403  1.00  0.00     0.293 HD
ENDBRANCH   3  16
TORSDOF 3
ENDMDL
MODEL 7
REMARK VINA RESULT:    -3.268      9.837     11.810
REMARK INTER + INTRA:          -3.702
REMARK INTER:                  -3.634
REMARK INTRA:                  -0.068
REMARK UNBOUND:                -0.052
REMARK SMILES COc1cc2ccc(=O)oc2c(O)c1O
REMARK SMILES IDX 3 1 14 2 12 3 11 4 5 5 4 6 6 7 7 8 8 9 9 10 10 11 2 12 1 13
REMARK SMILES IDX 15 14 13 16
REMARK H PARENT 15 15 13 17
REMARK Flexibility Score: inf
ROOT
ATOM      1  C   UNL     1      18.728 -22.053 -55.134  1.00  0.00     0.165 A 
ATOM      2  C   UNL     1      19.163 -20.859 -54.535  1.00  0.00     0.204 A 
ATOM      3  C   UNL     1      20.500 -20.422 -54.712  1.00  0.00     0.205 A 
ATOM      4  C   UNL     1      21.382 -21.189 -55.487  1.00  0.00     0.184 A 
ATOM      5  C   UNL     1      20.942 -22.387 -56.086  1.00  0.00     0.025 A 
ATOM      6  C   UNL     1      19.623 -22.815 -55.909  1.00  0.00     0.062 A 
ATOM      7  C   UNL     1      21.850 -23.125 -56.851  1.00  0.00     0.020 A 
ATOM      8  C   UNL     1      23.156 -22.661 -57.002  1.00  0.00     0.094 A 
ATOM      9  C   UNL     1      23.524 -21.464 -56.379  1.00  0.00     0.336 A 
ATOM     10  O   UNL     1      24.698 -21.028 -56.501  1.00  0.00    -0.246 OA
ATOM     11  O   UNL     1      22.640 -20.782 -55.656  1.00  0.00    -0.419 OA
ENDROOT
BRANCH   1  12
ATOM     12  O   UNL     1      17.396 -22.450 -54.933  1.00  0.00    -0.493 OA
ATOM     13  C   UNL     1      16.423 -22.569 -55.966  1.00  0.00     0.278 C 
ENDBRANCH   1  12
BRANCH   2  14
ATOM     14  O   UNL     1      18.238 -20.139 -53.775  1.00  0.00    -0.502 OA
ATOM     15  H   UNL     1      17.763 -20.503 -52.963  1.00  0.00     0.293 HD
ENDBRANCH   2  14
BRANCH   3  16
ATOM     16  O   UNL     1      20.987 -19.244 -54.141  1.00  0.00    -0.502 OA
ATOM     17  H   UNL     1      21.158 -19.118 -53.154  1.00  0.00     0.293 HD
ENDBRANCH   3  16
TORSDOF 3
ENDMDL
MODEL 8
REMARK VINA RESULT:    -3.164      4.473      6.828
REMARK INTER + INTRA:          -3.586
REMARK INTER:                  -3.548
REMARK INTRA:                  -0.038
REMARK UNBOUND:                -0.052
REMARK SMILES COc1cc2ccc(=O)oc2c(O)c1O
REMARK SMILES IDX 3 1 14 2 12 3 11 4 5 5 4 6 6 7 7 8 8 9 9 10 10 11 2 12 1 13
REMARK SMILES IDX 15 14 13 16
REMARK H PARENT 15 15 13 17
REMARK Flexibility Score: inf
ROOT
ATOM      1  C   UNL     1      18.334 -13.653 -56.596  1.00  0.00     0.165 A 
ATOM      2  C   UNL     1      18.952 -14.915 -56.572  1.00  0.00     0.204 A 
ATOM      3  C   UNL     1      18.261 -16.035 -56.047  1.00  0.00     0.205 A 
ATOM      4  C   UNL     1      16.958 -15.874 -55.552  1.00  0.00     0.184 A 
ATOM      5  C   UNL     1      16.341 -14.607 -55.578  1.00  0.00     0.025 A 
ATOM      6  C   UNL     1      17.027 -13.504 -56.096  1.00  0.00     0.062 A 
ATOM      7  C   UNL     1      15.042 -14.486 -55.075  1.00  0.00     0.020 A 
ATOM      8  C   UNL     1      14.395 -15.611 -54.567  1.00  0.00     0.094 A 
ATOM      9  C   UNL     1      15.068 -16.837 -54.573  1.00  0.00     0.336 A 
ATOM     10  O   UNL     1      14.503 -17.866 -54.119  1.00  0.00    -0.246 OA
ATOM     11  O   UNL     1      16.304 -16.924 -55.057  1.00  0.00    -0.419 OA
ENDROOT
BRANCH   1  12
ATOM     12  O   UNL     1      19.055 -12.570 -57.125  1.00  0.00    -0.493 OA
ATOM     13  C   UNL     1      19.870 -11.689 -56.358  1.00  0.00     0.278 C 
ENDBRANCH   1  12
BRANCH   2  14
ATOM     14  O   UNL     1      20.250 -15.011 -57.079  1.00  0.00    -0.502 OA
ATOM     15  H   UNL     1      20.474 -15.079 -58.061  1.00  0.00     0.293 HD
ENDBRANCH   2  14
BRANCH   3  16
ATOM     16  O   UNL     1      18.826 -17.312 -55.998  1.00  0.00    -0.502 OA
ATOM     17  H   UNL     1      18.692 -18.020 -56.705  1.00  0.00     0.293 HD
ENDBRANCH   3  16
TORSDOF 3
ENDMDL
