MODEL 1
REMARK VINA RESULT:     5.636      0.000      0.000
REMARK INTER + INTRA:           6.376
REMARK INTER:                   6.295
REMARK INTRA:                   0.081
REMARK UNBOUND:                 0.081
REMARK SMILES COc1cc2ccc(=O)oc2cc1OC
REMARK SMILES IDX 3 1 13 2 12 3 11 4 5 5 4 6 6 7 7 8 8 9 9 10 10 11 2 12 1 13
REMARK SMILES IDX 14 14 15 15
REMARK H PARENT
REMARK Flexibility Score: inf
ROOT
ATOM      1  C   UNL     1      27.499  29.725   2.229  1.00  0.00     0.161 A 
ATOM      2  C   UNL     1      27.518  29.586   0.831  1.00  0.00     0.164 A 
ATOM      3  C   UNL     1      27.173  28.351   0.246  1.00  0.00     0.098 A 
ATOM      4  C   UNL     1      26.812  27.266   1.046  1.00  0.00     0.142 A 
ATOM      5  C   UNL     1      26.792  27.404   2.449  1.00  0.00     0.022 A 
ATOM      6  C   UNL     1      27.135  28.628   3.036  1.00  0.00     0.062 A 
ATOM      7  C   UNL     1      26.427  26.297   3.223  1.00  0.00     0.019 A 
ATOM      8  C   UNL     1      26.095  25.099   2.591  1.00  0.00     0.094 A 
ATOM      9  C   UNL     1      26.136  25.036   1.195  1.00  0.00     0.336 A 
ATOM     10  O   UNL     1      25.839  23.964   0.605  1.00  0.00    -0.246 OA
ATOM     11  O   UNL     1      26.488  26.103   0.483  1.00  0.00    -0.423 OA
ENDROOT
BRANCH   1  12
ATOM     12  O   UNL     1      27.849  30.969   2.778  1.00  0.00    -0.493 OA
ATOM     13  C   UNL     1      28.557  31.142   4.001  1.00  0.00     0.278 C 
ENDBRANCH   1  12
BRANCH   2  14
ATOM     14  O   UNL     1      27.886  30.698   0.057  1.00  0.00    -0.493 OA
ATOM     15  C   UNL     1      27.081  31.859  -0.123  1.00  0.00     0.278 C 
ENDBRANCH   2  14
TORSDOF 2
ENDMDL
MODEL 2
REMARK VINA RESULT:     6.110      1.462      2.695
REMARK INTER + INTRA:           6.905
REMARK INTER:                   7.014
REMARK INTRA:                  -0.108
REMARK UNBOUND:                 0.081
REMARK SMILES COc1cc2ccc(=O)oc2cc1OC
REMARK SMILES IDX 3 1 13 2 12 3 11 4 5 5 4 6 6 7 7 8 8 9 9 10 10 11 2 12 1 13
REMARK SMILES IDX 14 14 15 15
REMARK H PARENT
REMARK Flexibility Score: inf
ROOT
ATOM      1  C   UNL     1      27.693  29.471   1.489  1.00  0.00     0.161 A 
ATOM      2  C   UNL     1      28.559  28.885   2.427  1.00  0.00     0.164 A 
ATOM      3  C   UNL     1      28.437  27.514   2.731  1.00  0.00     0.098 A 
ATOM      4  C   UNL     1      27.461  26.736   2.105  1.00  0.00     0.142 A 
ATOM      5  C   UNL     1      26.592  27.323   1.164  1.00  0.00     0.022 A 
ATOM      6  C   UNL     1      26.708  28.684   0.858  1.00  0.00     0.062 A 
ATOM      7  C   UNL     1      25.624  26.516   0.555  1.00  0.00     0.019 A 
ATOM      8  C   UNL     1      25.548  25.165   0.893  1.00  0.00     0.094 A 
ATOM      9  C   UNL     1      26.444  24.652   1.835  1.00  0.00     0.336 A 
ATOM     10  O   UNL     1      26.392  23.434   2.155  1.00  0.00    -0.246 OA
ATOM     11  O   UNL     1      27.354  25.441   2.400  1.00  0.00    -0.423 OA
ENDROOT
BRANCH   1  12
ATOM     12  O   UNL     1      27.843  30.839   1.210  1.00  0.00    -0.493 OA
ATOM     13  C   UNL     1      27.835  31.403  -0.098  1.00  0.00     0.278 C 
ENDBRANCH   1  12
BRANCH   2  14
ATOM     14  O   UNL     1      29.528  29.698   3.037  1.00  0.00    -0.493 OA
ATOM     15  C   UNL     1      30.484  29.240   3.989  1.00  0.00     0.278 C 
ENDBRANCH   2  14
TORSDOF 2
ENDMDL
MODEL 3
REMARK VINA RESULT:     7.067      2.176      5.125
REMARK INTER + INTRA:           7.974
REMARK INTER:                   8.106
REMARK INTRA:                  -0.132
REMARK UNBOUND:                 0.081
REMARK SMILES COc1cc2ccc(=O)oc2cc1OC
REMARK SMILES IDX 3 1 13 2 12 3 11 4 5 5 4 6 6 7 7 8 8 9 9 10 10 11 2 12 1 13
REMARK SMILES IDX 14 14 15 15
REMARK H PARENT
REMARK Flexibility Score: inf
ROOT
ATOM      1  C   UNL     1      28.428  28.514   1.959  1.00  0.00     0.161 A 
ATOM      2  C   UNL     1      27.108  28.110   2.217  1.00  0.00     0.164 A 
ATOM      3  C   UNL     1      26.034  28.935   1.824  1.00  0.00     0.098 A 
ATOM      4  C   UNL     1      26.275  30.150   1.181  1.00  0.00     0.142 A 
ATOM      5  C   UNL     1      27.600  30.556   0.921  1.00  0.00     0.022 A 
ATOM      6  C   UNL     1      28.670  29.742   1.309  1.00  0.00     0.062 A 
ATOM      7  C   UNL     1      27.808  31.780   0.275  1.00  0.00     0.019 A 
ATOM      8  C   UNL     1      26.709  32.556  -0.092  1.00  0.00     0.094 A 
ATOM      9  C   UNL     1      25.423  32.089   0.198  1.00  0.00     0.336 A 
ATOM     10  O   UNL     1      24.418  32.775  -0.125  1.00  0.00    -0.246 OA
ATOM     11  O   UNL     1      25.254  30.922   0.814  1.00  0.00    -0.423 OA
ENDROOT
BRANCH   1  12
ATOM     12  O   UNL     1      29.473  27.668   2.363  1.00  0.00    -0.493 OA
ATOM     13  C   UNL     1      30.512  28.040   3.263  1.00  0.00     0.278 C 
ENDBRANCH   1  12
BRANCH   2  14
ATOM     14  O   UNL     1      26.902  26.882   2.866  1.00  0.00    -0.493 OA
ATOM     15  C   UNL     1      26.409  25.706   2.232  1.00  0.00     0.278 C 
ENDBRANCH   2  14
TORSDOF 2
ENDMDL
MODEL 4
REMARK VINA RESULT:     7.277      1.985      2.891
REMARK INTER + INTRA:           8.209
REMARK INTER:                   8.156
REMARK INTRA:                   0.053
REMARK UNBOUND:                 0.081
REMARK SMILES COc1cc2ccc(=O)oc2cc1OC
REMARK SMILES IDX 3 1 13 2 12 3 11 4 5 5 4 6 6 7 7 8 8 9 9 10 10 11 2 12 1 13
REMARK SMILES IDX 14 14 15 15
REMARK H PARENT
REMARK Flexibility Score: inf
ROOT
ATOM      1  C   UNL     1      27.627  31.521   0.344  1.00  0.00     0.161 A 
ATOM      2  C   UNL     1      26.238  31.313   0.344  1.00  0.00     0.164 A 
ATOM      3  C   UNL     1      25.713  30.090   0.808  1.00  0.00     0.098 A 
ATOM      4  C   UNL     1      26.566  29.084   1.267  1.00  0.00     0.142 A 
ATOM      5  C   UNL     1      27.960  29.291   1.268  1.00  0.00     0.022 A 
ATOM      6  C   UNL     1      28.487  30.504   0.807  1.00  0.00     0.062 A 
ATOM      7  C   UNL     1      28.787  28.264   1.733  1.00  0.00     0.019 A 
ATOM      8  C   UNL     1      28.215  27.074   2.181  1.00  0.00     0.094 A 
ATOM      9  C   UNL     1      26.823  26.939   2.152  1.00  0.00     0.336 A 
ATOM     10  O   UNL     1      26.287  25.872   2.552  1.00  0.00    -0.246 OA
ATOM     11  O   UNL     1      26.060  27.932   1.703  1.00  0.00    -0.423 OA
ENDROOT
BRANCH   1  12
ATOM     12  O   UNL     1      28.115  32.751  -0.125  1.00  0.00    -0.493 OA
ATOM     13  C   UNL     1      27.991  33.987   0.571  1.00  0.00     0.278 C 
ENDBRANCH   1  12
BRANCH   2  14
ATOM     14  O   UNL     1      25.411  32.346  -0.125  1.00  0.00    -0.493 OA
ATOM     15  C   UNL     1      24.138  32.674   0.424  1.00  0.00     0.278 C 
ENDBRANCH   2  14
TORSDOF 2
ENDMDL
