MODEL 1
REMARK VINA RESULT:    -5.263      0.000      0.000
REMARK INTER + INTRA:          -5.944
REMARK INTER:                  -5.879
REMARK INTRA:                  -0.065
REMARK UNBOUND:                -0.065
REMARK SMILES O=C([O-])c1ccccc1C(=O)[O-]
REMARK SMILES IDX 4 1 9 2 5 3 8 4 6 5 7 6 2 7 1 8 3 9 10 10 11 11 12 12
REMARK H PARENT
REMARK Flexibility Score: inf
ROOT
ATOM      1  C   UNL     1      -1.649   0.493  -7.053  1.00  0.00     0.006 A 
ATOM      2  C   UNL     1      -1.181   0.055  -5.783  1.00  0.00     0.006 A 
ATOM      3  C   UNL     1      -3.035   0.627  -7.262  1.00  0.00     0.010 A 
ATOM      4  C   UNL     1      -2.111  -0.169  -4.751  1.00  0.00     0.010 A 
ATOM      5  C   UNL     1      -3.940   0.377  -6.231  1.00  0.00     0.001 A 
ATOM      6  C   UNL     1      -3.478  -0.008  -4.974  1.00  0.00     0.001 A 
ENDROOT
BRANCH   1   7
ATOM      7  C   UNL     1      -0.736   0.886  -8.151  1.00  0.00     0.072 C 
ATOM      8  O   UNL     1      -0.365   0.034  -9.002  1.00  0.00    -0.545 OA
ATOM      9  O   UNL     1      -0.330   2.207  -8.298  1.00  0.00    -0.545 OA
ENDBRANCH   1   7
BRANCH   2  10
ATOM     10  C   UNL     1       0.244  -0.247  -5.510  1.00  0.00     0.072 C 
ATOM     11  O   UNL     1       0.856  -1.125  -6.174  1.00  0.00    -0.545 OA
ATOM     12  O   UNL     1       0.904   0.394  -4.468  1.00  0.00    -0.545 OA
ENDBRANCH   2  10
TORSDOF 2
ENDMDL
MODEL 2
REMARK VINA RESULT:    -5.023      2.481      4.024
REMARK INTER + INTRA:          -5.675
REMARK INTER:                  -5.571
REMARK INTRA:                  -0.104
REMARK UNBOUND:                -0.065
REMARK SMILES O=C([O-])c1ccccc1C(=O)[O-]
REMARK SMILES IDX 4 1 9 2 5 3 8 4 6 5 7 6 2 7 1 8 3 9 10 10 11 11 12 12
REMARK H PARENT
REMARK Flexibility Score: inf
ROOT
ATOM      1  C   UNL     1      -1.665   1.437  -5.970  1.00  0.00     0.006 A 
ATOM      2  C   UNL     1      -1.288   1.532  -7.338  1.00  0.00     0.006 A 
ATOM      3  C   UNL     1      -1.371   2.506  -5.103  1.00  0.00     0.010 A 
ATOM      4  C   UNL     1      -0.691   2.718  -7.803  1.00  0.00     0.010 A 
ATOM      5  C   UNL     1      -0.757   3.664  -5.581  1.00  0.00     0.001 A 
ATOM      6  C   UNL     1      -0.430   3.774  -6.931  1.00  0.00     0.001 A 
ENDROOT
BRANCH   1   7
ATOM      7  C   UNL     1      -2.422   0.286  -5.425  1.00  0.00     0.072 C 
ATOM      8  O   UNL     1      -3.682   0.281  -5.460  1.00  0.00    -0.545 OA
ATOM      9  O   UNL     1      -1.757  -0.830  -4.929  1.00  0.00    -0.545 OA
ENDBRANCH   1   7
BRANCH   2  10
ATOM     10  C   UNL     1      -1.431   0.408  -8.293  1.00  0.00     0.072 C 
ATOM     11  O   UNL     1      -0.420  -0.107  -8.840  1.00  0.00    -0.545 OA
ATOM     12  O   UNL     1      -2.695  -0.049  -8.647  1.00  0.00    -0.545 OA
ENDBRANCH   2  10
TORSDOF 2
ENDMDL
MODEL 3
REMARK VINA RESULT:    -4.986      2.392      3.139
REMARK INTER + INTRA:          -5.634
REMARK INTER:                  -5.562
REMARK INTRA:                  -0.072
REMARK UNBOUND:                -0.065
REMARK SMILES O=C([O-])c1ccccc1C(=O)[O-]
REMARK SMILES IDX 4 1 9 2 5 3 8 4 6 5 7 6 2 7 1 8 3 9 10 10 11 11 12 12
REMARK H PARENT
REMARK Flexibility Score: inf
ROOT
ATOM      1  C   UNL     1      -1.227   1.546  -7.301  1.00  0.00     0.006 A 
ATOM      2  C   UNL     1      -1.451   1.466  -5.899  1.00  0.00     0.006 A 
ATOM      3  C   UNL     1      -0.687   2.728  -7.841  1.00  0.00     0.010 A 
ATOM      4  C   UNL     1      -1.065   2.544  -5.081  1.00  0.00     0.010 A 
ATOM      5  C   UNL     1      -0.333   3.794  -7.014  1.00  0.00     0.001 A 
ATOM      6  C   UNL     1      -0.510   3.697  -5.636  1.00  0.00     0.001 A 
ENDROOT
BRANCH   1   7
ATOM      7  C   UNL     1      -1.472   0.408  -8.217  1.00  0.00     0.072 C 
ATOM      8  O   UNL     1      -2.650   0.033  -8.462  1.00  0.00    -0.545 OA
ATOM      9  O   UNL     1      -0.416  -0.219  -8.869  1.00  0.00    -0.545 OA
ENDBRANCH   1   7
BRANCH   2  10
ATOM     10  C   UNL     1      -2.139   0.321  -5.257  1.00  0.00     0.072 C 
ATOM     11  O   UNL     1      -3.324   0.431  -4.842  1.00  0.00    -0.545 OA
ATOM     12  O   UNL     1      -1.458  -0.871  -5.044  1.00  0.00    -0.545 OA
ENDBRANCH   2  10
TORSDOF 2
ENDMDL
MODEL 4
REMARK VINA RESULT:    -4.872      1.825      3.320
REMARK INTER + INTRA:          -5.507
REMARK INTER:                  -5.649
REMARK INTRA:                   0.142
REMARK UNBOUND:                -0.065
REMARK SMILES O=C([O-])c1ccccc1C(=O)[O-]
REMARK SMILES IDX 4 1 9 2 5 3 8 4 6 5 7 6 2 7 1 8 3 9 10 10 11 11 12 12
REMARK H PARENT
REMARK Flexibility Score: inf
ROOT
ATOM      1  C   UNL     1      -1.124   0.564  -7.201  1.00  0.00     0.006 A 
ATOM      2  C   UNL     1      -2.539   0.591  -7.059  1.00  0.00     0.006 A 
ATOM      3  C   UNL     1      -0.344   0.003  -6.172  1.00  0.00     0.010 A 
ATOM      4  C   UNL     1      -3.125  -0.002  -5.925  1.00  0.00     0.010 A 
ATOM      5  C   UNL     1      -0.945  -0.559  -5.046  1.00  0.00     0.001 A 
ATOM      6  C   UNL     1      -2.333  -0.572  -4.929  1.00  0.00     0.001 A 
ENDROOT
BRANCH   1   7
ATOM      7  C   UNL     1      -0.432   1.037  -8.422  1.00  0.00     0.072 C 
ATOM      8  O   UNL     1      -0.191   0.237  -9.365  1.00  0.00    -0.545 OA
ATOM      9  O   UNL     1      -0.100   2.379  -8.574  1.00  0.00    -0.545 OA
ENDBRANCH   1   7
BRANCH   2  10
ATOM     10  C   UNL     1      -3.432   1.279  -8.020  1.00  0.00     0.072 C 
ATOM     11  O   UNL     1      -4.382   2.001  -7.616  1.00  0.00    -0.545 OA
ATOM     12  O   UNL     1      -3.271   1.080  -9.387  1.00  0.00    -0.545 OA
ENDBRANCH   2  10
TORSDOF 2
ENDMDL
MODEL 5
REMARK VINA RESULT:    -4.839      1.788      2.881
REMARK INTER + INTRA:          -5.470
REMARK INTER:                  -5.701
REMARK INTRA:                   0.230
REMARK UNBOUND:                -0.065
REMARK SMILES O=C([O-])c1ccccc1C(=O)[O-]
REMARK SMILES IDX 4 1 9 2 5 3 8 4 6 5 7 6 2 7 1 8 3 9 10 10 11 11 12 12
REMARK H PARENT
REMARK Flexibility Score: inf
ROOT
ATOM      1  C   UNL     1      -2.567   0.565  -7.088  1.00  0.00     0.006 A 
ATOM      2  C   UNL     1      -1.156   0.450  -7.227  1.00  0.00     0.006 A 
ATOM      3  C   UNL     1      -3.181   0.082  -5.918  1.00  0.00     0.010 A 
ATOM      4  C   UNL     1      -0.405  -0.082  -6.163  1.00  0.00     0.010 A 
ATOM      5  C   UNL     1      -2.419  -0.463  -4.885  1.00  0.00     0.001 A 
ATOM      6  C   UNL     1      -1.033  -0.534  -5.003  1.00  0.00     0.001 A 
ENDROOT
BRANCH   1   7
ATOM      7  C   UNL     1      -3.419   1.239  -8.096  1.00  0.00     0.072 C 
ATOM      8  O   UNL     1      -3.198   1.072  -9.326  1.00  0.00    -0.545 OA
ATOM      9  O   UNL     1      -4.508   2.009  -7.704  1.00  0.00    -0.545 OA
ENDBRANCH   1   7
BRANCH   2  10
ATOM     10  C   UNL     1      -0.438   0.803  -8.474  1.00  0.00     0.072 C 
ATOM     11  O   UNL     1      -0.141  -0.082  -9.320  1.00  0.00    -0.545 OA
ATOM     12  O   UNL     1      -0.023   2.111  -8.693  1.00  0.00    -0.545 OA
ENDBRANCH   2  10
TORSDOF 2
ENDMDL
MODEL 6
REMARK VINA RESULT:    -4.658      2.348      3.839
REMARK INTER + INTRA:          -5.267
REMARK INTER:                  -5.093
REMARK INTRA:                  -0.174
REMARK UNBOUND:                -0.065
REMARK SMILES O=C([O-])c1ccccc1C(=O)[O-]
REMARK SMILES IDX 4 1 9 2 5 3 8 4 6 5 7 6 2 7 1 8 3 9 10 10 11 11 12 12
REMARK H PARENT
REMARK Flexibility Score: inf
ROOT
ATOM      1  C   UNL     1      -1.806   0.764  -6.536  1.00  0.00     0.006 A 
ATOM      2  C   UNL     1      -1.128   2.014  -6.529  1.00  0.00     0.006 A 
ATOM      3  C   UNL     1      -1.984   0.089  -7.758  1.00  0.00     0.010 A 
ATOM      4  C   UNL     1      -0.594   2.510  -7.732  1.00  0.00     0.010 A 
ATOM      5  C   UNL     1      -1.466   0.611  -8.944  1.00  0.00     0.001 A 
ATOM      6  C   UNL     1      -0.762   1.813  -8.928  1.00  0.00     0.001 A 
ENDROOT
BRANCH   1   7
ATOM      7  C   UNL     1      -2.277   0.100  -5.298  1.00  0.00     0.072 C 
ATOM      8  O   UNL     1      -3.359   0.457  -4.759  1.00  0.00    -0.545 OA
ATOM      9  O   UNL     1      -1.569  -0.964  -4.751  1.00  0.00    -0.545 OA
ENDBRANCH   1   7
BRANCH   2  10
ATOM     10  C   UNL     1      -1.013   2.861  -5.318  1.00  0.00     0.072 C 
ATOM     11  O   UNL     1      -1.850   3.774  -5.088  1.00  0.00    -0.545 OA
ATOM     12  O   UNL     1       0.063   2.699  -4.454  1.00  0.00    -0.545 OA
ENDBRANCH   2  10
TORSDOF 2
ENDMDL
MODEL 7
REMARK VINA RESULT:    -4.645      2.345      3.567
REMARK INTER + INTRA:          -5.254
REMARK INTER:                  -5.051
REMARK INTRA:                  -0.203
REMARK UNBOUND:                -0.065
REMARK SMILES O=C([O-])c1ccccc1C(=O)[O-]
REMARK SMILES IDX 4 1 9 2 5 3 8 4 6 5 7 6 2 7 1 8 3 9 10 10 11 11 12 12
REMARK H PARENT
REMARK Flexibility Score: inf
ROOT
ATOM      1  C   UNL     1      -1.084   2.047  -6.527  1.00  0.00     0.006 A 
ATOM      2  C   UNL     1      -1.755   0.793  -6.491  1.00  0.00     0.006 A 
ATOM      3  C   UNL     1      -0.601   2.529  -7.758  1.00  0.00     0.010 A 
ATOM      4  C   UNL     1      -1.977   0.100  -7.695  1.00  0.00     0.010 A 
ATOM      5  C   UNL     1      -0.812   1.814  -8.937  1.00  0.00     0.001 A 
ATOM      6  C   UNL     1      -1.509   0.608  -8.907  1.00  0.00     0.001 A 
ENDROOT
BRANCH   1   7
ATOM      7  C   UNL     1      -0.931   2.908  -5.332  1.00  0.00     0.072 C 
ATOM      8  O   UNL     1      -1.808   3.770  -5.055  1.00  0.00    -0.545 OA
ATOM      9  O   UNL     1       0.143   2.736  -4.466  1.00  0.00    -0.545 OA
ENDBRANCH   1   7
BRANCH   2  10
ATOM     10  C   UNL     1      -2.177   0.141  -5.229  1.00  0.00     0.072 C 
ATOM     11  O   UNL     1      -1.522  -0.823  -4.751  1.00  0.00    -0.545 OA
ATOM     12  O   UNL     1      -3.343   0.546  -4.591  1.00  0.00    -0.545 OA
ENDBRANCH   2  10
TORSDOF 2
ENDMDL
MODEL 8
REMARK VINA RESULT:    -4.393      2.442      3.669
REMARK INTER + INTRA:          -4.972
REMARK INTER:                  -4.861
REMARK INTRA:                  -0.111
REMARK UNBOUND:                -0.065
REMARK SMILES O=C([O-])c1ccccc1C(=O)[O-]
REMARK SMILES IDX 4 1 9 2 5 3 8 4 6 5 7 6 2 7 1 8 3 9 10 10 11 11 12 12
REMARK H PARENT
REMARK Flexibility Score: inf
ROOT
ATOM      1  C   UNL     1      -1.741   0.432  -5.967  1.00  0.00     0.006 A 
ATOM      2  C   UNL     1      -0.862   1.512  -5.678  1.00  0.00     0.006 A 
ATOM      3  C   UNL     1      -1.331  -0.881  -5.671  1.00  0.00     0.010 A 
ATOM      4  C   UNL     1       0.365   1.245  -5.044  1.00  0.00     0.010 A 
ATOM      5  C   UNL     1      -0.100  -1.125  -5.063  1.00  0.00     0.001 A 
ATOM      6  C   UNL     1       0.741  -0.063  -4.738  1.00  0.00     0.001 A 
ENDROOT
BRANCH   1   7
ATOM      7  C   UNL     1      -3.107   0.633  -6.504  1.00  0.00     0.072 C 
ATOM      8  O   UNL     1      -4.113   0.381  -5.789  1.00  0.00    -0.545 OA
ATOM      9  O   UNL     1      -3.299   1.161  -7.776  1.00  0.00    -0.545 OA
ENDBRANCH   1   7
BRANCH   2  10
ATOM     10  C   UNL     1      -1.145   2.911  -6.077  1.00  0.00     0.072 C 
ATOM     11  O   UNL     1      -1.772   3.687  -5.308  1.00  0.00    -0.545 OA
ATOM     12  O   UNL     1      -0.780   3.363  -7.339  1.00  0.00    -0.545 OA
ENDBRANCH   2  10
TORSDOF 2
ENDMDL
