MODEL 1
REMARK VINA RESULT:     7.772      0.000      0.000
REMARK INTER + INTRA:           7.999
REMARK INTER:                   7.999
REMARK INTRA:                   0.000
REMARK UNBOUND:                 0.000
REMARK SMILES Oc1ccc2[nH]ccc2c1
REMARK SMILES IDX 3 1 4 2 5 3 9 4 8 5 7 6 6 7 10 8 2 9 1 11
REMARK H PARENT 6 10 1 12
REMARK Flexibility Score: inf
ROOT
ATOM      1  C   UNL     1     -25.020  12.821  40.923  1.00  0.00     0.048 A 
ATOM      2  C   UNL     1     -25.583  11.536  41.034  1.00  0.00     0.030 A 
ATOM      3  C   UNL     1     -25.384  10.646  39.979  1.00  0.00     0.046 A 
ATOM      4  C   UNL     1     -24.668  10.997  38.866  1.00  0.00     0.003 A 
ATOM      5  C   UNL     1     -24.658   9.908  38.022  1.00  0.00     0.028 A 
ATOM      6  C   UNL     1     -25.389   8.928  38.686  1.00  0.00     0.083 A 
ATOM      7  N   UNL     1     -25.830   9.383  39.881  1.00  0.00    -0.361 N 
ATOM      8  C   UNL     1     -24.099  12.261  38.724  1.00  0.00     0.056 A 
ATOM      9  C   UNL     1     -24.280  13.186  39.774  1.00  0.00     0.116 A 
ATOM     10  H   UNL     1     -26.400   8.857  40.581  1.00  0.00     0.166 HD
ENDROOT
BRANCH   9  11
ATOM     11  O   UNL     1     -23.734  14.465  39.690  1.00  0.00    -0.508 OA
ATOM     12  H   UNL     1     -24.222  15.218  39.218  1.00  0.00     0.293 HD
ENDBRANCH   9  11
TORSDOF 1
ENDMDL
MODEL 2
REMARK VINA RESULT:     8.074      1.942      2.722
REMARK INTER + INTRA:           8.310
REMARK INTER:                   8.310
REMARK INTRA:                   0.000
REMARK UNBOUND:                 0.000
REMARK SMILES Oc1ccc2[nH]ccc2c1
REMARK SMILES IDX 3 1 4 2 5 3 9 4 8 5 7 6 6 7 10 8 2 9 1 11
REMARK H PARENT 6 10 1 12
REMARK Flexibility Score: inf
ROOT
ATOM      1  C   UNL     1     -25.864  10.176  41.150  1.00  0.00     0.048 A 
ATOM      2  C   UNL     1     -25.741   9.834  39.791  1.00  0.00     0.030 A 
ATOM      3  C   UNL     1     -24.959  10.657  38.982  1.00  0.00     0.046 A 
ATOM      4  C   UNL     1     -24.328  11.765  39.479  1.00  0.00     0.003 A 
ATOM      5  C   UNL     1     -23.646  12.354  38.436  1.00  0.00     0.028 A 
ATOM      6  C   UNL     1     -23.909  11.550  37.332  1.00  0.00     0.083 A 
ATOM      7  N   UNL     1     -24.711  10.514  37.670  1.00  0.00    -0.361 N 
ATOM      8  C   UNL     1     -24.430  12.132  40.819  1.00  0.00     0.056 A 
ATOM      9  C   UNL     1     -25.212  11.320  41.667  1.00  0.00     0.116 A 
ATOM     10  H   UNL     1     -25.062   9.761  37.038  1.00  0.00     0.166 HD
ENDROOT
BRANCH   9  11
ATOM     11  O   UNL     1     -25.352  11.637  43.016  1.00  0.00    -0.508 OA
ATOM     12  H   UNL     1     -24.755  11.220  43.722  1.00  0.00     0.293 HD
ENDBRANCH   9  11
TORSDOF 1
ENDMDL
MODEL 3
REMARK VINA RESULT:     8.153      2.335      3.567
REMARK INTER + INTRA:           8.391
REMARK INTER:                   8.391
REMARK INTRA:                   0.000
REMARK UNBOUND:                 0.000
REMARK SMILES Oc1ccc2[nH]ccc2c1
REMARK SMILES IDX 3 1 4 2 5 3 9 4 8 5 7 6 6 7 10 8 2 9 1 11
REMARK H PARENT 6 10 1 12
REMARK Flexibility Score: inf
ROOT
ATOM      1  C   UNL     1     -23.912  11.584  38.011  1.00  0.00     0.048 A 
ATOM      2  C   UNL     1     -23.962  12.506  39.072  1.00  0.00     0.030 A 
ATOM      3  C   UNL     1     -24.597  12.110  40.249  1.00  0.00     0.046 A 
ATOM      4  C   UNL     1     -25.158  10.868  40.380  1.00  0.00     0.003 A 
ATOM      5  C   UNL     1     -25.697  10.792  41.646  1.00  0.00     0.028 A 
ATOM      6  C   UNL     1     -25.429  12.026  42.230  1.00  0.00     0.083 A 
ATOM      7  N   UNL     1     -24.755  12.827  41.372  1.00  0.00    -0.361 N 
ATOM      8  C   UNL     1     -25.126   9.932  39.349  1.00  0.00     0.056 A 
ATOM      9  C   UNL     1     -24.490  10.300  38.144  1.00  0.00     0.116 A 
ATOM     10  H   UNL     1     -24.429  13.803  41.552  1.00  0.00     0.166 HD
ENDROOT
BRANCH   9  11
ATOM     11  O   UNL     1     -24.427   9.406  37.078  1.00  0.00    -0.508 OA
ATOM     12  H   UNL     1     -23.563   9.244  36.574  1.00  0.00     0.293 HD
ENDBRANCH   9  11
TORSDOF 1
ENDMDL
MODEL 4
REMARK VINA RESULT:     8.345      0.901      2.024
REMARK INTER + INTRA:           8.589
REMARK INTER:                   8.589
REMARK INTRA:                   0.000
REMARK UNBOUND:                 0.000
REMARK SMILES Oc1ccc2[nH]ccc2c1
REMARK SMILES IDX 3 1 4 2 5 3 9 4 8 5 7 6 6 7 10 8 2 9 1 11
REMARK H PARENT 6 10 1 12
REMARK Flexibility Score: inf
ROOT
ATOM      1  C   UNL     1     -23.767  12.742  38.423  1.00  0.00     0.048 A 
ATOM      2  C   UNL     1     -24.106  11.399  38.175  1.00  0.00     0.030 A 
ATOM      3  C   UNL     1     -24.937  10.758  39.092  1.00  0.00     0.046 A 
ATOM      4  C   UNL     1     -25.416  11.400  40.202  1.00  0.00     0.003 A 
ATOM      5  C   UNL     1     -26.198  10.501  40.893  1.00  0.00     0.028 A 
ATOM      6  C   UNL     1     -26.150   9.329  40.147  1.00  0.00     0.083 A 
ATOM      7  N   UNL     1     -25.379   9.490  39.046  1.00  0.00    -0.361 N 
ATOM      8  C   UNL     1     -25.100  12.729  40.478  1.00  0.00     0.056 A 
ATOM      9  C   UNL     1     -24.260  13.409  39.569  1.00  0.00     0.116 A 
ATOM     10  H   UNL     1     -25.173   8.774  38.314  1.00  0.00     0.166 HD
ENDROOT
BRANCH   9  11
ATOM     11  O   UNL     1     -23.910  14.738  39.792  1.00  0.00    -0.508 OA
ATOM     12  H   UNL     1     -24.239  15.243  40.608  1.00  0.00     0.293 HD
ENDBRANCH   9  11
TORSDOF 1
ENDMDL
MODEL 5
REMARK VINA RESULT:     8.438      2.637      3.521
REMARK INTER + INTRA:           8.684
REMARK INTER:                   8.684
REMARK INTRA:                   0.000
REMARK UNBOUND:                 0.000
REMARK SMILES Oc1ccc2[nH]ccc2c1
REMARK SMILES IDX 3 1 4 2 5 3 9 4 8 5 7 6 6 7 10 8 2 9 1 11
REMARK H PARENT 6 10 1 12
REMARK Flexibility Score: inf
ROOT
ATOM      1  C   UNL     1     -25.921  10.397  41.043  1.00  0.00     0.048 A 
ATOM      2  C   UNL     1     -25.428  11.703  41.214  1.00  0.00     0.030 A 
ATOM      3  C   UNL     1     -24.740  12.283  40.149  1.00  0.00     0.046 A 
ATOM      4  C   UNL     1     -24.543  11.616  38.970  1.00  0.00     0.003 A 
ATOM      5  C   UNL     1     -23.837  12.454  38.135  1.00  0.00     0.028 A 
ATOM      6  C   UNL     1     -23.638  13.617  38.871  1.00  0.00     0.083 A 
ATOM      7  N   UNL     1     -24.192  13.509  40.101  1.00  0.00    -0.361 N 
ATOM      8  C   UNL     1     -25.017  10.321  38.769  1.00  0.00     0.056 A 
ATOM      9  C   UNL     1     -25.719   9.704  39.826  1.00  0.00     0.116 A 
ATOM     10  H   UNL     1     -24.191  14.231  40.855  1.00  0.00     0.166 HD
ENDROOT
BRANCH   9  11
ATOM     11  O   UNL     1     -26.216   8.411  39.683  1.00  0.00    -0.508 OA
ATOM     12  H   UNL     1     -25.610   7.601  39.746  1.00  0.00     0.293 HD
ENDBRANCH   9  11
TORSDOF 1
ENDMDL
MODEL 6
REMARK VINA RESULT:     8.644      1.765      3.106
REMARK INTER + INTRA:           8.896
REMARK INTER:                   8.896
REMARK INTRA:                   0.000
REMARK UNBOUND:                 0.000
REMARK SMILES Oc1ccc2[nH]ccc2c1
REMARK SMILES IDX 3 1 4 2 5 3 9 4 8 5 7 6 6 7 10 8 2 9 1 11
REMARK H PARENT 6 10 1 12
REMARK Flexibility Score: inf
ROOT
ATOM      1  C   UNL     1     -24.843   9.930  37.877  1.00  0.00     0.048 A 
ATOM      2  C   UNL     1     -25.331   9.696  39.176  1.00  0.00     0.030 A 
ATOM      3  C   UNL     1     -25.198  10.719  40.114  1.00  0.00     0.046 A 
ATOM      4  C   UNL     1     -24.615  11.916  39.796  1.00  0.00     0.003 A 
ATOM      5  C   UNL     1     -24.639  12.700  40.929  1.00  0.00     0.028 A 
ATOM      6  C   UNL     1     -25.251  11.915  41.900  1.00  0.00     0.083 A 
ATOM      7  N   UNL     1     -25.592  10.706  41.397  1.00  0.00    -0.361 N 
ATOM      8  C   UNL     1     -24.122  12.180  38.520  1.00  0.00     0.056 A 
ATOM      9  C   UNL     1     -24.240  11.166  37.545  1.00  0.00     0.116 A 
ATOM     10  H   UNL     1     -26.063   9.925  41.907  1.00  0.00     0.166 HD
ENDROOT
BRANCH   9  11
ATOM     11  O   UNL     1     -23.766  11.372  36.252  1.00  0.00    -0.508 OA
ATOM     12  H   UNL     1     -22.773  11.409  36.053  1.00  0.00     0.293 HD
ENDBRANCH   9  11
TORSDOF 1
ENDMDL
MODEL 7
REMARK VINA RESULT:     8.766      2.612      4.058
REMARK INTER + INTRA:           9.023
REMARK INTER:                   9.023
REMARK INTRA:                   0.000
REMARK UNBOUND:                 0.000
REMARK SMILES Oc1ccc2[nH]ccc2c1
REMARK SMILES IDX 3 1 4 2 5 3 9 4 8 5 7 6 6 7 10 8 2 9 1 11
REMARK H PARENT 6 10 1 12
REMARK Flexibility Score: inf
ROOT
ATOM      1  C   UNL     1     -24.888   9.580  38.330  1.00  0.00     0.048 A 
ATOM      2  C   UNL     1     -24.181  10.747  37.987  1.00  0.00     0.030 A 
ATOM      3  C   UNL     1     -24.264  11.836  38.854  1.00  0.00     0.046 A 
ATOM      4  C   UNL     1     -25.006  11.786  40.003  1.00  0.00     0.003 A 
ATOM      5  C   UNL     1     -24.882  13.008  40.627  1.00  0.00     0.028 A 
ATOM      6  C   UNL     1     -24.049  13.755  39.800  1.00  0.00     0.083 A 
ATOM      7  N   UNL     1     -23.674  13.035  38.718  1.00  0.00    -0.361 N 
ATOM      8  C   UNL     1     -25.718  10.647  40.372  1.00  0.00     0.056 A 
ATOM      9  C   UNL     1     -25.655   9.525  39.517  1.00  0.00     0.116 A 
ATOM     10  H   UNL     1     -23.053  13.350  37.940  1.00  0.00     0.166 HD
ENDROOT
BRANCH   9  11
ATOM     11  O   UNL     1     -26.346   8.358  39.833  1.00  0.00    -0.508 OA
ATOM     12  H   UNL     1     -26.243   7.911  40.737  1.00  0.00     0.293 HD
ENDBRANCH   9  11
TORSDOF 1
ENDMDL
