MODEL 1
REMARK VINA RESULT:    -3.812      0.000      0.000
REMARK INTER + INTRA:          -4.057
REMARK INTER:                  -4.034
REMARK INTRA:                  -0.023
REMARK UNBOUND:                -0.023
REMARK SMILES O=C([O-])c1cccnc1
REMARK SMILES IDX 4 1 5 2 9 3 6 4 8 5 7 6 2 7 1 8 3 9
REMARK H PARENT
REMARK Flexibility Score: inf
ROOT
ATOM      1  C   UNL     1     -34.377  -4.076  -1.201  1.00  0.00     0.016 A 
ATOM      2  C   UNL     1     -35.683  -4.373  -0.776  1.00  0.00     0.013 A 
ATOM      3  C   UNL     1     -33.579  -3.256  -0.387  1.00  0.00     0.120 A 
ATOM      4  C   UNL     1     -36.161  -3.858   0.430  1.00  0.00     0.021 A 
ATOM      5  N   UNL     1     -34.069  -2.767   0.784  1.00  0.00    -0.264 NA
ATOM      6  C   UNL     1     -35.331  -3.047   1.205  1.00  0.00     0.111 A 
ENDROOT
BRANCH   1   7
ATOM      7  C   UNL     1     -33.851  -4.613  -2.475  1.00  0.00     0.073 C 
ATOM      8  O   UNL     1     -34.332  -5.667  -2.973  1.00  0.00    -0.545 OA
ATOM      9  O   UNL     1     -32.819  -3.962  -3.141  1.00  0.00    -0.545 OA
ENDBRANCH   1   7
TORSDOF 1
ENDMDL
MODEL 2
REMARK VINA RESULT:    -3.592      0.870      1.610
REMARK INTER + INTRA:          -3.824
REMARK INTER:                  -3.803
REMARK INTRA:                  -0.021
REMARK UNBOUND:                -0.023
REMARK SMILES O=C([O-])c1cccnc1
REMARK SMILES IDX 4 1 5 2 9 3 6 4 8 5 7 6 2 7 1 8 3 9
REMARK H PARENT
REMARK Flexibility Score: inf
ROOT
ATOM      1  C   UNL     1     -34.304  -4.051  -1.133  1.00  0.00     0.016 A 
ATOM      2  C   UNL     1     -33.406  -3.316  -0.340  1.00  0.00     0.013 A 
ATOM      3  C   UNL     1     -35.601  -4.274  -0.641  1.00  0.00     0.120 A 
ATOM      4  C   UNL     1     -33.807  -2.826   0.904  1.00  0.00     0.021 A 
ATOM      5  N   UNL     1     -35.967  -3.785   0.575  1.00  0.00    -0.264 NA
ATOM      6  C   UNL     1     -35.106  -3.073   1.350  1.00  0.00     0.111 A 
ENDROOT
BRANCH   1   7
ATOM      7  C   UNL     1     -33.898  -4.579  -2.453  1.00  0.00     0.073 C 
ATOM      8  O   UNL     1     -34.361  -5.673  -2.875  1.00  0.00    -0.545 OA
ATOM      9  O   UNL     1     -33.001  -3.875  -3.247  1.00  0.00    -0.545 OA
ENDBRANCH   1   7
TORSDOF 1
ENDMDL
MODEL 3
REMARK VINA RESULT:    -3.524      2.762      3.655
REMARK INTER + INTRA:          -3.752
REMARK INTER:                  -3.734
REMARK INTRA:                  -0.018
REMARK UNBOUND:                -0.023
REMARK SMILES O=C([O-])c1cccnc1
REMARK SMILES IDX 4 1 5 2 9 3 6 4 8 5 7 6 2 7 1 8 3 9
REMARK H PARENT
REMARK Flexibility Score: inf
ROOT
ATOM      1  C   UNL     1     -34.936  -4.040  -0.420  1.00  0.00     0.016 A 
ATOM      2  C   UNL     1     -35.291  -5.003  -1.380  1.00  0.00     0.013 A 
ATOM      3  C   UNL     1     -33.767  -3.289  -0.627  1.00  0.00     0.120 A 
ATOM      4  C   UNL     1     -34.491  -5.198  -2.507  1.00  0.00     0.021 A 
ATOM      5  N   UNL     1     -33.005  -3.499  -1.735  1.00  0.00    -0.264 NA
ATOM      6  C   UNL     1     -33.339  -4.428  -2.669  1.00  0.00     0.111 A 
ENDROOT
BRANCH   1   7
ATOM      7  C   UNL     1     -35.770  -3.818   0.781  1.00  0.00     0.073 C 
ATOM      8  O   UNL     1     -35.263  -3.884   1.933  1.00  0.00    -0.545 OA
ATOM      9  O   UNL     1     -37.125  -3.534   0.655  1.00  0.00    -0.545 OA
ENDBRANCH   1   7
TORSDOF 1
ENDMDL
MODEL 4
REMARK VINA RESULT:    -3.380     13.916     14.686
REMARK INTER + INTRA:          -3.600
REMARK INTER:                  -3.582
REMARK INTRA:                  -0.018
REMARK UNBOUND:                -0.023
REMARK SMILES O=C([O-])c1cccnc1
REMARK SMILES IDX 4 1 5 2 9 3 6 4 8 5 7 6 2 7 1 8 3 9
REMARK H PARENT
REMARK Flexibility Score: inf
ROOT
ATOM      1  C   UNL     1     -23.588   0.465  -9.805  1.00  0.00     0.016 A 
ATOM      2  C   UNL     1     -24.319   1.282 -10.684  1.00  0.00     0.013 A 
ATOM      3  C   UNL     1     -23.730   0.673  -8.424  1.00  0.00     0.120 A 
ATOM      4  C   UNL     1     -25.163   2.274 -10.180  1.00  0.00     0.021 A 
ATOM      5  N   UNL     1     -24.560   1.646  -7.959  1.00  0.00    -0.264 NA
ATOM      6  C   UNL     1     -25.272   2.443  -8.799  1.00  0.00     0.111 A 
ENDROOT
BRANCH   1   7
ATOM      7  C   UNL     1     -22.688  -0.591 -10.319  1.00  0.00     0.073 C 
ATOM      8  O   UNL     1     -21.762  -0.306 -11.125  1.00  0.00    -0.545 OA
ATOM      9  O   UNL     1     -22.852  -1.912  -9.919  1.00  0.00    -0.545 OA
ENDBRANCH   1   7
TORSDOF 1
ENDMDL
MODEL 5
REMARK VINA RESULT:    -3.303     11.619     12.144
REMARK INTER + INTRA:          -3.519
REMARK INTER:                  -3.502
REMARK INTRA:                  -0.017
REMARK UNBOUND:                -0.023
REMARK SMILES O=C([O-])c1cccnc1
REMARK SMILES IDX 4 1 5 2 9 3 6 4 8 5 7 6 2 7 1 8 3 9
REMARK H PARENT
REMARK Flexibility Score: inf
ROOT
ATOM      1  C   UNL     1     -35.861   7.816  -3.180  1.00  0.00     0.016 A 
ATOM      2  C   UNL     1     -36.029   7.416  -1.843  1.00  0.00     0.013 A 
ATOM      3  C   UNL     1     -36.087   6.870  -4.193  1.00  0.00     0.120 A 
ATOM      4  C   UNL     1     -36.412   6.107  -1.545  1.00  0.00     0.021 A 
ATOM      5  N   UNL     1     -36.459   5.600  -3.876  1.00  0.00    -0.264 NA
ATOM      6  C   UNL     1     -36.624   5.203  -2.587  1.00  0.00     0.111 A 
ENDROOT
BRANCH   1   7
ATOM      7  C   UNL     1     -35.456   9.198  -3.516  1.00  0.00     0.073 C 
ATOM      8  O   UNL     1     -36.284  10.002  -4.022  1.00  0.00    -0.545 OA
ATOM      9  O   UNL     1     -34.157   9.629  -3.276  1.00  0.00    -0.545 OA
ENDBRANCH   1   7
TORSDOF 1
ENDMDL
MODEL 6
REMARK VINA RESULT:    -3.261      9.563     10.279
REMARK INTER + INTRA:          -3.474
REMARK INTER:                  -3.455
REMARK INTRA:                  -0.020
REMARK UNBOUND:                -0.023
REMARK SMILES O=C([O-])c1cccnc1
REMARK SMILES IDX 4 1 5 2 9 3 6 4 8 5 7 6 2 7 1 8 3 9
REMARK H PARENT
REMARK Flexibility Score: inf
ROOT
ATOM      1  C   UNL     1     -34.773   5.884  -1.101  1.00  0.00     0.016 A 
ATOM      2  C   UNL     1     -33.830   6.926  -1.055  1.00  0.00     0.013 A 
ATOM      3  C   UNL     1     -34.354   4.589  -0.755  1.00  0.00     0.120 A 
ATOM      4  C   UNL     1     -32.513   6.663  -0.673  1.00  0.00     0.021 A 
ATOM      5  N   UNL     1     -33.064   4.360  -0.387  1.00  0.00    -0.264 NA
ATOM      6  C   UNL     1     -32.145   5.360  -0.339  1.00  0.00     0.111 A 
ENDROOT
BRANCH   1   7
ATOM      7  C   UNL     1     -36.173   6.141  -1.502  1.00  0.00     0.073 C 
ATOM      8  O   UNL     1     -36.761   5.366  -2.303  1.00  0.00    -0.545 OA
ATOM      9  O   UNL     1     -36.859   7.241  -1.000  1.00  0.00    -0.545 OA
ENDBRANCH   1   7
TORSDOF 1
ENDMDL
MODEL 7
REMARK VINA RESULT:    -3.222     10.815     12.064
REMARK INTER + INTRA:          -3.433
REMARK INTER:                  -3.410
REMARK INTRA:                  -0.023
REMARK UNBOUND:                -0.023
REMARK SMILES O=C([O-])c1cccnc1
REMARK SMILES IDX 4 1 5 2 9 3 6 4 8 5 7 6 2 7 1 8 3 9
REMARK H PARENT
REMARK Flexibility Score: inf
ROOT
ATOM      1  C   UNL     1     -25.470   3.313   1.747  1.00  0.00     0.016 A 
ATOM      2  C   UNL     1     -25.785   4.322   0.820  1.00  0.00     0.013 A 
ATOM      3  C   UNL     1     -26.399   2.280   1.951  1.00  0.00     0.120 A 
ATOM      4  C   UNL     1     -26.996   4.283   0.126  1.00  0.00     0.021 A 
ATOM      5  N   UNL     1     -27.572   2.266   1.263  1.00  0.00    -0.264 NA
ATOM      6  C   UNL     1     -27.887   3.237   0.364  1.00  0.00     0.111 A 
ENDROOT
BRANCH   1   7
ATOM      7  C   UNL     1     -24.192   3.335   2.491  1.00  0.00     0.073 C 
ATOM      8  O   UNL     1     -23.546   4.410   2.622  1.00  0.00    -0.545 OA
ATOM      9  O   UNL     1     -23.687   2.171   3.057  1.00  0.00    -0.545 OA
ENDBRANCH   1   7
TORSDOF 1
ENDMDL
MODEL 8
REMARK VINA RESULT:    -3.211     13.983     14.924
REMARK INTER + INTRA:          -3.421
REMARK INTER:                  -3.405
REMARK INTRA:                  -0.016
REMARK UNBOUND:                -0.023
REMARK SMILES O=C([O-])c1cccnc1
REMARK SMILES IDX 4 1 5 2 9 3 6 4 8 5 7 6 2 7 1 8 3 9
REMARK H PARENT
REMARK Flexibility Score: inf
ROOT
ATOM      1  C   UNL     1     -24.295   2.188  -9.119  1.00  0.00     0.016 A 
ATOM      2  C   UNL     1     -24.085   2.109 -10.507  1.00  0.00     0.013 A 
ATOM      3  C   UNL     1     -23.933   1.088  -8.325  1.00  0.00     0.120 A 
ATOM      4  C   UNL     1     -23.529   0.957 -11.067  1.00  0.00     0.021 A 
ATOM      5  N   UNL     1     -23.394  -0.023  -8.896  1.00  0.00    -0.264 NA
ATOM      6  C   UNL     1     -23.187  -0.110 -10.237  1.00  0.00     0.111 A 
ENDROOT
BRANCH   1   7
ATOM      7  C   UNL     1     -24.882   3.399  -8.506  1.00  0.00     0.073 C 
ATOM      8  O   UNL     1     -24.141   4.338  -8.107  1.00  0.00    -0.545 OA
ATOM      9  O   UNL     1     -26.259   3.518  -8.362  1.00  0.00    -0.545 OA
ENDBRANCH   1   7
TORSDOF 1
ENDMDL
MODEL 9
REMARK VINA RESULT:    -3.206      2.810      3.566
REMARK INTER + INTRA:          -3.416
REMARK INTER:                  -3.399
REMARK INTRA:                  -0.016
REMARK UNBOUND:                -0.023
REMARK SMILES O=C([O-])c1cccnc1
REMARK SMILES IDX 4 1 5 2 9 3 6 4 8 5 7 6 2 7 1 8 3 9
REMARK H PARENT
REMARK Flexibility Score: inf
ROOT
ATOM      1  C   UNL     1     -34.026  -3.113   0.297  1.00  0.00     0.016 A 
ATOM      2  C   UNL     1     -33.705  -3.860  -0.849  1.00  0.00     0.013 A 
ATOM      3  C   UNL     1     -35.336  -3.188   0.798  1.00  0.00     0.120 A 
ATOM      4  C   UNL     1     -34.675  -4.654  -1.463  1.00  0.00     0.021 A 
ATOM      5  N   UNL     1     -36.263  -3.969   0.181  1.00  0.00    -0.264 NA
ATOM      6  C   UNL     1     -35.963  -4.696  -0.928  1.00  0.00     0.111 A 
ENDROOT
BRANCH   1   7
ATOM      7  C   UNL     1     -33.013  -2.266   0.962  1.00  0.00     0.073 C 
ATOM      8  O   UNL     1     -32.992  -1.021   0.769  1.00  0.00    -0.545 OA
ATOM      9  O   UNL     1     -32.069  -2.832   1.811  1.00  0.00    -0.545 OA
ENDBRANCH   1   7
TORSDOF 1
ENDMDL
