MODEL 1
REMARK VINA RESULT:    -5.888      0.000      0.000
REMARK INTER + INTRA:         -10.340
REMARK INTER:                  -8.985
REMARK INTRA:                  -1.354
REMARK UNBOUND:                -1.354
REMARK SMILES CC(=O)CCC=C(C)CCC=C(C)CCC=C(C)C
REMARK SMILES IDX 10 1 11 2 12 3 13 4 14 5 15 6 16 7 18 8 17 9 19 10 9 11 7 12
REMARK SMILES IDX 6 13 8 14 5 15 4 16 2 17 3 18 1 19
REMARK H PARENT
REMARK Flexibility Score: inf
ROOT
ATOM      1  C   UNL     1      16.316 -11.806  62.525  1.00  0.00     0.032 C 
ENDROOT
BRANCH   1   2
ATOM      2  C   UNL     1      15.325 -10.719  62.195  1.00  0.00    -0.028 C 
ATOM      3  C   UNL     1      14.224 -10.439  62.929  1.00  0.00    -0.077 C 
ATOM      4  C   UNL     1      13.837 -11.264  64.134  1.00  0.00     0.039 C 
BRANCH   3   5
ATOM      5  C   UNL     1      13.309  -9.314  62.494  1.00  0.00     0.034 C 
BRANCH   5   6
ATOM      6  C   UNL     1      13.787  -7.955  63.022  1.00  0.00     0.032 C 
BRANCH   6   7
ATOM      7  C   UNL     1      13.141  -6.802  62.290  1.00  0.00    -0.028 C 
ATOM      8  C   UNL     1      11.496  -4.993  61.914  1.00  0.00     0.039 C 
ATOM      9  C   UNL     1      12.032  -6.152  62.713  1.00  0.00    -0.080 C 
ATOM     10  C   UNL     1      11.265  -6.586  63.937  1.00  0.00     0.039 C 
ENDBRANCH   6   7
ENDBRANCH   5   6
ENDBRANCH   3   5
ENDBRANCH   1   2
BRANCH   1  11
ATOM     11  C   UNL     1      17.573 -11.220  63.177  1.00  0.00     0.034 C 
BRANCH  11  12
ATOM     12  C   UNL     1      17.520 -11.375  64.680  1.00  0.00    -0.077 C 
ATOM     13  C   UNL     1      17.394 -10.268  65.449  1.00  0.00    -0.028 C 
ATOM     14  C   UNL     1      17.632 -12.756  65.283  1.00  0.00     0.039 C 
BRANCH  13  15
ATOM     15  C   UNL     1      17.281 -10.284  66.952  1.00  0.00     0.035 C 
BRANCH  15  16
ATOM     16  C   UNL     1      18.460  -9.545  67.591  1.00  0.00     0.079 C 
BRANCH  16  17
ATOM     17  C   UNL     1      18.994 -10.315  68.770  1.00  0.00     0.130 C 
ATOM     18  O   UNL     1      19.455  -9.710  69.727  1.00  0.00    -0.300 OA
ATOM     19  C   UNL     1      18.963 -11.814  68.803  1.00  0.00     0.087 C 
ENDBRANCH  16  17
ENDBRANCH  15  16
ENDBRANCH  13  15
ENDBRANCH  11  12
ENDBRANCH   1  11
TORSDOF 9
ENDMDL
MODEL 2
REMARK VINA RESULT:    -5.730      1.074      1.339
REMARK INTER + INTRA:         -10.098
REMARK INTER:                  -8.896
REMARK INTRA:                  -1.202
REMARK UNBOUND:                -1.354
REMARK SMILES CC(=O)CCC=C(C)CCC=C(C)CCC=C(C)C
REMARK SMILES IDX 10 1 11 2 12 3 13 4 14 5 15 6 16 7 18 8 17 9 19 10 9 11 7 12
REMARK SMILES IDX 6 13 8 14 5 15 4 16 2 17 3 18 1 19
REMARK H PARENT
REMARK Flexibility Score: inf
ROOT
ATOM      1  C   UNL     1      16.723 -11.460  62.822  1.00  0.00     0.032 C 
ENDROOT
BRANCH   1   2
ATOM      2  C   UNL     1      15.430 -10.759  62.489  1.00  0.00    -0.028 C 
ATOM      3  C   UNL     1      15.191  -9.447  62.717  1.00  0.00    -0.077 C 
ATOM      4  C   UNL     1      16.196  -8.563  63.417  1.00  0.00     0.039 C 
BRANCH   3   5
ATOM      5  C   UNL     1      13.850  -8.860  62.330  1.00  0.00     0.034 C 
BRANCH   5   6
ATOM      6  C   UNL     1      13.705  -7.410  62.811  1.00  0.00     0.032 C 
BRANCH   6   7
ATOM      7  C   UNL     1      12.719  -6.630  61.973  1.00  0.00    -0.028 C 
ATOM      8  C   UNL     1      10.679  -5.307  61.518  1.00  0.00     0.039 C 
ATOM      9  C   UNL     1      11.569  -6.094  62.443  1.00  0.00    -0.080 C 
ATOM     10  C   UNL     1      11.106  -6.308  63.863  1.00  0.00     0.039 C 
ENDBRANCH   6   7
ENDBRANCH   5   6
ENDBRANCH   3   5
ENDBRANCH   1   2
BRANCH   1  11
ATOM     11  C   UNL     1      16.522 -12.461  63.965  1.00  0.00     0.034 C 
BRANCH  11  12
ATOM     12  C   UNL     1      16.330 -11.741  65.281  1.00  0.00    -0.077 C 
ATOM     13  C   UNL     1      17.407 -11.201  65.896  1.00  0.00    -0.028 C 
ATOM     14  C   UNL     1      14.946 -11.665  65.883  1.00  0.00     0.039 C 
BRANCH  13  15
ATOM     15  C   UNL     1      17.349 -10.417  67.183  1.00  0.00     0.035 C 
BRANCH  15  16
ATOM     16  C   UNL     1      18.725  -9.840  67.526  1.00  0.00     0.079 C 
BRANCH  16  17
ATOM     17  C   UNL     1      19.217 -10.387  68.840  1.00  0.00     0.130 C 
ATOM     18  O   UNL     1      19.329  -9.639  69.800  1.00  0.00    -0.300 OA
ATOM     19  C   UNL     1      19.566 -11.837  69.002  1.00  0.00     0.087 C 
ENDBRANCH  16  17
ENDBRANCH  15  16
ENDBRANCH  13  15
ENDBRANCH  11  12
ENDBRANCH   1  11
TORSDOF 9
ENDMDL
MODEL 3
REMARK VINA RESULT:    -5.697      1.553      2.135
REMARK INTER + INTRA:         -10.049
REMARK INTER:                  -8.808
REMARK INTRA:                  -1.241
REMARK UNBOUND:                -1.354
REMARK SMILES CC(=O)CCC=C(C)CCC=C(C)CCC=C(C)C
REMARK SMILES IDX 10 1 11 2 12 3 13 4 14 5 15 6 16 7 18 8 17 9 19 10 9 11 7 12
REMARK SMILES IDX 6 13 8 14 5 15 4 16 2 17 3 18 1 19
REMARK H PARENT
REMARK Flexibility Score: inf
ROOT
ATOM      1  C   UNL     1      15.683  -8.675  63.645  1.00  0.00     0.032 C 
ENDROOT
BRANCH   1   2
ATOM      2  C   UNL     1      15.125  -7.715  62.625  1.00  0.00    -0.028 C 
ATOM      3  C   UNL     1      13.975  -7.912  61.939  1.00  0.00    -0.077 C 
ATOM      4  C   UNL     1      13.168  -9.180  62.081  1.00  0.00     0.039 C 
BRANCH   3   5
ATOM      5  C   UNL     1      13.517  -6.867  60.943  1.00  0.00     0.034 C 
BRANCH   5   6
ATOM      6  C   UNL     1      12.023  -6.552  61.096  1.00  0.00     0.032 C 
BRANCH   6   7
ATOM      7  C   UNL     1      11.787  -5.285  61.883  1.00  0.00    -0.028 C 
ATOM      8  C   UNL     1      11.269  -3.921  63.882  1.00  0.00     0.039 C 
ATOM      9  C   UNL     1      11.447  -5.248  63.192  1.00  0.00    -0.080 C 
ATOM     10  C   UNL     1      11.176  -6.503  63.986  1.00  0.00     0.039 C 
ENDBRANCH   6   7
ENDBRANCH   5   6
ENDBRANCH   3   5
ENDBRANCH   1   2
BRANCH   1  11
ATOM     11  C   UNL     1      17.040  -9.224  63.192  1.00  0.00     0.034 C 
BRANCH  11  12
ATOM     12  C   UNL     1      17.791  -9.827  64.358  1.00  0.00    -0.077 C 
ATOM     13  C   UNL     1      17.104 -10.170  65.472  1.00  0.00    -0.028 C 
ATOM     14  C   UNL     1      19.287 -10.008  64.256  1.00  0.00     0.039 C 
BRANCH  13  15
ATOM     15  C   UNL     1      17.719 -10.823  66.684  1.00  0.00     0.035 C 
BRANCH  15  16
ATOM     16  C   UNL     1      18.007  -9.783  67.771  1.00  0.00     0.079 C 
BRANCH  16  17
ATOM     17  C   UNL     1      19.190 -10.199  68.605  1.00  0.00     0.130 C 
ATOM     18  O   UNL     1      19.357  -9.697  69.706  1.00  0.00    -0.300 OA
ATOM     19  C   UNL     1      20.166 -11.228  68.117  1.00  0.00     0.087 C 
ENDBRANCH  16  17
ENDBRANCH  15  16
ENDBRANCH  13  15
ENDBRANCH  11  12
ENDBRANCH   1  11
TORSDOF 9
ENDMDL
MODEL 4
REMARK VINA RESULT:    -5.687      1.730      3.285
REMARK INTER + INTRA:         -10.034
REMARK INTER:                  -8.636
REMARK INTRA:                  -1.398
REMARK UNBOUND:                -1.354
REMARK SMILES CC(=O)CCC=C(C)CCC=C(C)CCC=C(C)C
REMARK SMILES IDX 10 1 11 2 12 3 13 4 14 5 15 6 16 7 18 8 17 9 19 10 9 11 7 12
REMARK SMILES IDX 6 13 8 14 5 15 4 16 2 17 3 18 1 19
REMARK H PARENT
REMARK Flexibility Score: inf
ROOT
ATOM      1  C   UNL     1      16.871  -9.504  63.190  1.00  0.00     0.032 C 
ENDROOT
BRANCH   1   2
ATOM      2  C   UNL     1      15.400  -9.207  63.050  1.00  0.00    -0.028 C 
ATOM      3  C   UNL     1      14.857  -8.497  62.033  1.00  0.00    -0.077 C 
ATOM      4  C   UNL     1      15.709  -7.857  60.963  1.00  0.00     0.039 C 
BRANCH   3   5
ATOM      5  C   UNL     1      13.360  -8.272  62.003  1.00  0.00     0.034 C 
BRANCH   5   6
ATOM      6  C   UNL     1      12.593  -9.583  61.780  1.00  0.00     0.032 C 
BRANCH   6   7
ATOM      7  C   UNL     1      12.776 -10.118  60.379  1.00  0.00    -0.028 C 
ATOM      8  C   UNL     1      13.524 -11.712  58.642  1.00  0.00     0.039 C 
ATOM      9  C   UNL     1      13.432 -11.262  60.076  1.00  0.00    -0.080 C 
ATOM     10  C   UNL     1      14.137 -12.084  61.126  1.00  0.00     0.039 C 
ENDBRANCH   6   7
ENDBRANCH   5   6
ENDBRANCH   3   5
ENDBRANCH   1   2
BRANCH   1  11
ATOM     11  C   UNL     1      17.096 -10.965  63.594  1.00  0.00     0.034 C 
BRANCH  11  12
ATOM     12  C   UNL     1      17.350 -11.078  65.081  1.00  0.00    -0.077 C 
ATOM     13  C   UNL     1      17.252  -9.968  65.848  1.00  0.00    -0.028 C 
ATOM     14  C   UNL     1      17.728 -12.420  65.664  1.00  0.00     0.039 C 
BRANCH  13  15
ATOM     15  C   UNL     1      17.432  -9.950  67.345  1.00  0.00     0.035 C 
BRANCH  15  16
ATOM     16  C   UNL     1      18.862  -9.544  67.713  1.00  0.00     0.079 C 
BRANCH  16  17
ATOM     17  C   UNL     1      19.286 -10.201  69.000  1.00  0.00     0.130 C 
ATOM     18  O   UNL     1      19.282  -9.554  70.037  1.00  0.00    -0.300 OA
ATOM     19  C   UNL     1      19.705 -11.641  69.041  1.00  0.00     0.087 C 
ENDBRANCH  16  17
ENDBRANCH  15  16
ENDBRANCH  13  15
ENDBRANCH  11  12
ENDBRANCH   1  11
TORSDOF 9
ENDMDL
MODEL 5
REMARK VINA RESULT:    -5.649      1.718      2.458
REMARK INTER + INTRA:          -9.975
REMARK INTER:                  -8.467
REMARK INTRA:                  -1.508
REMARK UNBOUND:                -1.354
REMARK SMILES CC(=O)CCC=C(C)CCC=C(C)CCC=C(C)C
REMARK SMILES IDX 10 1 11 2 12 3 13 4 14 5 15 6 16 7 18 8 17 9 19 10 9 11 7 12
REMARK SMILES IDX 6 13 8 14 5 15 4 16 2 17 3 18 1 19
REMARK H PARENT
REMARK Flexibility Score: inf
ROOT
ATOM      1  C   UNL     1      14.443 -11.196  63.288  1.00  0.00     0.032 C 
ENDROOT
BRANCH   1   2
ATOM      2  C   UNL     1      14.133  -9.740  63.045  1.00  0.00    -0.028 C 
ATOM      3  C   UNL     1      15.065  -8.792  62.792  1.00  0.00    -0.077 C 
ATOM      4  C   UNL     1      16.543  -9.102  62.810  1.00  0.00     0.039 C 
BRANCH   3   5
ATOM      5  C   UNL     1      14.624  -7.363  62.558  1.00  0.00     0.034 C 
BRANCH   5   6
ATOM      6  C   UNL     1      13.140  -7.282  62.173  1.00  0.00     0.032 C 
BRANCH   6   7
ATOM      7  C   UNL     1      12.590  -5.883  62.322  1.00  0.00    -0.028 C 
ATOM      8  C   UNL     1      11.214  -4.082  63.314  1.00  0.00     0.039 C 
ATOM      9  C   UNL     1      11.664  -5.517  63.238  1.00  0.00    -0.080 C 
ATOM     10  C   UNL     1      11.010  -6.516  64.160  1.00  0.00     0.039 C 
ENDBRANCH   6   7
ENDBRANCH   5   6
ENDBRANCH   3   5
ENDBRANCH   1   2
BRANCH   1  11
ATOM     11  C   UNL     1      14.493 -11.499  64.789  1.00  0.00     0.034 C 
BRANCH  11  12
ATOM     12  C   UNL     1      15.920 -11.707  65.247  1.00  0.00    -0.077 C 
ATOM     13  C   UNL     1      16.346 -11.080  66.368  1.00  0.00    -0.028 C 
ATOM     14  C   UNL     1      16.835 -12.588  64.429  1.00  0.00     0.039 C 
BRANCH  13  15
ATOM     15  C   UNL     1      17.724 -11.238  66.960  1.00  0.00     0.035 C 
BRANCH  15  16
ATOM     16  C   UNL     1      18.621 -10.063  66.561  1.00  0.00     0.079 C 
BRANCH  16  17
ATOM     17  C   UNL     1      19.640 -10.496  65.540  1.00  0.00     0.130 C 
ATOM     18  O   UNL     1      20.317 -11.492  65.749  1.00  0.00    -0.300 OA
ATOM     19  C   UNL     1      19.837  -9.736  64.262  1.00  0.00     0.087 C 
ENDBRANCH  16  17
ENDBRANCH  15  16
ENDBRANCH  13  15
ENDBRANCH  11  12
ENDBRANCH   1  11
TORSDOF 9
ENDMDL
MODEL 6
REMARK VINA RESULT:    -5.645      1.642      2.290
REMARK INTER + INTRA:          -9.969
REMARK INTER:                  -8.740
REMARK INTRA:                  -1.229
REMARK UNBOUND:                -1.354
REMARK SMILES CC(=O)CCC=C(C)CCC=C(C)CCC=C(C)C
REMARK SMILES IDX 10 1 11 2 12 3 13 4 14 5 15 6 16 7 18 8 17 9 19 10 9 11 7 12
REMARK SMILES IDX 6 13 8 14 5 15 4 16 2 17 3 18 1 19
REMARK H PARENT
REMARK Flexibility Score: inf
ROOT
ATOM      1  C   UNL     1      15.085 -11.356  63.655  1.00  0.00     0.032 C 
ENDROOT
BRANCH   1   2
ATOM      2  C   UNL     1      14.342 -10.049  63.542  1.00  0.00    -0.028 C 
ATOM      3  C   UNL     1      13.841  -9.552  62.387  1.00  0.00    -0.077 C 
ATOM      4  C   UNL     1      14.054 -10.243  61.061  1.00  0.00     0.039 C 
BRANCH   3   5
ATOM      5  C   UNL     1      13.107  -8.227  62.407  1.00  0.00     0.034 C 
BRANCH   5   6
ATOM      6  C   UNL     1      14.079  -7.040  62.444  1.00  0.00     0.032 C 
BRANCH   6   7
ATOM      7  C   UNL     1      14.036  -6.231  61.169  1.00  0.00    -0.028 C 
ATOM      8  C   UNL     1      14.731  -5.545  58.896  1.00  0.00     0.039 C 
ATOM      9  C   UNL     1      14.891  -6.390  60.132  1.00  0.00    -0.080 C 
ATOM     10  C   UNL     1      16.053  -7.350  60.191  1.00  0.00     0.039 C 
ENDBRANCH   6   7
ENDBRANCH   5   6
ENDBRANCH   3   5
ENDBRANCH   1   2
BRANCH   1  11
ATOM     11  C   UNL     1      16.589 -11.116  63.818  1.00  0.00     0.034 C 
BRANCH  11  12
ATOM     12  C   UNL     1      16.986 -11.171  65.277  1.00  0.00    -0.077 C 
ATOM     13  C   UNL     1      16.993 -10.026  65.997  1.00  0.00    -0.028 C 
ATOM     14  C   UNL     1      17.384 -12.497  65.882  1.00  0.00     0.039 C 
BRANCH  13  15
ATOM     15  C   UNL     1      17.320  -9.946  67.467  1.00  0.00     0.035 C 
BRANCH  15  16
ATOM     16  C   UNL     1      18.794  -9.585  67.674  1.00  0.00     0.079 C 
BRANCH  16  17
ATOM     17  C   UNL     1      19.314 -10.187  68.953  1.00  0.00     0.130 C 
ATOM     18  O   UNL     1      19.440  -9.482  69.943  1.00  0.00    -0.300 OA
ATOM     19  C   UNL     1      19.672 -11.641  69.042  1.00  0.00     0.087 C 
ENDBRANCH  16  17
ENDBRANCH  15  16
ENDBRANCH  13  15
ENDBRANCH  11  12
ENDBRANCH   1  11
TORSDOF 9
ENDMDL
MODEL 7
REMARK VINA RESULT:    -5.620      1.793      2.652
REMARK INTER + INTRA:          -9.931
REMARK INTER:                  -8.330
REMARK INTRA:                  -1.602
REMARK UNBOUND:                -1.354
REMARK SMILES CC(=O)CCC=C(C)CCC=C(C)CCC=C(C)C
REMARK SMILES IDX 10 1 11 2 12 3 13 4 14 5 15 6 16 7 18 8 17 9 19 10 9 11 7 12
REMARK SMILES IDX 6 13 8 14 5 15 4 16 2 17 3 18 1 19
REMARK H PARENT
REMARK Flexibility Score: inf
ROOT
ATOM      1  C   UNL     1      14.067 -12.309  64.346  1.00  0.00     0.032 C 
ENDROOT
BRANCH   1   2
ATOM      2  C   UNL     1      13.436 -11.637  63.153  1.00  0.00    -0.028 C 
ATOM      3  C   UNL     1      13.776 -11.887  61.867  1.00  0.00    -0.077 C 
ATOM      4  C   UNL     1      14.901 -12.829  61.507  1.00  0.00     0.039 C 
BRANCH   3   5
ATOM      5  C   UNL     1      13.062 -11.149  60.755  1.00  0.00     0.034 C 
BRANCH   5   6
ATOM      6  C   UNL     1      13.924 -10.017  60.179  1.00  0.00     0.032 C 
BRANCH   6   7
ATOM      7  C   UNL     1      13.813  -8.749  60.992  1.00  0.00    -0.028 C 
ATOM      8  C   UNL     1      14.546  -7.011  62.594  1.00  0.00     0.039 C 
ATOM      9  C   UNL     1      14.753  -8.311  61.861  1.00  0.00    -0.080 C 
ATOM     10  C   UNL     1      15.991  -9.114  62.175  1.00  0.00     0.039 C 
ENDBRANCH   6   7
ENDBRANCH   5   6
ENDBRANCH   3   5
ENDBRANCH   1   2
BRANCH   1  11
ATOM     11  C   UNL     1      14.610 -11.271  65.333  1.00  0.00     0.034 C 
BRANCH  11  12
ATOM     12  C   UNL     1      16.097 -11.456  65.542  1.00  0.00    -0.077 C 
ATOM     13  C   UNL     1      16.682 -10.890  66.623  1.00  0.00    -0.028 C 
ATOM     14  C   UNL     1      16.890 -12.246  64.527  1.00  0.00     0.039 C 
BRANCH  13  15
ATOM     15  C   UNL     1      18.141 -11.036  66.975  1.00  0.00     0.035 C 
BRANCH  15  16
ATOM     16  C   UNL     1      18.608  -9.862  67.840  1.00  0.00     0.079 C 
BRANCH  16  17
ATOM     17  C   UNL     1      19.284 -10.359  69.090  1.00  0.00     0.130 C 
ATOM     18  O   UNL     1      19.388  -9.616  70.056  1.00  0.00    -0.300 OA
ATOM     19  C   UNL     1      19.827 -11.754  69.182  1.00  0.00     0.087 C 
ENDBRANCH  16  17
ENDBRANCH  15  16
ENDBRANCH  13  15
ENDBRANCH  11  12
ENDBRANCH   1  11
TORSDOF 9
ENDMDL
MODEL 8
REMARK VINA RESULT:    -5.584      1.363      1.838
REMARK INTER + INTRA:          -9.877
REMARK INTER:                  -8.839
REMARK INTRA:                  -1.038
REMARK UNBOUND:                -1.354
REMARK SMILES CC(=O)CCC=C(C)CCC=C(C)CCC=C(C)C
REMARK SMILES IDX 10 1 11 2 12 3 13 4 14 5 15 6 16 7 18 8 17 9 19 10 9 11 7 12
REMARK SMILES IDX 6 13 8 14 5 15 4 16 2 17 3 18 1 19
REMARK H PARENT
REMARK Flexibility Score: inf
ROOT
ATOM      1  C   UNL     1      16.846 -10.234  62.804  1.00  0.00     0.032 C 
ENDROOT
BRANCH   1   2
ATOM      2  C   UNL     1      16.286  -8.856  62.561  1.00  0.00    -0.028 C 
ATOM      3  C   UNL     1      14.997  -8.505  62.777  1.00  0.00    -0.077 C 
ATOM      4  C   UNL     1      13.959  -9.511  63.218  1.00  0.00     0.039 C 
BRANCH   3   5
ATOM      5  C   UNL     1      14.559  -7.083  62.500  1.00  0.00     0.034 C 
BRANCH   5   6
ATOM      6  C   UNL     1      13.183  -7.034  61.821  1.00  0.00     0.032 C 
BRANCH   6   7
ATOM      7  C   UNL     1      12.487  -5.711  62.043  1.00  0.00    -0.028 C 
ATOM      8  C   UNL     1      11.001  -4.096  63.184  1.00  0.00     0.039 C 
ATOM      9  C   UNL     1      11.610  -5.466  63.043  1.00  0.00    -0.080 C 
ATOM     10  C   UNL     1      11.164  -6.543  64.001  1.00  0.00     0.039 C 
ENDBRANCH   6   7
ENDBRANCH   5   6
ENDBRANCH   3   5
ENDBRANCH   1   2
BRANCH   1  11
ATOM     11  C   UNL     1      18.210 -10.155  63.497  1.00  0.00     0.034 C 
BRANCH  11  12
ATOM     12  C   UNL     1      18.248 -11.056  64.712  1.00  0.00    -0.077 C 
ATOM     13  C   UNL     1      19.442 -11.335  65.283  1.00  0.00    -0.028 C 
ATOM     14  C   UNL     1      16.956 -11.637  65.239  1.00  0.00     0.039 C 
BRANCH  13  15
ATOM     15  C   UNL     1      19.617 -12.176  66.522  1.00  0.00     0.035 C 
BRANCH  15  16
ATOM     16  C   UNL     1      20.502 -11.456  67.544  1.00  0.00     0.079 C 
BRANCH  16  17
ATOM     17  C   UNL     1      19.659 -10.770  68.586  1.00  0.00     0.130 C 
ATOM     18  O   UNL     1      19.740 -11.121  69.754  1.00  0.00    -0.300 OA
ATOM     19  C   UNL     1      18.726  -9.653  68.224  1.00  0.00     0.087 C 
ENDBRANCH  16  17
ENDBRANCH  15  16
ENDBRANCH  13  15
ENDBRANCH  11  12
ENDBRANCH   1  11
TORSDOF 9
ENDMDL
MODEL 9
REMARK VINA RESULT:    -5.537      3.025      7.901
REMARK INTER + INTRA:          -9.805
REMARK INTER:                  -8.376
REMARK INTRA:                  -1.429
REMARK UNBOUND:                -1.354
REMARK SMILES CC(=O)CCC=C(C)CCC=C(C)CCC=C(C)C
REMARK SMILES IDX 10 1 11 2 12 3 13 4 14 5 15 6 16 7 18 8 17 9 19 10 9 11 7 12
REMARK SMILES IDX 6 13 8 14 5 15 4 16 2 17 3 18 1 19
REMARK H PARENT
REMARK Flexibility Score: inf
ROOT
ATOM      1  C   UNL     1      15.421  -8.130  62.952  1.00  0.00     0.032 C 
ENDROOT
BRANCH   1   2
ATOM      2  C   UNL     1      16.271  -9.373  62.882  1.00  0.00    -0.028 C 
ATOM      3  C   UNL     1      15.882 -10.591  63.325  1.00  0.00    -0.077 C 
ATOM      4  C   UNL     1      14.557 -10.803  64.017  1.00  0.00     0.039 C 
BRANCH   3   5
ATOM      5  C   UNL     1      16.829 -11.765  63.192  1.00  0.00     0.034 C 
BRANCH   5   6
ATOM      6  C   UNL     1      17.464 -12.139  64.538  1.00  0.00     0.032 C 
BRANCH   6   7
ATOM      7  C   UNL     1      18.607 -11.219  64.902  1.00  0.00    -0.028 C 
ATOM      8  C   UNL     1      19.786  -9.473  66.197  1.00  0.00     0.039 C 
ATOM      9  C   UNL     1      18.571 -10.315  65.907  1.00  0.00    -0.080 C 
ATOM     10  C   UNL     1      17.325 -10.069  66.721  1.00  0.00     0.039 C 
ENDBRANCH   6   7
ENDBRANCH   5   6
ENDBRANCH   3   5
ENDBRANCH   1   2
BRANCH   1  11
ATOM     11  C   UNL     1      14.499  -8.031  61.732  1.00  0.00     0.034 C 
BRANCH  11  12
ATOM     12  C   UNL     1      13.085  -7.696  62.154  1.00  0.00    -0.077 C 
ATOM     13  C   UNL     1      12.862  -6.559  62.853  1.00  0.00    -0.028 C 
ATOM     14  C   UNL     1      11.966  -8.650  61.805  1.00  0.00     0.039 C 
BRANCH  13  15
ATOM     15  C   UNL     1      11.500  -6.083  63.292  1.00  0.00     0.035 C 
BRANCH  15  16
ATOM     16  C   UNL     1      10.962  -5.022  62.327  1.00  0.00     0.079 C 
BRANCH  16  17
ATOM     17  C   UNL     1      10.669  -3.739  63.058  1.00  0.00     0.130 C 
ATOM     18  O   UNL     1      11.376  -3.405  63.998  1.00  0.00    -0.300 OA
ATOM     19  C   UNL     1       9.530  -2.851  62.652  1.00  0.00     0.087 C 
ENDBRANCH  16  17
ENDBRANCH  15  16
ENDBRANCH  13  15
ENDBRANCH  11  12
ENDBRANCH   1  11
TORSDOF 9
ENDMDL
