MODEL 1
REMARK VINA RESULT:    -3.754      0.000      0.000
REMARK INTER + INTRA:          -6.113
REMARK INTER:                  -5.729
REMARK INTRA:                  -0.384
REMARK UNBOUND:                -0.384
REMARK SMILES CC1=CCC[C@@H](C)C(=O)C[C@@H](C(C)C)C(=O)C1
REMARK SMILES IDX 8 1 9 2 6 3 7 4 5 5 4 6 3 7 2 8 1 9 10 11 11 12 15 13 16 14
REMARK SMILES IDX 17 15 12 17 13 18 14 19
REMARK H PARENT
REMARK Flexibility Score: 70.00
ROOT
ATOM      1  C   UNL     1      55.143  18.947  -4.212  1.00  0.00     0.136 C 
ATOM      2  O   UNL     1      56.344  19.097  -4.388  1.00  0.00    -0.299 OA
ENDROOT
BRANCH   1   3
ATOM      3  C   UNL     1      54.622  18.518  -2.849  1.00  0.00     0.053 C 
ATOM      4  C   UNL     1      55.211  19.365  -1.709  1.00  0.00     0.016 C 
BRANCH   3   5
ATOM      5  C   UNL     1      54.846  17.011  -2.594  1.00  0.00     0.015 C 
BRANCH   5   6
ATOM      6  C   UNL     1      54.991  16.165  -3.882  1.00  0.00     0.028 C 
BRANCH   6   7
ATOM      7  C   UNL     1      53.810  15.238  -4.049  1.00  0.00    -0.028 C 
ATOM      8  C   UNL     1      52.859  15.340  -5.009  1.00  0.00    -0.070 CG0
ATOM      9  C   UNL     1      51.718  14.354  -4.971  1.00  0.00     0.039 C 
ATOM     10  G   UNL     1      52.924  16.344  -6.152  1.00  0.00     0.000 G0
ENDBRANCH   6   7
ENDBRANCH   5   6
ENDBRANCH   3   5
ENDBRANCH   1   3
BRANCH   1  11
ATOM     11  C   UNL     1      54.206  19.165  -5.378  1.00  0.00     0.087 C 
BRANCH  11  12
ATOM     12  C   UNL     1      52.732  18.800  -5.057  1.00  0.00     0.066 C 
BRANCH  12  13
ATOM     13  C   UNL     1      52.209  17.677  -5.949  1.00  0.00     0.140 C 
ATOM     14  O   UNL     1      51.165  17.854  -6.559  1.00  0.00    -0.299 OA
BRANCH  13  15
ATOM     15  C   UNL     1      52.916  16.349  -6.155  1.00  0.00     0.106 CG0
ATOM     16  G   UNL     1      52.855  15.363  -4.997  1.00  0.00     0.000 G0
ENDBRANCH  13  15
ENDBRANCH  12  13
BRANCH  12  17
ATOM     17  C   UNL     1      51.810  20.060  -5.068  1.00  0.00    -0.006 C 
ATOM     18  C   UNL     1      52.575  21.303  -5.550  1.00  0.00     0.008 C 
ATOM     19  C   UNL     1      51.127  20.365  -3.722  1.00  0.00     0.008 C 
ENDBRANCH  12  17
ENDBRANCH  11  12
ENDBRANCH   1  11
TORSDOF 1
ENDMDL
MODEL 2
REMARK VINA RESULT:    -3.593      2.694      5.171
REMARK INTER + INTRA:          -5.867
REMARK INTER:                  -5.491
REMARK INTRA:                  -0.376
REMARK UNBOUND:                -0.384
REMARK SMILES CC1=CCC[C@@H](C)C(=O)C[C@@H](C(C)C)C(=O)C1
REMARK SMILES IDX 8 1 9 2 6 3 7 4 5 5 4 6 3 7 2 8 1 9 10 11 11 12 15 13 16 14
REMARK SMILES IDX 17 15 12 17 13 18 14 19
REMARK H PARENT
REMARK Flexibility Score: 70.00
ROOT
ATOM      1  C   UNL     1      54.237  16.762  -4.722  1.00  0.00     0.136 C 
ATOM      2  O   UNL     1      53.357  16.033  -5.159  1.00  0.00    -0.299 OA
ENDROOT
BRANCH   1   3
ATOM      3  C   UNL     1      54.408  18.165  -5.282  1.00  0.00     0.053 C 
ATOM      4  C   UNL     1      55.579  18.915  -4.625  1.00  0.00     0.016 C 
BRANCH   3   5
ATOM      5  C   UNL     1      53.103  18.987  -5.191  1.00  0.00     0.015 C 
BRANCH   5   6
ATOM      6  C   UNL     1      52.899  19.706  -3.836  1.00  0.00     0.028 C 
BRANCH   6   7
ATOM      7  C   UNL     1      51.947  18.932  -2.956  1.00  0.00    -0.028 C 
ATOM      8  C   UNL     1      52.303  18.153  -1.905  1.00  0.00    -0.070 CG0
ATOM      9  C   UNL     1      51.207  17.406  -1.187  1.00  0.00     0.039 C 
ATOM     10  G   UNL     1      53.727  18.054  -1.378  1.00  0.00     0.000 G0
ENDBRANCH   6   7
ENDBRANCH   5   6
ENDBRANCH   3   5
ENDBRANCH   1   3
BRANCH   1  11
ATOM     11  C   UNL     1      55.156  16.227  -3.648  1.00  0.00     0.087 C 
BRANCH  11  12
ATOM     12  C   UNL     1      54.397  15.654  -2.421  1.00  0.00     0.066 C 
BRANCH  12  13
ATOM     13  C   UNL     1      54.341  16.649  -1.264  1.00  0.00     0.140 C 
ATOM     14  O   UNL     1      54.819  16.320  -0.188  1.00  0.00    -0.299 OA
BRANCH  13  15
ATOM     15  C   UNL     1      53.749  18.044  -1.362  1.00  0.00     0.106 CG0
ATOM     16  G   UNL     1      52.331  18.141  -1.907  1.00  0.00     0.000 G0
ENDBRANCH  13  15
ENDBRANCH  12  13
BRANCH  12  17
ATOM     17  C   UNL     1      54.957  14.261  -1.995  1.00  0.00    -0.006 C 
ATOM     18  C   UNL     1      56.004  13.753  -2.998  1.00  0.00     0.008 C 
ATOM     19  C   UNL     1      53.883  13.179  -1.778  1.00  0.00     0.008 C 
ENDBRANCH  12  17
ENDBRANCH  11  12
ENDBRANCH   1  11
TORSDOF 1
ENDMDL
MODEL 3
REMARK VINA RESULT:    -3.560      2.150      4.383
REMARK INTER + INTRA:          -5.816
REMARK INTER:                  -5.418
REMARK INTRA:                  -0.398
REMARK UNBOUND:                -0.384
REMARK SMILES CC1=CCC[C@@H](C)C(=O)C[C@@H](C(C)C)C(=O)C1
REMARK SMILES IDX 8 1 9 2 6 3 7 4 5 5 4 6 3 7 2 8 1 9 10 11 11 12 15 13 16 14
REMARK SMILES IDX 17 15 12 17 13 18 14 19
REMARK H PARENT
REMARK Flexibility Score: 70.00
ROOT
ATOM      1  C   UNL     1      54.803  18.371  -3.238  1.00  0.00     0.136 C 
ATOM      2  O   UNL     1      54.414  19.243  -2.473  1.00  0.00    -0.299 OA
ENDROOT
BRANCH   1   3
ATOM      3  C   UNL     1      55.123  18.716  -4.684  1.00  0.00     0.053 C 
ATOM      4  C   UNL     1      56.499  19.389  -4.831  1.00  0.00     0.016 C 
BRANCH   3   5
ATOM      5  C   UNL     1      54.014  19.574  -5.331  1.00  0.00     0.015 C 
BRANCH   5   6
ATOM      6  C   UNL     1      52.732  18.785  -5.693  1.00  0.00     0.028 C 
BRANCH   6   7
ATOM      7  C   UNL     1      51.605  19.131  -4.750  1.00  0.00    -0.028 C 
ATOM      8  C   UNL     1      50.933  18.251  -3.969  1.00  0.00    -0.070 CG0
ATOM      9  C   UNL     1      49.791  18.782  -3.139  1.00  0.00     0.039 C 
ATOM     10  G   UNL     1      51.315  16.783  -3.838  1.00  0.00     0.000 G0
ENDBRANCH   6   7
ENDBRANCH   5   6
ENDBRANCH   3   5
ENDBRANCH   1   3
BRANCH   1  11
ATOM     11  C   UNL     1      54.925  16.956  -2.722  1.00  0.00     0.087 C 
BRANCH  11  12
ATOM     12  C   UNL     1      53.829  16.006  -3.275  1.00  0.00     0.066 C 
BRANCH  12  13
ATOM     13  C   UNL     1      52.426  16.441  -2.857  1.00  0.00     0.140 C 
ATOM     14  O   UNL     1      52.181  16.553  -1.665  1.00  0.00    -0.299 OA
BRANCH  13  15
ATOM     15  C   UNL     1      51.308  16.773  -3.829  1.00  0.00     0.106 CG0
ATOM     16  G   UNL     1      50.950  18.245  -3.972  1.00  0.00     0.000 G0
ENDBRANCH  13  15
ENDBRANCH  12  13
BRANCH  12  17
ATOM     17  C   UNL     1      54.129  14.514  -2.925  1.00  0.00    -0.006 C 
ATOM     18  C   UNL     1      55.633  14.215  -3.012  1.00  0.00     0.008 C 
ATOM     19  C   UNL     1      53.350  13.490  -3.771  1.00  0.00     0.008 C 
ENDBRANCH  12  17
ENDBRANCH  11  12
ENDBRANCH   1  11
TORSDOF 1
ENDMDL
MODEL 4
REMARK VINA RESULT:    -3.368      2.434      4.439
REMARK INTER + INTRA:          -5.524
REMARK INTER:                  -5.199
REMARK INTRA:                  -0.325
REMARK UNBOUND:                -0.384
REMARK SMILES CC1=CCC[C@@H](C)C(=O)C[C@@H](C(C)C)C(=O)C1
REMARK SMILES IDX 8 1 9 2 6 3 7 4 5 5 4 6 3 7 2 8 1 9 10 11 11 12 15 13 16 14
REMARK SMILES IDX 17 15 12 17 13 18 14 19
REMARK H PARENT
REMARK Flexibility Score: 70.00
ROOT
ATOM      1  C   UNL     1      54.763  18.619  -2.537  1.00  0.00     0.136 C 
ATOM      2  O   UNL     1      55.179  19.626  -1.983  1.00  0.00    -0.299 OA
ENDROOT
BRANCH   1   3
ATOM      3  C   UNL     1      54.829  18.502  -4.052  1.00  0.00     0.053 C 
ATOM      4  C   UNL     1      56.173  18.995  -4.615  1.00  0.00     0.016 C 
BRANCH   3   5
ATOM      5  C   UNL     1      53.644  19.216  -4.738  1.00  0.00     0.015 C 
BRANCH   5   6
ATOM      6  C   UNL     1      52.437  19.481  -3.806  1.00  0.00     0.028 C 
BRANCH   6   7
ATOM      7  C   UNL     1      51.218  18.725  -4.280  1.00  0.00    -0.028 C 
ATOM      8  C   UNL     1      50.751  17.570  -3.747  1.00  0.00    -0.070 CG0
ATOM      9  C   UNL     1      49.553  16.931  -4.405  1.00  0.00     0.039 C 
ATOM     10  G   UNL     1      51.327  16.932  -2.491  1.00  0.00     0.000 G0
ENDBRANCH   6   7
ENDBRANCH   5   6
ENDBRANCH   3   5
ENDBRANCH   1   3
BRANCH   1  11
ATOM     11  C   UNL     1      54.158  17.522  -1.690  1.00  0.00     0.087 C 
BRANCH  11  12
ATOM     12  C   UNL     1      53.926  16.202  -2.472  1.00  0.00     0.066 C 
BRANCH  12  13
ATOM     13  C   UNL     1      52.441  15.897  -2.659  1.00  0.00     0.140 C 
ATOM     14  O   UNL     1      52.113  14.759  -2.960  1.00  0.00    -0.299 OA
BRANCH  13  15
ATOM     15  C   UNL     1      51.329  16.913  -2.470  1.00  0.00     0.106 CG0
ATOM     16  G   UNL     1      50.756  17.534  -3.736  1.00  0.00     0.000 G0
ENDBRANCH  13  15
ENDBRANCH  12  13
BRANCH  12  17
ATOM     17  C   UNL     1      54.713  15.011  -1.839  1.00  0.00    -0.006 C 
ATOM     18  C   UNL     1      55.233  15.370  -0.439  1.00  0.00     0.008 C 
ATOM     19  C   UNL     1      55.874  14.482  -2.701  1.00  0.00     0.008 C 
ENDBRANCH  12  17
ENDBRANCH  11  12
ENDBRANCH   1  11
TORSDOF 1
ENDMDL
MODEL 5
REMARK VINA RESULT:    -3.353      2.361      3.350
REMARK INTER + INTRA:          -5.501
REMARK INTER:                  -5.405
REMARK INTRA:                  -0.096
REMARK UNBOUND:                -0.384
REMARK SMILES CC1=CCC[C@@H](C)C(=O)C[C@@H](C(C)C)C(=O)C1
REMARK SMILES IDX 8 1 9 2 6 3 7 4 5 5 4 6 3 7 2 8 1 9 10 11 11 12 15 13 16 14
REMARK SMILES IDX 17 15 12 17 13 18 14 19
REMARK H PARENT
REMARK Flexibility Score: 70.00
ROOT
ATOM      1  C   UNL     1      54.873  15.865  -2.484  1.00  0.00     0.136 C 
ATOM      2  O   UNL     1      54.550  14.685  -2.500  1.00  0.00    -0.299 OA
ENDROOT
BRANCH   1   3
ATOM      3  C   UNL     1      54.897  16.629  -1.170  1.00  0.00     0.053 C 
ATOM      4  C   UNL     1      55.049  15.696   0.043  1.00  0.00     0.016 C 
BRANCH   3   5
ATOM      5  C   UNL     1      53.663  17.546  -1.014  1.00  0.00     0.015 C 
BRANCH   5   6
ATOM      6  C   UNL     1      52.308  16.800  -1.068  1.00  0.00     0.028 C 
BRANCH   6   7
ATOM      7  C   UNL     1      51.295  17.587  -1.865  1.00  0.00    -0.028 C 
ATOM      8  C   UNL     1      51.050  17.441  -3.190  1.00  0.00    -0.070 CG0
ATOM      9  C   UNL     1      50.043  18.369  -3.821  1.00  0.00     0.039 C 
ATOM     10  G   UNL     1      51.684  16.353  -4.046  1.00  0.00     0.000 G0
ENDBRANCH   6   7
ENDBRANCH   5   6
ENDBRANCH   3   5
ENDBRANCH   1   3
BRANCH   1  11
ATOM     11  C   UNL     1      55.212  16.541  -3.793  1.00  0.00     0.087 C 
BRANCH  11  12
ATOM     12  C   UNL     1      54.112  17.522  -4.279  1.00  0.00     0.066 C 
BRANCH  12  13
ATOM     13  C   UNL     1      52.906  16.790  -4.863  1.00  0.00     0.140 C 
ATOM     14  O   UNL     1      52.918  16.502  -6.051  1.00  0.00    -0.299 OA
BRANCH  13  15
ATOM     15  C   UNL     1      51.689  16.368  -4.059  1.00  0.00     0.106 CG0
ATOM     16  G   UNL     1      51.052  17.437  -3.183  1.00  0.00     0.000 G0
ENDBRANCH  13  15
ENDBRANCH  12  13
BRANCH  12  17
ATOM     17  C   UNL     1      54.689  18.604  -5.245  1.00  0.00    -0.006 C 
ATOM     18  C   UNL     1      56.111  19.015  -4.832  1.00  0.00     0.008 C 
ATOM     19  C   UNL     1      53.813  19.861  -5.394  1.00  0.00     0.008 C 
ENDBRANCH  12  17
ENDBRANCH  11  12
ENDBRANCH   1  11
TORSDOF 1
ENDMDL
MODEL 6
REMARK VINA RESULT:    -3.307      2.160      3.283
REMARK INTER + INTRA:          -5.431
REMARK INTER:                  -4.811
REMARK INTRA:                  -0.620
REMARK UNBOUND:                -0.384
REMARK SMILES CC1=CCC[C@@H](C)C(=O)C[C@@H](C(C)C)C(=O)C1
REMARK SMILES IDX 8 1 9 2 6 3 7 4 5 5 4 6 3 7 2 8 1 9 10 11 11 12 15 13 16 14
REMARK SMILES IDX 17 15 12 17 13 18 14 19
REMARK H PARENT
REMARK Flexibility Score: 70.00
ROOT
ATOM      1  C   UNL     1      55.102  15.215  -3.074  1.00  0.00     0.136 C 
ATOM      2  O   UNL     1      55.877  14.312  -3.356  1.00  0.00    -0.299 OA
ENDROOT
BRANCH   1   3
ATOM      3  C   UNL     1      54.254  15.124  -1.815  1.00  0.00     0.053 C 
ATOM      4  C   UNL     1      55.097  15.257  -0.535  1.00  0.00     0.016 C 
BRANCH   3   5
ATOM      5  C   UNL     1      53.401  13.837  -1.786  1.00  0.00     0.015 C 
BRANCH   5   6
ATOM      6  C   UNL     1      52.471  13.664  -3.011  1.00  0.00     0.028 C 
BRANCH   6   7
ATOM      7  C   UNL     1      51.240  14.529  -2.876  1.00  0.00    -0.028 C 
ATOM      8  C   UNL     1      50.995  15.664  -3.574  1.00  0.00    -0.070 CG0
ATOM      9  C   UNL     1      49.735  16.427  -3.249  1.00  0.00     0.039 C 
ATOM     10  G   UNL     1      51.883  16.162  -4.706  1.00  0.00     0.000 G0
ENDBRANCH   6   7
ENDBRANCH   5   6
ENDBRANCH   3   5
ENDBRANCH   1   3
BRANCH   1  11
ATOM     11  C   UNL     1      54.987  16.392  -4.016  1.00  0.00     0.087 C 
BRANCH  11  12
ATOM     12  C   UNL     1      53.953  17.452  -3.548  1.00  0.00     0.066 C 
BRANCH  12  13
ATOM     13  C   UNL     1      52.688  17.437  -4.403  1.00  0.00     0.140 C 
ATOM     14  O   UNL     1      52.308  18.488  -4.899  1.00  0.00    -0.299 OA
BRANCH  13  15
ATOM     15  C   UNL     1      51.873  16.192  -4.704  1.00  0.00     0.106 CG0
ATOM     16  G   UNL     1      50.990  15.672  -3.578  1.00  0.00     0.000 G0
ENDBRANCH  13  15
ENDBRANCH  12  13
BRANCH  12  17
ATOM     17  C   UNL     1      54.593  18.872  -3.438  1.00  0.00    -0.006 C 
ATOM     18  C   UNL     1      55.788  19.018  -4.394  1.00  0.00     0.008 C 
ATOM     19  C   UNL     1      55.020  19.273  -2.014  1.00  0.00     0.008 C 
ENDBRANCH  12  17
ENDBRANCH  11  12
ENDBRANCH   1  11
TORSDOF 1
ENDMDL
MODEL 7
REMARK VINA RESULT:    -3.215      1.960      3.568
REMARK INTER + INTRA:          -5.290
REMARK INTER:                  -5.463
REMARK INTRA:                   0.173
REMARK UNBOUND:                -0.384
REMARK SMILES CC1=CCC[C@@H](C)C(=O)C[C@@H](C(C)C)C(=O)C1
REMARK SMILES IDX 8 1 9 2 6 3 7 4 5 5 4 6 3 7 2 8 1 9 10 11 11 12 15 13 16 14
REMARK SMILES IDX 17 15 12 17 13 18 14 19
REMARK H PARENT
REMARK Flexibility Score: 70.00
ROOT
ATOM      1  C   UNL     1      52.899  19.240  -5.364  1.00  0.00     0.136 C 
ATOM      2  O   UNL     1      53.431  20.226  -5.854  1.00  0.00    -0.299 OA
ENDROOT
BRANCH   1   3
ATOM      3  C   UNL     1      51.637  19.393  -4.529  1.00  0.00     0.053 C 
ATOM      4  C   UNL     1      51.948  19.723  -3.060  1.00  0.00     0.016 C 
BRANCH   3   5
ATOM      5  C   UNL     1      50.721  18.154  -4.637  1.00  0.00     0.015 C 
BRANCH   5   6
ATOM      6  C   UNL     1      50.484  17.421  -3.295  1.00  0.00     0.028 C 
BRANCH   6   7
ATOM      7  C   UNL     1      50.979  15.996  -3.368  1.00  0.00    -0.028 C 
ATOM      8  C   UNL     1      52.262  15.598  -3.189  1.00  0.00    -0.070 CG0
ATOM      9  C   UNL     1      52.570  14.133  -3.367  1.00  0.00     0.039 C 
ATOM     10  G   UNL     1      53.379  16.536  -2.755  1.00  0.00     0.000 G0
ENDBRANCH   6   7
ENDBRANCH   5   6
ENDBRANCH   3   5
ENDBRANCH   1   3
BRANCH   1  11
ATOM     11  C   UNL     1      53.540  17.888  -5.581  1.00  0.00     0.087 C 
BRANCH  11  12
ATOM     12  C   UNL     1      54.816  17.671  -4.725  1.00  0.00     0.066 C 
BRANCH  12  13
ATOM     13  C   UNL     1      54.615  16.602  -3.653  1.00  0.00     0.140 C 
ATOM     14  O   UNL     1      55.493  15.768  -3.490  1.00  0.00    -0.299 OA
BRANCH  13  15
ATOM     15  C   UNL     1      53.399  16.517  -2.748  1.00  0.00     0.106 CG0
ATOM     16  G   UNL     1      52.282  15.587  -3.201  1.00  0.00     0.000 G0
ENDBRANCH  13  15
ENDBRANCH  12  13
BRANCH  12  17
ATOM     17  C   UNL     1      55.357  19.016  -4.144  1.00  0.00    -0.006 C 
ATOM     18  C   UNL     1      56.714  19.382  -4.764  1.00  0.00     0.008 C 
ATOM     19  C   UNL     1      55.465  19.052  -2.609  1.00  0.00     0.008 C 
ENDBRANCH  12  17
ENDBRANCH  11  12
ENDBRANCH   1  11
TORSDOF 1
ENDMDL
MODEL 8
REMARK VINA RESULT:    -3.106      2.196      2.704
REMARK INTER + INTRA:          -5.124
REMARK INTER:                  -4.810
REMARK INTRA:                  -0.313
REMARK UNBOUND:                -0.384
REMARK SMILES CC1=CCC[C@@H](C)C(=O)C[C@@H](C(C)C)C(=O)C1
REMARK SMILES IDX 8 1 9 2 6 3 7 4 5 5 4 6 3 7 2 8 1 9 10 11 11 12 15 13 16 14
REMARK SMILES IDX 17 15 12 17 13 18 14 19
REMARK H PARENT
REMARK Flexibility Score: 70.00
ROOT
ATOM      1  C   UNL     1      53.840  19.206  -4.889  1.00  0.00     0.136 C 
ATOM      2  O   UNL     1      53.973  20.071  -5.744  1.00  0.00    -0.299 OA
ENDROOT
BRANCH   1   3
ATOM      3  C   UNL     1      55.031  18.785  -4.042  1.00  0.00     0.053 C 
ATOM      4  C   UNL     1      56.352  19.375  -4.562  1.00  0.00     0.016 C 
BRANCH   3   5
ATOM      5  C   UNL     1      55.125  17.250  -3.902  1.00  0.00     0.015 C 
BRANCH   5   6
ATOM      6  C   UNL     1      54.818  16.722  -2.480  1.00  0.00     0.028 C 
BRANCH   6   7
ATOM      7  C   UNL     1      53.968  15.475  -2.543  1.00  0.00    -0.028 C 
ATOM      8  C   UNL     1      52.675  15.383  -2.147  1.00  0.00    -0.070 CG0
ATOM      9  C   UNL     1      52.014  14.030  -2.228  1.00  0.00     0.039 C 
ATOM     10  G   UNL     1      51.848  16.579  -1.697  1.00  0.00     0.000 G0
ENDBRANCH   6   7
ENDBRANCH   5   6
ENDBRANCH   3   5
ENDBRANCH   1   3
BRANCH   1  11
ATOM     11  C   UNL     1      52.486  18.554  -4.722  1.00  0.00     0.087 C 
BRANCH  11  12
ATOM     12  C   UNL     1      51.888  18.740  -3.301  1.00  0.00     0.066 C 
BRANCH  12  13
ATOM     13  C   UNL     1      51.246  17.458  -2.776  1.00  0.00     0.140 C 
ATOM     14  O   UNL     1      50.191  17.090  -3.270  1.00  0.00    -0.299 OA
BRANCH  13  15
ATOM     15  C   UNL     1      51.845  16.585  -1.687  1.00  0.00     0.106 CG0
ATOM     16  G   UNL     1      52.659  15.386  -2.153  1.00  0.00     0.000 G0
ENDBRANCH  13  15
ENDBRANCH  12  13
BRANCH  12  17
ATOM     17  C   UNL     1      50.927  19.969  -3.236  1.00  0.00    -0.006 C 
ATOM     18  C   UNL     1      50.280  20.240  -4.603  1.00  0.00     0.008 C 
ATOM     19  C   UNL     1      51.577  21.261  -2.708  1.00  0.00     0.008 C 
ENDBRANCH  12  17
ENDBRANCH  11  12
ENDBRANCH   1  11
TORSDOF 1
ENDMDL
MODEL 9
REMARK VINA RESULT:    -3.053      1.827      4.228
REMARK INTER + INTRA:          -5.043
REMARK INTER:                  -4.799
REMARK INTRA:                  -0.244
REMARK UNBOUND:                -0.384
REMARK SMILES CC1=CCC[C@@H](C)C(=O)C[C@@H](C(C)C)C(=O)C1
REMARK SMILES IDX 8 1 9 2 6 3 7 4 5 5 4 6 3 7 2 8 1 9 10 11 11 12 15 13 16 14
REMARK SMILES IDX 17 15 12 17 13 18 14 19
REMARK H PARENT
REMARK Flexibility Score: 70.00
ROOT
ATOM      1  C   UNL     1      52.481  18.320  -5.789  1.00  0.00     0.136 C 
ATOM      2  O   UNL     1      51.534  18.588  -6.515  1.00  0.00    -0.299 OA
ENDROOT
BRANCH   1   3
ATOM      3  C   UNL     1      53.093  19.398  -4.909  1.00  0.00     0.053 C 
ATOM      4  C   UNL     1      52.214  20.659  -4.837  1.00  0.00     0.016 C 
BRANCH   3   5
ATOM      5  C   UNL     1      54.533  19.750  -5.344  1.00  0.00     0.015 C 
BRANCH   5   6
ATOM      6  C   UNL     1      55.634  19.020  -4.538  1.00  0.00     0.028 C 
BRANCH   6   7
ATOM      7  C   UNL     1      55.159  18.711  -3.139  1.00  0.00    -0.028 C 
ATOM      8  C   UNL     1      54.789  17.489  -2.684  1.00  0.00    -0.070 CG0
ATOM      9  C   UNL     1      54.279  17.395  -1.268  1.00  0.00     0.039 C 
ATOM     10  G   UNL     1      54.927  16.212  -3.501  1.00  0.00     0.000 G0
ENDBRANCH   6   7
ENDBRANCH   5   6
ENDBRANCH   3   5
ENDBRANCH   1   3
BRANCH   1  11
ATOM     11  C   UNL     1      53.039  16.915  -5.814  1.00  0.00     0.087 C 
BRANCH  11  12
ATOM     12  C   UNL     1      52.508  16.024  -4.660  1.00  0.00     0.066 C 
BRANCH  12  13
ATOM     13  C   UNL     1      53.638  15.456  -3.805  1.00  0.00     0.140 C 
ATOM     14  O   UNL     1      53.516  14.327  -3.353  1.00  0.00    -0.299 OA
BRANCH  13  15
ATOM     15  C   UNL     1      54.928  16.193  -3.493  1.00  0.00     0.106 CG0
ATOM     16  G   UNL     1      54.796  17.480  -2.692  1.00  0.00     0.000 G0
ENDBRANCH  13  15
ENDBRANCH  12  13
BRANCH  12  17
ATOM     17  C   UNL     1      51.533  14.922  -5.184  1.00  0.00    -0.006 C 
ATOM     18  C   UNL     1      51.743  14.663  -6.684  1.00  0.00     0.008 C 
ATOM     19  C   UNL     1      50.044  15.204  -4.913  1.00  0.00     0.008 C 
ENDBRANCH  12  17
ENDBRANCH  11  12
ENDBRANCH   1  11
TORSDOF 1
ENDMDL
