MODEL 1
REMARK VINA RESULT:    -5.614      0.000      0.000
REMARK INTER + INTRA:         -10.748
REMARK INTER:                  -9.553
REMARK INTRA:                  -1.196
REMARK UNBOUND:                -1.196
REMARK SMILES CCCCCCCCCCCCCC(=O)[O-]
REMARK SMILES IDX 8 1 9 2 10 3 11 4 12 5 13 6 14 7 15 8 16 9 7 10 6 11 5 12
REMARK SMILES IDX 4 13 3 14 2 15 1 16
REMARK H PARENT
REMARK Flexibility Score: inf
ROOT
ATOM      1  C   UNL     1      -4.657 -28.921 -53.347  1.00  0.00     0.000 C 
ENDROOT
BRANCH   1   2
ATOM      2  C   UNL     1      -5.268 -30.151 -54.037  1.00  0.00     0.000 C 
BRANCH   2   3
ATOM      3  C   UNL     1      -4.834 -31.475 -53.388  1.00  0.00     0.000 C 
BRANCH   3   4
ATOM      4  C   UNL     1      -5.434 -31.668 -51.984  1.00  0.00     0.000 C 
BRANCH   4   5
ATOM      5  C   UNL     1      -4.451 -32.343 -51.012  1.00  0.00     0.006 C 
BRANCH   5   6
ATOM      6  C   UNL     1      -3.237 -32.952 -51.725  1.00  0.00     0.053 C 
BRANCH   6   7
ATOM      7  C   UNL     1      -2.029 -32.886 -50.845  1.00  0.00     0.041 C 
ATOM      8  O   UNL     1      -1.284 -31.871 -50.867  1.00  0.00    -0.550 OA
ATOM      9  O   UNL     1      -1.754 -33.922 -49.962  1.00  0.00    -0.550 OA
ENDBRANCH   6   7
ENDBRANCH   5   6
ENDBRANCH   4   5
ENDBRANCH   3   4
ENDBRANCH   2   3
ENDBRANCH   1   2
BRANCH   1  10
ATOM     10  C   UNL     1      -5.623 -27.728 -53.399  1.00  0.00     0.000 C 
BRANCH  10  11
ATOM     11  C   UNL     1      -5.871 -27.107 -52.015  1.00  0.00    -0.000 C 
BRANCH  11  12
ATOM     12  C   UNL     1      -5.801 -28.143 -50.878  1.00  0.00    -0.000 C 
BRANCH  12  13
ATOM     13  C   UNL     1      -6.487 -27.639 -49.590  1.00  0.00    -0.000 C 
BRANCH  13  14
ATOM     14  C   UNL     1      -6.322 -28.589 -48.392  1.00  0.00    -0.000 C 
BRANCH  14  15
ATOM     15  C   UNL     1      -6.472 -30.066 -48.776  1.00  0.00    -0.003 C 
ATOM     16  C   UNL     1      -7.940 -30.439 -48.967  1.00  0.00     0.004 C 
ENDBRANCH  14  15
ENDBRANCH  13  14
ENDBRANCH  12  13
ENDBRANCH  11  12
ENDBRANCH  10  11
ENDBRANCH   1  10
TORSDOF 12
ENDMDL
MODEL 2
REMARK VINA RESULT:    -5.587      2.610      5.757
REMARK INTER + INTRA:         -10.703
REMARK INTER:                  -9.446
REMARK INTRA:                  -1.256
REMARK UNBOUND:                -1.196
REMARK SMILES CCCCCCCCCCCCCC(=O)[O-]
REMARK SMILES IDX 8 1 9 2 10 3 11 4 12 5 13 6 14 7 15 8 16 9 7 10 6 11 5 12
REMARK SMILES IDX 4 13 3 14 2 15 1 16
REMARK H PARENT
REMARK Flexibility Score: inf
ROOT
ATOM      1  C   UNL     1      -7.145 -30.196 -49.314  1.00  0.00     0.000 C 
ENDROOT
BRANCH   1   2
ATOM      2  C   UNL     1      -6.574 -28.770 -49.249  1.00  0.00     0.000 C 
BRANCH   2   3
ATOM      3  C   UNL     1      -5.691 -28.427 -50.460  1.00  0.00     0.000 C 
BRANCH   3   4
ATOM      4  C   UNL     1      -6.276 -27.286 -51.312  1.00  0.00     0.000 C 
BRANCH   4   5
ATOM      5  C   UNL     1      -5.588 -27.161 -52.681  1.00  0.00     0.006 C 
BRANCH   5   6
ATOM      6  C   UNL     1      -4.948 -28.477 -53.144  1.00  0.00     0.053 C 
BRANCH   6   7
ATOM      7  C   UNL     1      -5.545 -28.916 -54.445  1.00  0.00     0.041 C 
ATOM      8  O   UNL     1      -6.368 -28.177 -55.046  1.00  0.00    -0.550 OA
ATOM      9  O   UNL     1      -5.152 -30.118 -55.018  1.00  0.00    -0.550 OA
ENDBRANCH   6   7
ENDBRANCH   5   6
ENDBRANCH   4   5
ENDBRANCH   3   4
ENDBRANCH   2   3
ENDBRANCH   1   2
BRANCH   1  10
ATOM     10  C   UNL     1      -6.040 -31.213 -49.638  1.00  0.00     0.000 C 
BRANCH  10  11
ATOM     11  C   UNL     1      -6.406 -32.129 -50.817  1.00  0.00    -0.000 C 
BRANCH  11  12
ATOM     12  C   UNL     1      -5.482 -31.930 -52.033  1.00  0.00    -0.000 C 
BRANCH  12  13
ATOM     13  C   UNL     1      -3.995 -31.850 -51.626  1.00  0.00    -0.000 C 
BRANCH  13  14
ATOM     14  C   UNL     1      -3.407 -33.197 -51.174  1.00  0.00    -0.000 C 
BRANCH  14  15
ATOM     15  C   UNL     1      -2.130 -33.577 -51.934  1.00  0.00    -0.003 C 
ATOM     16  C   UNL     1      -2.124 -32.974 -53.337  1.00  0.00     0.004 C 
ENDBRANCH  14  15
ENDBRANCH  13  14
ENDBRANCH  12  13
ENDBRANCH  11  12
ENDBRANCH  10  11
ENDBRANCH   1  10
TORSDOF 12
ENDMDL
MODEL 3
REMARK VINA RESULT:    -5.461      3.414      6.106
REMARK INTER + INTRA:         -10.487
REMARK INTER:                  -9.019
REMARK INTRA:                  -1.468
REMARK UNBOUND:                -1.196
REMARK SMILES CCCCCCCCCCCCCC(=O)[O-]
REMARK SMILES IDX 8 1 9 2 10 3 11 4 12 5 13 6 14 7 15 8 16 9 7 10 6 11 5 12
REMARK SMILES IDX 4 13 3 14 2 15 1 16
REMARK H PARENT
REMARK Flexibility Score: inf
ROOT
ATOM      1  C   UNL     1      -0.527 -30.503 -51.243  1.00  0.00     0.000 C 
ENDROOT
BRANCH   1   2
ATOM      2  C   UNL     1      -0.470 -28.984 -51.470  1.00  0.00     0.000 C 
BRANCH   2   3
ATOM      3  C   UNL     1      -1.387 -28.519 -52.614  1.00  0.00     0.000 C 
BRANCH   3   4
ATOM      4  C   UNL     1      -2.678 -29.351 -52.710  1.00  0.00     0.000 C 
BRANCH   4   5
ATOM      5  C   UNL     1      -3.917 -28.570 -52.242  1.00  0.00     0.006 C 
BRANCH   5   6
ATOM      6  C   UNL     1      -5.223 -29.131 -52.819  1.00  0.00     0.053 C 
BRANCH   6   7
ATOM      7  C   UNL     1      -5.201 -29.067 -54.314  1.00  0.00     0.041 C 
ATOM      8  O   UNL     1      -5.233 -30.126 -54.995  1.00  0.00    -0.550 OA
ATOM      9  O   UNL     1      -5.198 -27.836 -54.957  1.00  0.00    -0.550 OA
ENDBRANCH   6   7
ENDBRANCH   5   6
ENDBRANCH   4   5
ENDBRANCH   3   4
ENDBRANCH   2   3
ENDBRANCH   1   2
BRANCH   1  10
ATOM     10  C   UNL     1       0.581 -31.216 -52.033  1.00  0.00     0.000 C 
BRANCH  10  11
ATOM     11  C   UNL     1       0.081 -31.790 -53.368  1.00  0.00    -0.000 C 
BRANCH  11  12
ATOM     12  C   UNL     1      -0.561 -33.180 -53.214  1.00  0.00    -0.000 C 
BRANCH  12  13
ATOM     13  C   UNL     1      -2.087 -33.094 -52.995  1.00  0.00    -0.000 C 
BRANCH  13  14
ATOM     14  C   UNL     1      -2.543 -33.621 -51.624  1.00  0.00    -0.000 C 
BRANCH  14  15
ATOM     15  C   UNL     1      -3.675 -32.788 -51.011  1.00  0.00    -0.003 C 
ATOM     16  C   UNL     1      -4.754 -32.477 -52.046  1.00  0.00     0.004 C 
ENDBRANCH  14  15
ENDBRANCH  13  14
ENDBRANCH  12  13
ENDBRANCH  11  12
ENDBRANCH  10  11
ENDBRANCH   1  10
TORSDOF 12
ENDMDL
MODEL 4
REMARK VINA RESULT:    -5.411      1.488      2.533
REMARK INTER + INTRA:         -10.402
REMARK INTER:                  -8.765
REMARK INTRA:                  -1.637
REMARK UNBOUND:                -1.196
REMARK SMILES CCCCCCCCCCCCCC(=O)[O-]
REMARK SMILES IDX 8 1 9 2 10 3 11 4 12 5 13 6 14 7 15 8 16 9 7 10 6 11 5 12
REMARK SMILES IDX 4 13 3 14 2 15 1 16
REMARK H PARENT
REMARK Flexibility Score: inf
ROOT
ATOM      1  C   UNL     1      -4.828 -31.600 -53.618  1.00  0.00     0.000 C 
ENDROOT
BRANCH   1   2
ATOM      2  C   UNL     1      -5.455 -32.305 -52.404  1.00  0.00     0.000 C 
BRANCH   2   3
ATOM      3  C   UNL     1      -4.503 -32.373 -51.198  1.00  0.00     0.000 C 
BRANCH   3   4
ATOM      4  C   UNL     1      -3.181 -33.088 -51.530  1.00  0.00     0.000 C 
BRANCH   4   5
ATOM      5  C   UNL     1      -1.953 -32.335 -50.992  1.00  0.00     0.006 C 
BRANCH   5   6
ATOM      6  C   UNL     1      -1.503 -31.198 -51.918  1.00  0.00     0.053 C 
BRANCH   6   7
ATOM      7  C   UNL     1      -0.306 -30.505 -51.348  1.00  0.00     0.041 C 
ATOM      8  O   UNL     1      -0.416 -29.350 -50.857  1.00  0.00    -0.550 OA
ATOM      9  O   UNL     1       0.922 -31.153 -51.311  1.00  0.00    -0.550 OA
ENDBRANCH   6   7
ENDBRANCH   5   6
ENDBRANCH   4   5
ENDBRANCH   3   4
ENDBRANCH   2   3
ENDBRANCH   1   2
BRANCH   1  10
ATOM     10  C   UNL     1      -5.233 -30.119 -53.660  1.00  0.00     0.000 C 
BRANCH  10  11
ATOM     11  C   UNL     1      -4.057 -29.175 -53.360  1.00  0.00    -0.000 C 
BRANCH  11  12
ATOM     12  C   UNL     1      -4.186 -28.481 -51.991  1.00  0.00    -0.000 C 
BRANCH  12  13
ATOM     13  C   UNL     1      -5.659 -28.215 -51.611  1.00  0.00    -0.000 C 
BRANCH  13  14
ATOM     14  C   UNL     1      -6.001 -28.605 -50.164  1.00  0.00    -0.000 C 
BRANCH  14  15
ATOM     15  C   UNL     1      -6.873 -29.864 -50.074  1.00  0.00    -0.003 C 
ATOM     16  C   UNL     1      -7.396 -30.071 -48.655  1.00  0.00     0.004 C 
ENDBRANCH  14  15
ENDBRANCH  13  14
ENDBRANCH  12  13
ENDBRANCH  11  12
ENDBRANCH  10  11
ENDBRANCH   1  10
TORSDOF 12
ENDMDL
MODEL 5
REMARK VINA RESULT:    -5.389      1.023      3.406
REMARK INTER + INTRA:         -10.365
REMARK INTER:                  -9.087
REMARK INTRA:                  -1.278
REMARK UNBOUND:                -1.196
REMARK SMILES CCCCCCCCCCCCCC(=O)[O-]
REMARK SMILES IDX 8 1 9 2 10 3 11 4 12 5 13 6 14 7 15 8 16 9 7 10 6 11 5 12
REMARK SMILES IDX 4 13 3 14 2 15 1 16
REMARK H PARENT
REMARK Flexibility Score: inf
ROOT
ATOM      1  C   UNL     1      -6.801 -30.885 -49.148  1.00  0.00     0.000 C 
ENDROOT
BRANCH   1   2
ATOM      2  C   UNL     1      -6.487 -31.647 -50.445  1.00  0.00     0.000 C 
BRANCH   2   3
ATOM      3  C   UNL     1      -4.978 -31.812 -50.688  1.00  0.00     0.000 C 
BRANCH   3   4
ATOM      4  C   UNL     1      -4.665 -32.432 -52.061  1.00  0.00     0.000 C 
BRANCH   4   5
ATOM      5  C   UNL     1      -3.227 -32.143 -52.524  1.00  0.00     0.006 C 
BRANCH   5   6
ATOM      6  C   UNL     1      -2.296 -33.351 -52.351  1.00  0.00     0.053 C 
BRANCH   6   7
ATOM      7  C   UNL     1      -1.403 -33.155 -51.166  1.00  0.00     0.041 C 
ATOM      8  O   UNL     1      -1.582 -33.831 -50.119  1.00  0.00    -0.550 OA
ATOM      9  O   UNL     1      -0.341 -32.262 -51.236  1.00  0.00    -0.550 OA
ENDBRANCH   6   7
ENDBRANCH   5   6
ENDBRANCH   4   5
ENDBRANCH   3   4
ENDBRANCH   2   3
ENDBRANCH   1   2
BRANCH   1  10
ATOM     10  C   UNL     1      -7.263 -29.452 -49.454  1.00  0.00     0.000 C 
BRANCH  10  11
ATOM     11  C   UNL     1      -6.089 -28.472 -49.609  1.00  0.00    -0.000 C 
BRANCH  11  12
ATOM     12  C   UNL     1      -6.501 -27.155 -50.291  1.00  0.00    -0.000 C 
BRANCH  12  13
ATOM     13  C   UNL     1      -6.133 -27.136 -51.790  1.00  0.00    -0.000 C 
BRANCH  13  14
ATOM     14  C   UNL     1      -5.186 -28.274 -52.206  1.00  0.00    -0.000 C 
BRANCH  14  15
ATOM     15  C   UNL     1      -4.925 -28.313 -53.717  1.00  0.00    -0.003 C 
ATOM     16  C   UNL     1      -5.407 -29.628 -54.325  1.00  0.00     0.004 C 
ENDBRANCH  14  15
ENDBRANCH  13  14
ENDBRANCH  12  13
ENDBRANCH  11  12
ENDBRANCH  10  11
ENDBRANCH   1  10
TORSDOF 12
ENDMDL
MODEL 6
REMARK VINA RESULT:    -5.353      2.995      5.434
REMARK INTER + INTRA:         -10.304
REMARK INTER:                  -8.621
REMARK INTRA:                  -1.682
REMARK UNBOUND:                -1.196
REMARK SMILES CCCCCCCCCCCCCC(=O)[O-]
REMARK SMILES IDX 8 1 9 2 10 3 11 4 12 5 13 6 14 7 15 8 16 9 7 10 6 11 5 12
REMARK SMILES IDX 4 13 3 14 2 15 1 16
REMARK H PARENT
REMARK Flexibility Score: inf
ROOT
ATOM      1  C   UNL     1      -5.561 -30.173 -53.983  1.00  0.00     0.000 C 
ENDROOT
BRANCH   1   2
ATOM      2  C   UNL     1      -4.512 -29.148 -53.522  1.00  0.00     0.000 C 
BRANCH   2   3
ATOM      3  C   UNL     1      -5.048 -28.193 -52.442  1.00  0.00     0.000 C 
BRANCH   3   4
ATOM      4  C   UNL     1      -5.064 -28.834 -51.043  1.00  0.00     0.000 C 
BRANCH   4   5
ATOM      5  C   UNL     1      -6.416 -28.659 -50.332  1.00  0.00     0.006 C 
BRANCH   5   6
ATOM      6  C   UNL     1      -6.507 -29.462 -49.027  1.00  0.00     0.053 C 
BRANCH   6   7
ATOM      7  C   UNL     1      -7.667 -30.406 -49.077  1.00  0.00     0.041 C 
ATOM      8  O   UNL     1      -7.579 -31.486 -49.717  1.00  0.00    -0.550 OA
ATOM      9  O   UNL     1      -8.829 -30.116 -48.373  1.00  0.00    -0.550 OA
ENDBRANCH   6   7
ENDBRANCH   5   6
ENDBRANCH   4   5
ENDBRANCH   3   4
ENDBRANCH   2   3
ENDBRANCH   1   2
BRANCH   1  10
ATOM     10  C   UNL     1      -5.057 -31.608 -53.764  1.00  0.00     0.000 C 
BRANCH  10  11
ATOM     11  C   UNL     1      -5.342 -32.126 -52.345  1.00  0.00    -0.000 C 
BRANCH  11  12
ATOM     12  C   UNL     1      -4.086 -32.685 -51.653  1.00  0.00    -0.000 C 
BRANCH  12  13
ATOM     13  C   UNL     1      -2.788 -32.265 -52.377  1.00  0.00    -0.000 C 
BRANCH  13  14
ATOM     14  C   UNL     1      -1.990 -31.182 -51.631  1.00  0.00    -0.000 C 
BRANCH  14  15
ATOM     15  C   UNL     1      -1.099 -30.350 -52.562  1.00  0.00    -0.003 C 
ATOM     16  C   UNL     1      -0.765 -28.997 -51.939  1.00  0.00     0.004 C 
ENDBRANCH  14  15
ENDBRANCH  13  14
ENDBRANCH  12  13
ENDBRANCH  11  12
ENDBRANCH  10  11
ENDBRANCH   1  10
TORSDOF 12
ENDMDL
MODEL 7
REMARK VINA RESULT:    -5.322      3.421      6.302
REMARK INTER + INTRA:         -10.251
REMARK INTER:                  -8.948
REMARK INTRA:                  -1.303
REMARK UNBOUND:                -1.196
REMARK SMILES CCCCCCCCCCCCCC(=O)[O-]
REMARK SMILES IDX 8 1 9 2 10 3 11 4 12 5 13 6 14 7 15 8 16 9 7 10 6 11 5 12
REMARK SMILES IDX 4 13 3 14 2 15 1 16
REMARK H PARENT
REMARK Flexibility Score: inf
ROOT
ATOM      1  C   UNL     1      -3.445 -33.102 -51.516  1.00  0.00     0.000 C 
ENDROOT
BRANCH   1   2
ATOM      2  C   UNL     1      -3.797 -32.207 -52.715  1.00  0.00     0.000 C 
BRANCH   2   3
ATOM      3  C   UNL     1      -5.250 -31.705 -52.677  1.00  0.00     0.000 C 
BRANCH   3   4
ATOM      4  C   UNL     1      -5.922 -31.946 -51.313  1.00  0.00     0.000 C 
BRANCH   4   5
ATOM      5  C   UNL     1      -6.168 -30.640 -50.540  1.00  0.00     0.006 C 
BRANCH   5   6
ATOM      6  C   UNL     1      -6.585 -30.883 -49.084  1.00  0.00     0.053 C 
BRANCH   6   7
ATOM      7  C   UNL     1      -7.555 -29.835 -48.637  1.00  0.00     0.041 C 
ATOM      8  O   UNL     1      -8.771 -30.121 -48.479  1.00  0.00    -0.550 OA
ATOM      9  O   UNL     1      -7.107 -28.553 -48.345  1.00  0.00    -0.550 OA
ENDBRANCH   6   7
ENDBRANCH   5   6
ENDBRANCH   4   5
ENDBRANCH   3   4
ENDBRANCH   2   3
ENDBRANCH   1   2
BRANCH   1  10
ATOM     10  C   UNL     1      -2.003 -33.619 -51.624  1.00  0.00     0.000 C 
BRANCH  10  11
ATOM     11  C   UNL     1      -1.454 -33.549 -53.058  1.00  0.00    -0.000 C 
BRANCH  11  12
ATOM     12  C   UNL     1      -0.015 -33.005 -53.118  1.00  0.00    -0.000 C 
BRANCH  12  13
ATOM     13  C   UNL     1       0.023 -31.496 -53.440  1.00  0.00    -0.000 C 
BRANCH  13  14
ATOM     14  C   UNL     1       0.541 -30.632 -52.278  1.00  0.00    -0.000 C 
BRANCH  14  15
ATOM     15  C   UNL     1      -0.570 -30.206 -51.310  1.00  0.00    -0.003 C 
ATOM     16  C   UNL     1      -1.623 -29.358 -52.019  1.00  0.00     0.004 C 
ENDBRANCH  14  15
ENDBRANCH  13  14
ENDBRANCH  12  13
ENDBRANCH  11  12
ENDBRANCH  10  11
ENDBRANCH   1  10
TORSDOF 12
ENDMDL
MODEL 8
REMARK VINA RESULT:    -5.278      3.010      4.976
REMARK INTER + INTRA:         -10.176
REMARK INTER:                  -8.876
REMARK INTRA:                  -1.300
REMARK UNBOUND:                -1.196
REMARK SMILES CCCCCCCCCCCCCC(=O)[O-]
REMARK SMILES IDX 8 1 9 2 10 3 11 4 12 5 13 6 14 7 15 8 16 9 7 10 6 11 5 12
REMARK SMILES IDX 4 13 3 14 2 15 1 16
REMARK H PARENT
REMARK Flexibility Score: inf
ROOT
ATOM      1  C   UNL     1      -1.874 -33.333 -53.072  1.00  0.00     0.000 C 
ENDROOT
BRANCH   1   2
ATOM      2  C   UNL     1      -0.355 -33.103 -53.112  1.00  0.00     0.000 C 
BRANCH   2   3
ATOM      3  C   UNL     1       0.023 -31.614 -53.061  1.00  0.00     0.000 C 
BRANCH   3   4
ATOM      4  C   UNL     1       0.267 -31.116 -51.625  1.00  0.00     0.000 C 
BRANCH   4   5
ATOM      5  C   UNL     1      -0.406 -29.761 -51.350  1.00  0.00     0.006 C 
BRANCH   5   6
ATOM      6  C   UNL     1      -1.764 -29.622 -52.050  1.00  0.00     0.053 C 
BRANCH   6   7
ATOM      7  C   UNL     1      -1.817 -28.348 -52.834  1.00  0.00     0.041 C 
ATOM      8  O   UNL     1      -2.882 -27.676 -52.881  1.00  0.00    -0.550 OA
ATOM      9  O   UNL     1      -0.677 -27.875 -53.471  1.00  0.00    -0.550 OA
ENDBRANCH   6   7
ENDBRANCH   5   6
ENDBRANCH   4   5
ENDBRANCH   3   4
ENDBRANCH   2   3
ENDBRANCH   1   2
BRANCH   1  10
ATOM     10  C   UNL     1      -2.330 -33.732 -51.660  1.00  0.00     0.000 C 
BRANCH  10  11
ATOM     11  C   UNL     1      -3.462 -32.838 -51.128  1.00  0.00    -0.000 C 
BRANCH  11  12
ATOM     12  C   UNL     1      -4.335 -32.252 -52.253  1.00  0.00    -0.000 C 
BRANCH  12  13
ATOM     13  C   UNL     1      -5.311 -31.176 -51.731  1.00  0.00    -0.000 C 
BRANCH  13  14
ATOM     14  C   UNL     1      -6.018 -31.569 -50.424  1.00  0.00    -0.000 C 
BRANCH  14  15
ATOM     15  C   UNL     1      -6.750 -30.394 -49.764  1.00  0.00    -0.003 C 
ATOM     16  C   UNL     1      -7.889 -30.884 -48.873  1.00  0.00     0.004 C 
ENDBRANCH  14  15
ENDBRANCH  13  14
ENDBRANCH  12  13
ENDBRANCH  11  12
ENDBRANCH  10  11
ENDBRANCH   1  10
TORSDOF 12
ENDMDL
MODEL 9
REMARK VINA RESULT:    -5.267      2.175      3.621
REMARK INTER + INTRA:         -10.157
REMARK INTER:                  -9.007
REMARK INTRA:                  -1.150
REMARK UNBOUND:                -1.196
REMARK SMILES CCCCCCCCCCCCCC(=O)[O-]
REMARK SMILES IDX 8 1 9 2 10 3 11 4 12 5 13 6 14 7 15 8 16 9 7 10 6 11 5 12
REMARK SMILES IDX 4 13 3 14 2 15 1 16
REMARK H PARENT
REMARK Flexibility Score: inf
ROOT
ATOM      1  C   UNL     1      -1.186 -29.202 -52.664  1.00  0.00     0.000 C 
ENDROOT
BRANCH   1   2
ATOM      2  C   UNL     1      -0.429 -29.636 -51.398  1.00  0.00     0.000 C 
BRANCH   2   3
ATOM      3  C   UNL     1       0.369 -30.935 -51.598  1.00  0.00     0.000 C 
BRANCH   3   4
ATOM      4  C   UNL     1       0.031 -31.636 -52.925  1.00  0.00     0.000 C 
BRANCH   4   5
ATOM      5  C   UNL     1      -0.332 -33.118 -52.732  1.00  0.00     0.006 C 
BRANCH   5   6
ATOM      6  C   UNL     1      -1.844 -33.346 -52.613  1.00  0.00     0.053 C 
BRANCH   6   7
ATOM      7  C   UNL     1      -2.212 -33.675 -51.200  1.00  0.00     0.041 C 
ATOM      8  O   UNL     1      -3.419 -33.830 -50.878  1.00  0.00    -0.550 OA
ATOM      9  O   UNL     1      -1.217 -33.860 -50.248  1.00  0.00    -0.550 OA
ENDBRANCH   6   7
ENDBRANCH   5   6
ENDBRANCH   4   5
ENDBRANCH   3   4
ENDBRANCH   2   3
ENDBRANCH   1   2
BRANCH   1  10
ATOM     10  C   UNL     1      -2.686 -29.042 -52.376  1.00  0.00     0.000 C 
BRANCH  10  11
ATOM     11  C   UNL     1      -3.480 -30.332 -52.639  1.00  0.00    -0.000 C 
BRANCH  11  12
ATOM     12  C   UNL     1      -4.972 -30.193 -52.285  1.00  0.00    -0.000 C 
BRANCH  12  13
ATOM     13  C   UNL     1      -5.628 -31.558 -51.986  1.00  0.00    -0.000 C 
BRANCH  13  14
ATOM     14  C   UNL     1      -6.304 -31.628 -50.607  1.00  0.00    -0.000 C 
BRANCH  14  15
ATOM     15  C   UNL     1      -6.425 -30.257 -49.930  1.00  0.00    -0.003 C 
ATOM     16  C   UNL     1      -7.652 -30.196 -49.024  1.00  0.00     0.004 C 
ENDBRANCH  14  15
ENDBRANCH  13  14
ENDBRANCH  12  13
ENDBRANCH  11  12
ENDBRANCH  10  11
ENDBRANCH   1  10
TORSDOF 12
ENDMDL
