MODEL 1
REMARK VINA RESULT:    -4.996      0.000      0.000
REMARK INTER + INTRA:          -5.532
REMARK INTER:                  -5.288
REMARK INTRA:                  -0.244
REMARK UNBOUND:                -0.244
REMARK SMILES CC1=C[C@@H]2C(=C(C)CC[C@H]2C(C)C)CC1
REMARK SMILES IDX 1 1 2 2 3 3 4 4 10 5 9 6 8 7 6 8 5 9 14 10 15 11 7 12 11 13
REMARK SMILES IDX 12 14 13 15
REMARK H PARENT
REMARK Flexibility Score: inf
ROOT
ATOM      1  C   UNL     1       0.001  12.377  18.767  1.00  0.00     0.039 C 
ATOM      2  C   UNL     1       0.817  13.119  17.745  1.00  0.00    -0.076 C 
ATOM      3  C   UNL     1       0.723  12.799  16.443  1.00  0.00    -0.020 C 
ATOM      4  C   UNL     1       1.515  13.582  15.412  1.00  0.00     0.041 C 
ATOM      5  C   UNL     1       1.086  13.224  13.962  1.00  0.00     0.003 C 
ATOM      6  C   UNL     1       1.655  14.274  12.991  1.00  0.00     0.009 C 
ATOM      7  C   UNL     1       1.087  15.651  13.318  1.00  0.00     0.031 C 
ATOM      8  C   UNL     1       1.260  16.024  14.775  1.00  0.00    -0.073 C 
ATOM      9  C   UNL     1       1.397  15.074  15.746  1.00  0.00    -0.064 C 
ATOM     10  C   UNL     1       1.489  15.475  17.218  1.00  0.00     0.036 C 
ATOM     11  C   UNL     1       1.713  14.269  18.147  1.00  0.00     0.035 C 
ATOM     12  C   UNL     1       1.149  17.490  15.128  1.00  0.00     0.039 C 
ENDROOT
BRANCH   5  13
ATOM     13  C   UNL     1       1.475  11.760  13.560  1.00  0.00    -0.013 C 
ATOM     14  C   UNL     1       0.229  10.880  13.374  1.00  0.00     0.007 C 
ATOM     15  C   UNL     1       2.371  11.667  12.310  1.00  0.00     0.007 C 
ENDBRANCH   5  13
TORSDOF 1
ENDMDL
MODEL 2
REMARK VINA RESULT:    -4.991      1.469      5.324
REMARK INTER + INTRA:          -5.526
REMARK INTER:                  -5.264
REMARK INTRA:                  -0.261
REMARK UNBOUND:                -0.244
REMARK SMILES CC1=C[C@@H]2C(=C(C)CC[C@H]2C(C)C)CC1
REMARK SMILES IDX 1 1 2 2 3 3 4 4 10 5 9 6 8 7 6 8 5 9 14 10 15 11 7 12 11 13
REMARK SMILES IDX 12 14 13 15
REMARK H PARENT
REMARK Flexibility Score: inf
ROOT
ATOM      1  C   UNL     1       4.341  15.663  11.882  1.00  0.00     0.039 C 
ATOM      2  C   UNL     1       3.793  14.513  12.680  1.00  0.00    -0.076 C 
ATOM      3  C   UNL     1       2.991  14.744  13.736  1.00  0.00    -0.020 C 
ATOM      4  C   UNL     1       2.406  13.578  14.509  1.00  0.00     0.041 C 
ATOM      5  C   UNL     1       1.325  14.043  15.524  1.00  0.00     0.003 C 
ATOM      6  C   UNL     1       0.532  12.821  16.018  1.00  0.00     0.009 C 
ATOM      7  C   UNL     1      -0.185  12.155  14.847  1.00  0.00     0.031 C 
ATOM      8  C   UNL     1       0.744  11.842  13.694  1.00  0.00    -0.073 C 
ATOM      9  C   UNL     1       1.905  12.534  13.502  1.00  0.00    -0.064 C 
ATOM     10  C   UNL     1       2.785  12.254  12.284  1.00  0.00     0.036 C 
ATOM     11  C   UNL     1       4.081  13.083  12.288  1.00  0.00     0.035 C 
ATOM     12  C   UNL     1       0.273  10.816  12.690  1.00  0.00     0.039 C 
ENDROOT
BRANCH   5  13
ATOM     13  C   UNL     1       1.924  14.887  16.702  1.00  0.00    -0.013 C 
ATOM     14  C   UNL     1       1.365  16.318  16.707  1.00  0.00     0.007 C 
ATOM     15  C   UNL     1       1.739  14.248  18.092  1.00  0.00     0.007 C 
ENDBRANCH   5  13
TORSDOF 1
ENDMDL
MODEL 3
REMARK VINA RESULT:    -4.909      1.149      1.392
REMARK INTER + INTRA:          -5.440
REMARK INTER:                  -5.175
REMARK INTRA:                  -0.265
REMARK UNBOUND:                -0.244
REMARK SMILES CC1=C[C@@H]2C(=C(C)CC[C@H]2C(C)C)CC1
REMARK SMILES IDX 1 1 2 2 3 3 4 4 10 5 9 6 8 7 6 8 5 9 14 10 15 11 7 12 11 13
REMARK SMILES IDX 12 14 13 15
REMARK H PARENT
REMARK Flexibility Score: inf
ROOT
ATOM      1  C   UNL     1       0.753  12.734  18.350  1.00  0.00     0.039 C 
ATOM      2  C   UNL     1       1.368  13.785  17.468  1.00  0.00    -0.076 C 
ATOM      3  C   UNL     1       1.536  13.551  16.155  1.00  0.00    -0.020 C 
ATOM      4  C   UNL     1       2.117  14.632  15.262  1.00  0.00     0.041 C 
ATOM      5  C   UNL     1       2.003  14.260  13.758  1.00  0.00     0.003 C 
ATOM      6  C   UNL     1       2.276  15.511  12.904  1.00  0.00     0.009 C 
ATOM      7  C   UNL     1       1.232  16.584  13.199  1.00  0.00     0.031 C 
ATOM      8  C   UNL     1       1.103  16.882  14.677  1.00  0.00    -0.073 C 
ATOM      9  C   UNL     1       1.452  15.965  15.626  1.00  0.00    -0.064 C 
ATOM     10  C   UNL     1       1.235  16.261  17.110  1.00  0.00     0.036 C 
ATOM     11  C   UNL     1       1.759  15.136  18.020  1.00  0.00     0.035 C 
ATOM     12  C   UNL     1       0.452  18.192  15.060  1.00  0.00     0.039 C 
ENDROOT
BRANCH   5  13
ATOM     13  C   UNL     1       2.918  13.050  13.362  1.00  0.00    -0.013 C 
ATOM     14  C   UNL     1       2.131  11.983  12.585  1.00  0.00     0.007 C 
ATOM     15  C   UNL     1       4.180  13.447  12.572  1.00  0.00     0.007 C 
ENDBRANCH   5  13
TORSDOF 1
ENDMDL
MODEL 4
REMARK VINA RESULT:    -4.894      1.475      4.553
REMARK INTER + INTRA:          -5.424
REMARK INTER:                  -5.149
REMARK INTRA:                  -0.275
REMARK UNBOUND:                -0.244
REMARK SMILES CC1=C[C@@H]2C(=C(C)CC[C@H]2C(C)C)CC1
REMARK SMILES IDX 1 1 2 2 3 3 4 4 10 5 9 6 8 7 6 8 5 9 14 10 15 11 7 12 11 13
REMARK SMILES IDX 12 14 13 15
REMARK H PARENT
REMARK Flexibility Score: inf
ROOT
ATOM      1  C   UNL     1      -1.124  18.664  14.870  1.00  0.00     0.039 C 
ATOM      2  C   UNL     1       0.122  17.825  14.806  1.00  0.00    -0.076 C 
ATOM      3  C   UNL     1       0.189  16.663  15.481  1.00  0.00    -0.020 C 
ATOM      4  C   UNL     1       1.432  15.799  15.376  1.00  0.00     0.041 C 
ATOM      5  C   UNL     1       1.219  14.402  16.022  1.00  0.00     0.003 C 
ATOM      6  C   UNL     1       2.359  13.463  15.588  1.00  0.00     0.009 C 
ATOM      7  C   UNL     1       2.340  13.284  14.074  1.00  0.00     0.031 C 
ATOM      8  C   UNL     1       2.331  14.601  13.329  1.00  0.00    -0.073 C 
ATOM      9  C   UNL     1       1.859  15.745  13.904  1.00  0.00    -0.064 C 
ATOM     10  C   UNL     1       1.786  17.045  13.103  1.00  0.00     0.036 C 
ATOM     11  C   UNL     1       1.296  18.234  13.948  1.00  0.00     0.035 C 
ATOM     12  C   UNL     1       2.750  14.573  11.877  1.00  0.00     0.039 C 
ENDROOT
BRANCH   5  13
ATOM     13  C   UNL     1       1.058  14.473  17.580  1.00  0.00    -0.013 C 
ATOM     14  C   UNL     1       0.364  13.218  18.130  1.00  0.00     0.007 C 
ATOM     15  C   UNL     1       2.377  14.715  18.338  1.00  0.00     0.007 C 
ENDBRANCH   5  13
TORSDOF 1
ENDMDL
MODEL 5
REMARK VINA RESULT:    -4.891      1.957      4.218
REMARK INTER + INTRA:          -5.421
REMARK INTER:                  -5.540
REMARK INTRA:                   0.119
REMARK UNBOUND:                -0.244
REMARK SMILES CC1=C[C@@H]2C(=C(C)CC[C@H]2C(C)C)CC1
REMARK SMILES IDX 1 1 2 2 3 3 4 4 10 5 9 6 8 7 6 8 5 9 14 10 15 11 7 12 11 13
REMARK SMILES IDX 12 14 13 15
REMARK H PARENT
REMARK Flexibility Score: inf
ROOT
ATOM      1  C   UNL     1       2.033  14.526  18.273  1.00  0.00     0.039 C 
ATOM      2  C   UNL     1       1.795  14.567  16.789  1.00  0.00    -0.076 C 
ATOM      3  C   UNL     1       1.497  15.731  16.184  1.00  0.00    -0.020 C 
ATOM      4  C   UNL     1       1.302  15.773  14.680  1.00  0.00     0.041 C 
ATOM      5  C   UNL     1       1.211  17.231  14.151  1.00  0.00     0.003 C 
ATOM      6  C   UNL     1       1.364  17.226  12.620  1.00  0.00     0.009 C 
ATOM      7  C   UNL     1       2.734  16.676  12.234  1.00  0.00     0.031 C 
ATOM      8  C   UNL     1       3.025  15.334  12.871  1.00  0.00    -0.073 C 
ATOM      9  C   UNL     1       2.414  14.943  14.026  1.00  0.00    -0.064 C 
ATOM     10  C   UNL     1       2.786  13.618  14.693  1.00  0.00     0.036 C 
ATOM     11  C   UNL     1       1.935  13.324  15.941  1.00  0.00     0.035 C 
ATOM     12  C   UNL     1       4.116  14.497  12.243  1.00  0.00     0.039 C 
ENDROOT
BRANCH   5  13
ATOM     13  C   UNL     1      -0.091  17.966  14.623  1.00  0.00    -0.013 C 
ATOM     14  C   UNL     1      -0.759  18.722  13.463  1.00  0.00     0.007 C 
ATOM     15  C   UNL     1      -1.120  17.047  15.308  1.00  0.00     0.007 C 
ENDBRANCH   5  13
TORSDOF 1
ENDMDL
MODEL 6
REMARK VINA RESULT:    -4.787      1.739      4.568
REMARK INTER + INTRA:          -5.310
REMARK INTER:                  -5.043
REMARK INTRA:                  -0.268
REMARK UNBOUND:                -0.244
REMARK SMILES CC1=C[C@@H]2C(=C(C)CC[C@H]2C(C)C)CC1
REMARK SMILES IDX 1 1 2 2 3 3 4 4 10 5 9 6 8 7 6 8 5 9 14 10 15 11 7 12 11 13
REMARK SMILES IDX 12 14 13 15
REMARK H PARENT
REMARK Flexibility Score: inf
ROOT
ATOM      1  C   UNL     1       4.473  13.492  12.992  1.00  0.00     0.039 C 
ATOM      2  C   UNL     1       3.128  13.995  13.438  1.00  0.00    -0.076 C 
ATOM      3  C   UNL     1       2.915  14.304  14.729  1.00  0.00    -0.020 C 
ATOM      4  C   UNL     1       1.569  14.854  15.163  1.00  0.00     0.041 C 
ATOM      5  C   UNL     1       1.603  15.372  16.627  1.00  0.00     0.003 C 
ATOM      6  C   UNL     1       0.348  16.220  16.896  1.00  0.00     0.009 C 
ATOM      7  C   UNL     1       0.330  17.434  15.972  1.00  0.00     0.031 C 
ATOM      8  C   UNL     1       0.505  17.063  14.515  1.00  0.00    -0.073 C 
ATOM      9  C   UNL     1       1.127  15.908  14.141  1.00  0.00    -0.064 C 
ATOM     10  C   UNL     1       1.362  15.596  12.663  1.00  0.00     0.036 C 
ATOM     11  C   UNL     1       2.010  14.217  12.445  1.00  0.00     0.035 C 
ATOM     12  C   UNL     1       0.074  18.086  13.489  1.00  0.00     0.039 C 
ENDROOT
BRANCH   5  13
ATOM     13  C   UNL     1       1.785  14.219  17.674  1.00  0.00    -0.013 C 
ATOM     14  C   UNL     1       2.692  14.654  18.836  1.00  0.00     0.007 C 
ATOM     15  C   UNL     1       0.461  13.656  18.227  1.00  0.00     0.007 C 
ENDBRANCH   5  13
TORSDOF 1
ENDMDL
MODEL 7
REMARK VINA RESULT:    -4.763      1.272      4.031
REMARK INTER + INTRA:          -5.285
REMARK INTER:                  -5.145
REMARK INTRA:                  -0.140
REMARK UNBOUND:                -0.244
REMARK SMILES CC1=C[C@@H]2C(=C(C)CC[C@H]2C(C)C)CC1
REMARK SMILES IDX 1 1 2 2 3 3 4 4 10 5 9 6 8 7 6 8 5 9 14 10 15 11 7 12 11 13
REMARK SMILES IDX 12 14 13 15
REMARK H PARENT
REMARK Flexibility Score: inf
ROOT
ATOM      1  C   UNL     1       2.924  17.652  11.875  1.00  0.00     0.039 C 
ATOM      2  C   UNL     1       2.063  16.934  12.878  1.00  0.00    -0.076 C 
ATOM      3  C   UNL     1       2.235  15.618  13.097  1.00  0.00    -0.020 C 
ATOM      4  C   UNL     1       1.394  14.910  14.142  1.00  0.00     0.041 C 
ATOM      5  C   UNL     1       1.906  13.469  14.414  1.00  0.00     0.003 C 
ATOM      6  C   UNL     1       1.255  12.933  15.701  1.00  0.00     0.009 C 
ATOM      7  C   UNL     1       1.655  13.802  16.890  1.00  0.00     0.031 C 
ATOM      8  C   UNL     1       1.394  15.274  16.652  1.00  0.00    -0.073 C 
ATOM      9  C   UNL     1       1.333  15.795  15.393  1.00  0.00    -0.064 C 
ATOM     10  C   UNL     1       1.149  17.298  15.182  1.00  0.00     0.036 C 
ATOM     11  C   UNL     1       1.032  17.677  13.695  1.00  0.00     0.035 C 
ATOM     12  C   UNL     1       1.328  16.165  17.871  1.00  0.00     0.039 C 
ENDROOT
BRANCH   5  13
ATOM     13  C   UNL     1       1.698  12.510  13.191  1.00  0.00    -0.013 C 
ATOM     14  C   UNL     1       2.993  12.344  12.381  1.00  0.00     0.007 C 
ATOM     15  C   UNL     1       1.134  11.126  13.564  1.00  0.00     0.007 C 
ENDBRANCH   5  13
TORSDOF 1
ENDMDL
MODEL 8
REMARK VINA RESULT:    -4.610      1.305      4.631
REMARK INTER + INTRA:          -5.123
REMARK INTER:                  -4.856
REMARK INTRA:                  -0.268
REMARK UNBOUND:                -0.244
REMARK SMILES CC1=C[C@@H]2C(=C(C)CC[C@H]2C(C)C)CC1
REMARK SMILES IDX 1 1 2 2 3 3 4 4 10 5 9 6 8 7 6 8 5 9 14 10 15 11 7 12 11 13
REMARK SMILES IDX 12 14 13 15
REMARK H PARENT
REMARK Flexibility Score: inf
ROOT
ATOM      1  C   UNL     1      -0.419  12.289  12.433  1.00  0.00     0.039 C 
ATOM      2  C   UNL     1       0.446  13.052  13.397  1.00  0.00    -0.076 C 
ATOM      3  C   UNL     1       0.190  14.347  13.656  1.00  0.00    -0.020 C 
ATOM      4  C   UNL     1       1.038  15.099  14.664  1.00  0.00     0.041 C 
ATOM      5  C   UNL     1       0.437  16.491  15.000  1.00  0.00     0.003 C 
ATOM      6  C   UNL     1       1.125  17.052  16.257  1.00  0.00     0.009 C 
ATOM      7  C   UNL     1       0.867  16.134  17.448  1.00  0.00     0.031 C 
ATOM      8  C   UNL     1       1.223  14.691  17.161  1.00  0.00    -0.073 C 
ATOM      9  C   UNL     1       1.244  14.198  15.889  1.00  0.00    -0.064 C 
ATOM     10  C   UNL     1       1.527  12.718  15.633  1.00  0.00     0.036 C 
ATOM     11  C   UNL     1       1.579  12.376  14.134  1.00  0.00     0.035 C 
ATOM     12  C   UNL     1       1.431  13.785  18.353  1.00  0.00     0.039 C 
ENDROOT
BRANCH   5  13
ATOM     13  C   UNL     1       0.496  17.485  13.789  1.00  0.00    -0.013 C 
ATOM     14  C   UNL     1      -0.751  18.381  13.737  1.00  0.00     0.007 C 
ATOM     15  C   UNL     1       1.767  18.356  13.750  1.00  0.00     0.007 C 
ENDBRANCH   5  13
TORSDOF 1
ENDMDL
MODEL 9
REMARK VINA RESULT:    -4.402      1.221      1.989
REMARK INTER + INTRA:          -4.903
REMARK INTER:                  -4.901
REMARK INTRA:                  -0.002
REMARK UNBOUND:                -0.244
REMARK SMILES CC1=C[C@@H]2C(=C(C)CC[C@H]2C(C)C)CC1
REMARK SMILES IDX 1 1 2 2 3 3 4 4 10 5 9 6 8 7 6 8 5 9 14 10 15 11 7 12 11 13
REMARK SMILES IDX 12 14 13 15
REMARK H PARENT
REMARK Flexibility Score: inf
ROOT
ATOM      1  C   UNL     1       0.760  12.750  17.629  1.00  0.00     0.039 C 
ATOM      2  C   UNL     1       1.254  13.930  16.840  1.00  0.00    -0.076 C 
ATOM      3  C   UNL     1       1.444  13.824  15.512  1.00  0.00    -0.020 C 
ATOM      4  C   UNL     1       1.899  15.032  14.715  1.00  0.00     0.041 C 
ATOM      5  C   UNL     1       1.823  14.775  13.185  1.00  0.00     0.003 C 
ATOM      6  C   UNL     1       1.955  16.114  12.438  1.00  0.00     0.009 C 
ATOM      7  C   UNL     1       0.800  17.038  12.813  1.00  0.00     0.031 C 
ATOM      8  C   UNL     1       0.642  17.198  14.310  1.00  0.00    -0.073 C 
ATOM      9  C   UNL     1       1.092  16.250  15.182  1.00  0.00    -0.064 C 
ATOM     10  C   UNL     1       0.848  16.398  16.684  1.00  0.00     0.036 C 
ATOM     11  C   UNL     1       1.495  15.267  17.503  1.00  0.00     0.035 C 
ATOM     12  C   UNL     1      -0.148  18.392  14.794  1.00  0.00     0.039 C 
ENDROOT
BRANCH   5  13
ATOM     13  C   UNL     1       2.864  13.710  12.697  1.00  0.00    -0.013 C 
ATOM     14  C   UNL     1       4.196  13.840  13.454  1.00  0.00     0.007 C 
ATOM     15  C   UNL     1       2.361  12.256  12.773  1.00  0.00     0.007 C 
ENDBRANCH   5  13
TORSDOF 1
ENDMDL
