MODEL 1
REMARK VINA RESULT:    -5.597      0.000      0.000
REMARK INTER + INTRA:         -11.180
REMARK INTER:                 -10.177
REMARK INTRA:                  -1.002
REMARK UNBOUND:                -1.002
REMARK SMILES CCCCCCCCCCCCCCCC(=O)[O-]
REMARK SMILES IDX 9 1 10 2 11 3 12 4 13 5 14 6 15 7 16 8 17 9 18 10 8 11 7 12
REMARK SMILES IDX 6 13 5 14 4 15 3 16 2 17 1 18
REMARK H PARENT
REMARK Flexibility Score: inf
ROOT
ATOM      1  C   UNL     1     -14.501  -0.535 -10.698  1.00  0.00     0.000 C 
ENDROOT
BRANCH   1   2
ATOM      2  C   UNL     1     -15.116  -0.104  -9.354  1.00  0.00     0.000 C 
BRANCH   2   3
ATOM      3  C   UNL     1     -15.080   1.419  -9.151  1.00  0.00     0.000 C 
BRANCH   3   4
ATOM      4  C   UNL     1     -13.971   2.099  -9.974  1.00  0.00     0.000 C 
BRANCH   4   5
ATOM      5  C   UNL     1     -12.577   1.917  -9.351  1.00  0.00     0.000 C 
BRANCH   5   6
ATOM      6  C   UNL     1     -11.627   3.082  -9.666  1.00  0.00     0.006 C 
BRANCH   6   7
ATOM      7  C   UNL     1     -11.291   3.872  -8.399  1.00  0.00     0.053 C 
BRANCH   7   8
ATOM      8  C   UNL     1     -12.522   4.513  -7.839  1.00  0.00     0.041 C 
ATOM      9  O   UNL     1     -13.336   5.097  -8.602  1.00  0.00    -0.550 OA
ATOM     10  O   UNL     1     -12.746   4.510  -6.468  1.00  0.00    -0.550 OA
ENDBRANCH   7   8
ENDBRANCH   6   7
ENDBRANCH   5   6
ENDBRANCH   4   5
ENDBRANCH   3   4
ENDBRANCH   2   3
ENDBRANCH   1   2
BRANCH   1  11
ATOM     11  C   UNL     1     -14.155  -2.032 -10.735  1.00  0.00     0.000 C 
BRANCH  11  12
ATOM     12  C   UNL     1     -12.654  -2.292 -10.938  1.00  0.00    -0.000 C 
BRANCH  12  13
ATOM     13  C   UNL     1     -11.864  -0.975 -10.929  1.00  0.00    -0.000 C 
BRANCH  13  14
ATOM     14  C   UNL     1     -10.474  -1.115 -10.284  1.00  0.00    -0.000 C 
BRANCH  14  15
ATOM     15  C   UNL     1     -10.357  -2.221  -9.215  1.00  0.00    -0.000 C 
BRANCH  15  16
ATOM     16  C   UNL     1      -9.054  -3.039  -9.263  1.00  0.00    -0.000 C 
BRANCH  16  17
ATOM     17  C   UNL     1      -9.065  -4.231  -8.295  1.00  0.00    -0.003 C 
ATOM     18  C   UNL     1      -9.995  -3.973  -7.114  1.00  0.00     0.004 C 
ENDBRANCH  16  17
ENDBRANCH  15  16
ENDBRANCH  14  15
ENDBRANCH  13  14
ENDBRANCH  12  13
ENDBRANCH  11  12
ENDBRANCH   1  11
TORSDOF 14
ENDMDL
MODEL 2
REMARK VINA RESULT:    -5.559      3.400      6.450
REMARK INTER + INTRA:         -11.111
REMARK INTER:                  -9.998
REMARK INTRA:                  -1.114
REMARK UNBOUND:                -1.002
REMARK SMILES CCCCCCCCCCCCCCCC(=O)[O-]
REMARK SMILES IDX 9 1 10 2 11 3 12 4 13 5 14 6 15 7 16 8 17 9 18 10 8 11 7 12
REMARK SMILES IDX 6 13 5 14 4 15 3 16 2 17 1 18
REMARK H PARENT
REMARK Flexibility Score: inf
ROOT
ATOM      1  C   UNL     1     -14.846  -0.705 -10.442  1.00  0.00     0.000 C 
ENDROOT
BRANCH   1   2
ATOM      2  C   UNL     1     -14.358  -2.164 -10.395  1.00  0.00     0.000 C 
BRANCH   2   3
ATOM      3  C   UNL     1     -12.973  -2.342 -11.038  1.00  0.00     0.000 C 
BRANCH   3   4
ATOM      4  C   UNL     1     -12.169  -1.030 -11.084  1.00  0.00     0.000 C 
BRANCH   4   5
ATOM      5  C   UNL     1     -10.836  -1.127 -10.324  1.00  0.00     0.000 C 
BRANCH   5   6
ATOM      6  C   UNL     1     -10.476  -2.570  -9.938  1.00  0.00     0.006 C 
BRANCH   6   7
ATOM      7  C   UNL     1      -9.804  -2.616  -8.562  1.00  0.00     0.053 C 
BRANCH   7   8
ATOM      8  C   UNL     1      -9.316  -3.999  -8.264  1.00  0.00     0.041 C 
ATOM      9  O   UNL     1      -8.754  -4.680  -9.162  1.00  0.00    -0.550 OA
ATOM     10  O   UNL     1      -9.526  -4.555  -7.008  1.00  0.00    -0.550 OA
ENDBRANCH   7   8
ENDBRANCH   6   7
ENDBRANCH   5   6
ENDBRANCH   4   5
ENDBRANCH   3   4
ENDBRANCH   2   3
ENDBRANCH   1   2
BRANCH   1  11
ATOM     11  C   UNL     1     -15.124  -0.131  -9.043  1.00  0.00     0.000 C 
BRANCH  11  12
ATOM     12  C   UNL     1     -15.085   1.405  -9.011  1.00  0.00    -0.000 C 
BRANCH  12  13
ATOM     13  C   UNL     1     -14.023   1.946  -9.979  1.00  0.00    -0.000 C 
BRANCH  13  14
ATOM     14  C   UNL     1     -12.586   1.748  -9.463  1.00  0.00    -0.000 C 
BRANCH  14  15
ATOM     15  C   UNL     1     -11.686   2.998  -9.541  1.00  0.00    -0.000 C 
BRANCH  15  16
ATOM     16  C   UNL     1     -11.391   3.675  -8.190  1.00  0.00    -0.000 C 
BRANCH  16  17
ATOM     17  C   UNL     1     -12.642   4.288  -7.546  1.00  0.00    -0.003 C 
ATOM     18  C   UNL     1     -13.355   5.227  -8.515  1.00  0.00     0.004 C 
ENDBRANCH  16  17
ENDBRANCH  15  16
ENDBRANCH  14  15
ENDBRANCH  13  14
ENDBRANCH  12  13
ENDBRANCH  11  12
ENDBRANCH   1  11
TORSDOF 14
ENDMDL
MODEL 3
REMARK VINA RESULT:    -5.092      0.978      1.837
REMARK INTER + INTRA:         -10.262
REMARK INTER:                  -9.093
REMARK INTRA:                  -1.169
REMARK UNBOUND:                -1.002
REMARK SMILES CCCCCCCCCCCCCCCC(=O)[O-]
REMARK SMILES IDX 9 1 10 2 11 3 12 4 13 5 14 6 15 7 16 8 17 9 18 10 8 11 7 12
REMARK SMILES IDX 6 13 5 14 4 15 3 16 2 17 1 18
REMARK H PARENT
REMARK Flexibility Score: inf
ROOT
ATOM      1  C   UNL     1     -13.830  -2.198 -11.084  1.00  0.00     0.000 C 
ENDROOT
BRANCH   1   2
ATOM      2  C   UNL     1     -14.335  -0.745 -11.019  1.00  0.00     0.000 C 
BRANCH   2   3
ATOM      3  C   UNL     1     -15.124  -0.452  -9.733  1.00  0.00     0.000 C 
BRANCH   3   4
ATOM      4  C   UNL     1     -14.753   0.905  -9.108  1.00  0.00     0.000 C 
BRANCH   4   5
ATOM      5  C   UNL     1     -13.686   1.656  -9.921  1.00  0.00     0.000 C 
BRANCH   5   6
ATOM      6  C   UNL     1     -13.561   3.134  -9.518  1.00  0.00     0.006 C 
BRANCH   6   7
ATOM      7  C   UNL     1     -12.103   3.596  -9.577  1.00  0.00     0.053 C 
BRANCH   7   8
ATOM      8  C   UNL     1     -11.598   3.914  -8.205  1.00  0.00     0.041 C 
ATOM      9  O   UNL     1     -10.379   3.761  -7.927  1.00  0.00    -0.550 OA
ATOM     10  O   UNL     1     -12.481   4.331  -7.218  1.00  0.00    -0.550 OA
ENDBRANCH   7   8
ENDBRANCH   6   7
ENDBRANCH   5   6
ENDBRANCH   4   5
ENDBRANCH   3   4
ENDBRANCH   2   3
ENDBRANCH   1   2
BRANCH   1  11
ATOM     11  C   UNL     1     -12.455  -2.374 -10.419  1.00  0.00     0.000 C 
BRANCH  11  12
ATOM     12  C   UNL     1     -11.551  -1.143 -10.586  1.00  0.00    -0.000 C 
BRANCH  12  13
ATOM     13  C   UNL     1     -10.154  -1.406 -10.003  1.00  0.00    -0.000 C 
BRANCH  13  14
ATOM     14  C   UNL     1      -9.778  -2.898 -10.001  1.00  0.00    -0.000 C 
BRANCH  14  15
ATOM     15  C   UNL     1      -8.712  -3.302  -8.962  1.00  0.00    -0.000 C 
BRANCH  15  16
ATOM     16  C   UNL     1      -9.161  -4.368  -7.947  1.00  0.00    -0.000 C 
BRANCH  16  17
ATOM     17  C   UNL     1     -10.386  -3.934  -7.130  1.00  0.00    -0.003 C 
ATOM     18  C   UNL     1     -10.313  -4.468  -5.703  1.00  0.00     0.004 C 
ENDBRANCH  16  17
ENDBRANCH  15  16
ENDBRANCH  14  15
ENDBRANCH  13  14
ENDBRANCH  12  13
ENDBRANCH  11  12
ENDBRANCH   1  11
TORSDOF 14
ENDMDL
MODEL 4
REMARK VINA RESULT:    -5.070      3.339      6.069
REMARK INTER + INTRA:         -10.222
REMARK INTER:                  -8.939
REMARK INTRA:                  -1.283
REMARK UNBOUND:                -1.002
REMARK SMILES CCCCCCCCCCCCCCCC(=O)[O-]
REMARK SMILES IDX 9 1 10 2 11 3 12 4 13 5 14 6 15 7 16 8 17 9 18 10 8 11 7 12
REMARK SMILES IDX 6 13 5 14 4 15 3 16 2 17 1 18
REMARK H PARENT
REMARK Flexibility Score: inf
ROOT
ATOM      1  C   UNL     1     -11.951   4.247  -8.954  1.00  0.00     0.000 C 
ENDROOT
BRANCH   1   2
ATOM      2  C   UNL     1     -11.711   2.943  -9.735  1.00  0.00     0.000 C 
BRANCH   2   3
ATOM      3  C   UNL     1     -10.929   1.902  -8.917  1.00  0.00     0.000 C 
BRANCH   3   4
ATOM      4  C   UNL     1     -11.359   0.458  -9.233  1.00  0.00     0.000 C 
BRANCH   4   5
ATOM      5  C   UNL     1     -10.772  -0.055 -10.558  1.00  0.00     0.000 C 
BRANCH   5   6
ATOM      6  C   UNL     1     -10.032  -1.393 -10.402  1.00  0.00     0.006 C 
BRANCH   6   7
ATOM      7  C   UNL     1     -10.201  -1.950  -8.987  1.00  0.00     0.053 C 
BRANCH   7   8
ATOM      8  C   UNL     1      -9.659  -3.343  -8.903  1.00  0.00     0.041 C 
ATOM      9  O   UNL     1      -9.518  -3.902  -7.783  1.00  0.00    -0.550 OA
ATOM     10  O   UNL     1      -9.263  -4.005 -10.058  1.00  0.00    -0.550 OA
ENDBRANCH   7   8
ENDBRANCH   6   7
ENDBRANCH   5   6
ENDBRANCH   4   5
ENDBRANCH   3   4
ENDBRANCH   2   3
ENDBRANCH   1   2
BRANCH   1  11
ATOM     11  C   UNL     1     -13.351   4.306  -8.320  1.00  0.00     0.000 C 
BRANCH  11  12
ATOM     12  C   UNL     1     -13.935   2.914  -8.035  1.00  0.00    -0.000 C 
BRANCH  12  13
ATOM     13  C   UNL     1     -14.817   2.441  -9.201  1.00  0.00    -0.000 C 
BRANCH  13  14
ATOM     14  C   UNL     1     -15.074   0.924  -9.180  1.00  0.00    -0.000 C 
BRANCH  14  15
ATOM     15  C   UNL     1     -14.479   0.143 -10.369  1.00  0.00    -0.000 C 
BRANCH  15  16
ATOM     16  C   UNL     1     -14.825  -1.356 -10.404  1.00  0.00    -0.000 C 
BRANCH  16  17
ATOM     17  C   UNL     1     -13.721  -2.206 -11.049  1.00  0.00    -0.003 C 
ATOM     18  C   UNL     1     -13.414  -3.440 -10.206  1.00  0.00     0.004 C 
ENDBRANCH  16  17
ENDBRANCH  15  16
ENDBRANCH  14  15
ENDBRANCH  13  14
ENDBRANCH  12  13
ENDBRANCH  11  12
ENDBRANCH   1  11
TORSDOF 14
ENDMDL
MODEL 5
REMARK VINA RESULT:    -4.981      3.435      6.775
REMARK INTER + INTRA:         -10.060
REMARK INTER:                  -8.306
REMARK INTRA:                  -1.754
REMARK UNBOUND:                -1.002
REMARK SMILES CCCCCCCCCCCCCCCC(=O)[O-]
REMARK SMILES IDX 9 1 10 2 11 3 12 4 13 5 14 6 15 7 16 8 17 9 18 10 8 11 7 12
REMARK SMILES IDX 6 13 5 14 4 15 3 16 2 17 1 18
REMARK H PARENT
REMARK Flexibility Score: inf
ROOT
ATOM      1  C   UNL     1     -12.816   0.713  -9.576  1.00  0.00     0.000 C 
ENDROOT
BRANCH   1   2
ATOM      2  C   UNL     1     -11.504   0.682 -10.380  1.00  0.00     0.000 C 
BRANCH   2   3
ATOM      3  C   UNL     1     -11.300  -0.648 -11.125  1.00  0.00     0.000 C 
BRANCH   3   4
ATOM      4  C   UNL     1     -12.144  -1.791 -10.534  1.00  0.00     0.000 C 
BRANCH   4   5
ATOM      5  C   UNL     1     -11.283  -2.888  -9.887  1.00  0.00     0.000 C 
BRANCH   5   6
ATOM      6  C   UNL     1      -9.782  -2.562  -9.920  1.00  0.00     0.006 C 
BRANCH   6   7
ATOM      7  C   UNL     1      -9.171  -2.655  -8.520  1.00  0.00     0.053 C 
BRANCH   7   8
ATOM      8  C   UNL     1      -9.422  -4.006  -7.927  1.00  0.00     0.041 C 
ATOM      9  O   UNL     1      -8.920  -5.033  -8.456  1.00  0.00    -0.550 OA
ATOM     10  O   UNL     1     -10.251  -4.137  -6.821  1.00  0.00    -0.550 OA
ENDBRANCH   7   8
ENDBRANCH   6   7
ENDBRANCH   5   6
ENDBRANCH   4   5
ENDBRANCH   3   4
ENDBRANCH   2   3
ENDBRANCH   1   2
BRANCH   1  11
ATOM     11  C   UNL     1     -13.971   1.359 -10.358  1.00  0.00     0.000 C 
BRANCH  11  12
ATOM     12  C   UNL     1     -15.064   1.931  -9.442  1.00  0.00    -0.000 C 
BRANCH  12  13
ATOM     13  C   UNL     1     -14.536   2.123  -8.013  1.00  0.00    -0.000 C 
BRANCH  13  14
ATOM     14  C   UNL     1     -14.504   3.599  -7.578  1.00  0.00    -0.000 C 
BRANCH  14  15
ATOM     15  C   UNL     1     -13.126   4.283  -7.689  1.00  0.00    -0.000 C 
BRANCH  15  16
ATOM     16  C   UNL     1     -12.728   4.721  -9.110  1.00  0.00    -0.000 C 
BRANCH  16  17
ATOM     17  C   UNL     1     -11.342   4.207  -9.525  1.00  0.00    -0.003 C 
ATOM     18  C   UNL     1     -10.605   3.595  -8.338  1.00  0.00     0.004 C 
ENDBRANCH  16  17
ENDBRANCH  15  16
ENDBRANCH  14  15
ENDBRANCH  13  14
ENDBRANCH  12  13
ENDBRANCH  11  12
ENDBRANCH   1  11
TORSDOF 14
ENDMDL
MODEL 6
REMARK VINA RESULT:    -4.834     14.940     17.834
REMARK INTER + INTRA:          -9.792
REMARK INTER:                  -8.670
REMARK INTRA:                  -1.123
REMARK UNBOUND:                -1.002
REMARK SMILES CCCCCCCCCCCCCCCC(=O)[O-]
REMARK SMILES IDX 9 1 10 2 11 3 12 4 13 5 14 6 15 7 16 8 17 9 18 10 8 11 7 12
REMARK SMILES IDX 6 13 5 14 4 15 3 16 2 17 1 18
REMARK H PARENT
REMARK Flexibility Score: inf
ROOT
ATOM      1  C   UNL     1      -9.824   6.091   8.093  1.00  0.00     0.000 C 
ENDROOT
BRANCH   1   2
ATOM      2  C   UNL     1      -9.134   5.878   6.734  1.00  0.00     0.000 C 
BRANCH   2   3
ATOM      3  C   UNL     1      -9.473   6.984   5.721  1.00  0.00     0.000 C 
BRANCH   3   4
ATOM      4  C   UNL     1      -8.396   8.084   5.666  1.00  0.00     0.000 C 
BRANCH   4   5
ATOM      5  C   UNL     1      -8.984   9.469   5.353  1.00  0.00     0.000 C 
BRANCH   5   6
ATOM      6  C   UNL     1      -7.979  10.608   5.585  1.00  0.00     0.006 C 
BRANCH   6   7
ATOM      7  C   UNL     1      -6.561  10.058   5.767  1.00  0.00     0.053 C 
BRANCH   7   8
ATOM      8  C   UNL     1      -5.912  10.669   6.968  1.00  0.00     0.041 C 
ATOM      9  O   UNL     1      -6.585  10.890   8.010  1.00  0.00    -0.550 OA
ATOM     10  O   UNL     1      -4.575  11.043   6.921  1.00  0.00    -0.550 OA
ENDBRANCH   7   8
ENDBRANCH   6   7
ENDBRANCH   5   6
ENDBRANCH   4   5
ENDBRANCH   3   4
ENDBRANCH   2   3
ENDBRANCH   1   2
BRANCH   1  11
ATOM     11  C   UNL     1     -10.242   4.769   8.756  1.00  0.00     0.000 C 
BRANCH  11  12
ATOM     12  C   UNL     1     -10.974   3.824   7.790  1.00  0.00    -0.000 C 
BRANCH  12  13
ATOM     13  C   UNL     1     -12.370   4.364   7.448  1.00  0.00    -0.000 C 
BRANCH  13  14
ATOM     14  C   UNL     1     -12.565   4.607   5.941  1.00  0.00    -0.000 C 
BRANCH  14  15
ATOM     15  C   UNL     1     -13.045   6.024   5.564  1.00  0.00    -0.000 C 
BRANCH  15  16
ATOM     16  C   UNL     1     -14.345   6.075   4.743  1.00  0.00    -0.000 C 
BRANCH  16  17
ATOM     17  C   UNL     1     -14.129   5.733   3.262  1.00  0.00    -0.003 C 
ATOM     18  C   UNL     1     -13.996   6.998   2.420  1.00  0.00     0.004 C 
ENDBRANCH  16  17
ENDBRANCH  15  16
ENDBRANCH  14  15
ENDBRANCH  13  14
ENDBRANCH  12  13
ENDBRANCH  11  12
ENDBRANCH   1  11
TORSDOF 14
ENDMDL
MODEL 7
REMARK VINA RESULT:    -4.805     14.737     17.975
REMARK INTER + INTRA:          -9.741
REMARK INTER:                  -8.471
REMARK INTRA:                  -1.270
REMARK UNBOUND:                -1.002
REMARK SMILES CCCCCCCCCCCCCCCC(=O)[O-]
REMARK SMILES IDX 9 1 10 2 11 3 12 4 13 5 14 6 15 7 16 8 17 9 18 10 8 11 7 12
REMARK SMILES IDX 6 13 5 14 4 15 3 16 2 17 1 18
REMARK H PARENT
REMARK Flexibility Score: inf
ROOT
ATOM      1  C   UNL     1      -9.140   5.781   6.531  1.00  0.00     0.000 C 
ENDROOT
BRANCH   1   2
ATOM      2  C   UNL     1      -9.802   5.742   7.920  1.00  0.00     0.000 C 
BRANCH   2   3
ATOM      3  C   UNL     1     -10.600   4.449   8.157  1.00  0.00     0.000 C 
BRANCH   3   4
ATOM      4  C   UNL     1     -11.330   3.966   6.891  1.00  0.00     0.000 C 
BRANCH   4   5
ATOM      5  C   UNL     1     -12.801   4.409   6.852  1.00  0.00     0.000 C 
BRANCH   5   6
ATOM      6  C   UNL     1     -12.993   5.777   6.180  1.00  0.00     0.006 C 
BRANCH   6   7
ATOM      7  C   UNL     1     -12.639   5.711   4.692  1.00  0.00     0.053 C 
BRANCH   7   8
ATOM      8  C   UNL     1     -13.838   6.027   3.854  1.00  0.00     0.041 C 
ATOM      9  O   UNL     1     -14.970   6.159   4.391  1.00  0.00    -0.550 OA
ATOM     10  O   UNL     1     -13.715   6.126   2.474  1.00  0.00    -0.550 OA
ENDBRANCH   7   8
ENDBRANCH   6   7
ENDBRANCH   5   6
ENDBRANCH   4   5
ENDBRANCH   3   4
ENDBRANCH   2   3
ENDBRANCH   1   2
BRANCH   1  11
ATOM     11  C   UNL     1      -9.382   7.111   5.799  1.00  0.00     0.000 C 
BRANCH  11  12
ATOM     12  C   UNL     1      -8.331   8.178   6.139  1.00  0.00    -0.000 C 
BRANCH  12  13
ATOM     13  C   UNL     1      -8.234   9.227   5.022  1.00  0.00    -0.000 C 
BRANCH  13  14
ATOM     14  C   UNL     1      -8.668  10.631   5.479  1.00  0.00    -0.000 C 
BRANCH  14  15
ATOM     15  C   UNL     1      -7.513  11.613   5.759  1.00  0.00    -0.000 C 
BRANCH  15  16
ATOM     16  C   UNL     1      -6.110  11.090   5.403  1.00  0.00    -0.000 C 
BRANCH  16  17
ATOM     17  C   UNL     1      -5.145  11.111   6.597  1.00  0.00    -0.003 C 
ATOM     18  C   UNL     1      -5.857  11.560   7.870  1.00  0.00     0.004 C 
ENDBRANCH  16  17
ENDBRANCH  15  16
ENDBRANCH  14  15
ENDBRANCH  13  14
ENDBRANCH  12  13
ENDBRANCH  11  12
ENDBRANCH   1  11
TORSDOF 14
ENDMDL
MODEL 8
REMARK VINA RESULT:    -4.661     15.239     18.151
REMARK INTER + INTRA:          -9.477
REMARK INTER:                  -8.497
REMARK INTRA:                  -0.980
REMARK UNBOUND:                -1.002
REMARK SMILES CCCCCCCCCCCCCCCC(=O)[O-]
REMARK SMILES IDX 9 1 10 2 11 3 12 4 13 5 14 6 15 7 16 8 17 9 18 10 8 11 7 12
REMARK SMILES IDX 6 13 5 14 4 15 3 16 2 17 1 18
REMARK H PARENT
REMARK Flexibility Score: inf
ROOT
ATOM      1  C   UNL     1      -9.443   5.780   6.746  1.00  0.00     0.000 C 
ENDROOT
BRANCH   1   2
ATOM      2  C   UNL     1      -9.672   7.160   6.105  1.00  0.00     0.000 C 
BRANCH   2   3
ATOM      3  C   UNL     1      -8.356   7.862   5.731  1.00  0.00     0.000 C 
BRANCH   3   4
ATOM      4  C   UNL     1      -8.568   9.327   5.309  1.00  0.00     0.000 C 
BRANCH   4   5
ATOM      5  C   UNL     1      -7.246  10.051   5.008  1.00  0.00     0.000 C 
BRANCH   5   6
ATOM      6  C   UNL     1      -7.244  11.511   5.488  1.00  0.00     0.006 C 
BRANCH   6   7
ATOM      7  C   UNL     1      -6.271  11.702   6.655  1.00  0.00     0.053 C 
BRANCH   7   8
ATOM      8  C   UNL     1      -7.020  11.873   7.939  1.00  0.00     0.041 C 
ATOM      9  O   UNL     1      -6.417  11.776   9.041  1.00  0.00    -0.550 OA
ATOM     10  O   UNL     1      -8.391  12.089   7.921  1.00  0.00    -0.550 OA
ENDBRANCH   7   8
ENDBRANCH   6   7
ENDBRANCH   5   6
ENDBRANCH   4   5
ENDBRANCH   3   4
ENDBRANCH   2   3
ENDBRANCH   1   2
BRANCH   1  11
ATOM     11  C   UNL     1     -10.006   5.692   8.174  1.00  0.00     0.000 C 
BRANCH  11  12
ATOM     12  C   UNL     1     -10.822   4.413   8.415  1.00  0.00    -0.000 C 
BRANCH  12  13
ATOM     13  C   UNL     1     -11.492   3.937   7.117  1.00  0.00    -0.000 C 
BRANCH  13  14
ATOM     14  C   UNL     1     -12.780   4.713   6.790  1.00  0.00    -0.000 C 
BRANCH  14  15
ATOM     15  C   UNL     1     -12.847   5.297   5.364  1.00  0.00    -0.000 C 
BRANCH  15  16
ATOM     16  C   UNL     1     -13.328   6.756   5.278  1.00  0.00    -0.000 C 
BRANCH  16  17
ATOM     17  C   UNL     1     -14.232   7.015   4.064  1.00  0.00    -0.003 C 
ATOM     18  C   UNL     1     -13.820   6.148   2.878  1.00  0.00     0.004 C 
ENDBRANCH  16  17
ENDBRANCH  15  16
ENDBRANCH  14  15
ENDBRANCH  13  14
ENDBRANCH  12  13
ENDBRANCH  11  12
ENDBRANCH   1  11
TORSDOF 14
ENDMDL
MODEL 9
REMARK VINA RESULT:    -4.573     14.553     17.572
REMARK INTER + INTRA:          -9.318
REMARK INTER:                  -8.149
REMARK INTRA:                  -1.169
REMARK UNBOUND:                -1.002
REMARK SMILES CCCCCCCCCCCCCCCC(=O)[O-]
REMARK SMILES IDX 9 1 10 2 11 3 12 4 13 5 14 6 15 7 16 8 17 9 18 10 8 11 7 12
REMARK SMILES IDX 6 13 5 14 4 15 3 16 2 17 1 18
REMARK H PARENT
REMARK Flexibility Score: inf
ROOT
ATOM      1  C   UNL     1      -9.309   7.064   5.753  1.00  0.00     0.000 C 
ENDROOT
BRANCH   1   2
ATOM      2  C   UNL     1      -8.352   8.188   6.189  1.00  0.00     0.000 C 
BRANCH   2   3
ATOM      3  C   UNL     1      -7.959   9.112   5.025  1.00  0.00     0.000 C 
BRANCH   3   4
ATOM      4  C   UNL     1      -6.939  10.187   5.442  1.00  0.00     0.000 C 
BRANCH   4   5
ATOM      5  C   UNL     1      -7.583  11.332   6.240  1.00  0.00     0.000 C 
BRANCH   5   6
ATOM      6  C   UNL     1      -8.771  11.974   5.507  1.00  0.00     0.006 C 
BRANCH   6   7
ATOM      7  C   UNL     1     -10.073  11.760   6.283  1.00  0.00     0.053 C 
BRANCH   7   8
ATOM      8  C   UNL     1     -11.073  11.034   5.440  1.00  0.00     0.041 C 
ATOM      9  O   UNL     1     -11.495  11.551   4.371  1.00  0.00    -0.550 OA
ATOM     10  O   UNL     1     -11.577   9.809   5.858  1.00  0.00    -0.550 OA
ENDBRANCH   7   8
ENDBRANCH   6   7
ENDBRANCH   5   6
ENDBRANCH   4   5
ENDBRANCH   3   4
ENDBRANCH   2   3
ENDBRANCH   1   2
BRANCH   1  11
ATOM     11  C   UNL     1      -9.127   5.780   6.579  1.00  0.00     0.000 C 
BRANCH  11  12
ATOM     12  C   UNL     1     -10.086   5.702   7.777  1.00  0.00    -0.000 C 
BRANCH  12  13
ATOM     13  C   UNL     1     -10.639   4.279   7.943  1.00  0.00    -0.000 C 
BRANCH  13  14
ATOM     14  C   UNL     1     -11.624   3.885   6.828  1.00  0.00    -0.000 C 
BRANCH  14  15
ATOM     15  C   UNL     1     -12.667   4.962   6.466  1.00  0.00    -0.000 C 
BRANCH  15  16
ATOM     16  C   UNL     1     -12.571   5.507   5.030  1.00  0.00    -0.000 C 
BRANCH  16  17
ATOM     17  C   UNL     1     -13.922   5.990   4.485  1.00  0.00    -0.003 C 
ATOM     18  C   UNL     1     -13.877   6.150   2.968  1.00  0.00     0.004 C 
ENDBRANCH  16  17
ENDBRANCH  15  16
ENDBRANCH  14  15
ENDBRANCH  13  14
ENDBRANCH  12  13
ENDBRANCH  11  12
ENDBRANCH   1  11
TORSDOF 14
ENDMDL
