MODEL 1
REMARK VINA RESULT:    -6.139      0.000      0.000
REMARK INTER + INTRA:         -11.029
REMARK INTER:                  -9.369
REMARK INTRA:                  -1.659
REMARK UNBOUND:                -1.659
REMARK SMILES CC(=O)CCC=C(C)CCC=C(C)CCC=C(C)C
REMARK SMILES IDX 10 1 11 2 12 3 13 4 14 5 15 6 16 7 18 8 17 9 19 10 9 11 7 12
REMARK SMILES IDX 6 13 8 14 5 15 4 16 2 17 3 18 1 19
REMARK H PARENT
REMARK Flexibility Score: inf
ROOT
ATOM      1  C   UNL     1     -21.492 -53.223  23.848  1.00  0.00     0.032 C 
ENDROOT
BRANCH   1   2
ATOM      2  C   UNL     1     -20.654 -53.408  25.087  1.00  0.00    -0.028 C 
ATOM      3  C   UNL     1     -20.953 -52.884  26.298  1.00  0.00    -0.077 C 
ATOM      4  C   UNL     1     -22.226 -52.104  26.537  1.00  0.00     0.039 C 
BRANCH   3   5
ATOM      5  C   UNL     1     -20.000 -53.116  27.450  1.00  0.00     0.034 C 
BRANCH   5   6
ATOM      6  C   UNL     1     -18.745 -52.246  27.304  1.00  0.00     0.032 C 
BRANCH   6   7
ATOM      7  C   UNL     1     -19.104 -50.781  27.357  1.00  0.00    -0.028 C 
ATOM      8  C   UNL     1     -19.312 -48.472  26.493  1.00  0.00     0.039 C 
ATOM      9  C   UNL     1     -18.988 -49.933  26.312  1.00  0.00    -0.080 C 
ATOM     10  C   UNL     1     -18.521 -50.394  24.953  1.00  0.00     0.039 C 
ENDBRANCH   6   7
ENDBRANCH   5   6
ENDBRANCH   3   5
ENDBRANCH   1   2
BRANCH   1  11
ATOM     11  C   UNL     1     -22.055 -54.566  23.367  1.00  0.00     0.034 C 
BRANCH  11  12
ATOM     12  C   UNL     1     -23.068 -55.109  24.352  1.00  0.00    -0.077 C 
ATOM     13  C   UNL     1     -24.190 -54.392  24.599  1.00  0.00    -0.028 C 
ATOM     14  C   UNL     1     -22.819 -56.451  25.002  1.00  0.00     0.039 C 
BRANCH  13  15
ATOM     15  C   UNL     1     -25.259 -54.792  25.585  1.00  0.00     0.035 C 
BRANCH  15  16
ATOM     16  C   UNL     1     -26.534 -55.229  24.854  1.00  0.00     0.079 C 
BRANCH  16  17
ATOM     17  C   UNL     1     -27.492 -54.076  24.716  1.00  0.00     0.130 C 
ATOM     18  O   UNL     1     -28.389 -53.936  25.536  1.00  0.00    -0.300 OA
ATOM     19  C   UNL     1     -27.367 -53.086  23.597  1.00  0.00     0.087 C 
ENDBRANCH  16  17
ENDBRANCH  15  16
ENDBRANCH  13  15
ENDBRANCH  11  12
ENDBRANCH   1  11
TORSDOF 9
ENDMDL
MODEL 2
REMARK VINA RESULT:    -5.950      2.580      6.140
REMARK INTER + INTRA:         -10.739
REMARK INTER:                  -8.454
REMARK INTRA:                  -2.286
REMARK UNBOUND:                -1.659
REMARK SMILES CC(=O)CCC=C(C)CCC=C(C)CCC=C(C)C
REMARK SMILES IDX 10 1 11 2 12 3 13 4 14 5 15 6 16 7 18 8 17 9 19 10 9 11 7 12
REMARK SMILES IDX 6 13 8 14 5 15 4 16 2 17 3 18 1 19
REMARK H PARENT
REMARK Flexibility Score: inf
ROOT
ATOM      1  C   UNL     1     -21.718 -54.117  23.538  1.00  0.00     0.032 C 
ENDROOT
BRANCH   1   2
ATOM      2  C   UNL     1     -23.081 -54.100  24.183  1.00  0.00    -0.028 C 
ATOM      3  C   UNL     1     -23.651 -55.164  24.793  1.00  0.00    -0.077 C 
ATOM      4  C   UNL     1     -22.923 -56.480  24.949  1.00  0.00     0.039 C 
BRANCH   3   5
ATOM      5  C   UNL     1     -25.044 -55.018  25.365  1.00  0.00     0.034 C 
BRANCH   5   6
ATOM      6  C   UNL     1     -25.106 -53.852  26.360  1.00  0.00     0.032 C 
BRANCH   6   7
ATOM      7  C   UNL     1     -24.057 -54.012  27.433  1.00  0.00    -0.028 C 
ATOM      8  C   UNL     1     -22.106 -53.353  28.803  1.00  0.00     0.039 C 
ATOM      9  C   UNL     1     -23.153 -53.063  27.760  1.00  0.00    -0.080 C 
ATOM     10  C   UNL     1     -23.141 -51.707  27.098  1.00  0.00     0.039 C 
ENDBRANCH   6   7
ENDBRANCH   5   6
ENDBRANCH   3   5
ENDBRANCH   1   2
BRANCH   1  11
ATOM     11  C   UNL     1     -20.921 -52.864  23.918  1.00  0.00     0.034 C 
BRANCH  11  12
ATOM     12  C   UNL     1     -20.199 -53.062  25.233  1.00  0.00    -0.077 C 
ATOM     13  C   UNL     1     -19.671 -51.984  25.859  1.00  0.00    -0.028 C 
ATOM     14  C   UNL     1     -20.122 -54.449  25.830  1.00  0.00     0.039 C 
BRANCH  13  15
ATOM     15  C   UNL     1     -18.891 -52.042  27.149  1.00  0.00     0.035 C 
BRANCH  15  16
ATOM     16  C   UNL     1     -18.470 -50.636  27.592  1.00  0.00     0.079 C 
BRANCH  16  17
ATOM     17  C   UNL     1     -19.667 -49.732  27.711  1.00  0.00     0.130 C 
ATOM     18  O   UNL     1     -20.480 -49.924  28.606  1.00  0.00    -0.300 OA
ATOM     19  C   UNL     1     -19.884 -48.592  26.762  1.00  0.00     0.087 C 
ENDBRANCH  16  17
ENDBRANCH  15  16
ENDBRANCH  13  15
ENDBRANCH  11  12
ENDBRANCH   1  11
TORSDOF 9
ENDMDL
MODEL 3
REMARK VINA RESULT:    -5.920      2.876      6.591
REMARK INTER + INTRA:         -10.693
REMARK INTER:                  -8.262
REMARK INTRA:                  -2.431
REMARK UNBOUND:                -1.659
REMARK SMILES CC(=O)CCC=C(C)CCC=C(C)CCC=C(C)C
REMARK SMILES IDX 10 1 11 2 12 3 13 4 14 5 15 6 16 7 18 8 17 9 19 10 9 11 7 12
REMARK SMILES IDX 6 13 8 14 5 15 4 16 2 17 3 18 1 19
REMARK H PARENT
REMARK Flexibility Score: inf
ROOT
ATOM      1  C   UNL     1     -20.225 -52.687  24.515  1.00  0.00     0.032 C 
ENDROOT
BRANCH   1   2
ATOM      2  C   UNL     1     -21.019 -53.967  24.593  1.00  0.00    -0.028 C 
ATOM      3  C   UNL     1     -21.287 -54.631  25.740  1.00  0.00    -0.077 C 
ATOM      4  C   UNL     1     -20.864 -54.096  27.090  1.00  0.00     0.039 C 
BRANCH   3   5
ATOM      5  C   UNL     1     -22.063 -55.928  25.669  1.00  0.00     0.034 C 
BRANCH   5   6
ATOM      6  C   UNL     1     -23.408 -55.721  24.961  1.00  0.00     0.032 C 
BRANCH   6   7
ATOM      7  C   UNL     1     -24.316 -54.846  25.789  1.00  0.00    -0.028 C 
ATOM      8  C   UNL     1     -25.653 -52.832  26.314  1.00  0.00     0.039 C 
ATOM      9  C   UNL     1     -24.805 -53.656  25.379  1.00  0.00    -0.080 C 
ATOM     10  C   UNL     1     -24.518 -53.101  24.006  1.00  0.00     0.039 C 
ENDBRANCH   6   7
ENDBRANCH   5   6
ENDBRANCH   3   5
ENDBRANCH   1   2
BRANCH   1  11
ATOM     11  C   UNL     1     -21.157 -51.475  24.406  1.00  0.00     0.034 C 
BRANCH  11  12
ATOM     12  C   UNL     1     -21.207 -50.714  25.713  1.00  0.00    -0.077 C 
ATOM     13  C   UNL     1     -20.086 -50.095  26.152  1.00  0.00    -0.028 C 
ATOM     14  C   UNL     1     -22.513 -50.634  26.470  1.00  0.00     0.039 C 
BRANCH  13  15
ATOM     15  C   UNL     1     -19.982 -49.339  27.454  1.00  0.00     0.035 C 
BRANCH  15  16
ATOM     16  C   UNL     1     -18.930 -49.976  28.368  1.00  0.00     0.079 C 
BRANCH  16  17
ATOM     17  C   UNL     1     -19.568 -50.954  29.317  1.00  0.00     0.130 C 
ATOM     18  O   UNL     1     -19.098 -52.078  29.430  1.00  0.00    -0.300 OA
ATOM     19  C   UNL     1     -20.766 -50.579  30.137  1.00  0.00     0.087 C 
ENDBRANCH  16  17
ENDBRANCH  15  16
ENDBRANCH  13  15
ENDBRANCH  11  12
ENDBRANCH   1  11
TORSDOF 9
ENDMDL
MODEL 4
REMARK VINA RESULT:    -5.918      1.563      3.110
REMARK INTER + INTRA:         -10.692
REMARK INTER:                  -8.491
REMARK INTRA:                  -2.200
REMARK UNBOUND:                -1.659
REMARK SMILES CC(=O)CCC=C(C)CCC=C(C)CCC=C(C)C
REMARK SMILES IDX 10 1 11 2 12 3 13 4 14 5 15 6 16 7 18 8 17 9 19 10 9 11 7 12
REMARK SMILES IDX 6 13 8 14 5 15 4 16 2 17 3 18 1 19
REMARK H PARENT
REMARK Flexibility Score: inf
ROOT
ATOM      1  C   UNL     1     -20.457 -52.015  23.828  1.00  0.00     0.032 C 
ENDROOT
BRANCH   1   2
ATOM      2  C   UNL     1     -20.862 -51.070  24.932  1.00  0.00    -0.028 C 
ATOM      3  C   UNL     1     -19.992 -50.403  25.724  1.00  0.00    -0.077 C 
ATOM      4  C   UNL     1     -18.497 -50.492  25.520  1.00  0.00     0.039 C 
BRANCH   3   5
ATOM      5  C   UNL     1     -20.537 -49.516  26.823  1.00  0.00     0.034 C 
BRANCH   5   6
ATOM      6  C   UNL     1     -20.345 -50.169  28.197  1.00  0.00     0.032 C 
BRANCH   6   7
ATOM      7  C   UNL     1     -21.509 -51.072  28.525  1.00  0.00    -0.028 C 
ATOM      8  C   UNL     1     -22.709 -53.224  28.747  1.00  0.00     0.039 C 
ATOM      9  C   UNL     1     -21.467 -52.420  28.461  1.00  0.00    -0.080 C 
ATOM     10  C   UNL     1     -20.207 -53.166  28.092  1.00  0.00     0.039 C 
ENDBRANCH   6   7
ENDBRANCH   5   6
ENDBRANCH   3   5
ENDBRANCH   1   2
BRANCH   1  11
ATOM     11  C   UNL     1     -20.312 -53.444  24.363  1.00  0.00     0.034 C 
BRANCH  11  12
ATOM     12  C   UNL     1     -21.607 -54.211  24.211  1.00  0.00    -0.077 C 
ATOM     13  C   UNL     1     -22.133 -54.829  25.295  1.00  0.00    -0.028 C 
ATOM     14  C   UNL     1     -22.297 -54.234  22.866  1.00  0.00     0.039 C 
BRANCH  13  15
ATOM     15  C   UNL     1     -23.392 -55.660  25.278  1.00  0.00     0.035 C 
BRANCH  15  16
ATOM     16  C   UNL     1     -24.538 -54.922  25.980  1.00  0.00     0.079 C 
BRANCH  16  17
ATOM     17  C   UNL     1     -25.675 -54.671  25.026  1.00  0.00     0.130 C 
ATOM     18  O   UNL     1     -26.553 -55.513  24.899  1.00  0.00    -0.300 OA
ATOM     19  C   UNL     1     -25.761 -53.403  24.230  1.00  0.00     0.087 C 
ENDBRANCH  16  17
ENDBRANCH  15  16
ENDBRANCH  13  15
ENDBRANCH  11  12
ENDBRANCH   1  11
TORSDOF 9
ENDMDL
MODEL 5
REMARK VINA RESULT:    -5.895      3.542      7.876
REMARK INTER + INTRA:         -10.656
REMARK INTER:                  -8.901
REMARK INTRA:                  -1.755
REMARK UNBOUND:                -1.659
REMARK SMILES CC(=O)CCC=C(C)CCC=C(C)CCC=C(C)C
REMARK SMILES IDX 10 1 11 2 12 3 13 4 14 5 15 6 16 7 18 8 17 9 19 10 9 11 7 12
REMARK SMILES IDX 6 13 8 14 5 15 4 16 2 17 3 18 1 19
REMARK H PARENT
REMARK Flexibility Score: inf
ROOT
ATOM      1  C   UNL     1     -20.289 -51.192  24.784  1.00  0.00     0.032 C 
ENDROOT
BRANCH   1   2
ATOM      2  C   UNL     1     -20.511 -52.623  25.207  1.00  0.00    -0.028 C 
ATOM      3  C   UNL     1     -21.272 -53.000  26.260  1.00  0.00    -0.077 C 
ATOM      4  C   UNL     1     -22.046 -51.997  27.085  1.00  0.00     0.039 C 
BRANCH   3   5
ATOM      5  C   UNL     1     -21.376 -54.472  26.596  1.00  0.00     0.034 C 
BRANCH   5   6
ATOM      6  C   UNL     1     -22.075 -55.241  25.468  1.00  0.00     0.032 C 
BRANCH   6   7
ATOM      7  C   UNL     1     -23.543 -55.413  25.770  1.00  0.00    -0.028 C 
ATOM      8  C   UNL     1     -25.954 -54.869  25.657  1.00  0.00     0.039 C 
ATOM      9  C   UNL     1     -24.523 -54.654  25.234  1.00  0.00    -0.080 C 
ATOM     10  C   UNL     1     -24.236 -53.570  24.224  1.00  0.00     0.039 C 
ENDBRANCH   6   7
ENDBRANCH   5   6
ENDBRANCH   3   5
ENDBRANCH   1   2
BRANCH   1  11
ATOM     11  C   UNL     1     -18.901 -50.707  25.218  1.00  0.00     0.034 C 
BRANCH  11  12
ATOM     12  C   UNL     1     -18.967 -50.019  26.564  1.00  0.00    -0.077 C 
ATOM     13  C   UNL     1     -18.410 -50.627  27.638  1.00  0.00    -0.028 C 
ATOM     14  C   UNL     1     -19.617 -48.658  26.666  1.00  0.00     0.039 C 
BRANCH  13  15
ATOM     15  C   UNL     1     -18.440 -50.077  29.042  1.00  0.00     0.035 C 
BRANCH  15  16
ATOM     16  C   UNL     1     -17.036 -50.090  29.659  1.00  0.00     0.079 C 
BRANCH  16  17
ATOM     17  C   UNL     1     -16.572 -51.501  29.902  1.00  0.00     0.130 C 
ATOM     18  O   UNL     1     -15.572 -51.913  29.331  1.00  0.00    -0.300 OA
ATOM     19  C   UNL     1     -17.305 -52.414  30.839  1.00  0.00     0.087 C 
ENDBRANCH  16  17
ENDBRANCH  15  16
ENDBRANCH  13  15
ENDBRANCH  11  12
ENDBRANCH   1  11
TORSDOF 9
ENDMDL
MODEL 6
REMARK VINA RESULT:    -5.865      1.279      1.895
REMARK INTER + INTRA:         -10.610
REMARK INTER:                  -9.101
REMARK INTRA:                  -1.509
REMARK UNBOUND:                -1.659
REMARK SMILES CC(=O)CCC=C(C)CCC=C(C)CCC=C(C)C
REMARK SMILES IDX 10 1 11 2 12 3 13 4 14 5 15 6 16 7 18 8 17 9 19 10 9 11 7 12
REMARK SMILES IDX 6 13 8 14 5 15 4 16 2 17 3 18 1 19
REMARK H PARENT
REMARK Flexibility Score: inf
ROOT
ATOM      1  C   UNL     1     -20.942 -53.871  23.451  1.00  0.00     0.032 C 
ENDROOT
BRANCH   1   2
ATOM      2  C   UNL     1     -20.899 -52.476  24.021  1.00  0.00    -0.028 C 
ATOM      3  C   UNL     1     -20.654 -52.189  25.320  1.00  0.00    -0.077 C 
ATOM      4  C   UNL     1     -20.323 -53.266  26.327  1.00  0.00     0.039 C 
BRANCH   3   5
ATOM      5  C   UNL     1     -20.680 -50.743  25.765  1.00  0.00     0.034 C 
BRANCH   5   6
ATOM      6  C   UNL     1     -19.261 -50.232  26.044  1.00  0.00     0.032 C 
BRANCH   6   7
ATOM      7  C   UNL     1     -19.143 -49.735  27.464  1.00  0.00    -0.028 C 
ATOM      8  C   UNL     1     -18.401 -49.788  29.823  1.00  0.00     0.039 C 
ATOM      9  C   UNL     1     -18.396 -50.332  28.418  1.00  0.00    -0.080 C 
ATOM     10  C   UNL     1     -17.556 -51.552  28.132  1.00  0.00     0.039 C 
ENDBRANCH   6   7
ENDBRANCH   5   6
ENDBRANCH   3   5
ENDBRANCH   1   2
BRANCH   1  11
ATOM     11  C   UNL     1     -22.377 -54.261  23.076  1.00  0.00     0.034 C 
BRANCH  11  12
ATOM     12  C   UNL     1     -23.082 -54.909  24.247  1.00  0.00    -0.077 C 
ATOM     13  C   UNL     1     -23.930 -54.164  24.995  1.00  0.00    -0.028 C 
ATOM     14  C   UNL     1     -22.853 -56.378  24.525  1.00  0.00     0.039 C 
BRANCH  13  15
ATOM     15  C   UNL     1     -24.665 -54.668  26.212  1.00  0.00     0.035 C 
BRANCH  15  16
ATOM     16  C   UNL     1     -26.107 -54.149  26.227  1.00  0.00     0.079 C 
BRANCH  16  17
ATOM     17  C   UNL     1     -26.806 -54.476  24.935  1.00  0.00     0.130 C 
ATOM     18  O   UNL     1     -26.924 -55.644  24.591  1.00  0.00    -0.300 OA
ATOM     19  C   UNL     1     -27.372 -53.399  24.059  1.00  0.00     0.087 C 
ENDBRANCH  16  17
ENDBRANCH  15  16
ENDBRANCH  13  15
ENDBRANCH  11  12
ENDBRANCH   1  11
TORSDOF 9
ENDMDL
MODEL 7
REMARK VINA RESULT:    -5.853      3.080      7.146
REMARK INTER + INTRA:         -10.593
REMARK INTER:                  -8.636
REMARK INTRA:                  -1.956
REMARK UNBOUND:                -1.659
REMARK SMILES CC(=O)CCC=C(C)CCC=C(C)CCC=C(C)C
REMARK SMILES IDX 10 1 11 2 12 3 13 4 14 5 15 6 16 7 18 8 17 9 19 10 9 11 7 12
REMARK SMILES IDX 6 13 8 14 5 15 4 16 2 17 3 18 1 19
REMARK H PARENT
REMARK Flexibility Score: inf
ROOT
ATOM      1  C   UNL     1     -19.548 -51.752  25.057  1.00  0.00     0.032 C 
ENDROOT
BRANCH   1   2
ATOM      2  C   UNL     1     -21.043 -51.557  25.083  1.00  0.00    -0.028 C 
ATOM      3  C   UNL     1     -21.870 -52.105  26.002  1.00  0.00    -0.077 C 
ATOM      4  C   UNL     1     -21.345 -52.926  27.158  1.00  0.00     0.039 C 
BRANCH   3   5
ATOM      5  C   UNL     1     -23.358 -51.858  25.885  1.00  0.00     0.034 C 
BRANCH   5   6
ATOM      6  C   UNL     1     -23.956 -52.665  24.725  1.00  0.00     0.032 C 
BRANCH   6   7
ATOM      7  C   UNL     1     -23.811 -54.145  24.975  1.00  0.00    -0.028 C 
ATOM      8  C   UNL     1     -23.001 -56.443  24.543  1.00  0.00     0.039 C 
ATOM      9  C   UNL     1     -23.021 -54.965  24.248  1.00  0.00    -0.080 C 
ATOM     10  C   UNL     1     -22.157 -54.454  23.121  1.00  0.00     0.039 C 
ENDBRANCH   6   7
ENDBRANCH   5   6
ENDBRANCH   3   5
ENDBRANCH   1   2
BRANCH   1  11
ATOM     11  C   UNL     1     -18.823 -50.405  25.149  1.00  0.00     0.034 C 
BRANCH  11  12
ATOM     12  C   UNL     1     -19.062 -49.754  26.494  1.00  0.00    -0.077 C 
ATOM     13  C   UNL     1     -18.676 -50.407  27.615  1.00  0.00    -0.028 C 
ATOM     14  C   UNL     1     -19.690 -48.380  26.547  1.00  0.00     0.039 C 
BRANCH  13  15
ATOM     15  C   UNL     1     -18.890 -49.897  29.018  1.00  0.00     0.035 C 
BRANCH  15  16
ATOM     16  C   UNL     1     -20.182 -50.470  29.612  1.00  0.00     0.079 C 
BRANCH  16  17
ATOM     17  C   UNL     1     -19.878 -51.391  30.763  1.00  0.00     0.130 C 
ATOM     18  O   UNL     1     -19.495 -50.921  31.826  1.00  0.00    -0.300 OA
ATOM     19  C   UNL     1     -20.043 -52.876  30.640  1.00  0.00     0.087 C 
ENDBRANCH  16  17
ENDBRANCH  15  16
ENDBRANCH  13  15
ENDBRANCH  11  12
ENDBRANCH   1  11
TORSDOF 9
ENDMDL
MODEL 8
REMARK VINA RESULT:    -5.826      3.343      7.433
REMARK INTER + INTRA:         -10.551
REMARK INTER:                  -8.780
REMARK INTRA:                  -1.771
REMARK UNBOUND:                -1.659
REMARK SMILES CC(=O)CCC=C(C)CCC=C(C)CCC=C(C)C
REMARK SMILES IDX 10 1 11 2 12 3 13 4 14 5 15 6 16 7 18 8 17 9 19 10 9 11 7 12
REMARK SMILES IDX 6 13 8 14 5 15 4 16 2 17 3 18 1 19
REMARK H PARENT
REMARK Flexibility Score: inf
ROOT
ATOM      1  C   UNL     1     -21.992 -50.550  26.114  1.00  0.00     0.032 C 
ENDROOT
BRANCH   1   2
ATOM      2  C   UNL     1     -21.511 -51.281  24.886  1.00  0.00    -0.028 C 
ATOM      3  C   UNL     1     -20.648 -52.322  24.905  1.00  0.00    -0.077 C 
ATOM      4  C   UNL     1     -20.131 -52.907  26.200  1.00  0.00     0.039 C 
BRANCH   3   5
ATOM      5  C   UNL     1     -20.217 -52.938  23.592  1.00  0.00     0.034 C 
BRANCH   5   6
ATOM      6  C   UNL     1     -21.414 -53.559  22.861  1.00  0.00     0.032 C 
BRANCH   6   7
ATOM      7  C   UNL     1     -22.049 -54.639  23.701  1.00  0.00    -0.028 C 
ATOM      8  C   UNL     1     -23.801 -55.673  25.109  1.00  0.00     0.039 C 
ATOM      9  C   UNL     1     -23.289 -54.562  24.229  1.00  0.00    -0.080 C 
ATOM     10  C   UNL     1     -24.193 -53.378  23.982  1.00  0.00     0.039 C 
ENDBRANCH   6   7
ENDBRANCH   5   6
ENDBRANCH   3   5
ENDBRANCH   1   2
BRANCH   1  11
ATOM     11  C   UNL     1     -21.482 -49.104  26.120  1.00  0.00     0.034 C 
BRANCH  11  12
ATOM     12  C   UNL     1     -20.168 -48.999  26.864  1.00  0.00    -0.077 C 
ATOM     13  C   UNL     1     -19.957 -49.799  27.936  1.00  0.00    -0.028 C 
ATOM     14  C   UNL     1     -19.115 -48.035  26.367  1.00  0.00     0.039 C 
BRANCH  13  15
ATOM     15  C   UNL     1     -18.715 -49.771  28.792  1.00  0.00     0.035 C 
BRANCH  15  16
ATOM     16  C   UNL     1     -17.933 -51.082  28.655  1.00  0.00     0.079 C 
BRANCH  16  17
ATOM     17  C   UNL     1     -18.180 -51.977  29.840  1.00  0.00     0.130 C 
ATOM     18  O   UNL     1     -17.308 -52.108  30.688  1.00  0.00    -0.300 OA
ATOM     19  C   UNL     1     -19.478 -52.707  30.010  1.00  0.00     0.087 C 
ENDBRANCH  16  17
ENDBRANCH  15  16
ENDBRANCH  13  15
ENDBRANCH  11  12
ENDBRANCH   1  11
TORSDOF 9
ENDMDL
MODEL 9
REMARK VINA RESULT:    -5.821      1.786      3.039
REMARK INTER + INTRA:         -10.544
REMARK INTER:                  -8.150
REMARK INTRA:                  -2.394
REMARK UNBOUND:                -1.659
REMARK SMILES CC(=O)CCC=C(C)CCC=C(C)CCC=C(C)C
REMARK SMILES IDX 10 1 11 2 12 3 13 4 14 5 15 6 16 7 18 8 17 9 19 10 9 11 7 12
REMARK SMILES IDX 6 13 8 14 5 15 4 16 2 17 3 18 1 19
REMARK H PARENT
REMARK Flexibility Score: inf
ROOT
ATOM      1  C   UNL     1     -20.774 -52.154  24.199  1.00  0.00     0.032 C 
ENDROOT
BRANCH   1   2
ATOM      2  C   UNL     1     -20.387 -50.908  24.955  1.00  0.00    -0.028 C 
ATOM      3  C   UNL     1     -21.199 -50.252  25.815  1.00  0.00    -0.077 C 
ATOM      4  C   UNL     1     -22.580 -50.764  26.157  1.00  0.00     0.039 C 
BRANCH   3   5
ATOM      5  C   UNL     1     -20.694 -48.989  26.477  1.00  0.00     0.034 C 
BRANCH   5   6
ATOM      6  C   UNL     1     -19.357 -49.241  27.185  1.00  0.00     0.032 C 
BRANCH   6   7
ATOM      7  C   UNL     1     -19.558 -50.091  28.416  1.00  0.00    -0.028 C 
ATOM      8  C   UNL     1     -19.319 -52.098  29.841  1.00  0.00     0.039 C 
ATOM      9  C   UNL     1     -18.997 -51.305  28.601  1.00  0.00    -0.080 C 
ATOM     10  C   UNL     1     -18.058 -51.917  27.590  1.00  0.00     0.039 C 
ENDBRANCH   6   7
ENDBRANCH   5   6
ENDBRANCH   3   5
ENDBRANCH   1   2
BRANCH   1  11
ATOM     11  C   UNL     1     -20.203 -53.403  24.880  1.00  0.00     0.034 C 
BRANCH  11  12
ATOM     12  C   UNL     1     -21.267 -54.107  25.695  1.00  0.00    -0.077 C 
ATOM     13  C   UNL     1     -22.286 -54.721  25.049  1.00  0.00    -0.028 C 
ATOM     14  C   UNL     1     -21.141 -54.138  27.201  1.00  0.00     0.039 C 
BRANCH  13  15
ATOM     15  C   UNL     1     -23.433 -55.421  25.734  1.00  0.00     0.035 C 
BRANCH  15  16
ATOM     16  C   UNL     1     -24.674 -54.523  25.769  1.00  0.00     0.079 C 
BRANCH  16  17
ATOM     17  C   UNL     1     -25.389 -54.651  27.087  1.00  0.00     0.130 C 
ATOM     18  O   UNL     1     -26.535 -55.081  27.112  1.00  0.00    -0.300 OA
ATOM     19  C   UNL     1     -24.725 -54.272  28.377  1.00  0.00     0.087 C 
ENDBRANCH  16  17
ENDBRANCH  15  16
ENDBRANCH  13  15
ENDBRANCH  11  12
ENDBRANCH   1  11
TORSDOF 9
ENDMDL
