MODEL 1
REMARK VINA RESULT:    -0.499      0.000      0.000
REMARK INTER + INTRA:          -0.193
REMARK INTER:                  -0.762
REMARK INTRA:                   0.569
REMARK UNBOUND:                 0.569
REMARK SMILES CC1=CCC[C@H](C)C(=O)C[C@H](C(C)C)C(=O)C1
REMARK SMILES IDX 8 1 9 2 6 3 7 4 5 5 4 6 3 7 2 8 1 9 10 11 11 12 15 13 16 14
REMARK SMILES IDX 17 15 12 17 13 18 14 19
REMARK H PARENT
REMARK Flexibility Score: 70.00
ROOT
ATOM      1  C   UNL     1       6.700  -2.864  -3.953  1.00  0.00     0.136 C 
ATOM      2  O   UNL     1       6.644  -1.880  -4.676  1.00  0.00    -0.299 OA
ENDROOT
BRANCH   1   3
ATOM      3  C   UNL     1       5.875  -2.915  -2.684  1.00  0.00     0.053 C 
ATOM      4  C   UNL     1       5.903  -4.338  -2.116  1.00  0.00     0.016 C 
BRANCH   3   5
ATOM      5  C   UNL     1       6.368  -1.906  -1.623  1.00  0.00     0.015 C 
BRANCH   5   6
ATOM      6  C   UNL     1       7.036  -2.576  -0.415  1.00  0.00     0.028 C 
BRANCH   6   7
ATOM      7  C   UNL     1       8.451  -2.082  -0.228  1.00  0.00    -0.028 C 
ATOM      8  C   UNL     1       9.547  -2.525  -0.887  1.00  0.00    -0.070 CG0
ATOM      9  C   UNL     1      10.870  -1.875  -0.566  1.00  0.00     0.039 C 
ATOM     10  G   UNL     1       9.517  -3.618  -1.941  1.00  0.00     0.000 G0
ENDBRANCH   6   7
ENDBRANCH   5   6
ENDBRANCH   3   5
ENDBRANCH   1   3
BRANCH   1  11
ATOM     11  C   UNL     1       7.676  -3.968  -4.277  1.00  0.00     0.087 C 
BRANCH  11  12
ATOM     12  C   UNL     1       9.104  -3.469  -4.618  1.00  0.00     0.066 C 
BRANCH  12  13
ATOM     13  C   UNL     1       9.812  -3.034  -3.335  1.00  0.00     0.140 C 
ATOM     14  O   UNL     1      10.670  -2.166  -3.431  1.00  0.00    -0.299 OA
BRANCH  13  15
ATOM     15  C   UNL     1       9.556  -3.621  -1.962  1.00  0.00     0.106 CG0
ATOM     16  G   UNL     1       9.570  -2.551  -0.885  1.00  0.00     0.000 G0
ENDBRANCH  13  15
ENDBRANCH  12  13
BRANCH  12  17
ATOM     17  C   UNL     1       9.920  -4.416  -5.560  1.00  0.00    -0.006 C 
ATOM     18  C   UNL     1      10.666  -3.633  -6.658  1.00  0.00     0.008 C 
ATOM     19  C   UNL     1      10.965  -5.227  -4.767  1.00  0.00     0.008 C 
ENDBRANCH  12  17
ENDBRANCH  11  12
ENDBRANCH   1  11
TORSDOF 1
ENDMDL
MODEL 2
REMARK VINA RESULT:    -0.496      1.980      4.762
REMARK INTER + INTRA:          -0.188
REMARK INTER:                  -2.101
REMARK INTRA:                   1.914
REMARK UNBOUND:                 0.569
REMARK SMILES CC1=CCC[C@H](C)C(=O)C[C@H](C(C)C)C(=O)C1
REMARK SMILES IDX 8 1 9 2 6 3 7 4 5 5 4 6 3 7 2 8 1 9 10 11 11 12 15 13 16 14
REMARK SMILES IDX 17 15 12 17 13 18 14 19
REMARK H PARENT
REMARK Flexibility Score: 70.00
ROOT
ATOM      1  C   UNL     1       8.972  -4.346  -0.899  1.00  0.00     0.136 C 
ATOM      2  O   UNL     1       7.951  -4.955  -0.613  1.00  0.00    -0.299 OA
ENDROOT
BRANCH   1   3
ATOM      3  C   UNL     1      10.280  -5.095  -1.048  1.00  0.00     0.053 C 
ATOM      4  C   UNL     1       9.997  -6.600  -1.126  1.00  0.00     0.016 C 
BRANCH   3   5
ATOM      5  C   UNL     1      11.081  -4.637  -2.288  1.00  0.00     0.015 C 
BRANCH   5   6
ATOM      6  C   UNL     1      10.814  -5.494  -3.532  1.00  0.00     0.028 C 
BRANCH   6   7
ATOM      7  C   UNL     1      10.940  -4.678  -4.797  1.00  0.00    -0.028 C 
ATOM      8  C   UNL     1      10.677  -3.357  -4.926  1.00  0.00    -0.070 CG0
ATOM      9  C   UNL     1      10.894  -2.727  -6.279  1.00  0.00     0.039 C 
ATOM     10  G   UNL     1      10.198  -2.473  -3.787  1.00  0.00     0.000 G0
ENDBRANCH   6   7
ENDBRANCH   5   6
ENDBRANCH   3   5
ENDBRANCH   1   3
BRANCH   1  11
ATOM     11  C   UNL     1       8.938  -2.841  -0.988  1.00  0.00     0.087 C 
BRANCH  11  12
ATOM     12  C   UNL     1       8.058  -2.295  -2.141  1.00  0.00     0.066 C 
BRANCH  12  13
ATOM     13  C   UNL     1       8.715  -2.619  -3.482  1.00  0.00     0.140 C 
ATOM     14  O   UNL     1       8.008  -3.105  -4.354  1.00  0.00    -0.299 OA
BRANCH  13  15
ATOM     15  C   UNL     1      10.183  -2.414  -3.799  1.00  0.00     0.106 CG0
ATOM     16  G   UNL     1      10.656  -3.361  -4.888  1.00  0.00     0.000 G0
ENDBRANCH  13  15
ENDBRANCH  12  13
BRANCH  12  17
ATOM     17  C   UNL     1       6.536  -2.646  -2.025  1.00  0.00    -0.006 C 
ATOM     18  C   UNL     1       5.944  -2.203  -0.672  1.00  0.00     0.008 C 
ATOM     19  C   UNL     1       5.720  -1.965  -3.142  1.00  0.00     0.008 C 
ENDBRANCH  12  17
ENDBRANCH  11  12
ENDBRANCH   1  11
TORSDOF 1
ENDMDL
MODEL 3
REMARK VINA RESULT:    -0.022      1.565      2.005
REMARK INTER + INTRA:           0.536
REMARK INTER:                  -1.908
REMARK INTRA:                   2.444
REMARK UNBOUND:                 0.569
REMARK SMILES CC1=CCC[C@H](C)C(=O)C[C@H](C(C)C)C(=O)C1
REMARK SMILES IDX 8 1 9 2 6 3 7 4 5 5 4 6 3 7 2 8 1 9 10 11 11 12 15 13 16 14
REMARK SMILES IDX 17 15 12 17 13 18 14 19
REMARK H PARENT
REMARK Flexibility Score: 70.00
ROOT
ATOM      1  C   UNL     1       7.915  -2.751  -3.478  1.00  0.00     0.136 C 
ATOM      2  O   UNL     1       7.332  -3.398  -4.335  1.00  0.00    -0.299 OA
ENDROOT
BRANCH   1   3
ATOM      3  C   UNL     1       7.148  -2.212  -2.288  1.00  0.00     0.053 C 
ATOM      4  C   UNL     1       5.663  -2.560  -2.442  1.00  0.00     0.016 C 
BRANCH   3   5
ATOM      5  C   UNL     1       7.689  -2.757  -0.947  1.00  0.00     0.015 C 
BRANCH   5   6
ATOM      6  C   UNL     1       9.108  -2.273  -0.624  1.00  0.00     0.028 C 
BRANCH   6   7
ATOM      7  C   UNL     1      10.006  -3.425  -0.239  1.00  0.00    -0.028 C 
ATOM      8  C   UNL     1      10.145  -4.590  -0.913  1.00  0.00    -0.070 CG0
ATOM      9  C   UNL     1      11.120  -5.604  -0.368  1.00  0.00     0.039 C 
ATOM     10  G   UNL     1       9.396  -4.925  -2.191  1.00  0.00     0.000 G0
ENDBRANCH   6   7
ENDBRANCH   5   6
ENDBRANCH   3   5
ENDBRANCH   1   3
BRANCH   1  11
ATOM     11  C   UNL     1       9.369  -2.400  -3.674  1.00  0.00     0.087 C 
BRANCH  11  12
ATOM     12  C   UNL     1      10.206  -3.521  -4.341  1.00  0.00     0.066 C 
BRANCH  12  13
ATOM     13  C   UNL     1      10.245  -4.743  -3.422  1.00  0.00     0.140 C 
ATOM     14  O   UNL     1      11.001  -5.655  -3.730  1.00  0.00    -0.299 OA
BRANCH  13  15
ATOM     15  C   UNL     1       9.393  -4.921  -2.182  1.00  0.00     0.106 CG0
ATOM     16  G   UNL     1      10.181  -4.626  -0.918  1.00  0.00     0.000 G0
ENDBRANCH  13  15
ENDBRANCH  12  13
BRANCH  12  17
ATOM     17  C   UNL     1       9.845  -3.805  -5.838  1.00  0.00    -0.006 C 
ATOM     18  C   UNL     1       9.904  -2.527  -6.697  1.00  0.00     0.008 C 
ATOM     19  C   UNL     1      10.811  -4.835  -6.458  1.00  0.00     0.008 C 
ENDBRANCH  12  17
ENDBRANCH  11  12
ENDBRANCH   1  11
TORSDOF 1
ENDMDL
MODEL 4
REMARK VINA RESULT:     0.114      1.744      4.066
REMARK INTER + INTRA:           0.744
REMARK INTER:                  -1.393
REMARK INTRA:                   2.137
REMARK UNBOUND:                 0.569
REMARK SMILES CC1=CCC[C@H](C)C(=O)C[C@H](C(C)C)C(=O)C1
REMARK SMILES IDX 8 1 9 2 6 3 7 4 5 5 4 6 3 7 2 8 1 9 10 11 11 12 15 13 16 14
REMARK SMILES IDX 17 15 12 17 13 18 14 19
REMARK H PARENT
REMARK Flexibility Score: 70.00
ROOT
ATOM      1  C   UNL     1       7.621  -2.782  -3.825  1.00  0.00     0.136 C 
ATOM      2  O   UNL     1       6.428  -2.615  -4.035  1.00  0.00    -0.299 OA
ENDROOT
BRANCH   1   3
ATOM      3  C   UNL     1       8.540  -3.167  -4.965  1.00  0.00     0.053 C 
ATOM      4  C   UNL     1       9.010  -1.900  -5.689  1.00  0.00     0.016 C 
BRANCH   3   5
ATOM      5  C   UNL     1       9.756  -3.991  -4.485  1.00  0.00     0.015 C 
BRANCH   5   6
ATOM      6  C   UNL     1      11.042  -3.162  -4.370  1.00  0.00     0.028 C 
BRANCH   6   7
ATOM      7  C   UNL     1      11.125  -2.462  -3.034  1.00  0.00    -0.028 C 
ATOM      8  C   UNL     1      10.866  -3.013  -1.825  1.00  0.00    -0.070 CG0
ATOM      9  C   UNL     1      11.035  -2.141  -0.606  1.00  0.00     0.039 C 
ATOM     10  G   UNL     1      10.439  -4.457  -1.625  1.00  0.00     0.000 G0
ENDBRANCH   6   7
ENDBRANCH   5   6
ENDBRANCH   3   5
ENDBRANCH   1   3
BRANCH   1  11
ATOM     11  C   UNL     1       8.142  -2.714  -2.411  1.00  0.00     0.087 C 
BRANCH  11  12
ATOM     12  C   UNL     1       7.789  -3.952  -1.547  1.00  0.00     0.066 C 
BRANCH  12  13
ATOM     13  C   UNL     1       9.071  -4.561  -0.978  1.00  0.00     0.140 C 
ATOM     14  O   UNL     1       8.990  -5.147   0.092  1.00  0.00    -0.299 OA
BRANCH  13  15
ATOM     15  C   UNL     1      10.437  -4.461  -1.626  1.00  0.00     0.106 CG0
ATOM     16  G   UNL     1      10.876  -3.015  -1.781  1.00  0.00     0.000 G0
ENDBRANCH  13  15
ENDBRANCH  12  13
BRANCH  12  17
ATOM     17  C   UNL     1       6.629  -3.723  -0.519  1.00  0.00    -0.006 C 
ATOM     18  C   UNL     1       5.896  -2.391  -0.766  1.00  0.00     0.008 C 
ATOM     19  C   UNL     1       5.586  -4.857  -0.595  1.00  0.00     0.008 C 
ENDBRANCH  12  17
ENDBRANCH  11  12
ENDBRANCH   1  11
TORSDOF 1
ENDMDL
