MODEL 1
REMARK VINA RESULT:    -3.788      0.000      0.000
REMARK INTER + INTRA:          -5.241
REMARK INTER:                  -4.895
REMARK INTRA:                  -0.346
REMARK UNBOUND:                -0.346
REMARK SMILES CCCCCCC(=O)[O-]
REMARK SMILES IDX 5 1 6 2 7 3 8 4 9 5 4 6 3 7 2 8 1 9
REMARK H PARENT
REMARK Flexibility Score: inf
ROOT
ATOM      1  C   UNL     1      60.361  30.172  11.372  1.00  0.00     0.006 C 
ENDROOT
BRANCH   1   2
ATOM      2  C   UNL     1      60.500  29.951   9.861  1.00  0.00     0.053 C 
BRANCH   2   3
ATOM      3  C   UNL     1      61.495  28.870   9.579  1.00  0.00     0.041 C 
ATOM      4  O   UNL     1      61.170  27.877   8.877  1.00  0.00    -0.550 OA
ATOM      5  O   UNL     1      62.766  28.934  10.135  1.00  0.00    -0.550 OA
ENDBRANCH   2   3
ENDBRANCH   1   2
BRANCH   1   6
ATOM      6  C   UNL     1      59.906  28.907  12.122  1.00  0.00     0.000 C 
BRANCH   6   7
ATOM      7  C   UNL     1      60.794  28.499  13.315  1.00  0.00    -0.000 C 
BRANCH   7   8
ATOM      8  C   UNL     1      61.956  29.461  13.618  1.00  0.00    -0.003 C 
ATOM      9  C   UNL     1      61.725  30.296  14.876  1.00  0.00     0.004 C 
ENDBRANCH   7   8
ENDBRANCH   6   7
ENDBRANCH   1   6
TORSDOF 5
ENDMDL
MODEL 2
REMARK VINA RESULT:    -3.765      1.529      2.424
REMARK INTER + INTRA:          -5.212
REMARK INTER:                  -4.823
REMARK INTRA:                  -0.389
REMARK UNBOUND:                -0.346
REMARK SMILES CCCCCCC(=O)[O-]
REMARK SMILES IDX 5 1 6 2 7 3 8 4 9 5 4 6 3 7 2 8 1 9
REMARK H PARENT
REMARK Flexibility Score: inf
ROOT
ATOM      1  C   UNL     1      63.497  29.404  10.500  1.00  0.00     0.006 C 
ENDROOT
BRANCH   1   2
ATOM      2  C   UNL     1      62.613  29.892   9.346  1.00  0.00     0.053 C 
BRANCH   2   3
ATOM      3  C   UNL     1      61.244  29.298   9.448  1.00  0.00     0.041 C 
ATOM      4  O   UNL     1      60.241  30.042   9.609  1.00  0.00    -0.550 OA
ATOM      5  O   UNL     1      61.081  27.919   9.418  1.00  0.00    -0.550 OA
ENDBRANCH   2   3
ENDBRANCH   1   2
BRANCH   1   6
ATOM      6  C   UNL     1      63.117  30.033  11.852  1.00  0.00     0.000 C 
BRANCH   6   7
ATOM      7  C   UNL     1      62.770  29.026  12.967  1.00  0.00    -0.000 C 
BRANCH   7   8
ATOM      8  C   UNL     1      61.365  29.188  13.575  1.00  0.00    -0.003 C 
ATOM      9  C   UNL     1      60.331  28.262  12.938  1.00  0.00     0.004 C 
ENDBRANCH   7   8
ENDBRANCH   6   7
ENDBRANCH   1   6
TORSDOF 5
ENDMDL
MODEL 3
REMARK VINA RESULT:    -3.667      1.692      2.192
REMARK INTER + INTRA:          -5.085
REMARK INTER:                  -4.883
REMARK INTRA:                  -0.201
REMARK UNBOUND:                -0.346
REMARK SMILES CCCCCCC(=O)[O-]
REMARK SMILES IDX 5 1 6 2 7 3 8 4 9 5 4 6 3 7 2 8 1 9
REMARK H PARENT
REMARK Flexibility Score: inf
ROOT
ATOM      1  C   UNL     1      60.930  28.869  12.730  1.00  0.00     0.006 C 
ENDROOT
BRANCH   1   2
ATOM      2  C   UNL     1      60.356  28.966  11.312  1.00  0.00     0.053 C 
BRANCH   2   3
ATOM      3  C   UNL     1      61.398  28.602  10.300  1.00  0.00     0.041 C 
ATOM      4  O   UNL     1      61.082  27.945   9.274  1.00  0.00    -0.550 OA
ATOM      5  O   UNL     1      62.726  28.944  10.518  1.00  0.00    -0.550 OA
ENDBRANCH   2   3
ENDBRANCH   1   2
BRANCH   1   6
ATOM      6  C   UNL     1      61.120  30.245  13.394  1.00  0.00     0.000 C 
BRANCH   6   7
ATOM      7  C   UNL     1      60.660  31.449  12.546  1.00  0.00    -0.000 C 
BRANCH   7   8
ATOM      8  C   UNL     1      61.180  32.816  13.025  1.00  0.00    -0.003 C 
ATOM      9  C   UNL     1      60.814  33.118  14.477  1.00  0.00     0.004 C 
ENDBRANCH   7   8
ENDBRANCH   6   7
ENDBRANCH   1   6
TORSDOF 5
ENDMDL
MODEL 4
REMARK VINA RESULT:    -3.653      1.940      2.884
REMARK INTER + INTRA:          -5.067
REMARK INTER:                  -4.636
REMARK INTRA:                  -0.432
REMARK UNBOUND:                -0.346
REMARK SMILES CCCCCCC(=O)[O-]
REMARK SMILES IDX 5 1 6 2 7 3 8 4 9 5 4 6 3 7 2 8 1 9
REMARK H PARENT
REMARK Flexibility Score: inf
ROOT
ATOM      1  C   UNL     1      62.130  28.976  13.333  1.00  0.00     0.006 C 
ENDROOT
BRANCH   1   2
ATOM      2  C   UNL     1      60.752  28.645  12.750  1.00  0.00     0.053 C 
BRANCH   2   3
ATOM      3  C   UNL     1      60.686  29.039  11.308  1.00  0.00     0.041 C 
ATOM      4  O   UNL     1      59.971  30.012  10.949  1.00  0.00    -0.550 OA
ATOM      5  O   UNL     1      61.374  28.301  10.354  1.00  0.00    -0.550 OA
ENDBRANCH   2   3
ENDBRANCH   1   2
BRANCH   1   6
ATOM      6  C   UNL     1      62.124  30.250  14.197  1.00  0.00     0.000 C 
BRANCH   6   7
ATOM      7  C   UNL     1      62.488  31.549  13.448  1.00  0.00    -0.000 C 
BRANCH   7   8
ATOM      8  C   UNL     1      61.295  32.462  13.116  1.00  0.00    -0.003 C 
ATOM      9  C   UNL     1      60.077  32.197  14.000  1.00  0.00     0.004 C 
ENDBRANCH   7   8
ENDBRANCH   6   7
ENDBRANCH   1   6
TORSDOF 5
ENDMDL
MODEL 5
REMARK VINA RESULT:    -3.649      1.548      1.761
REMARK INTER + INTRA:          -5.062
REMARK INTER:                  -4.668
REMARK INTRA:                  -0.394
REMARK UNBOUND:                -0.346
REMARK SMILES CCCCCCC(=O)[O-]
REMARK SMILES IDX 5 1 6 2 7 3 8 4 9 5 4 6 3 7 2 8 1 9
REMARK H PARENT
REMARK Flexibility Score: inf
ROOT
ATOM      1  C   UNL     1      60.997  28.625  10.139  1.00  0.00     0.006 C 
ENDROOT
BRANCH   1   2
ATOM      2  C   UNL     1      61.934  29.744   9.668  1.00  0.00     0.053 C 
BRANCH   2   3
ATOM      3  C   UNL     1      63.355  29.410   9.998  1.00  0.00     0.041 C 
ATOM      4  O   UNL     1      64.130  28.986   9.102  1.00  0.00    -0.550 OA
ATOM      5  O   UNL     1      63.807  29.518  11.306  1.00  0.00    -0.550 OA
ENDBRANCH   2   3
ENDBRANCH   1   2
BRANCH   1   6
ATOM      6  C   UNL     1      60.080  29.060  11.295  1.00  0.00     0.000 C 
BRANCH   6   7
ATOM      7  C   UNL     1      60.364  28.376  12.648  1.00  0.00    -0.000 C 
BRANCH   7   8
ATOM      8  C   UNL     1      61.243  29.190  13.615  1.00  0.00    -0.003 C 
ATOM      9  C   UNL     1      61.152  30.697  13.377  1.00  0.00     0.004 C 
ENDBRANCH   7   8
ENDBRANCH   6   7
ENDBRANCH   1   6
TORSDOF 5
ENDMDL
MODEL 6
REMARK VINA RESULT:    -3.641     14.470     15.977
REMARK INTER + INTRA:          -5.051
REMARK INTER:                  -4.644
REMARK INTRA:                  -0.406
REMARK UNBOUND:                -0.346
REMARK SMILES CCCCCCC(=O)[O-]
REMARK SMILES IDX 5 1 6 2 7 3 8 4 9 5 4 6 3 7 2 8 1 9
REMARK H PARENT
REMARK Flexibility Score: inf
ROOT
ATOM      1  C   UNL     1      63.546  29.520  26.831  1.00  0.00     0.006 C 
ENDROOT
BRANCH   1   2
ATOM      2  C   UNL     1      62.910  29.846  28.188  1.00  0.00     0.053 C 
BRANCH   2   3
ATOM      3  C   UNL     1      62.116  28.679  28.688  1.00  0.00     0.041 C 
ATOM      4  O   UNL     1      62.612  27.522  28.670  1.00  0.00    -0.550 OA
ATOM      5  O   UNL     1      60.812  28.863  29.125  1.00  0.00    -0.550 OA
ENDBRANCH   2   3
ENDBRANCH   1   2
BRANCH   1   6
ATOM      6  C   UNL     1      62.632  29.870  25.643  1.00  0.00     0.000 C 
BRANCH   6   7
ATOM      7  C   UNL     1      62.425  28.734  24.621  1.00  0.00    -0.000 C 
BRANCH   7   8
ATOM      8  C   UNL     1      61.868  27.425  25.209  1.00  0.00    -0.003 C 
ATOM      9  C   UNL     1      60.363  27.480  25.465  1.00  0.00     0.004 C 
ENDBRANCH   7   8
ENDBRANCH   6   7
ENDBRANCH   1   6
TORSDOF 5
ENDMDL
MODEL 7
REMARK VINA RESULT:    -3.597      2.046      3.956
REMARK INTER + INTRA:          -4.994
REMARK INTER:                  -4.647
REMARK INTRA:                  -0.347
REMARK UNBOUND:                -0.346
REMARK SMILES CCCCCCC(=O)[O-]
REMARK SMILES IDX 5 1 6 2 7 3 8 4 9 5 4 6 3 7 2 8 1 9
REMARK H PARENT
REMARK Flexibility Score: inf
ROOT
ATOM      1  C   UNL     1      60.341  29.732  11.080  1.00  0.00     0.006 C 
ENDROOT
BRANCH   1   2
ATOM      2  C   UNL     1      60.394  28.876  12.352  1.00  0.00     0.053 C 
BRANCH   2   3
ATOM      3  C   UNL     1      61.644  29.163  13.124  1.00  0.00     0.041 C 
ATOM      4  O   UNL     1      62.771  28.933  12.612  1.00  0.00    -0.550 OA
ATOM      5  O   UNL     1      61.562  29.636  14.426  1.00  0.00    -0.550 OA
ENDBRANCH   2   3
ENDBRANCH   1   2
BRANCH   1   6
ATOM      6  C   UNL     1      60.219  28.890   9.798  1.00  0.00     0.000 C 
BRANCH   6   7
ATOM      7  C   UNL     1      61.557  28.544   9.113  1.00  0.00    -0.000 C 
BRANCH   7   8
ATOM      8  C   UNL     1      62.560  29.708   9.025  1.00  0.00    -0.003 C 
ATOM      9  C   UNL     1      64.000  29.275   9.302  1.00  0.00     0.004 C 
ENDBRANCH   7   8
ENDBRANCH   6   7
ENDBRANCH   1   6
TORSDOF 5
ENDMDL
MODEL 8
REMARK VINA RESULT:    -3.597     14.230     15.684
REMARK INTER + INTRA:          -4.994
REMARK INTER:                  -4.752
REMARK INTRA:                  -0.241
REMARK UNBOUND:                -0.346
REMARK SMILES CCCCCCC(=O)[O-]
REMARK SMILES IDX 5 1 6 2 7 3 8 4 9 5 4 6 3 7 2 8 1 9
REMARK H PARENT
REMARK Flexibility Score: inf
ROOT
ATOM      1  C   UNL     1      61.507  27.440  25.951  1.00  0.00     0.006 C 
ENDROOT
BRANCH   1   2
ATOM      2  C   UNL     1      61.753  27.290  27.457  1.00  0.00     0.053 C 
BRANCH   2   3
ATOM      3  C   UNL     1      61.584  28.606  28.148  1.00  0.00     0.041 C 
ATOM      4  O   UNL     1      60.764  28.723  29.096  1.00  0.00    -0.550 OA
ATOM      5  O   UNL     1      62.296  29.716  27.712  1.00  0.00    -0.550 OA
ENDBRANCH   2   3
ENDBRANCH   1   2
BRANCH   1   6
ATOM      6  C   UNL     1      62.779  27.223  25.113  1.00  0.00     0.000 C 
BRANCH   6   7
ATOM      7  C   UNL     1      64.050  26.900  25.925  1.00  0.00    -0.000 C 
BRANCH   7   8
ATOM      8  C   UNL     1      65.214  26.316  25.104  1.00  0.00    -0.003 C 
ATOM      9  C   UNL     1      64.821  25.987  23.664  1.00  0.00     0.004 C 
ENDBRANCH   7   8
ENDBRANCH   6   7
ENDBRANCH   1   6
TORSDOF 5
ENDMDL
MODEL 9
REMARK VINA RESULT:    -3.585     13.459     15.643
REMARK INTER + INTRA:          -4.979
REMARK INTER:                  -4.638
REMARK INTRA:                  -0.341
REMARK UNBOUND:                -0.346
REMARK SMILES CCCCCCC(=O)[O-]
REMARK SMILES IDX 5 1 6 2 7 3 8 4 9 5 4 6 3 7 2 8 1 9
REMARK H PARENT
REMARK Flexibility Score: inf
ROOT
ATOM      1  C   UNL     1      62.432  27.091  26.715  1.00  0.00     0.006 C 
ENDROOT
BRANCH   1   2
ATOM      2  C   UNL     1      62.227  27.310  28.219  1.00  0.00     0.053 C 
BRANCH   2   3
ATOM      3  C   UNL     1      61.824  28.726  28.490  1.00  0.00     0.041 C 
ATOM      4  O   UNL     1      60.765  28.972  29.125  1.00  0.00    -0.550 OA
ATOM      5  O   UNL     1      62.592  29.772  27.998  1.00  0.00    -0.550 OA
ENDBRANCH   2   3
ENDBRANCH   1   2
BRANCH   1   6
ATOM      6  C   UNL     1      61.154  27.339  25.895  1.00  0.00     0.000 C 
BRANCH   6   7
ATOM      7  C   UNL     1      61.335  28.251  24.664  1.00  0.00    -0.000 C 
BRANCH   7   8
ATOM      8  C   UNL     1      62.763  28.786  24.457  1.00  0.00    -0.003 C 
ATOM      9  C   UNL     1      63.413  28.269  23.174  1.00  0.00     0.004 C 
ENDBRANCH   7   8
ENDBRANCH   6   7
ENDBRANCH   1   6
TORSDOF 5
ENDMDL
