MODEL 1
REMARK VINA RESULT:    -4.524      0.000      0.000
REMARK INTER + INTRA:          -5.243
REMARK INTER:                  -5.186
REMARK INTRA:                  -0.057
REMARK UNBOUND:                -0.057
REMARK SMILES CC(C)[C@H]([NH3+])C(=O)[O-]
REMARK SMILES IDX 4 1 5 2 6 6 7 7 8 8 2 9 1 10 3 11
REMARK H PARENT 5 3 5 4 5 5
REMARK Flexibility Score: inf
ROOT
ATOM      1  C   UNL     1      -5.865   5.778  -1.224  1.00  0.00     0.230 C 
ENDROOT
BRANCH   1   2
ATOM      2  N   UNL     1      -4.809   6.790  -1.380  1.00  0.00    -0.350 N 
ATOM      3  H   UNL     1      -4.007   6.422  -1.941  1.00  0.00     0.345 HD
ATOM      4  H   UNL     1      -4.454   7.072  -0.437  1.00  0.00     0.345 HD
ATOM      5  H   UNL     1      -5.194   7.641  -1.849  1.00  0.00     0.345 HD
ENDBRANCH   1   2
BRANCH   1   6
ATOM      6  C   UNL     1      -5.922   4.871  -2.430  1.00  0.00     0.099 C 
ATOM      7  O   UNL     1      -7.026   4.462  -2.877  1.00  0.00    -0.544 OA
ATOM      8  O   UNL     1      -4.744   4.456  -3.040  1.00  0.00    -0.544 OA
ENDBRANCH   1   6
BRANCH   1   9
ATOM      9  C   UNL     1      -7.242   6.426  -0.890  1.00  0.00     0.047 C 
ATOM     10  C   UNL     1      -7.551   6.478   0.615  1.00  0.00     0.014 C 
ATOM     11  C   UNL     1      -7.362   7.830  -1.502  1.00  0.00     0.014 C 
ENDBRANCH   1   9
TORSDOF 3
ENDMDL
MODEL 2
REMARK VINA RESULT:    -4.407      1.600      2.110
REMARK INTER + INTRA:          -5.108
REMARK INTER:                  -5.063
REMARK INTRA:                  -0.045
REMARK UNBOUND:                -0.057
REMARK SMILES CC(C)[C@H]([NH3+])C(=O)[O-]
REMARK SMILES IDX 4 1 5 2 6 6 7 7 8 8 2 9 1 10 3 11
REMARK H PARENT 5 3 5 4 5 5
REMARK Flexibility Score: inf
ROOT
ATOM      1  C   UNL     1      -6.550   5.987  -2.308  1.00  0.00     0.230 C 
ENDROOT
BRANCH   1   2
ATOM      2  N   UNL     1      -7.507   4.899  -2.054  1.00  0.00    -0.350 N 
ATOM      3  H   UNL     1      -7.963   4.578  -2.937  1.00  0.00     0.345 HD
ATOM      4  H   UNL     1      -8.249   5.234  -1.397  1.00  0.00     0.345 HD
ATOM      5  H   UNL     1      -7.019   4.091  -1.605  1.00  0.00     0.345 HD
ENDBRANCH   1   2
BRANCH   1   6
ATOM      6  C   UNL     1      -5.173   5.436  -2.592  1.00  0.00     0.099 C 
ATOM      7  O   UNL     1      -4.947   4.199  -2.525  1.00  0.00    -0.544 OA
ATOM      8  O   UNL     1      -4.133   6.303  -2.903  1.00  0.00    -0.544 OA
ENDBRANCH   1   6
BRANCH   1   9
ATOM      9  C   UNL     1      -6.553   7.041  -1.160  1.00  0.00     0.047 C 
ATOM     10  C   UNL     1      -7.446   8.261  -1.444  1.00  0.00     0.014 C 
ATOM     11  C   UNL     1      -6.943   6.404   0.182  1.00  0.00     0.014 C 
ENDBRANCH   1   9
TORSDOF 3
ENDMDL
MODEL 3
REMARK VINA RESULT:    -4.139      2.494      3.472
REMARK INTER + INTRA:          -4.801
REMARK INTER:                  -4.748
REMARK INTRA:                  -0.054
REMARK UNBOUND:                -0.057
REMARK SMILES CC(C)[C@H]([NH3+])C(=O)[O-]
REMARK SMILES IDX 4 1 5 2 6 6 7 7 8 8 2 9 1 10 3 11
REMARK H PARENT 5 3 5 4 5 5
REMARK Flexibility Score: inf
ROOT
ATOM      1  C   UNL     1      -7.773   6.631  -0.205  1.00  0.00     0.230 C 
ENDROOT
BRANCH   1   2
ATOM      2  N   UNL     1      -7.031   6.261   1.010  1.00  0.00    -0.350 N 
ATOM      3  H   UNL     1      -7.668   5.874   1.743  1.00  0.00     0.345 HD
ATOM      4  H   UNL     1      -6.552   7.105   1.396  1.00  0.00     0.345 HD
ATOM      5  H   UNL     1      -6.300   5.550   0.779  1.00  0.00     0.345 HD
ENDBRANCH   1   2
BRANCH   1   6
ATOM      6  C   UNL     1      -9.069   5.860  -0.300  1.00  0.00     0.099 C 
ATOM      7  O   UNL     1      -9.897   5.873   0.649  1.00  0.00    -0.544 OA
ATOM      8  O   UNL     1      -9.341   5.102  -1.432  1.00  0.00    -0.544 OA
ENDBRANCH   1   6
BRANCH   1   9
ATOM      9  C   UNL     1      -6.895   6.493  -1.485  1.00  0.00     0.047 C 
ATOM     10  C   UNL     1      -7.064   7.655  -2.478  1.00  0.00     0.014 C 
ATOM     11  C   UNL     1      -5.411   6.318  -1.128  1.00  0.00     0.014 C 
ENDBRANCH   1   9
TORSDOF 3
ENDMDL
MODEL 4
REMARK VINA RESULT:    -4.097      2.260      2.975
REMARK INTER + INTRA:          -4.753
REMARK INTER:                  -4.853
REMARK INTRA:                   0.100
REMARK UNBOUND:                -0.057
REMARK SMILES CC(C)[C@H]([NH3+])C(=O)[O-]
REMARK SMILES IDX 4 1 5 2 6 6 7 7 8 8 2 9 1 10 3 11
REMARK H PARENT 5 3 5 4 5 5
REMARK Flexibility Score: inf
ROOT
ATOM      1  C   UNL     1      -7.546   6.626  -2.113  1.00  0.00     0.230 C 
ENDROOT
BRANCH   1   2
ATOM      2  N   UNL     1      -7.954   7.989  -1.739  1.00  0.00    -0.350 N 
ATOM      3  H   UNL     1      -8.493   7.994  -0.844  1.00  0.00     0.345 HD
ATOM      4  H   UNL     1      -8.555   8.392  -2.493  1.00  0.00     0.345 HD
ATOM      5  H   UNL     1      -7.111   8.599  -1.637  1.00  0.00     0.345 HD
ENDBRANCH   1   2
BRANCH   1   6
ATOM      6  C   UNL     1      -8.477   5.602  -1.510  1.00  0.00     0.099 C 
ATOM      7  O   UNL     1      -8.914   5.739  -0.336  1.00  0.00    -0.544 OA
ATOM      8  O   UNL     1      -8.837   4.477  -2.243  1.00  0.00    -0.544 OA
ENDBRANCH   1   6
BRANCH   1   9
ATOM      9  C   UNL     1      -6.050   6.355  -1.773  1.00  0.00     0.047 C 
ATOM     10  C   UNL     1      -5.753   6.336  -0.264  1.00  0.00     0.014 C 
ATOM     11  C   UNL     1      -5.556   5.054  -2.422  1.00  0.00     0.014 C 
ENDBRANCH   1   9
TORSDOF 3
ENDMDL
MODEL 5
REMARK VINA RESULT:    -4.055      2.340      3.216
REMARK INTER + INTRA:          -4.705
REMARK INTER:                  -4.662
REMARK INTRA:                  -0.044
REMARK UNBOUND:                -0.057
REMARK SMILES CC(C)[C@H]([NH3+])C(=O)[O-]
REMARK SMILES IDX 4 1 5 2 6 6 7 7 8 8 2 9 1 10 3 11
REMARK H PARENT 5 3 5 4 5 5
REMARK Flexibility Score: inf
ROOT
ATOM      1  C   UNL     1      -7.825   7.324  -1.272  1.00  0.00     0.230 C 
ENDROOT
BRANCH   1   2
ATOM      2  N   UNL     1      -6.371   7.191  -1.452  1.00  0.00    -0.350 N 
ATOM      3  H   UNL     1      -5.976   8.005  -1.975  1.00  0.00     0.345 HD
ATOM      4  H   UNL     1      -6.164   6.318  -1.989  1.00  0.00     0.345 HD
ATOM      5  H   UNL     1      -5.900   7.119  -0.522  1.00  0.00     0.345 HD
ENDBRANCH   1   2
BRANCH   1   6
ATOM      6  C   UNL     1      -8.445   5.994  -0.916  1.00  0.00     0.099 C 
ATOM      7  O   UNL     1      -8.495   5.059  -1.759  1.00  0.00    -0.544 OA
ATOM      8  O   UNL     1      -8.997   5.804   0.345  1.00  0.00    -0.544 OA
ENDBRANCH   1   6
BRANCH   1   9
ATOM      9  C   UNL     1      -8.502   7.995  -2.504  1.00  0.00     0.047 C 
ATOM     10  C   UNL     1     -10.037   8.037  -2.418  1.00  0.00     0.014 C 
ATOM     11  C   UNL     1      -7.950   9.408  -2.744  1.00  0.00     0.014 C 
ENDBRANCH   1   9
TORSDOF 3
ENDMDL
MODEL 6
REMARK VINA RESULT:    -4.051      3.126      3.803
REMARK INTER + INTRA:          -4.700
REMARK INTER:                  -4.647
REMARK INTRA:                  -0.052
REMARK UNBOUND:                -0.057
REMARK SMILES CC(C)[C@H]([NH3+])C(=O)[O-]
REMARK SMILES IDX 4 1 5 2 6 6 7 7 8 8 2 9 1 10 3 11
REMARK H PARENT 5 3 5 4 5 5
REMARK Flexibility Score: inf
ROOT
ATOM      1  C   UNL     1      -8.027   5.729  -1.134  1.00  0.00     0.230 C 
ENDROOT
BRANCH   1   2
ATOM      2  N   UNL     1      -9.064   5.672  -2.176  1.00  0.00    -0.350 N 
ATOM      3  H   UNL     1      -9.705   6.495  -2.122  1.00  0.00     0.345 HD
ATOM      4  H   UNL     1      -9.629   4.801  -2.058  1.00  0.00     0.345 HD
ATOM      5  H   UNL     1      -8.619   5.644  -3.122  1.00  0.00     0.345 HD
ENDBRANCH   1   2
BRANCH   1   6
ATOM      6  C   UNL     1      -8.638   6.013   0.217  1.00  0.00     0.099 C 
ATOM      7  O   UNL     1      -7.923   6.393   1.181  1.00  0.00    -0.544 OA
ATOM      8  O   UNL     1     -10.001   5.825   0.413  1.00  0.00    -0.544 OA
ENDBRANCH   1   6
BRANCH   1   9
ATOM      9  C   UNL     1      -6.889   6.727  -1.503  1.00  0.00     0.047 C 
ATOM     10  C   UNL     1      -5.695   6.067  -2.213  1.00  0.00     0.014 C 
ATOM     11  C   UNL     1      -7.422   7.895  -2.346  1.00  0.00     0.014 C 
ENDBRANCH   1   9
TORSDOF 3
ENDMDL
MODEL 7
REMARK VINA RESULT:    -4.041      2.610      3.544
REMARK INTER + INTRA:          -4.689
REMARK INTER:                  -4.786
REMARK INTRA:                   0.097
REMARK UNBOUND:                -0.057
REMARK SMILES CC(C)[C@H]([NH3+])C(=O)[O-]
REMARK SMILES IDX 4 1 5 2 6 6 7 7 8 8 2 9 1 10 3 11
REMARK H PARENT 5 3 5 4 5 5
REMARK Flexibility Score: inf
ROOT
ATOM      1  C   UNL     1      -7.608   7.144  -1.027  1.00  0.00     0.230 C 
ENDROOT
BRANCH   1   2
ATOM      2  N   UNL     1      -6.804   8.368  -0.887  1.00  0.00    -0.350 N 
ATOM      3  H   UNL     1      -5.802   8.146  -0.692  1.00  0.00     0.345 HD
ATOM      4  H   UNL     1      -7.178   8.942  -0.098  1.00  0.00     0.345 HD
ATOM      5  H   UNL     1      -6.867   8.938  -1.761  1.00  0.00     0.345 HD
ENDBRANCH   1   2
BRANCH   1   6
ATOM      6  C   UNL     1      -7.821   6.484   0.315  1.00  0.00     0.099 C 
ATOM      7  O   UNL     1      -6.901   6.461   1.175  1.00  0.00    -0.544 OA
ATOM      8  O   UNL     1      -9.034   5.869   0.598  1.00  0.00    -0.544 OA
ENDBRANCH   1   6
BRANCH   1   9
ATOM      9  C   UNL     1      -7.006   6.173  -2.087  1.00  0.00     0.047 C 
ATOM     10  C   UNL     1      -5.568   5.728  -1.771  1.00  0.00     0.014 C 
ATOM     11  C   UNL     1      -7.904   4.944  -2.293  1.00  0.00     0.014 C 
ENDBRANCH   1   9
TORSDOF 3
ENDMDL
MODEL 8
REMARK VINA RESULT:    -3.991      2.586      3.477
REMARK INTER + INTRA:          -4.631
REMARK INTER:                  -4.579
REMARK INTRA:                  -0.052
REMARK UNBOUND:                -0.057
REMARK SMILES CC(C)[C@H]([NH3+])C(=O)[O-]
REMARK SMILES IDX 4 1 5 2 6 6 7 7 8 8 2 9 1 10 3 11
REMARK H PARENT 5 3 5 4 5 5
REMARK Flexibility Score: inf
ROOT
ATOM      1  C   UNL     1      -7.527   7.297  -2.011  1.00  0.00     0.230 C 
ENDROOT
BRANCH   1   2
ATOM      2  N   UNL     1      -7.106   8.594  -1.459  1.00  0.00    -0.350 N 
ATOM      3  H   UNL     1      -7.384   8.691  -0.457  1.00  0.00     0.345 HD
ATOM      4  H   UNL     1      -7.552   9.367  -2.005  1.00  0.00     0.345 HD
ATOM      5  H   UNL     1      -6.069   8.698  -1.540  1.00  0.00     0.345 HD
ENDBRANCH   1   2
BRANCH   1   6
ATOM      6  C   UNL     1      -9.032   7.181  -2.022  1.00  0.00     0.099 C 
ATOM      7  O   UNL     1      -9.744   8.070  -2.560  1.00  0.00    -0.544 OA
ATOM      8  O   UNL     1      -9.646   6.098  -1.405  1.00  0.00    -0.544 OA
ENDBRANCH   1   6
BRANCH   1   9
ATOM      9  C   UNL     1      -6.835   6.106  -1.282  1.00  0.00     0.047 C 
ATOM     10  C   UNL     1      -5.590   5.574  -2.012  1.00  0.00     0.014 C 
ATOM     11  C   UNL     1      -6.479   6.469   0.168  1.00  0.00     0.014 C 
ENDBRANCH   1   9
TORSDOF 3
ENDMDL
MODEL 9
REMARK VINA RESULT:    -3.944      1.826      2.406
REMARK INTER + INTRA:          -4.578
REMARK INTER:                  -4.621
REMARK INTRA:                   0.043
REMARK UNBOUND:                -0.057
REMARK SMILES CC(C)[C@H]([NH3+])C(=O)[O-]
REMARK SMILES IDX 4 1 5 2 6 6 7 7 8 8 2 9 1 10 3 11
REMARK H PARENT 5 3 5 4 5 5
REMARK Flexibility Score: inf
ROOT
ATOM      1  C   UNL     1      -7.241   6.035  -0.463  1.00  0.00     0.230 C 
ENDROOT
BRANCH   1   2
ATOM      2  N   UNL     1      -6.814   6.418   0.891  1.00  0.00    -0.350 N 
ATOM      3  H   UNL     1      -6.139   7.215   0.867  1.00  0.00     0.345 HD
ATOM      4  H   UNL     1      -6.351   5.603   1.354  1.00  0.00     0.345 HD
ATOM      5  H   UNL     1      -7.645   6.688   1.465  1.00  0.00     0.345 HD
ENDBRANCH   1   2
BRANCH   1   6
ATOM      6  C   UNL     1      -6.050   5.882  -1.379  1.00  0.00     0.099 C 
ATOM      7  O   UNL     1      -4.991   6.531  -1.173  1.00  0.00    -0.544 OA
ATOM      8  O   UNL     1      -6.129   5.038  -2.480  1.00  0.00    -0.544 OA
ENDBRANCH   1   6
BRANCH   1   9
ATOM      9  C   UNL     1      -8.316   7.011  -1.029  1.00  0.00     0.047 C 
ATOM     10  C   UNL     1      -7.774   7.972  -2.101  1.00  0.00     0.014 C 
ATOM     11  C   UNL     1      -9.532   6.247  -1.574  1.00  0.00     0.014 C 
ENDBRANCH   1   9
TORSDOF 3
ENDMDL
