MODEL 1
REMARK VINA RESULT:    -4.961      0.000      0.000
REMARK INTER + INTRA:          -7.991
REMARK INTER:                  -7.281
REMARK INTRA:                  -0.709
REMARK UNBOUND:                -0.709
REMARK SMILES O=C([O-])CCCCCCCC(=O)[O-]
REMARK SMILES IDX 7 1 6 2 5 3 4 4 2 5 1 6 3 7 8 8 9 9 10 10 11 11 12 12 13 13
REMARK H PARENT
REMARK Flexibility Score: inf
ROOT
ATOM      1  C   UNL     1      -5.115  35.712 100.702  1.00  0.00     0.000 C 
ENDROOT
BRANCH   1   2
ATOM      2  C   UNL     1      -4.029  34.723 100.261  1.00  0.00     0.000 C 
BRANCH   2   3
ATOM      3  C   UNL     1      -3.948  34.638  98.730  1.00  0.00     0.006 C 
BRANCH   3   4
ATOM      4  C   UNL     1      -2.873  35.568  98.153  1.00  0.00     0.053 C 
BRANCH   4   5
ATOM      5  C   UNL     1      -3.464  36.840  97.627  1.00  0.00     0.041 C 
ATOM      6  O   UNL     1      -3.405  37.896  98.308  1.00  0.00    -0.550 OA
ATOM      7  O   UNL     1      -4.107  36.849  96.395  1.00  0.00    -0.550 OA
ENDBRANCH   4   5
ENDBRANCH   3   4
ENDBRANCH   2   3
ENDBRANCH   1   2
BRANCH   1   8
ATOM      8  C   UNL     1      -4.512  36.862 101.521  1.00  0.00     0.000 C 
BRANCH   8   9
ATOM      9  C   UNL     1      -3.001  36.699 101.748  1.00  0.00     0.006 C 
BRANCH   9  10
ATOM     10  C   UNL     1      -2.213  37.975 101.421  1.00  0.00     0.053 C 
BRANCH  10  11
ATOM     11  C   UNL     1      -2.649  39.099 102.308  1.00  0.00     0.041 C 
ATOM     12  O   UNL     1      -2.699  38.938 103.556  1.00  0.00    -0.550 OA
ATOM     13  O   UNL     1      -2.952  40.338 101.761  1.00  0.00    -0.550 OA
ENDBRANCH  10  11
ENDBRANCH   9  10
ENDBRANCH   8   9
ENDBRANCH   1   8
TORSDOF 8
ENDMDL
MODEL 2
REMARK VINA RESULT:    -4.915      1.280      2.013
REMARK INTER + INTRA:          -7.924
REMARK INTER:                  -7.146
REMARK INTRA:                  -0.777
REMARK UNBOUND:                -0.709
REMARK SMILES O=C([O-])CCCCCCCC(=O)[O-]
REMARK SMILES IDX 7 1 6 2 5 3 4 4 2 5 1 6 3 7 8 8 9 9 10 10 11 11 12 12 13 13
REMARK H PARENT
REMARK Flexibility Score: inf
ROOT
ATOM      1  C   UNL     1      -3.990  34.682  99.946  1.00  0.00     0.000 C 
ENDROOT
BRANCH   1   2
ATOM      2  C   UNL     1      -3.860  34.758  98.419  1.00  0.00     0.000 C 
BRANCH   2   3
ATOM      3  C   UNL     1      -3.191  36.072  97.987  1.00  0.00     0.006 C 
BRANCH   3   4
ATOM      4  C   UNL     1      -3.964  36.775  96.865  1.00  0.00     0.053 C 
BRANCH   4   5
ATOM      5  C   UNL     1      -5.032  37.675  97.407  1.00  0.00     0.041 C 
ATOM      6  O   UNL     1      -6.227  37.282  97.460  1.00  0.00    -0.550 OA
ATOM      7  O   UNL     1      -4.711  38.960  97.825  1.00  0.00    -0.550 OA
ENDBRANCH   4   5
ENDBRANCH   3   4
ENDBRANCH   2   3
ENDBRANCH   1   2
BRANCH   1   8
ATOM      8  C   UNL     1      -5.293  35.342 100.419  1.00  0.00     0.000 C 
BRANCH   8   9
ATOM      9  C   UNL     1      -5.056  36.692 101.112  1.00  0.00     0.006 C 
BRANCH   9  10
ATOM     10  C   UNL     1      -3.681  36.774 101.791  1.00  0.00     0.053 C 
BRANCH  10  11
ATOM     11  C   UNL     1      -3.107  38.147 101.642  1.00  0.00     0.041 C 
ATOM     12  O   UNL     1      -2.876  38.852 102.660  1.00  0.00    -0.550 OA
ATOM     13  O   UNL     1      -2.779  38.631 100.382  1.00  0.00    -0.550 OA
ENDBRANCH  10  11
ENDBRANCH   9  10
ENDBRANCH   8   9
ENDBRANCH   1   8
TORSDOF 8
ENDMDL
MODEL 3
REMARK VINA RESULT:    -4.902      1.358      5.014
REMARK INTER + INTRA:          -7.903
REMARK INTER:                  -7.342
REMARK INTRA:                  -0.562
REMARK UNBOUND:                -0.709
REMARK SMILES O=C([O-])CCCCCCCC(=O)[O-]
REMARK SMILES IDX 7 1 6 2 5 3 4 4 2 5 1 6 3 7 8 8 9 9 10 10 11 11 12 12 13 13
REMARK H PARENT
REMARK Flexibility Score: inf
ROOT
ATOM      1  C   UNL     1      -3.302  35.050 100.582  1.00  0.00     0.000 C 
ENDROOT
BRANCH   1   2
ATOM      2  C   UNL     1      -2.625  36.379 100.940  1.00  0.00     0.000 C 
BRANCH   2   3
ATOM      3  C   UNL     1      -3.579  37.288 101.730  1.00  0.00     0.006 C 
BRANCH   3   4
ATOM      4  C   UNL     1      -2.846  38.107 102.800  1.00  0.00     0.053 C 
BRANCH   4   5
ATOM      5  C   UNL     1      -2.363  39.418 102.261  1.00  0.00     0.041 C 
ATOM      6  O   UNL     1      -3.004  40.005 101.351  1.00  0.00    -0.550 OA
ATOM      7  O   UNL     1      -1.187  39.977 102.746  1.00  0.00    -0.550 OA
ENDBRANCH   4   5
ENDBRANCH   3   4
ENDBRANCH   2   3
ENDBRANCH   1   2
BRANCH   1   8
ATOM      8  C   UNL     1      -3.246  34.794  99.068  1.00  0.00     0.000 C 
BRANCH   8   9
ATOM      9  C   UNL     1      -4.593  34.328  98.496  1.00  0.00     0.006 C 
BRANCH   9  10
ATOM     10  C   UNL     1      -5.704  35.371  98.675  1.00  0.00     0.053 C 
BRANCH  10  11
ATOM     11  C   UNL     1      -5.382  36.614  97.907  1.00  0.00     0.041 C 
ATOM     12  O   UNL     1      -5.294  36.577  96.651  1.00  0.00    -0.550 OA
ATOM     13  O   UNL     1      -5.229  37.823  98.573  1.00  0.00    -0.550 OA
ENDBRANCH  10  11
ENDBRANCH   9  10
ENDBRANCH   8   9
ENDBRANCH   1   8
TORSDOF 8
ENDMDL
MODEL 4
REMARK VINA RESULT:    -4.736      1.242      1.869
REMARK INTER + INTRA:          -7.660
REMARK INTER:                  -7.113
REMARK INTRA:                  -0.548
REMARK UNBOUND:                -0.709
REMARK SMILES O=C([O-])CCCCCCCC(=O)[O-]
REMARK SMILES IDX 7 1 6 2 5 3 4 4 2 5 1 6 3 7 8 8 9 9 10 10 11 11 12 12 13 13
REMARK H PARENT
REMARK Flexibility Score: inf
ROOT
ATOM      1  C   UNL     1      -3.608  34.642  99.947  1.00  0.00     0.000 C 
ENDROOT
BRANCH   1   2
ATOM      2  C   UNL     1      -5.097  34.991  99.830  1.00  0.00     0.000 C 
BRANCH   2   3
ATOM      3  C   UNL     1      -5.498  35.214  98.364  1.00  0.00     0.006 C 
BRANCH   3   4
ATOM      4  C   UNL     1      -5.500  36.699  97.982  1.00  0.00     0.053 C 
BRANCH   4   5
ATOM      5  C   UNL     1      -4.530  36.988  96.877  1.00  0.00     0.041 C 
ATOM      6  O   UNL     1      -4.933  37.489  95.794  1.00  0.00    -0.550 OA
ATOM      7  O   UNL     1      -3.186  36.675  97.033  1.00  0.00    -0.550 OA
ENDBRANCH   4   5
ENDBRANCH   3   4
ENDBRANCH   2   3
ENDBRANCH   1   2
BRANCH   1   8
ATOM      8  C   UNL     1      -2.880  35.636 100.862  1.00  0.00     0.000 C 
BRANCH   8   9
ATOM      9  C   UNL     1      -3.815  36.719 101.424  1.00  0.00     0.006 C 
BRANCH   9  10
ATOM     10  C   UNL     1      -3.197  37.476 102.607  1.00  0.00     0.053 C 
BRANCH  10  11
ATOM     11  C   UNL     1      -2.926  38.899 102.232  1.00  0.00     0.041 C 
ATOM     12  O   UNL     1      -2.935  39.247 101.021  1.00  0.00    -0.550 OA
ATOM     13  O   UNL     1      -2.713  39.850 103.221  1.00  0.00    -0.550 OA
ENDBRANCH  10  11
ENDBRANCH   9  10
ENDBRANCH   8   9
ENDBRANCH   1   8
TORSDOF 8
ENDMDL
MODEL 5
REMARK VINA RESULT:    -4.671      2.259      4.573
REMARK INTER + INTRA:          -7.565
REMARK INTER:                  -6.793
REMARK INTRA:                  -0.773
REMARK UNBOUND:                -0.709
REMARK SMILES O=C([O-])CCCCCCCC(=O)[O-]
REMARK SMILES IDX 7 1 6 2 5 3 4 4 2 5 1 6 3 7 8 8 9 9 10 10 11 11 12 12 13 13
REMARK H PARENT
REMARK Flexibility Score: inf
ROOT
ATOM      1  C   UNL     1      -5.203  37.482  97.375  1.00  0.00     0.000 C 
ENDROOT
BRANCH   1   2
ATOM      2  C   UNL     1      -4.657  38.693  98.143  1.00  0.00     0.000 C 
BRANCH   2   3
ATOM      3  C   UNL     1      -3.422  38.309  98.972  1.00  0.00     0.006 C 
BRANCH   3   4
ATOM      4  C   UNL     1      -3.378  39.041 100.319  1.00  0.00     0.053 C 
BRANCH   4   5
ATOM      5  C   UNL     1      -2.285  38.515 101.199  1.00  0.00     0.041 C 
ATOM      6  O   UNL     1      -1.551  39.310 101.843  1.00  0.00    -0.550 OA
ATOM      7  O   UNL     1      -2.059  37.147 101.284  1.00  0.00    -0.550 OA
ENDBRANCH   4   5
ENDBRANCH   3   4
ENDBRANCH   2   3
ENDBRANCH   1   2
BRANCH   1   8
ATOM      8  C   UNL     1      -4.281  36.265  97.540  1.00  0.00     0.000 C 
BRANCH   8   9
ATOM      9  C   UNL     1      -5.047  34.987  97.913  1.00  0.00     0.006 C 
BRANCH   9  10
ATOM     10  C   UNL     1      -5.881  35.149  99.192  1.00  0.00     0.053 C 
BRANCH  10  11
ATOM     11  C   UNL     1      -4.987  35.345 100.375  1.00  0.00     0.041 C 
ATOM     12  O   UNL     1      -5.271  36.207 101.248  1.00  0.00    -0.550 OA
ATOM     13  O   UNL     1      -3.866  34.541 100.541  1.00  0.00    -0.550 OA
ENDBRANCH  10  11
ENDBRANCH   9  10
ENDBRANCH   8   9
ENDBRANCH   1   8
TORSDOF 8
ENDMDL
MODEL 6
REMARK VINA RESULT:    -4.646      2.024      5.594
REMARK INTER + INTRA:          -7.528
REMARK INTER:                  -7.099
REMARK INTRA:                  -0.429
REMARK UNBOUND:                -0.709
REMARK SMILES O=C([O-])CCCCCCCC(=O)[O-]
REMARK SMILES IDX 7 1 6 2 5 3 4 4 2 5 1 6 3 7 8 8 9 9 10 10 11 11 12 12 13 13
REMARK H PARENT
REMARK Flexibility Score: inf
ROOT
ATOM      1  C   UNL     1      -3.356  38.497  99.413  1.00  0.00     0.000 C 
ENDROOT
BRANCH   1   2
ATOM      2  C   UNL     1      -3.340  38.083 100.890  1.00  0.00     0.000 C 
BRANCH   2   3
ATOM      3  C   UNL     1      -2.180  38.757 101.640  1.00  0.00     0.006 C 
BRANCH   3   4
ATOM      4  C   UNL     1      -2.659  39.528 102.876  1.00  0.00     0.053 C 
BRANCH   4   5
ATOM      5  C   UNL     1      -2.385  40.996 102.754  1.00  0.00     0.041 C 
ATOM      6  O   UNL     1      -1.283  41.469 103.133  1.00  0.00    -0.550 OA
ATOM      7  O   UNL     1      -3.362  41.844 102.250  1.00  0.00    -0.550 OA
ENDBRANCH   4   5
ENDBRANCH   3   4
ENDBRANCH   2   3
ENDBRANCH   1   2
BRANCH   1   8
ATOM      8  C   UNL     1      -4.212  37.532  98.581  1.00  0.00     0.000 C 
BRANCH   8   9
ATOM      9  C   UNL     1      -3.370  36.642  97.654  1.00  0.00     0.006 C 
BRANCH   9  10
ATOM     10  C   UNL     1      -2.923  35.340  98.333  1.00  0.00     0.053 C 
BRANCH  10  11
ATOM     11  C   UNL     1      -4.095  34.643  98.949  1.00  0.00     0.041 C 
ATOM     12  O   UNL     1      -4.978  34.122  98.218  1.00  0.00    -0.550 OA
ATOM     13  O   UNL     1      -4.186  34.525 100.330  1.00  0.00    -0.550 OA
ENDBRANCH  10  11
ENDBRANCH   9  10
ENDBRANCH   8   9
ENDBRANCH   1   8
TORSDOF 8
ENDMDL
MODEL 7
REMARK VINA RESULT:    -4.627      1.817      5.743
REMARK INTER + INTRA:          -7.501
REMARK INTER:                  -7.173
REMARK INTRA:                  -0.328
REMARK UNBOUND:                -0.709
REMARK SMILES O=C([O-])CCCCCCCC(=O)[O-]
REMARK SMILES IDX 7 1 6 2 5 3 4 4 2 5 1 6 3 7 8 8 9 9 10 10 11 11 12 12 13 13
REMARK H PARENT
REMARK Flexibility Score: inf
ROOT
ATOM      1  C   UNL     1      -3.613  37.354 101.568  1.00  0.00     0.000 C 
ENDROOT
BRANCH   1   2
ATOM      2  C   UNL     1      -3.041  38.044 102.813  1.00  0.00     0.000 C 
BRANCH   2   3
ATOM      3  C   UNL     1      -2.818  39.542 102.560  1.00  0.00     0.006 C 
BRANCH   3   4
ATOM      4  C   UNL     1      -1.351  39.950 102.741  1.00  0.00     0.053 C 
BRANCH   4   5
ATOM      5  C   UNL     1      -1.217  41.401 103.091  1.00  0.00     0.041 C 
ATOM      6  O   UNL     1      -2.235  42.077 103.392  1.00  0.00    -0.550 OA
ATOM      7  O   UNL     1       0.029  42.012 103.055  1.00  0.00    -0.550 OA
ENDBRANCH   4   5
ENDBRANCH   3   4
ENDBRANCH   2   3
ENDBRANCH   1   2
BRANCH   1   8
ATOM      8  C   UNL     1      -2.538  36.515 100.862  1.00  0.00     0.000 C 
BRANCH   8   9
ATOM      9  C   UNL     1      -3.085  35.183 100.324  1.00  0.00     0.006 C 
BRANCH   9  10
ATOM     10  C   UNL     1      -2.865  35.022  98.813  1.00  0.00     0.053 C 
BRANCH  10  11
ATOM     11  C   UNL     1      -3.687  36.018  98.057  1.00  0.00     0.041 C 
ATOM     12  O   UNL     1      -3.125  36.926  97.389  1.00  0.00    -0.550 OA
ATOM     13  O   UNL     1      -5.072  35.913  98.049  1.00  0.00    -0.550 OA
ENDBRANCH  10  11
ENDBRANCH   9  10
ENDBRANCH   8   9
ENDBRANCH   1   8
TORSDOF 8
ENDMDL
MODEL 8
REMARK VINA RESULT:    -4.627      1.664      2.470
REMARK INTER + INTRA:          -7.501
REMARK INTER:                  -7.037
REMARK INTRA:                  -0.463
REMARK UNBOUND:                -0.709
REMARK SMILES O=C([O-])CCCCCCCC(=O)[O-]
REMARK SMILES IDX 7 1 6 2 5 3 4 4 2 5 1 6 3 7 8 8 9 9 10 10 11 11 12 12 13 13
REMARK H PARENT
REMARK Flexibility Score: inf
ROOT
ATOM      1  C   UNL     1      -3.501  36.993 101.856  1.00  0.00     0.000 C 
ENDROOT
BRANCH   1   2
ATOM      2  C   UNL     1      -4.612  37.013 100.798  1.00  0.00     0.000 C 
BRANCH   2   3
ATOM      3  C   UNL     1      -4.985  35.588 100.363  1.00  0.00     0.006 C 
BRANCH   3   4
ATOM      4  C   UNL     1      -4.870  35.395  98.846  1.00  0.00     0.053 C 
BRANCH   4   5
ATOM      5  C   UNL     1      -3.504  35.750  98.344  1.00  0.00     0.041 C 
ATOM      6  O   UNL     1      -3.345  36.738  97.580  1.00  0.00    -0.550 OA
ATOM      7  O   UNL     1      -2.410  34.970  98.696  1.00  0.00    -0.550 OA
ENDBRANCH   4   5
ENDBRANCH   3   4
ENDBRANCH   2   3
ENDBRANCH   1   2
BRANCH   1   8
ATOM      8  C   UNL     1      -2.341  37.915 101.452  1.00  0.00     0.000 C 
BRANCH   8   9
ATOM      9  C   UNL     1      -2.746  39.397 101.419  1.00  0.00     0.006 C 
BRANCH   9  10
ATOM     10  C   UNL     1      -2.852  40.011 102.822  1.00  0.00     0.053 C 
BRANCH  10  11
ATOM     11  C   UNL     1      -1.800  41.057 103.015  1.00  0.00     0.041 C 
ATOM     12  O   UNL     1      -2.120  42.214 103.397  1.00  0.00    -0.550 OA
ATOM     13  O   UNL     1      -0.462  40.741 102.822  1.00  0.00    -0.550 OA
ENDBRANCH  10  11
ENDBRANCH   9  10
ENDBRANCH   8   9
ENDBRANCH   1   8
TORSDOF 8
ENDMDL
MODEL 9
REMARK VINA RESULT:    -4.625      2.910      4.232
REMARK INTER + INTRA:          -7.498
REMARK INTER:                  -6.858
REMARK INTRA:                  -0.639
REMARK UNBOUND:                -0.709
REMARK SMILES O=C([O-])CCCCCCCC(=O)[O-]
REMARK SMILES IDX 7 1 6 2 5 3 4 4 2 5 1 6 3 7 8 8 9 9 10 10 11 11 12 12 13 13
REMARK H PARENT
REMARK Flexibility Score: inf
ROOT
ATOM      1  C   UNL     1      -3.116  38.351 101.228  1.00  0.00     0.000 C 
ENDROOT
BRANCH   1   2
ATOM      2  C   UNL     1      -2.937  38.476  99.710  1.00  0.00     0.000 C 
BRANCH   2   3
ATOM      3  C   UNL     1      -4.252  38.885  99.031  1.00  0.00     0.006 C 
BRANCH   3   4
ATOM      4  C   UNL     1      -4.568  38.018  97.806  1.00  0.00     0.053 C 
BRANCH   4   5
ATOM      5  C   UNL     1      -5.722  38.564  97.022  1.00  0.00     0.041 C 
ATOM      6  O   UNL     1      -5.611  39.657  96.409  1.00  0.00    -0.550 OA
ATOM      7  O   UNL     1      -6.930  37.879  96.996  1.00  0.00    -0.550 OA
ENDBRANCH   4   5
ENDBRANCH   3   4
ENDBRANCH   2   3
ENDBRANCH   1   2
BRANCH   1   8
ATOM      8  C   UNL     1      -3.633  36.955 101.607  1.00  0.00     0.000 C 
BRANCH   8   9
ATOM      9  C   UNL     1      -2.882  35.828 100.882  1.00  0.00     0.006 C 
BRANCH   9  10
ATOM     10  C   UNL     1      -3.816  34.708 100.405  1.00  0.00     0.053 C 
BRANCH  10  11
ATOM     11  C   UNL     1      -3.764  34.584  98.915  1.00  0.00     0.041 C 
ATOM     12  O   UNL     1      -2.739  34.955  98.284  1.00  0.00    -0.550 OA
ATOM     13  O   UNL     1      -4.828  34.015  98.227  1.00  0.00    -0.550 OA
ENDBRANCH  10  11
ENDBRANCH   9  10
ENDBRANCH   8   9
ENDBRANCH   1   8
TORSDOF 8
ENDMDL
