MODEL 1
REMARK VINA RESULT:    -5.857      0.000      0.000
REMARK INTER + INTRA:          -9.805
REMARK INTER:                  -8.597
REMARK INTRA:                  -1.208
REMARK UNBOUND:                -1.208
REMARK SMILES Cc1cc2c(C(C)C)c(O)c(O)c(C=O)c2c(O)c1-c1c(C)cc2c(C(C)C)c(O)c(O)c(C=O)c2c1O
REMARK SMILES IDX 1 1 2 2 3 3 4 4 16 5 13 6 11 7 9 8 5 9 17 10 19 11 20 12
REMARK SMILES IDX 37 13 21 14 36 15 23 16 22 17 24 18 33 19 25 20 31 21 29 22
REMARK SMILES IDX 38 23 34 25 35 26 26 27 27 28 28 29 32 30 30 32 18 34 6 36
REMARK SMILES IDX 7 37 8 38 14 39 15 40 10 41 12 43
REMARK H PARENT 38 24 32 31 30 33 18 35 10 42 12 44
REMARK Flexibility Score: inf
ROOT
ATOM      1  C   UNL     1      63.500  22.896  51.388  1.00  0.00     0.045 C 
ATOM      2  C   UNL     1      62.583  23.977  50.864  1.00  0.00    -0.039 A 
ATOM      3  C   UNL     1      63.133  25.208  50.494  1.00  0.00     0.013 A 
ATOM      4  C   UNL     1      62.330  26.274  50.032  1.00  0.00    -0.006 A 
ATOM      5  C   UNL     1      60.914  26.140  50.110  1.00  0.00     0.039 A 
ATOM      6  C   UNL     1      60.101  27.288  49.886  1.00  0.00     0.072 A 
ATOM      7  C   UNL     1      60.685  28.501  49.483  1.00  0.00     0.169 A 
ATOM      8  C   UNL     1      62.081  28.609  49.342  1.00  0.00     0.162 A 
ATOM      9  C   UNL     1      62.911  27.478  49.526  1.00  0.00     0.008 A 
ATOM     10  C   UNL     1      60.359  24.856  50.384  1.00  0.00     0.132 A 
ATOM     11  C   UNL     1      61.193  23.788  50.782  1.00  0.00     0.031 A 
ENDROOT
BRANCH  11  12
ATOM     12  C   UNL     1      60.593  22.480  51.160  1.00  0.00     0.031 A 
ATOM     13  C   UNL     1      60.197  22.241  52.496  1.00  0.00     0.132 A 
ATOM     14  C   UNL     1      60.456  21.471  50.196  1.00  0.00    -0.039 A 
ATOM     15  C   UNL     1      59.611  20.989  52.866  1.00  0.00     0.039 A 
ATOM     16  C   UNL     1      59.870  20.255  50.549  1.00  0.00     0.013 A 
ATOM     17  C   UNL     1      60.901  21.691  48.770  1.00  0.00     0.045 C 
ATOM     18  C   UNL     1      59.384  20.008  51.853  1.00  0.00    -0.006 A 
ATOM     19  C   UNL     1      59.278  20.671  54.218  1.00  0.00     0.072 A 
ATOM     20  C   UNL     1      58.712  18.786  52.169  1.00  0.00     0.008 A 
ATOM     21  C   UNL     1      58.751  19.402  54.533  1.00  0.00     0.169 A 
ATOM     22  C   UNL     1      58.499  18.465  53.525  1.00  0.00     0.162 A 
BRANCH  13  23
ATOM     23  O   UNL     1      60.396  23.244  53.454  1.00  0.00    -0.507 OA
ATOM     24  H   UNL     1      60.994  23.144  54.264  1.00  0.00     0.293 HD
ENDBRANCH  13  23
BRANCH  19  25
ATOM     25  C   UNL     1      59.495  21.626  55.325  1.00  0.00     0.264 C 
ATOM     26  O   UNL     1      58.529  22.269  55.816  1.00  0.00    -0.298 OA
ENDBRANCH  19  25
BRANCH  20  27
ATOM     27  C   UNL     1      58.254  17.802  51.076  1.00  0.00     0.017 C 
ATOM     28  C   UNL     1      57.060  18.362  50.295  1.00  0.00     0.012 C 
ATOM     29  C   UNL     1      59.383  17.356  50.123  1.00  0.00     0.012 C 
ENDBRANCH  20  27
BRANCH  21  30
ATOM     30  O   UNL     1      58.438  19.045  55.851  1.00  0.00    -0.504 OA
ATOM     31  H   UNL     1      57.517  19.128  56.260  1.00  0.00     0.293 HD
ENDBRANCH  21  30
BRANCH  22  32
ATOM     32  O   UNL     1      58.038  17.194  53.876  1.00  0.00    -0.504 OA
ATOM     33  H   UNL     1      58.620  16.497  54.321  1.00  0.00     0.293 HD
ENDBRANCH  22  32
ENDBRANCH  11  12
BRANCH  10  34
ATOM     34  O   UNL     1      58.984  24.638  50.225  1.00  0.00    -0.507 OA
ATOM     35  H   UNL     1      58.433  24.052  50.839  1.00  0.00     0.293 HD
ENDBRANCH  10  34
BRANCH   9  36
ATOM     36  C   UNL     1      64.412  27.571  49.199  1.00  0.00     0.017 C 
ATOM     37  C   UNL     1      65.151  28.400  50.251  1.00  0.00     0.012 C 
ATOM     38  C   UNL     1      64.708  28.073  47.773  1.00  0.00     0.012 C 
ENDBRANCH   9  36
BRANCH   6  39
ATOM     39  C   UNL     1      58.650  27.316  50.173  1.00  0.00     0.264 C 
ATOM     40  O   UNL     1      58.195  27.998  51.129  1.00  0.00    -0.298 OA
ENDBRANCH   6  39
BRANCH   8  41
ATOM     41  O   UNL     1      62.674  29.844  49.063  1.00  0.00    -0.504 OA
ATOM     42  H   UNL     1      62.334  30.733  49.400  1.00  0.00     0.293 HD
ENDBRANCH   8  41
BRANCH   7  43
ATOM     43  O   UNL     1      59.839  29.590  49.229  1.00  0.00    -0.504 OA
ATOM     44  H   UNL     1      59.314  29.718  48.378  1.00  0.00     0.293 HD
ENDBRANCH   7  43
TORSDOF 11
ENDMDL
MODEL 2
REMARK VINA RESULT:    -5.616     10.078     14.458
REMARK INTER + INTRA:          -9.451
REMARK INTER:                  -8.106
REMARK INTRA:                  -1.345
REMARK UNBOUND:                -1.208
REMARK SMILES Cc1cc2c(C(C)C)c(O)c(O)c(C=O)c2c(O)c1-c1c(C)cc2c(C(C)C)c(O)c(O)c(C=O)c2c1O
REMARK SMILES IDX 1 1 2 2 3 3 4 4 16 5 13 6 11 7 9 8 5 9 17 10 19 11 20 12
REMARK SMILES IDX 37 13 21 14 36 15 23 16 22 17 24 18 33 19 25 20 31 21 29 22
REMARK SMILES IDX 38 23 34 25 35 26 26 27 27 28 28 29 32 30 30 32 18 34 6 36
REMARK SMILES IDX 7 37 8 38 14 39 15 40 10 41 12 43
REMARK H PARENT 38 24 32 31 30 33 18 35 10 42 12 44
REMARK Flexibility Score: inf
ROOT
ATOM      1  C   UNL     1      66.969  26.206  59.705  1.00  0.00     0.045 C 
ATOM      2  C   UNL     1      65.937  27.249  60.067  1.00  0.00    -0.039 A 
ATOM      3  C   UNL     1      64.655  26.832  60.435  1.00  0.00     0.013 A 
ATOM      4  C   UNL     1      63.632  27.754  60.748  1.00  0.00    -0.006 A 
ATOM      5  C   UNL     1      63.873  29.139  60.515  1.00  0.00     0.039 A 
ATOM      6  C   UNL     1      62.779  30.048  60.586  1.00  0.00     0.072 A 
ATOM      7  C   UNL     1      61.511  29.600  60.994  1.00  0.00     0.169 A 
ATOM      8  C   UNL     1      61.295  28.241  61.288  1.00  0.00     0.162 A 
ATOM      9  C   UNL     1      62.369  27.320  61.257  1.00  0.00     0.008 A 
ATOM     10  C   UNL     1      65.204  29.569  60.243  1.00  0.00     0.132 A 
ATOM     11  C   UNL     1      66.224  28.623  59.997  1.00  0.00     0.031 A 
ENDROOT
BRANCH  11  12
ATOM     12  C   UNL     1      67.586  29.084  59.618  1.00  0.00     0.031 A 
ATOM     13  C   UNL     1      67.879  29.401  58.272  1.00  0.00     0.132 A 
ATOM     14  C   UNL     1      68.591  29.166  60.593  1.00  0.00    -0.039 A 
ATOM     15  C   UNL     1      69.185  29.854  57.901  1.00  0.00     0.039 A 
ATOM     16  C   UNL     1      69.861  29.623  60.238  1.00  0.00     0.013 A 
ATOM     17  C   UNL     1      68.311  28.802  62.031  1.00  0.00     0.045 C 
ATOM     18  C   UNL     1      70.170  30.030  58.920  1.00  0.00    -0.006 A 
ATOM     19  C   UNL     1      69.551  30.101  56.542  1.00  0.00     0.072 A 
ATOM     20  C   UNL     1      71.452  30.574  58.599  1.00  0.00     0.008 A 
ATOM     21  C   UNL     1      70.867  30.495  56.228  1.00  0.00     0.169 A 
ATOM     22  C   UNL     1      71.809  30.701  57.241  1.00  0.00     0.162 A 
BRANCH  13  23
ATOM     23  O   UNL     1      66.875  29.257  57.306  1.00  0.00    -0.507 OA
ATOM     24  H   UNL     1      67.006  29.445  56.319  1.00  0.00     0.293 HD
ENDBRANCH  13  23
BRANCH  19  25
ATOM     25  C   UNL     1      68.595  29.928  55.429  1.00  0.00     0.264 C 
ATOM     26  O   UNL     1      68.643  28.904  54.695  1.00  0.00    -0.298 OA
ENDBRANCH  19  25
BRANCH  20  27
ATOM     27  C   UNL     1      72.460  30.983  59.690  1.00  0.00     0.017 C 
ATOM     28  C   UNL     1      71.901  32.114  60.561  1.00  0.00     0.012 C 
ATOM     29  C   UNL     1      72.956  29.806  60.556  1.00  0.00     0.012 C 
ENDBRANCH  20  27
BRANCH  21  30
ATOM     30  O   UNL     1      71.269  30.720  54.906  1.00  0.00    -0.504 OA
ATOM     31  H   UNL     1      71.630  30.003  54.290  1.00  0.00     0.293 HD
ENDBRANCH  21  30
BRANCH  22  32
ATOM     32  O   UNL     1      73.122  31.028  56.894  1.00  0.00    -0.504 OA
ATOM     33  H   UNL     1      73.861  31.150  57.574  1.00  0.00     0.293 HD
ENDBRANCH  22  32
ENDBRANCH  11  12
BRANCH  10  34
ATOM     34  O   UNL     1      65.515  30.935  60.254  1.00  0.00    -0.507 OA
ATOM     35  H   UNL     1      65.276  31.559  61.013  1.00  0.00     0.293 HD
ENDBRANCH  10  34
BRANCH   9  36
ATOM     36  C   UNL     1      62.153  25.878  61.750  1.00  0.00     0.017 C 
ATOM     37  C   UNL     1      61.397  25.051  60.707  1.00  0.00     0.012 C 
ATOM     38  C   UNL     1      61.487  25.787  63.136  1.00  0.00     0.012 C 
ENDBRANCH   9  36
BRANCH   6  39
ATOM     39  C   UNL     1      62.869  31.454  60.133  1.00  0.00     0.264 C 
ATOM     40  O   UNL     1      62.915  32.397  60.965  1.00  0.00    -0.298 OA
ENDBRANCH   6  39
BRANCH   8  41
ATOM     41  O   UNL     1      60.009  27.770  61.571  1.00  0.00    -0.504 OA
ATOM     42  H   UNL     1      59.156  28.243  61.315  1.00  0.00     0.293 HD
ENDBRANCH   8  41
BRANCH   7  43
ATOM     43  O   UNL     1      60.477  30.541  61.094  1.00  0.00    -0.504 OA
ATOM     44  H   UNL     1      60.593  31.480  61.443  1.00  0.00     0.293 HD
ENDBRANCH   7  43
TORSDOF 11
ENDMDL
MODEL 3
REMARK VINA RESULT:    -5.368      9.848     12.453
REMARK INTER + INTRA:          -9.087
REMARK INTER:                  -7.695
REMARK INTRA:                  -1.393
REMARK UNBOUND:                -1.208
REMARK SMILES Cc1cc2c(C(C)C)c(O)c(O)c(C=O)c2c(O)c1-c1c(C)cc2c(C(C)C)c(O)c(O)c(C=O)c2c1O
REMARK SMILES IDX 1 1 2 2 3 3 4 4 16 5 13 6 11 7 9 8 5 9 17 10 19 11 20 12
REMARK SMILES IDX 37 13 21 14 36 15 23 16 22 17 24 18 33 19 25 20 31 21 29 22
REMARK SMILES IDX 38 23 34 25 35 26 26 27 27 28 28 29 32 30 30 32 18 34 6 36
REMARK SMILES IDX 7 37 8 38 14 39 15 40 10 41 12 43
REMARK H PARENT 38 24 32 31 30 33 18 35 10 42 12 44
REMARK Flexibility Score: inf
ROOT
ATOM      1  C   UNL     1      68.623  28.893  61.884  1.00  0.00     0.045 C 
ATOM      2  C   UNL     1      68.864  29.118  60.409  1.00  0.00    -0.039 A 
ATOM      3  C   UNL     1      70.114  29.585  59.992  1.00  0.00     0.013 A 
ATOM      4  C   UNL     1      70.394  29.853  58.634  1.00  0.00    -0.006 A 
ATOM      5  C   UNL     1      69.321  29.807  57.698  1.00  0.00     0.039 A 
ATOM      6  C   UNL     1      69.533  30.314  56.384  1.00  0.00     0.072 A 
ATOM      7  C   UNL     1      70.811  30.743  55.988  1.00  0.00     0.169 A 
ATOM      8  C   UNL     1      71.885  30.723  56.898  1.00  0.00     0.162 A 
ATOM      9  C   UNL     1      71.712  30.196  58.199  1.00  0.00     0.008 A 
ATOM     10  C   UNL     1      68.081  29.233  58.101  1.00  0.00     0.132 A 
ATOM     11  C   UNL     1      67.849  28.914  59.458  1.00  0.00     0.031 A 
ENDROOT
BRANCH  11  12
ATOM     12  C   UNL     1      66.518  28.406  59.883  1.00  0.00     0.031 A 
ATOM     13  C   UNL     1      65.491  29.314  60.228  1.00  0.00     0.132 A 
ATOM     14  C   UNL     1      66.295  27.025  59.978  1.00  0.00    -0.039 A 
ATOM     15  C   UNL     1      64.203  28.833  60.630  1.00  0.00     0.039 A 
ATOM     16  C   UNL     1      65.037  26.553  60.354  1.00  0.00     0.013 A 
ATOM     17  C   UNL     1      67.387  26.036  59.646  1.00  0.00     0.045 C 
ATOM     18  C   UNL     1      63.959  27.426  60.625  1.00  0.00    -0.006 A 
ATOM     19  C   UNL     1      63.164  29.710  61.071  1.00  0.00     0.072 A 
ATOM     20  C   UNL     1      62.658  26.917  60.925  1.00  0.00     0.008 A 
ATOM     21  C   UNL     1      61.933  29.178  61.506  1.00  0.00     0.169 A 
ATOM     22  C   UNL     1      61.696  27.800  61.458  1.00  0.00     0.162 A 
BRANCH  13  23
ATOM     23  O   UNL     1      65.753  30.688  60.181  1.00  0.00    -0.507 OA
ATOM     24  H   UNL     1      66.093  31.229  60.966  1.00  0.00     0.293 HD
ENDBRANCH  13  23
BRANCH  19  25
ATOM     25  C   UNL     1      63.343  31.175  61.120  1.00  0.00     0.264 C 
ATOM     26  O   UNL     1      62.838  31.913  60.232  1.00  0.00    -0.298 OA
ENDBRANCH  19  25
BRANCH  20  27
ATOM     27  C   UNL     1      62.295  25.435  60.719  1.00  0.00     0.017 C 
ATOM     28  C   UNL     1      62.489  25.017  59.257  1.00  0.00     0.012 C 
ATOM     29  C   UNL     1      63.029  24.473  61.676  1.00  0.00     0.012 C 
ENDBRANCH  20  27
BRANCH  21  30
ATOM     30  O   UNL     1      60.902  30.003  61.971  1.00  0.00    -0.504 OA
ATOM     31  H   UNL     1      60.978  30.609  62.778  1.00  0.00     0.293 HD
ENDBRANCH  21  30
BRANCH  22  32
ATOM     32  O   UNL     1      60.491  27.299  61.956  1.00  0.00    -0.504 OA
ATOM     33  H   UNL     1      59.598  27.751  61.806  1.00  0.00     0.293 HD
ENDBRANCH  22  32
ENDBRANCH  11  12
BRANCH  10  34
ATOM     34  O   UNL     1      67.096  28.949  57.146  1.00  0.00    -0.507 OA
ATOM     35  H   UNL     1      66.887  28.016  56.816  1.00  0.00     0.293 HD
ENDBRANCH  10  34
BRANCH   9  36
ATOM     36  C   UNL     1      72.933  30.020  59.120  1.00  0.00     0.017 C 
ATOM     37  C   UNL     1      73.125  28.549  59.499  1.00  0.00     0.012 C 
ATOM     38  C   UNL     1      72.909  30.925  60.365  1.00  0.00     0.012 C 
ENDBRANCH   9  36
BRANCH   6  39
ATOM     39  C   UNL     1      68.434  30.532  55.417  1.00  0.00     0.264 C 
ATOM     40  O   UNL     1      68.266  29.750  54.445  1.00  0.00    -0.298 OA
ENDBRANCH   6  39
BRANCH   8  41
ATOM     41  O   UNL     1      73.125  31.265  56.547  1.00  0.00    -0.504 OA
ATOM     42  H   UNL     1      73.765  31.698  57.196  1.00  0.00     0.293 HD
ENDBRANCH   8  41
BRANCH   7  43
ATOM     43  O   UNL     1      70.981  31.189  54.670  1.00  0.00    -0.504 OA
ATOM     44  H   UNL     1      71.746  31.768  54.358  1.00  0.00     0.293 HD
ENDBRANCH   7  43
TORSDOF 11
ENDMDL
MODEL 4
REMARK VINA RESULT:    -5.294      0.621      8.929
REMARK INTER + INTRA:          -8.978
REMARK INTER:                  -7.597
REMARK INTRA:                  -1.382
REMARK UNBOUND:                -1.208
REMARK SMILES Cc1cc2c(C(C)C)c(O)c(O)c(C=O)c2c(O)c1-c1c(C)cc2c(C(C)C)c(O)c(O)c(C=O)c2c1O
REMARK SMILES IDX 1 1 2 2 3 3 4 4 16 5 13 6 11 7 9 8 5 9 17 10 19 11 20 12
REMARK SMILES IDX 37 13 21 14 36 15 23 16 22 17 24 18 33 19 25 20 31 21 29 22
REMARK SMILES IDX 38 23 34 25 35 26 26 27 27 28 28 29 32 30 30 32 18 34 6 36
REMARK SMILES IDX 7 37 8 38 14 39 15 40 10 41 12 43
REMARK H PARENT 38 24 32 31 30 33 18 35 10 42 12 44
REMARK Flexibility Score: inf
ROOT
ATOM      1  C   UNL     1      60.714  21.747  48.999  1.00  0.00     0.045 C 
ATOM      2  C   UNL     1      60.367  21.494  50.448  1.00  0.00    -0.039 A 
ATOM      3  C   UNL     1      59.820  20.258  50.806  1.00  0.00     0.013 A 
ATOM      4  C   UNL     1      59.437  19.969  52.134  1.00  0.00    -0.006 A 
ATOM      5  C   UNL     1      59.455  21.024  53.091  1.00  0.00     0.039 A 
ATOM      6  C   UNL     1      58.841  20.814  54.358  1.00  0.00     0.072 A 
ATOM      7  C   UNL     1      58.332  19.549  54.697  1.00  0.00     0.169 A 
ATOM      8  C   UNL     1      58.378  18.490  53.772  1.00  0.00     0.162 A 
ATOM      9  C   UNL     1      59.010  18.660  52.518  1.00  0.00     0.008 A 
ATOM     10  C   UNL     1      60.108  22.246  52.754  1.00  0.00     0.132 A 
ATOM     11  C   UNL     1      60.539  22.484  51.430  1.00  0.00     0.031 A 
ENDROOT
BRANCH  11  12
ATOM     12  C   UNL     1      61.130  23.800  51.069  1.00  0.00     0.031 A 
ATOM     13  C   UNL     1      60.291  24.888  50.739  1.00  0.00     0.132 A 
ATOM     14  C   UNL     1      62.524  23.948  51.018  1.00  0.00    -0.039 A 
ATOM     15  C   UNL     1      60.852  26.160  50.399  1.00  0.00     0.039 A 
ATOM     16  C   UNL     1      63.075  25.191  50.703  1.00  0.00     0.013 A 
ATOM     17  C   UNL     1      63.441  22.791  51.335  1.00  0.00     0.045 C 
ATOM     18  C   UNL     1      62.270  26.325  50.450  1.00  0.00    -0.006 A 
ATOM     19  C   UNL     1      60.047  27.262  49.974  1.00  0.00     0.072 A 
ATOM     20  C   UNL     1      62.858  27.606  50.213  1.00  0.00     0.008 A 
ATOM     21  C   UNL     1      60.658  28.476  49.601  1.00  0.00     0.169 A 
ATOM     22  C   UNL     1      62.045  28.634  49.693  1.00  0.00     0.162 A 
BRANCH  13  23
ATOM     23  O   UNL     1      58.903  24.701  50.741  1.00  0.00    -0.507 OA
ATOM     24  H   UNL     1      58.235  25.412  51.011  1.00  0.00     0.293 HD
ENDBRANCH  13  23
BRANCH  19  25
ATOM     25  C   UNL     1      58.576  27.168  49.880  1.00  0.00     0.264 C 
ATOM     26  O   UNL     1      57.842  27.718  50.744  1.00  0.00    -0.298 OA
ENDBRANCH  19  25
BRANCH  20  27
ATOM     27  C   UNL     1      64.352  27.877  50.470  1.00  0.00     0.017 C 
ATOM     28  C   UNL     1      65.127  27.990  49.153  1.00  0.00     0.012 C 
ATOM     29  C   UNL     1      64.619  29.095  51.380  1.00  0.00     0.012 C 
ENDBRANCH  20  27
BRANCH  21  30
ATOM     30  O   UNL     1      59.904  29.568  49.153  1.00  0.00    -0.504 OA
ATOM     31  H   UNL     1      59.776  30.425  49.676  1.00  0.00     0.293 HD
ENDBRANCH  21  30
BRANCH  22  32
ATOM     32  O   UNL     1      62.625  29.827  49.254  1.00  0.00    -0.504 OA
ATOM     33  H   UNL     1      62.364  30.735  49.614  1.00  0.00     0.293 HD
ENDBRANCH  22  32
ENDBRANCH  11  12
BRANCH  10  34
ATOM     34  O   UNL     1      60.358  23.203  53.746  1.00  0.00    -0.507 OA
ATOM     35  H   UNL     1      60.813  24.089  53.570  1.00  0.00     0.293 HD
ENDBRANCH  10  34
BRANCH   9  36
ATOM     36  C   UNL     1      59.207  17.446  51.591  1.00  0.00     0.017 C 
ATOM     37  C   UNL     1      60.690  17.232  51.278  1.00  0.00     0.012 C 
ATOM     38  C   UNL     1      58.360  17.501  50.305  1.00  0.00     0.012 C 
ENDBRANCH   9  36
BRANCH   6  39
ATOM     39  C   UNL     1      58.594  21.906  55.325  1.00  0.00     0.264 C 
ATOM     40  O   UNL     1      59.306  22.028  56.356  1.00  0.00    -0.298 OA
ENDBRANCH   6  39
BRANCH   8  41
ATOM     41  O   UNL     1      57.762  17.268  54.058  1.00  0.00    -0.504 OA
ATOM     42  H   UNL     1      56.811  17.034  53.814  1.00  0.00     0.293 HD
ENDBRANCH   8  41
BRANCH   7  43
ATOM     43  O   UNL     1      57.780  19.378  55.974  1.00  0.00    -0.504 OA
ATOM     44  H   UNL     1      57.103  18.669  56.213  1.00  0.00     0.293 HD
ENDBRANCH   7  43
TORSDOF 11
ENDMDL
MODEL 5
REMARK VINA RESULT:    -5.278      3.375      7.436
REMARK INTER + INTRA:          -8.955
REMARK INTER:                  -7.618
REMARK INTRA:                  -1.337
REMARK UNBOUND:                -1.208
REMARK SMILES Cc1cc2c(C(C)C)c(O)c(O)c(C=O)c2c(O)c1-c1c(C)cc2c(C(C)C)c(O)c(O)c(C=O)c2c1O
REMARK SMILES IDX 1 1 2 2 3 3 4 4 16 5 13 6 11 7 9 8 5 9 17 10 19 11 20 12
REMARK SMILES IDX 37 13 21 14 36 15 23 16 22 17 24 18 33 19 25 20 31 21 29 22
REMARK SMILES IDX 38 23 34 25 35 26 26 27 27 28 28 29 32 30 30 32 18 34 6 36
REMARK SMILES IDX 7 37 8 38 14 39 15 40 10 41 12 43
REMARK H PARENT 38 24 32 31 30 33 18 35 10 42 12 44
REMARK Flexibility Score: inf
ROOT
ATOM      1  C   UNL     1      64.887  28.285  46.843  1.00  0.00     0.045 C 
ATOM      2  C   UNL     1      65.227  29.269  47.939  1.00  0.00    -0.039 A 
ATOM      3  C   UNL     1      66.097  30.325  47.652  1.00  0.00     0.013 A 
ATOM      4  C   UNL     1      66.488  31.258  48.639  1.00  0.00    -0.006 A 
ATOM      5  C   UNL     1      66.116  31.010  49.992  1.00  0.00     0.039 A 
ATOM      6  C   UNL     1      66.707  31.797  51.021  1.00  0.00     0.072 A 
ATOM      7  C   UNL     1      67.550  32.872  50.696  1.00  0.00     0.169 A 
ATOM      8  C   UNL     1      67.861  33.154  49.352  1.00  0.00     0.162 A 
ATOM      9  C   UNL     1      67.264  32.411  48.307  1.00  0.00     0.008 A 
ATOM     10  C   UNL     1      65.148  30.000  50.265  1.00  0.00     0.132 A 
ATOM     11  C   UNL     1      64.726  29.120  49.244  1.00  0.00     0.031 A 
ENDROOT
BRANCH  11  12
ATOM     12  C   UNL     1      63.790  28.009  49.562  1.00  0.00     0.031 A 
ATOM     13  C   UNL     1      62.396  28.240  49.579  1.00  0.00     0.132 A 
ATOM     14  C   UNL     1      64.296  26.741  49.883  1.00  0.00    -0.039 A 
ATOM     15  C   UNL     1      61.488  27.173  49.875  1.00  0.00     0.039 A 
ATOM     16  C   UNL     1      63.414  25.695  50.157  1.00  0.00     0.013 A 
ATOM     17  C   UNL     1      65.783  26.479  49.903  1.00  0.00     0.045 C 
ATOM     18  C   UNL     1      62.011  25.864  50.100  1.00  0.00    -0.006 A 
ATOM     19  C   UNL     1      60.078  27.379  49.990  1.00  0.00     0.072 A 
ATOM     20  C   UNL     1      61.129  24.757  50.301  1.00  0.00     0.008 A 
ATOM     21  C   UNL     1      59.236  26.303  50.336  1.00  0.00     0.169 A 
ATOM     22  C   UNL     1      59.759  25.019  50.515  1.00  0.00     0.162 A 
BRANCH  13  23
ATOM     23  O   UNL     1      61.916  29.528  49.311  1.00  0.00    -0.507 OA
ATOM     24  H   UNL     1      61.159  29.969  49.818  1.00  0.00     0.293 HD
ENDBRANCH  13  23
BRANCH  19  25
ATOM     25  C   UNL     1      59.461  28.706  49.786  1.00  0.00     0.264 C 
ATOM     26  O   UNL     1      58.946  29.010  48.677  1.00  0.00    -0.298 OA
ENDBRANCH  19  25
BRANCH  20  27
ATOM     27  C   UNL     1      61.637  23.304  50.330  1.00  0.00     0.017 C 
ATOM     28  C   UNL     1      61.594  22.732  51.751  1.00  0.00     0.012 C 
ATOM     29  C   UNL     1      60.921  22.371  49.331  1.00  0.00     0.012 C 
ENDBRANCH  20  27
BRANCH  21  30
ATOM     30  O   UNL     1      57.854  26.473  50.484  1.00  0.00    -0.504 OA
ATOM     31  H   UNL     1      57.264  25.876  51.049  1.00  0.00     0.293 HD
ENDBRANCH  21  30
BRANCH  22  32
ATOM     32  O   UNL     1      58.909  23.987  50.921  1.00  0.00    -0.504 OA
ATOM     33  H   UNL     1      57.900  24.047  50.866  1.00  0.00     0.293 HD
ENDBRANCH  22  32
ENDBRANCH  11  12
BRANCH  10  34
ATOM     34  O   UNL     1      64.582  29.899  51.543  1.00  0.00    -0.507 OA
ATOM     35  H   UNL     1      63.591  29.783  51.711  1.00  0.00     0.293 HD
ENDBRANCH  10  34
BRANCH   9  36
ATOM     36  C   UNL     1      67.476  32.843  46.845  1.00  0.00     0.017 C 
ATOM     37  C   UNL     1      68.929  32.625  46.415  1.00  0.00     0.012 C 
ATOM     38  C   UNL     1      67.009  34.280  46.547  1.00  0.00     0.012 C 
ENDBRANCH   9  36
BRANCH   6  39
ATOM     39  C   UNL     1      66.576  31.471  52.459  1.00  0.00     0.264 C 
ATOM     40  O   UNL     1      65.815  32.140  53.205  1.00  0.00    -0.298 OA
ENDBRANCH   6  39
BRANCH   8  41
ATOM     41  O   UNL     1      68.796  34.142  49.031  1.00  0.00    -0.504 OA
ATOM     42  H   UNL     1      68.878  35.030  49.504  1.00  0.00     0.293 HD
ENDBRANCH   8  41
BRANCH   7  43
ATOM     43  O   UNL     1      68.070  33.646  51.743  1.00  0.00    -0.504 OA
ATOM     44  H   UNL     1      67.665  33.703  52.665  1.00  0.00     0.293 HD
ENDBRANCH   7  43
TORSDOF 11
ENDMDL
MODEL 6
REMARK VINA RESULT:    -5.091      5.896      7.620
REMARK INTER + INTRA:          -8.680
REMARK INTER:                  -7.585
REMARK INTRA:                  -1.095
REMARK UNBOUND:                -1.208
REMARK SMILES Cc1cc2c(C(C)C)c(O)c(O)c(C=O)c2c(O)c1-c1c(C)cc2c(C(C)C)c(O)c(O)c(C=O)c2c1O
REMARK SMILES IDX 1 1 2 2 3 3 4 4 16 5 13 6 11 7 9 8 5 9 17 10 19 11 20 12
REMARK SMILES IDX 37 13 21 14 36 15 23 16 22 17 24 18 33 19 25 20 31 21 29 22
REMARK SMILES IDX 38 23 34 25 35 26 26 27 27 28 28 29 32 30 30 32 18 34 6 36
REMARK SMILES IDX 7 37 8 38 14 39 15 40 10 41 12 43
REMARK H PARENT 38 24 32 31 30 33 18 35 10 42 12 44
REMARK Flexibility Score: inf
ROOT
ATOM      1  C   UNL     1      61.011  26.726  52.664  1.00  0.00     0.045 C 
ATOM      2  C   UNL     1      61.614  27.709  51.687  1.00  0.00    -0.039 A 
ATOM      3  C   UNL     1      63.003  27.745  51.536  1.00  0.00     0.013 A 
ATOM      4  C   UNL     1      63.634  28.665  50.669  1.00  0.00    -0.006 A 
ATOM      5  C   UNL     1      62.842  29.686  50.070  1.00  0.00     0.039 A 
ATOM      6  C   UNL     1      63.497  30.759  49.401  1.00  0.00     0.072 A 
ATOM      7  C   UNL     1      64.892  30.746  49.237  1.00  0.00     0.169 A 
ATOM      8  C   UNL     1      65.664  29.699  49.774  1.00  0.00     0.162 A 
ATOM      9  C   UNL     1      65.040  28.603  50.415  1.00  0.00     0.008 A 
ATOM     10  C   UNL     1      61.422  29.585  50.139  1.00  0.00     0.132 A 
ATOM     11  C   UNL     1      60.815  28.613  50.965  1.00  0.00     0.031 A 
ENDROOT
BRANCH  11  12
ATOM     12  C   UNL     1      59.335  28.580  51.106  1.00  0.00     0.031 A 
ATOM     13  C   UNL     1      58.690  29.446  52.017  1.00  0.00     0.132 A 
ATOM     14  C   UNL     1      58.584  27.660  50.360  1.00  0.00    -0.039 A 
ATOM     15  C   UNL     1      57.265  29.427  52.151  1.00  0.00     0.039 A 
ATOM     16  C   UNL     1      57.193  27.648  50.476  1.00  0.00     0.013 A 
ATOM     17  C   UNL     1      59.254  26.702  49.404  1.00  0.00     0.045 C 
ATOM     18  C   UNL     1      56.504  28.556  51.312  1.00  0.00    -0.006 A 
ATOM     19  C   UNL     1      56.577  30.221  53.120  1.00  0.00     0.072 A 
ATOM     20  C   UNL     1      55.076  28.582  51.350  1.00  0.00     0.008 A 
ATOM     21  C   UNL     1      55.177  30.123  53.244  1.00  0.00     0.169 A 
ATOM     22  C   UNL     1      54.442  29.294  52.390  1.00  0.00     0.162 A 
BRANCH  13  23
ATOM     23  O   UNL     1      59.465  30.318  52.792  1.00  0.00    -0.507 OA
ATOM     24  H   UNL     1      59.512  31.318  52.647  1.00  0.00     0.293 HD
ENDBRANCH  13  23
BRANCH  19  25
ATOM     25  C   UNL     1      57.292  31.135  54.035  1.00  0.00     0.264 C 
ATOM     26  O   UNL     1      57.296  32.378  53.826  1.00  0.00    -0.298 OA
ENDBRANCH  19  25
BRANCH  20  27
ATOM     27  C   UNL     1      54.219  27.825  50.318  1.00  0.00     0.017 C 
ATOM     28  C   UNL     1      53.803  26.449  50.849  1.00  0.00     0.012 C 
ATOM     29  C   UNL     1      52.997  28.622  49.815  1.00  0.00     0.012 C 
ENDBRANCH  20  27
BRANCH  21  30
ATOM     30  O   UNL     1      54.473  30.865  54.201  1.00  0.00    -0.504 OA
ATOM     31  H   UNL     1      54.870  31.623  54.739  1.00  0.00     0.293 HD
ENDBRANCH  21  30
BRANCH  22  32
ATOM     32  O   UNL     1      53.064  29.170  52.580  1.00  0.00    -0.504 OA
ATOM     33  H   UNL     1      52.631  28.342  52.969  1.00  0.00     0.293 HD
ENDBRANCH  22  32
ENDBRANCH  11  12
BRANCH  10  34
ATOM     34  O   UNL     1      60.621  30.428  49.358  1.00  0.00    -0.507 OA
ATOM     35  H   UNL     1      59.973  31.103  49.744  1.00  0.00     0.293 HD
ENDBRANCH  10  34
BRANCH   9  36
ATOM     36  C   UNL     1      65.881  27.385  50.839  1.00  0.00     0.017 C 
ATOM     37  C   UNL     1      65.384  26.111  50.152  1.00  0.00     0.012 C 
ATOM     38  C   UNL     1      65.984  27.202  52.365  1.00  0.00     0.012 C 
ENDBRANCH   9  36
BRANCH   6  39
ATOM     39  C   UNL     1      62.791  31.981  48.956  1.00  0.00     0.264 C 
ATOM     40  O   UNL     1      62.970  33.079  49.544  1.00  0.00    -0.298 OA
ENDBRANCH   6  39
BRANCH   8  41
ATOM     41  O   UNL     1      67.060  29.745  49.722  1.00  0.00    -0.504 OA
ATOM     42  H   UNL     1      67.592  30.291  49.060  1.00  0.00     0.293 HD
ENDBRANCH   8  41
BRANCH   7  43
ATOM     43  O   UNL     1      65.486  31.802  48.531  1.00  0.00    -0.504 OA
ATOM     44  H   UNL     1      65.317  32.779  48.717  1.00  0.00     0.293 HD
ENDBRANCH   7  43
TORSDOF 11
ENDMDL
MODEL 7
REMARK VINA RESULT:    -5.070      5.283      9.704
REMARK INTER + INTRA:          -8.649
REMARK INTER:                  -7.264
REMARK INTRA:                  -1.385
REMARK UNBOUND:                -1.208
REMARK SMILES Cc1cc2c(C(C)C)c(O)c(O)c(C=O)c2c(O)c1-c1c(C)cc2c(C(C)C)c(O)c(O)c(C=O)c2c1O
REMARK SMILES IDX 1 1 2 2 3 3 4 4 16 5 13 6 11 7 9 8 5 9 17 10 19 11 20 12
REMARK SMILES IDX 37 13 21 14 36 15 23 16 22 17 24 18 33 19 25 20 31 21 29 22
REMARK SMILES IDX 38 23 34 25 35 26 26 27 27 28 28 29 32 30 30 32 18 34 6 36
REMARK SMILES IDX 7 37 8 38 14 39 15 40 10 41 12 43
REMARK H PARENT 38 24 32 31 30 33 18 35 10 42 12 44
REMARK Flexibility Score: inf
ROOT
ATOM      1  C   UNL     1      58.805  29.288  48.526  1.00  0.00     0.045 C 
ATOM      2  C   UNL     1      58.606  28.874  49.965  1.00  0.00    -0.039 A 
ATOM      3  C   UNL     1      57.310  28.843  50.487  1.00  0.00     0.013 A 
ATOM      4  C   UNL     1      57.056  28.502  51.834  1.00  0.00    -0.006 A 
ATOM      5  C   UNL     1      58.165  28.354  52.717  1.00  0.00     0.039 A 
ATOM      6  C   UNL     1      57.920  28.259  54.116  1.00  0.00     0.072 A 
ATOM      7  C   UNL     1      56.604  28.196  54.603  1.00  0.00     0.169 A 
ATOM      8  C   UNL     1      55.512  28.275  53.719  1.00  0.00     0.162 A 
ATOM      9  C   UNL     1      55.723  28.338  52.322  1.00  0.00     0.008 A 
ATOM     10  C   UNL     1      59.477  28.281  52.166  1.00  0.00     0.132 A 
ATOM     11  C   UNL     1      59.695  28.564  50.799  1.00  0.00     0.031 A 
ENDROOT
BRANCH  11  12
ATOM     12  C   UNL     1      61.080  28.581  50.257  1.00  0.00     0.031 A 
ATOM     13  C   UNL     1      61.803  29.794  50.197  1.00  0.00     0.132 A 
ATOM     14  C   UNL     1      61.652  27.397  49.770  1.00  0.00    -0.039 A 
ATOM     15  C   UNL     1      63.140  29.816  49.685  1.00  0.00     0.039 A 
ATOM     16  C   UNL     1      62.961  27.412  49.285  1.00  0.00     0.013 A 
ATOM     17  C   UNL     1      60.888  26.095  49.795  1.00  0.00     0.045 C 
ATOM     18  C   UNL     1      63.747  28.587  49.287  1.00  0.00    -0.006 A 
ATOM     19  C   UNL     1      63.876  31.031  49.523  1.00  0.00     0.072 A 
ATOM     20  C   UNL     1      65.112  28.559  48.864  1.00  0.00     0.008 A 
ATOM     21  C   UNL     1      65.169  30.999  48.964  1.00  0.00     0.169 A 
ATOM     22  C   UNL     1      65.766  29.783  48.615  1.00  0.00     0.162 A 
BRANCH  13  23
ATOM     23  O   UNL     1      61.190  30.974  50.636  1.00  0.00    -0.507 OA
ATOM     24  H   UNL     1      61.263  31.863  50.158  1.00  0.00     0.293 HD
ENDBRANCH  13  23
BRANCH  19  25
ATOM     25  C   UNL     1      63.313  32.344  49.896  1.00  0.00     0.264 C 
ATOM     26  O   UNL     1      62.830  33.108  49.018  1.00  0.00    -0.298 OA
ENDBRANCH  19  25
BRANCH  20  27
ATOM     27  C   UNL     1      65.868  27.236  48.637  1.00  0.00     0.017 C 
ATOM     28  C   UNL     1      66.173  27.023  47.150  1.00  0.00     0.012 C 
ATOM     29  C   UNL     1      67.143  27.089  49.494  1.00  0.00     0.012 C 
ENDBRANCH  20  27
BRANCH  21  30
ATOM     30  O   UNL     1      65.909  32.172  48.765  1.00  0.00    -0.504 OA
ATOM     31  H   UNL     1      65.737  32.834  48.021  1.00  0.00     0.293 HD
ENDBRANCH  21  30
BRANCH  22  32
ATOM     32  O   UNL     1      67.022  29.791  48.005  1.00  0.00    -0.504 OA
ATOM     33  H   UNL     1      67.890  29.794  48.523  1.00  0.00     0.293 HD
ENDBRANCH  22  32
ENDBRANCH  11  12
BRANCH  10  34
ATOM     34  O   UNL     1      60.555  27.892  52.972  1.00  0.00    -0.507 OA
ATOM     35  H   UNL     1      60.809  28.358  53.833  1.00  0.00     0.293 HD
ENDBRANCH  10  34
BRANCH   9  36
ATOM     36  C   UNL     1      54.522  28.247  51.363  1.00  0.00     0.017 C 
ATOM     37  C   UNL     1      54.709  27.106  50.359  1.00  0.00     0.012 C 
ATOM     38  C   UNL     1      54.188  29.573  50.656  1.00  0.00     0.012 C 
ENDBRANCH   9  36
BRANCH   6  39
ATOM     39  C   UNL     1      58.996  28.342  55.129  1.00  0.00     0.264 C 
ATOM     40  O   UNL     1      59.394  27.312  55.733  1.00  0.00    -0.298 OA
ENDBRANCH   6  39
BRANCH   8  41
ATOM     41  O   UNL     1      54.204  28.339  54.208  1.00  0.00    -0.504 OA
ATOM     42  H   UNL     1      53.691  29.194  54.364  1.00  0.00     0.293 HD
ENDBRANCH   8  41
BRANCH   7  43
ATOM     43  O   UNL     1      56.415  28.056  55.985  1.00  0.00    -0.504 OA
ATOM     44  H   UNL     1      55.749  27.428  56.409  1.00  0.00     0.293 HD
ENDBRANCH   7  43
TORSDOF 11
ENDMDL
MODEL 8
REMARK VINA RESULT:    -5.054      9.177     13.960
REMARK INTER + INTRA:          -8.625
REMARK INTER:                  -7.477
REMARK INTRA:                  -1.149
REMARK UNBOUND:                -1.208
REMARK SMILES Cc1cc2c(C(C)C)c(O)c(O)c(C=O)c2c(O)c1-c1c(C)cc2c(C(C)C)c(O)c(O)c(C=O)c2c1O
REMARK SMILES IDX 1 1 2 2 3 3 4 4 16 5 13 6 11 7 9 8 5 9 17 10 19 11 20 12
REMARK SMILES IDX 37 13 21 14 36 15 23 16 22 17 24 18 33 19 25 20 31 21 29 22
REMARK SMILES IDX 38 23 34 25 35 26 26 27 27 28 28 29 32 30 30 32 18 34 6 36
REMARK SMILES IDX 7 37 8 38 14 39 15 40 10 41 12 43
REMARK H PARENT 38 24 32 31 30 33 18 35 10 42 12 44
REMARK Flexibility Score: inf
ROOT
ATOM      1  C   UNL     1      62.525  28.246  58.511  1.00  0.00     0.045 C 
ATOM      2  C   UNL     1      61.454  27.810  59.483  1.00  0.00    -0.039 A 
ATOM      3  C   UNL     1      61.235  26.443  59.679  1.00  0.00     0.013 A 
ATOM      4  C   UNL     1      60.225  25.966  60.544  1.00  0.00    -0.006 A 
ATOM      5  C   UNL     1      59.304  26.904  61.093  1.00  0.00     0.039 A 
ATOM      6  C   UNL     1      58.143  26.417  61.758  1.00  0.00     0.072 A 
ATOM      7  C   UNL     1      57.972  25.038  61.967  1.00  0.00     0.169 A 
ATOM      8  C   UNL     1      58.920  24.120  61.480  1.00  0.00     0.162 A 
ATOM      9  C   UNL     1      60.099  24.575  60.844  1.00  0.00     0.008 A 
ATOM     10  C   UNL     1      59.590  28.296  60.981  1.00  0.00     0.132 A 
ATOM     11  C   UNL     1      60.648  28.743  60.158  1.00  0.00     0.031 A 
ENDROOT
BRANCH  11  12
ATOM     12  C   UNL     1      60.876  30.201  59.971  1.00  0.00     0.031 A 
ATOM     13  C   UNL     1      60.163  30.908  58.976  1.00  0.00     0.132 A 
ATOM     14  C   UNL     1      61.827  30.865  60.759  1.00  0.00    -0.039 A 
ATOM     15  C   UNL     1      60.370  32.313  58.796  1.00  0.00     0.039 A 
ATOM     16  C   UNL     1      62.020  32.238  60.597  1.00  0.00     0.013 A 
ATOM     17  C   UNL     1      62.624  30.125  61.806  1.00  0.00     0.045 C 
ATOM     18  C   UNL     1      61.267  32.996  59.672  1.00  0.00    -0.006 A 
ATOM     19  C   UNL     1      59.739  33.050  57.746  1.00  0.00     0.072 A 
ATOM     20  C   UNL     1      61.423  34.414  59.584  1.00  0.00     0.008 A 
ATOM     21  C   UNL     1      60.020  34.421  57.583  1.00  0.00     0.169 A 
ATOM     22  C   UNL     1      60.870  35.085  58.473  1.00  0.00     0.162 A 
BRANCH  13  23
ATOM     23  O   UNL     1      59.259  30.212  58.163  1.00  0.00    -0.507 OA
ATOM     24  H   UNL     1      59.519  29.453  57.546  1.00  0.00     0.293 HD
ENDBRANCH  13  23
BRANCH  19  25
ATOM     25  C   UNL     1      58.810  32.413  56.790  1.00  0.00     0.264 C 
ATOM     26  O   UNL     1      57.564  32.570  56.905  1.00  0.00    -0.298 OA
ENDBRANCH  19  25
BRANCH  20  27
ATOM     27  C   UNL     1      62.205  35.215  60.641  1.00  0.00     0.017 C 
ATOM     28  C   UNL     1      63.666  35.407  60.218  1.00  0.00     0.012 C 
ATOM     29  C   UNL     1      61.552  36.562  61.015  1.00  0.00     0.012 C 
ENDBRANCH  20  27
BRANCH  21  30
ATOM     30  O   UNL     1      59.441  35.169  56.550  1.00  0.00    -0.504 OA
ATOM     31  H   UNL     1      59.365  34.853  55.592  1.00  0.00     0.293 HD
ENDBRANCH  21  30
BRANCH  22  32
ATOM     32  O   UNL     1      61.180  36.428  58.246  1.00  0.00    -0.504 OA
ATOM     33  H   UNL     1      61.916  36.918  58.737  1.00  0.00     0.293 HD
ENDBRANCH  22  32
ENDBRANCH  11  12
BRANCH  10  34
ATOM     34  O   UNL     1      58.844  29.226  61.715  1.00  0.00    -0.507 OA
ATOM     35  H   UNL     1      58.213  29.897  61.296  1.00  0.00     0.293 HD
ENDBRANCH  10  34
BRANCH   9  36
ATOM     36  C   UNL     1      61.205  23.569  60.476  1.00  0.00     0.017 C 
ATOM     37  C   UNL     1      60.761  22.667  59.321  1.00  0.00     0.012 C 
ATOM     38  C   UNL     1      61.721  22.746  61.671  1.00  0.00     0.012 C 
ENDBRANCH   9  36
BRANCH   6  39
ATOM     39  C   UNL     1      57.014  27.290  62.151  1.00  0.00     0.264 C 
ATOM     40  O   UNL     1      55.896  27.192  61.584  1.00  0.00    -0.298 OA
ENDBRANCH   6  39
BRANCH   8  41
ATOM     41  O   UNL     1      58.692  22.744  61.575  1.00  0.00    -0.504 OA
ATOM     42  H   UNL     1      58.254  22.184  60.858  1.00  0.00     0.293 HD
ENDBRANCH   8  41
BRANCH   7  43
ATOM     43  O   UNL     1      56.835  24.611  62.667  1.00  0.00    -0.504 OA
ATOM     44  H   UNL     1      56.252  23.835  62.390  1.00  0.00     0.293 HD
ENDBRANCH   7  43
TORSDOF 11
ENDMDL
MODEL 9
REMARK VINA RESULT:    -5.016      9.291     11.275
REMARK INTER + INTRA:          -8.571
REMARK INTER:                  -7.249
REMARK INTRA:                  -1.322
REMARK UNBOUND:                -1.208
REMARK SMILES Cc1cc2c(C(C)C)c(O)c(O)c(C=O)c2c(O)c1-c1c(C)cc2c(C(C)C)c(O)c(O)c(C=O)c2c1O
REMARK SMILES IDX 1 1 2 2 3 3 4 4 16 5 13 6 11 7 9 8 5 9 17 10 19 11 20 12
REMARK SMILES IDX 37 13 21 14 36 15 23 16 22 17 24 18 33 19 25 20 31 21 29 22
REMARK SMILES IDX 38 23 34 25 35 26 26 27 27 28 28 29 32 30 30 32 18 34 6 36
REMARK SMILES IDX 7 37 8 38 14 39 15 40 10 41 12 43
REMARK H PARENT 38 24 32 31 30 33 18 35 10 42 12 44
REMARK Flexibility Score: inf
ROOT
ATOM      1  C   UNL     1      60.705  31.384  62.465  1.00  0.00     0.045 C 
ATOM      2  C   UNL     1      61.239  31.589  61.067  1.00  0.00    -0.039 A 
ATOM      3  C   UNL     1      61.434  32.893  60.602  1.00  0.00     0.013 A 
ATOM      4  C   UNL     1      61.893  33.157  59.293  1.00  0.00    -0.006 A 
ATOM      5  C   UNL     1      61.995  32.071  58.377  1.00  0.00     0.039 A 
ATOM      6  C   UNL     1      62.213  32.352  56.998  1.00  0.00     0.072 A 
ATOM      7  C   UNL     1      62.439  33.671  56.572  1.00  0.00     0.169 A 
ATOM      8  C   UNL     1      62.404  34.735  57.492  1.00  0.00     0.162 A 
ATOM      9  C   UNL     1      62.222  34.483  58.873  1.00  0.00     0.008 A 
ATOM     10  C   UNL     1      61.899  30.739  58.877  1.00  0.00     0.132 A 
ATOM     11  C   UNL     1      61.499  30.504  60.211  1.00  0.00     0.031 A 
ENDROOT
BRANCH  11  12
ATOM     12  C   UNL     1      61.308  29.110  60.694  1.00  0.00     0.031 A 
ATOM     13  C   UNL     1      60.020  28.529  60.688  1.00  0.00     0.132 A 
ATOM     14  C   UNL     1      62.403  28.388  61.189  1.00  0.00    -0.039 A 
ATOM     15  C   UNL     1      59.830  27.184  61.142  1.00  0.00     0.039 A 
ATOM     16  C   UNL     1      62.224  27.072  61.618  1.00  0.00     0.013 A 
ATOM     17  C   UNL     1      63.783  28.999  61.235  1.00  0.00     0.045 C 
ATOM     18  C   UNL     1      60.969  26.426  61.549  1.00  0.00    -0.006 A 
ATOM     19  C   UNL     1      58.535  26.586  61.237  1.00  0.00     0.072 A 
ATOM     20  C   UNL     1      60.828  25.051  61.914  1.00  0.00     0.008 A 
ATOM     21  C   UNL     1      58.401  25.277  61.741  1.00  0.00     0.169 A 
ATOM     22  C   UNL     1      59.530  24.532  62.100  1.00  0.00     0.162 A 
BRANCH  13  23
ATOM     23  O   UNL     1      58.932  29.289  60.242  1.00  0.00    -0.507 OA
ATOM     24  H   UNL     1      58.190  29.625  60.842  1.00  0.00     0.293 HD
ENDBRANCH  13  23
BRANCH  19  25
ATOM     25  C   UNL     1      57.307  27.309  60.850  1.00  0.00     0.264 C 
ATOM     26  O   UNL     1      56.575  27.845  61.726  1.00  0.00    -0.298 OA
ENDBRANCH  19  25
BRANCH  20  27
ATOM     27  C   UNL     1      62.049  24.141  62.147  1.00  0.00     0.017 C 
ATOM     28  C   UNL     1      62.263  23.876  63.642  1.00  0.00     0.012 C 
ATOM     29  C   UNL     1      62.007  22.822  61.348  1.00  0.00     0.012 C 
ENDBRANCH  20  27
BRANCH  21  30
ATOM     30  O   UNL     1      57.147  24.668  61.875  1.00  0.00    -0.504 OA
ATOM     31  H   UNL     1      56.609  24.296  61.103  1.00  0.00     0.293 HD
ENDBRANCH  21  30
BRANCH  22  32
ATOM     32  O   UNL     1      59.360  23.262  62.656  1.00  0.00    -0.504 OA
ATOM     33  H   UNL     1      58.453  22.842  62.812  1.00  0.00     0.293 HD
ENDBRANCH  22  32
ENDBRANCH  11  12
BRANCH  10  34
ATOM     34  O   UNL     1      62.237  29.656  58.055  1.00  0.00    -0.507 OA
ATOM     35  H   UNL     1      63.069  29.093  58.181  1.00  0.00     0.293 HD
ENDBRANCH  10  34
BRANCH   9  36
ATOM     36  C   UNL     1      62.362  35.636  59.884  1.00  0.00     0.017 C 
ATOM     37  C   UNL     1      63.424  35.313  60.937  1.00  0.00     0.012 C 
ATOM     38  C   UNL     1      61.031  36.058  60.534  1.00  0.00     0.012 C 
ENDBRANCH   9  36
BRANCH   6  39
ATOM     39  C   UNL     1      62.097  31.325  55.939  1.00  0.00     0.264 C 
ATOM     40  O   UNL     1      63.124  30.847  55.390  1.00  0.00    -0.298 OA
ENDBRANCH   6  39
BRANCH   8  41
ATOM     41  O   UNL     1      62.504  36.059  57.054  1.00  0.00    -0.504 OA
ATOM     42  H   UNL     1      63.092  36.368  56.294  1.00  0.00     0.293 HD
ENDBRANCH   8  41
BRANCH   7  43
ATOM     43  O   UNL     1      62.696  33.892  55.211  1.00  0.00    -0.504 OA
ATOM     44  H   UNL     1      62.188  33.455  54.457  1.00  0.00     0.293 HD
ENDBRANCH   7  43
TORSDOF 11
ENDMDL
