MODEL 1
REMARK VINA RESULT:    -4.915      0.000      0.000
REMARK INTER + INTRA:          -4.915
REMARK INTER:                  -4.915
REMARK INTRA:                   0.000
REMARK UNBOUND:                 0.000
REMARK SMILES C=C1c2ccccc2-c2ccccc21
REMARK SMILES IDX 1 1 2 2 3 3 4 4 5 5 6 6 7 7 8 8 9 9 10 10 11 11 12 12 13 13
REMARK SMILES IDX 14 14
REMARK H PARENT
REMARK Flexibility Score: inf
ROOT
ATOM      1  C   UNL     1      31.699  11.101  23.728  1.00  0.00     0.018 C 
ATOM      2  C   UNL     1      32.498  10.382  22.940  1.00  0.00    -0.017 C 
ATOM      3  C   UNL     1      33.913  10.633  22.638  1.00  0.00    -0.010 A 
ATOM      4  C   UNL     1      34.761  11.650  23.082  1.00  0.00     0.009 A 
ATOM      5  C   UNL     1      36.092  11.653  22.630  1.00  0.00     0.001 A 
ATOM      6  C   UNL     1      36.551  10.652  21.752  1.00  0.00     0.001 A 
ATOM      7  C   UNL     1      35.685   9.634  21.316  1.00  0.00     0.009 A 
ATOM      8  C   UNL     1      34.368   9.650  21.775  1.00  0.00    -0.010 A 
ATOM      9  C   UNL     1      33.266   8.736  21.493  1.00  0.00    -0.010 A 
ATOM     10  C   UNL     1      33.228   7.598  20.687  1.00  0.00     0.009 A 
ATOM     11  C   UNL     1      32.017   6.893  20.591  1.00  0.00     0.001 A 
ATOM     12  C   UNL     1      30.876   7.331  21.295  1.00  0.00     0.001 A 
ATOM     13  C   UNL     1      30.936   8.480  22.102  1.00  0.00     0.009 A 
ATOM     14  C   UNL     1      32.148   9.170  22.186  1.00  0.00    -0.010 A 
ENDROOT
TORSDOF 0
ENDMDL
MODEL 2
REMARK VINA RESULT:    -4.859      0.128      4.269
REMARK INTER + INTRA:          -4.859
REMARK INTER:                  -4.859
REMARK INTRA:                   0.000
REMARK UNBOUND:                 0.000
REMARK SMILES C=C1c2ccccc2-c2ccccc21
REMARK SMILES IDX 1 1 2 2 3 3 4 4 5 5 6 6 7 7 8 8 9 9 10 10 11 11 12 12 13 13
REMARK SMILES IDX 14 14
REMARK H PARENT
REMARK Flexibility Score: inf
ROOT
ATOM      1  C   UNL     1      31.663  11.077  23.634  1.00  0.00     0.018 C 
ATOM      2  C   UNL     1      32.461  10.359  22.843  1.00  0.00    -0.017 C 
ATOM      3  C   UNL     1      32.123   9.127  22.119  1.00  0.00    -0.010 A 
ATOM      4  C   UNL     1      30.925   8.411  22.071  1.00  0.00     0.009 A 
ATOM      5  C   UNL     1      30.875   7.245  21.288  1.00  0.00     0.001 A 
ATOM      6  C   UNL     1      32.010   6.816  20.571  1.00  0.00     0.001 A 
ATOM      7  C   UNL     1      33.208   7.548  20.630  1.00  0.00     0.009 A 
ATOM      8  C   UNL     1      33.237   8.702  21.414  1.00  0.00    -0.010 A 
ATOM      9  C   UNL     1      34.324   9.643  21.658  1.00  0.00    -0.010 A 
ATOM     10  C   UNL     1      35.633   9.646  21.174  1.00  0.00     0.009 A 
ATOM     11  C   UNL     1      36.486  10.688  21.576  1.00  0.00     0.001 A 
ATOM     12  C   UNL     1      36.022  11.698  22.443  1.00  0.00     0.001 A 
ATOM     13  C   UNL     1      34.700  11.677  22.919  1.00  0.00     0.009 A 
ATOM     14  C   UNL     1      33.865  10.633  22.511  1.00  0.00    -0.010 A 
ENDROOT
TORSDOF 0
ENDMDL
MODEL 3
REMARK VINA RESULT:    -4.755      1.231      3.179
REMARK INTER + INTRA:          -4.755
REMARK INTER:                  -4.755
REMARK INTRA:                   0.000
REMARK UNBOUND:                 0.000
REMARK SMILES C=C1c2ccccc2-c2ccccc21
REMARK SMILES IDX 1 1 2 2 3 3 4 4 5 5 6 6 7 7 8 8 9 9 10 10 11 11 12 12 13 13
REMARK SMILES IDX 14 14
REMARK H PARENT
REMARK Flexibility Score: inf
ROOT
ATOM      1  C   UNL     1      35.503   8.525  20.418  1.00  0.00     0.018 C 
ATOM      2  C   UNL     1      34.252   8.523  20.876  1.00  0.00    -0.017 C 
ATOM      3  C   UNL     1      33.633   9.499  21.782  1.00  0.00    -0.010 A 
ATOM      4  C   UNL     1      34.173  10.642  22.378  1.00  0.00     0.009 A 
ATOM      5  C   UNL     1      33.347  11.411  23.216  1.00  0.00     0.001 A 
ATOM      6  C   UNL     1      32.009  11.031  23.445  1.00  0.00     0.001 A 
ATOM      7  C   UNL     1      31.482   9.879  22.837  1.00  0.00     0.009 A 
ATOM      8  C   UNL     1      32.318   9.130  22.009  1.00  0.00    -0.010 A 
ATOM      9  C   UNL     1      32.046   7.908  21.260  1.00  0.00    -0.010 A 
ATOM     10  C   UNL     1      30.875   7.154  21.167  1.00  0.00     0.009 A 
ATOM     11  C   UNL     1      30.889   6.003  20.363  1.00  0.00     0.001 A 
ATOM     12  C   UNL     1      32.060   5.628  19.671  1.00  0.00     0.001 A 
ATOM     13  C   UNL     1      33.228   6.401  19.778  1.00  0.00     0.009 A 
ATOM     14  C   UNL     1      33.198   7.543  20.583  1.00  0.00    -0.010 A 
ENDROOT
TORSDOF 0
ENDMDL
MODEL 4
REMARK VINA RESULT:    -4.754      1.230      4.904
REMARK INTER + INTRA:          -4.754
REMARK INTER:                  -4.754
REMARK INTRA:                   0.000
REMARK UNBOUND:                 0.000
REMARK SMILES C=C1c2ccccc2-c2ccccc21
REMARK SMILES IDX 1 1 2 2 3 3 4 4 5 5 6 6 7 7 8 8 9 9 10 10 11 11 12 12 13 13
REMARK SMILES IDX 14 14
REMARK H PARENT
REMARK Flexibility Score: inf
ROOT
ATOM      1  C   UNL     1      35.486   8.556  20.363  1.00  0.00     0.018 C 
ATOM      2  C   UNL     1      34.243   8.542  20.842  1.00  0.00    -0.017 C 
ATOM      3  C   UNL     1      33.187   7.564  20.551  1.00  0.00    -0.010 A 
ATOM      4  C   UNL     1      33.208   6.435  19.728  1.00  0.00     0.009 A 
ATOM      5  C   UNL     1      32.040   5.660  19.628  1.00  0.00     0.001 A 
ATOM      6  C   UNL     1      30.880   6.020  20.343  1.00  0.00     0.001 A 
ATOM      7  C   UNL     1      30.875   7.159  21.167  1.00  0.00     0.009 A 
ATOM      8  C   UNL     1      32.045   7.915  21.252  1.00  0.00    -0.010 A 
ATOM      9  C   UNL     1      32.326   9.125  22.016  1.00  0.00    -0.010 A 
ATOM     10  C   UNL     1      31.501   9.860  22.868  1.00  0.00     0.009 A 
ATOM     11  C   UNL     1      32.034  11.004  23.484  1.00  0.00     0.001 A 
ATOM     12  C   UNL     1      33.368  11.392  23.240  1.00  0.00     0.001 A 
ATOM     13  C   UNL     1      34.182  10.639  22.378  1.00  0.00     0.009 A 
ATOM     14  C   UNL     1      33.636   9.503  21.773  1.00  0.00    -0.010 A 
ENDROOT
TORSDOF 0
ENDMDL
MODEL 5
REMARK VINA RESULT:    -4.658      1.006      2.920
REMARK INTER + INTRA:          -4.658
REMARK INTER:                  -4.658
REMARK INTRA:                   0.000
REMARK UNBOUND:                 0.000
REMARK SMILES C=C1c2ccccc2-c2ccccc21
REMARK SMILES IDX 1 1 2 2 3 3 4 4 5 5 6 6 7 7 8 8 9 9 10 10 11 11 12 12 13 13
REMARK SMILES IDX 14 14
REMARK H PARENT
REMARK Flexibility Score: inf
ROOT
ATOM      1  C   UNL     1      35.168   8.013  20.040  1.00  0.00     0.018 C 
ATOM      2  C   UNL     1      34.819   8.934  20.938  1.00  0.00    -0.017 C 
ATOM      3  C   UNL     1      35.666   9.988  21.508  1.00  0.00    -0.010 A 
ATOM      4  C   UNL     1      37.009  10.292  21.269  1.00  0.00     0.009 A 
ATOM      5  C   UNL     1      37.582  11.372  21.963  1.00  0.00     0.001 A 
ATOM      6  C   UNL     1      36.815  12.125  22.874  1.00  0.00     0.001 A 
ATOM      7  C   UNL     1      35.465  11.807  23.102  1.00  0.00     0.009 A 
ATOM      8  C   UNL     1      34.916  10.730  22.405  1.00  0.00    -0.010 A 
ATOM      9  C   UNL     1      33.565  10.182  22.441  1.00  0.00    -0.010 A 
ATOM     10  C   UNL     1      32.453  10.582  23.184  1.00  0.00     0.009 A 
ATOM     11  C   UNL     1      31.256   9.865  23.024  1.00  0.00     0.001 A 
ATOM     12  C   UNL     1      31.189   8.772  22.136  1.00  0.00     0.001 A 
ATOM     13  C   UNL     1      32.319   8.385  21.396  1.00  0.00     0.009 A 
ATOM     14  C   UNL     1      33.503   9.109  21.567  1.00  0.00    -0.010 A 
ENDROOT
TORSDOF 0
ENDMDL
MODEL 6
REMARK VINA RESULT:    -4.581      1.214      4.970
REMARK INTER + INTRA:          -4.581
REMARK INTER:                  -4.581
REMARK INTRA:                   0.000
REMARK UNBOUND:                 0.000
REMARK SMILES C=C1c2ccccc2-c2ccccc21
REMARK SMILES IDX 1 1 2 2 3 3 4 4 5 5 6 6 7 7 8 8 9 9 10 10 11 11 12 12 13 13
REMARK SMILES IDX 14 14
REMARK H PARENT
REMARK Flexibility Score: inf
ROOT
ATOM      1  C   UNL     1      34.819   7.814  20.193  1.00  0.00     0.018 C 
ATOM      2  C   UNL     1      34.769   8.829  21.055  1.00  0.00    -0.017 C 
ATOM      3  C   UNL     1      33.593   9.323  21.783  1.00  0.00    -0.010 A 
ATOM      4  C   UNL     1      32.270   8.875  21.765  1.00  0.00     0.009 A 
ATOM      5  C   UNL     1      31.330   9.540  22.572  1.00  0.00     0.001 A 
ATOM      6  C   UNL     1      31.721  10.628  23.376  1.00  0.00     0.001 A 
ATOM      7  C   UNL     1      33.056  11.065  23.384  1.00  0.00     0.009 A 
ATOM      8  C   UNL     1      33.974  10.393  22.575  1.00  0.00    -0.010 A 
ATOM      9  C   UNL     1      35.402  10.624  22.385  1.00  0.00    -0.010 A 
ATOM     10  C   UNL     1      36.240  11.580  22.959  1.00  0.00     0.009 A 
ATOM     11  C   UNL     1      37.596  11.578  22.593  1.00  0.00     0.001 A 
ATOM     12  C   UNL     1      38.087  10.632  21.670  1.00  0.00     0.001 A 
ATOM     13  C   UNL     1      37.226   9.677  21.104  1.00  0.00     0.009 A 
ATOM     14  C   UNL     1      35.879   9.693  21.478  1.00  0.00    -0.010 A 
ENDROOT
TORSDOF 0
ENDMDL
MODEL 7
REMARK VINA RESULT:    -4.517      1.358      3.282
REMARK INTER + INTRA:          -4.517
REMARK INTER:                  -4.517
REMARK INTRA:                   0.000
REMARK UNBOUND:                 0.000
REMARK SMILES C=C1c2ccccc2-c2ccccc21
REMARK SMILES IDX 1 1 2 2 3 3 4 4 5 5 6 6 7 7 8 8 9 9 10 10 11 11 12 12 13 13
REMARK SMILES IDX 14 14
REMARK H PARENT
REMARK Flexibility Score: inf
ROOT
ATOM      1  C   UNL     1      30.875   7.229  21.266  1.00  0.00     0.018 C 
ATOM      2  C   UNL     1      32.030   7.894  21.275  1.00  0.00    -0.017 C 
ATOM      3  C   UNL     1      32.347   9.119  22.018  1.00  0.00    -0.010 A 
ATOM      4  C   UNL     1      31.553   9.881  22.879  1.00  0.00     0.009 A 
ATOM      5  C   UNL     1      32.115  11.027  23.467  1.00  0.00     0.001 A 
ATOM      6  C   UNL     1      33.448  11.392  23.191  1.00  0.00     0.001 A 
ATOM      7  C   UNL     1      34.234  10.614  22.323  1.00  0.00     0.009 A 
ATOM      8  C   UNL     1      33.656   9.481  21.749  1.00  0.00    -0.010 A 
ATOM      9  C   UNL     1      34.225   8.504  20.827  1.00  0.00    -0.010 A 
ATOM     10  C   UNL     1      35.501   8.437  20.266  1.00  0.00     0.009 A 
ATOM     11  C   UNL     1      35.787   7.373  19.394  1.00  0.00     0.001 A 
ATOM     12  C   UNL     1      34.804   6.405  19.101  1.00  0.00     0.001 A 
ATOM     13  C   UNL     1      33.525   6.491  19.676  1.00  0.00     0.009 A 
ATOM     14  C   UNL     1      33.257   7.556  20.541  1.00  0.00    -0.010 A 
ENDROOT
TORSDOF 0
ENDMDL
MODEL 8
REMARK VINA RESULT:    -4.486      1.351      3.858
REMARK INTER + INTRA:          -4.486
REMARK INTER:                  -4.486
REMARK INTRA:                   0.000
REMARK UNBOUND:                 0.000
REMARK SMILES C=C1c2ccccc2-c2ccccc21
REMARK SMILES IDX 1 1 2 2 3 3 4 4 5 5 6 6 7 7 8 8 9 9 10 10 11 11 12 12 13 13
REMARK SMILES IDX 14 14
REMARK H PARENT
REMARK Flexibility Score: inf
ROOT
ATOM      1  C   UNL     1      30.925   7.028  21.033  1.00  0.00     0.018 C 
ATOM      2  C   UNL     1      32.028   7.770  21.128  1.00  0.00    -0.017 C 
ATOM      3  C   UNL     1      33.300   7.571  20.422  1.00  0.00    -0.010 A 
ATOM      4  C   UNL     1      33.673   6.590  19.500  1.00  0.00     0.009 A 
ATOM      5  C   UNL     1      34.974   6.633  18.969  1.00  0.00     0.001 A 
ATOM      6  C   UNL     1      35.873   7.644  19.363  1.00  0.00     0.001 A 
ATOM      7  C   UNL     1      35.482   8.624  20.291  1.00  0.00     0.009 A 
ATOM      8  C   UNL     1      34.186   8.562  20.807  1.00  0.00    -0.010 A 
ATOM      9  C   UNL     1      33.518   9.431  21.769  1.00  0.00    -0.010 A 
ATOM     10  C   UNL     1      33.991  10.560  22.439  1.00  0.00     0.009 A 
ATOM     11  C   UNL     1      33.123  11.218  23.326  1.00  0.00     0.001 A 
ATOM     12  C   UNL     1      31.811  10.742  23.527  1.00  0.00     0.001 A 
ATOM     13  C   UNL     1      31.353   9.604  22.843  1.00  0.00     0.009 A 
ATOM     14  C   UNL     1      32.230   8.961  21.964  1.00  0.00    -0.010 A 
ENDROOT
TORSDOF 0
ENDMDL
MODEL 9
REMARK VINA RESULT:    -4.369      1.376      3.916
REMARK INTER + INTRA:          -4.369
REMARK INTER:                  -4.369
REMARK INTRA:                   0.000
REMARK UNBOUND:                 0.000
REMARK SMILES C=C1c2ccccc2-c2ccccc21
REMARK SMILES IDX 1 1 2 2 3 3 4 4 5 5 6 6 7 7 8 8 9 9 10 10 11 11 12 12 13 13
REMARK SMILES IDX 14 14
REMARK H PARENT
REMARK Flexibility Score: inf
ROOT
ATOM      1  C   UNL     1      36.496  11.459  22.843  1.00  0.00     0.018 C 
ATOM      2  C   UNL     1      35.641  10.590  22.305  1.00  0.00    -0.017 C 
ATOM      3  C   UNL     1      34.200  10.482  22.565  1.00  0.00    -0.010 A 
ATOM      4  C   UNL     1      33.379  11.231  23.412  1.00  0.00     0.009 A 
ATOM      5  C   UNL     1      32.012  10.910  23.471  1.00  0.00     0.001 A 
ATOM      6  C   UNL     1      31.490   9.857  22.694  1.00  0.00     0.001 A 
ATOM      7  C   UNL     1      32.329   9.113  21.847  1.00  0.00     0.009 A 
ATOM      8  C   UNL     1      33.683   9.447  21.803  1.00  0.00    -0.010 A 
ATOM      9  C   UNL     1      34.770   8.858  21.028  1.00  0.00    -0.010 A 
ATOM     10  C   UNL     1      34.752   7.798  20.120  1.00  0.00     0.009 A 
ATOM     11  C   UNL     1      35.961   7.430  19.507  1.00  0.00     0.001 A 
ATOM     12  C   UNL     1      37.154   8.119  19.807  1.00  0.00     0.001 A 
ATOM     13  C   UNL     1      37.151   9.184  20.724  1.00  0.00     0.009 A 
ATOM     14  C   UNL     1      35.939   9.537  21.326  1.00  0.00    -0.010 A 
ENDROOT
TORSDOF 0
ENDMDL
