MODEL 1
REMARK VINA RESULT:    -4.073      0.000      0.000
REMARK INTER + INTRA:          -8.135
REMARK INTER:                  -7.644
REMARK INTRA:                  -0.491
REMARK UNBOUND:                -0.491
REMARK SMILES O=C([O-])CCCCCCCCCCCCCCC(=O)[O-]
REMARK SMILES IDX 10 1 9 2 8 3 7 4 6 5 5 6 4 7 2 8 1 9 3 10 11 11 12 12 13 13
REMARK SMILES IDX 14 14 15 15 16 16 17 17 18 18 19 19 20 20
REMARK H PARENT
REMARK Flexibility Score: inf
ROOT
ATOM      1  C   UNL     1     -31.125 -22.372  14.637  1.00  0.00     0.000 C 
ENDROOT
BRANCH   1   2
ATOM      2  C   UNL     1     -30.648 -21.790  13.294  1.00  0.00     0.000 C 
BRANCH   2   3
ATOM      3  C   UNL     1     -30.909 -20.280  13.113  1.00  0.00     0.000 C 
BRANCH   3   4
ATOM      4  C   UNL     1     -30.295 -19.374  14.200  1.00  0.00     0.000 C 
BRANCH   4   5
ATOM      5  C   UNL     1     -30.787 -17.916  14.182  1.00  0.00     0.000 C 
BRANCH   5   6
ATOM      6  C   UNL     1     -29.811 -16.965  13.469  1.00  0.00     0.006 C 
BRANCH   6   7
ATOM      7  C   UNL     1     -30.535 -15.989  12.532  1.00  0.00     0.053 C 
BRANCH   7   8
ATOM      8  C   UNL     1     -30.811 -14.678  13.201  1.00  0.00     0.041 C 
ATOM      9  O   UNL     1     -30.737 -13.605  12.546  1.00  0.00    -0.550 OA
ATOM     10  O   UNL     1     -31.114 -14.636  14.555  1.00  0.00    -0.550 OA
ENDBRANCH   7   8
ENDBRANCH   6   7
ENDBRANCH   5   6
ENDBRANCH   4   5
ENDBRANCH   3   4
ENDBRANCH   2   3
ENDBRANCH   1   2
BRANCH   1  11
ATOM     11  C   UNL     1     -30.926 -23.895  14.729  1.00  0.00     0.000 C 
BRANCH  11  12
ATOM     12  C   UNL     1     -30.127 -24.314  15.974  1.00  0.00     0.000 C 
BRANCH  12  13
ATOM     13  C   UNL     1     -29.616 -25.762  15.885  1.00  0.00     0.000 C 
BRANCH  13  14
ATOM     14  C   UNL     1     -29.737 -26.513  17.222  1.00  0.00     0.000 C 
BRANCH  14  15
ATOM     15  C   UNL     1     -30.322 -25.634  18.340  1.00  0.00     0.000 C 
BRANCH  15  16
ATOM     16  C   UNL     1     -29.454 -25.637  19.609  1.00  0.00     0.006 C 
BRANCH  16  17
ATOM     17  C   UNL     1     -30.262 -25.921  20.881  1.00  0.00     0.053 C 
BRANCH  17  18
ATOM     18  C   UNL     1     -29.440 -26.699  21.859  1.00  0.00     0.041 C 
ATOM     19  O   UNL     1     -29.707 -26.654  23.089  1.00  0.00    -0.550 OA
ATOM     20  O   UNL     1     -28.406 -27.510  21.409  1.00  0.00    -0.550 OA
ENDBRANCH  17  18
ENDBRANCH  16  17
ENDBRANCH  15  16
ENDBRANCH  14  15
ENDBRANCH  13  14
ENDBRANCH  12  13
ENDBRANCH  11  12
ENDBRANCH   1  11
TORSDOF 15
ENDMDL
MODEL 2
REMARK VINA RESULT:    -3.859     16.427     17.222
REMARK INTER + INTRA:          -7.733
REMARK INTER:                  -7.047
REMARK INTRA:                  -0.687
REMARK UNBOUND:                -0.491
REMARK SMILES O=C([O-])CCCCCCCCCCCCCCC(=O)[O-]
REMARK SMILES IDX 10 1 9 2 8 3 7 4 6 5 5 6 4 7 2 8 1 9 3 10 11 11 12 12 13 13
REMARK SMILES IDX 14 14 15 15 16 16 17 17 18 18 19 19 20 20
REMARK H PARENT
REMARK Flexibility Score: inf
ROOT
ATOM      1  C   UNL     1     -13.376 -20.693  19.573  1.00  0.00     0.000 C 
ENDROOT
BRANCH   1   2
ATOM      2  C   UNL     1     -12.269 -19.854  18.909  1.00  0.00     0.000 C 
BRANCH   2   3
ATOM      3  C   UNL     1     -12.565 -18.342  18.824  1.00  0.00     0.000 C 
BRANCH   3   4
ATOM      4  C   UNL     1     -11.520 -17.512  18.050  1.00  0.00     0.000 C 
BRANCH   4   5
ATOM      5  C   UNL     1     -11.638 -17.587  16.518  1.00  0.00     0.000 C 
BRANCH   5   6
ATOM      6  C   UNL     1     -11.460 -16.218  15.838  1.00  0.00     0.006 C 
BRANCH   6   7
ATOM      7  C   UNL     1     -12.363 -16.063  14.607  1.00  0.00     0.053 C 
BRANCH   7   8
ATOM      8  C   UNL     1     -12.421 -14.642  14.137  1.00  0.00     0.041 C 
ATOM      9  O   UNL     1     -12.857 -13.740  14.901  1.00  0.00    -0.550 OA
ATOM     10  O   UNL     1     -12.030 -14.318  12.845  1.00  0.00    -0.550 OA
ENDBRANCH   7   8
ENDBRANCH   6   7
ENDBRANCH   5   6
ENDBRANCH   4   5
ENDBRANCH   3   4
ENDBRANCH   2   3
ENDBRANCH   1   2
BRANCH   1  11
ATOM     11  C   UNL     1     -13.909 -20.055  20.867  1.00  0.00     0.000 C 
BRANCH  11  12
ATOM     12  C   UNL     1     -13.455 -20.807  22.129  1.00  0.00     0.000 C 
BRANCH  12  13
ATOM     13  C   UNL     1     -13.167 -22.293  21.858  1.00  0.00     0.000 C 
BRANCH  13  14
ATOM     14  C   UNL     1     -14.153 -23.226  22.582  1.00  0.00     0.000 C 
BRANCH  14  15
ATOM     15  C   UNL     1     -14.903 -22.519  23.723  1.00  0.00     0.000 C 
BRANCH  15  16
ATOM     16  C   UNL     1     -16.370 -22.966  23.831  1.00  0.00     0.006 C 
BRANCH  16  17
ATOM     17  C   UNL     1     -17.038 -22.502  25.132  1.00  0.00     0.053 C 
BRANCH  17  18
ATOM     18  C   UNL     1     -17.805 -23.626  25.754  1.00  0.00     0.041 C 
ATOM     19  O   UNL     1     -17.813 -23.772  27.005  1.00  0.00    -0.550 OA
ATOM     20  O   UNL     1     -18.549 -24.485  24.956  1.00  0.00    -0.550 OA
ENDBRANCH  17  18
ENDBRANCH  16  17
ENDBRANCH  15  16
ENDBRANCH  14  15
ENDBRANCH  13  14
ENDBRANCH  12  13
ENDBRANCH  11  12
ENDBRANCH   1  11
TORSDOF 15
ENDMDL
MODEL 3
REMARK VINA RESULT:    -3.851     17.965     19.341
REMARK INTER + INTRA:          -7.718
REMARK INTER:                  -6.913
REMARK INTRA:                  -0.805
REMARK UNBOUND:                -0.491
REMARK SMILES O=C([O-])CCCCCCCCCCCCCCC(=O)[O-]
REMARK SMILES IDX 10 1 9 2 8 3 7 4 6 5 5 6 4 7 2 8 1 9 3 10 11 11 12 12 13 13
REMARK SMILES IDX 14 14 15 15 16 16 17 17 18 18 19 19 20 20
REMARK H PARENT
REMARK Flexibility Score: inf
ROOT
ATOM      1  C   UNL     1     -12.675 -14.405  13.969  1.00  0.00     0.000 C 
ENDROOT
BRANCH   1   2
ATOM      2  C   UNL     1     -11.935 -13.998  12.683  1.00  0.00     0.000 C 
BRANCH   2   3
ATOM      3  C   UNL     1     -11.607 -12.495  12.573  1.00  0.00     0.000 C 
BRANCH   3   4
ATOM      4  C   UNL     1     -11.921 -11.854  11.206  1.00  0.00     0.000 C 
BRANCH   4   5
ATOM      5  C   UNL     1     -11.899 -12.825  10.013  1.00  0.00     0.000 C 
BRANCH   5   6
ATOM      6  C   UNL     1     -12.380 -12.175   8.705  1.00  0.00     0.006 C 
BRANCH   6   7
ATOM      7  C   UNL     1     -13.911 -12.135   8.608  1.00  0.00     0.053 C 
BRANCH   7   8
ATOM      8  C   UNL     1     -14.435 -10.734   8.680  1.00  0.00     0.041 C 
ATOM      9  O   UNL     1     -13.646  -9.756   8.583  1.00  0.00    -0.550 OA
ATOM     10  O   UNL     1     -15.788 -10.506   8.890  1.00  0.00    -0.550 OA
ENDBRANCH   7   8
ENDBRANCH   6   7
ENDBRANCH   5   6
ENDBRANCH   4   5
ENDBRANCH   3   4
ENDBRANCH   2   3
ENDBRANCH   1   2
BRANCH   1  11
ATOM     11  C   UNL     1     -12.484 -13.392  15.111  1.00  0.00     0.000 C 
BRANCH  11  12
ATOM     12  C   UNL     1     -11.438 -13.849  16.141  1.00  0.00     0.000 C 
BRANCH  12  13
ATOM     13  C   UNL     1     -11.002 -15.309  15.930  1.00  0.00     0.000 C 
BRANCH  13  14
ATOM     14  C   UNL     1     -11.009 -16.120  17.236  1.00  0.00     0.000 C 
BRANCH  14  15
ATOM     15  C   UNL     1     -11.677 -17.496  17.073  1.00  0.00     0.000 C 
BRANCH  15  16
ATOM     16  C   UNL     1     -12.243 -18.038  18.395  1.00  0.00     0.006 C 
BRANCH  16  17
ATOM     17  C   UNL     1     -12.050 -19.553  18.547  1.00  0.00     0.053 C 
BRANCH  17  18
ATOM     18  C   UNL     1     -13.172 -20.146  19.339  1.00  0.00     0.041 C 
ATOM     19  O   UNL     1     -13.661 -19.516  20.314  1.00  0.00    -0.550 OA
ATOM     20  O   UNL     1     -13.709 -21.373  18.973  1.00  0.00    -0.550 OA
ENDBRANCH  17  18
ENDBRANCH  16  17
ENDBRANCH  15  16
ENDBRANCH  14  15
ENDBRANCH  13  14
ENDBRANCH  12  13
ENDBRANCH  11  12
ENDBRANCH   1  11
TORSDOF 15
ENDMDL
MODEL 4
REMARK VINA RESULT:    -3.829     16.583     20.098
REMARK INTER + INTRA:          -7.677
REMARK INTER:                  -6.832
REMARK INTRA:                  -0.845
REMARK UNBOUND:                -0.491
REMARK SMILES O=C([O-])CCCCCCCCCCCCCCC(=O)[O-]
REMARK SMILES IDX 10 1 9 2 8 3 7 4 6 5 5 6 4 7 2 8 1 9 3 10 11 11 12 12 13 13
REMARK SMILES IDX 14 14 15 15 16 16 17 17 18 18 19 19 20 20
REMARK H PARENT
REMARK Flexibility Score: inf
ROOT
ATOM      1  C   UNL     1     -13.549 -20.782  20.154  1.00  0.00     0.000 C 
ENDROOT
BRANCH   1   2
ATOM      2  C   UNL     1     -13.533 -21.721  21.372  1.00  0.00     0.000 C 
BRANCH   2   3
ATOM      3  C   UNL     1     -13.517 -21.008  22.740  1.00  0.00     0.000 C 
BRANCH   3   4
ATOM      4  C   UNL     1     -14.163 -21.796  23.898  1.00  0.00     0.000 C 
BRANCH   4   5
ATOM      5  C   UNL     1     -14.862 -23.102  23.483  1.00  0.00     0.000 C 
BRANCH   5   6
ATOM      6  C   UNL     1     -16.395 -23.016  23.581  1.00  0.00     0.006 C 
BRANCH   6   7
ATOM      7  C   UNL     1     -16.859 -22.528  24.959  1.00  0.00     0.053 C 
BRANCH   7   8
ATOM      8  C   UNL     1     -17.609 -23.591  25.701  1.00  0.00     0.041 C 
ATOM      9  O   UNL     1     -17.154 -24.765  25.758  1.00  0.00    -0.550 OA
ATOM     10  O   UNL     1     -18.827 -23.298  26.299  1.00  0.00    -0.550 OA
ENDBRANCH   7   8
ENDBRANCH   6   7
ENDBRANCH   5   6
ENDBRANCH   4   5
ENDBRANCH   3   4
ENDBRANCH   2   3
ENDBRANCH   1   2
BRANCH   1  11
ATOM     11  C   UNL     1     -13.310 -19.310  20.534  1.00  0.00     0.000 C 
BRANCH  11  12
ATOM     12  C   UNL     1     -12.654 -18.503  19.402  1.00  0.00     0.000 C 
BRANCH  12  13
ATOM     13  C   UNL     1     -11.901 -19.397  18.402  1.00  0.00     0.000 C 
BRANCH  13  14
ATOM     14  C   UNL     1     -11.272 -18.594  17.251  1.00  0.00     0.000 C 
BRANCH  14  15
ATOM     15  C   UNL     1     -11.698 -17.116  17.263  1.00  0.00     0.000 C 
BRANCH  15  16
ATOM     16  C   UNL     1     -11.199 -16.348  16.027  1.00  0.00     0.006 C 
BRANCH  16  17
ATOM     17  C   UNL     1     -12.154 -16.464  14.832  1.00  0.00     0.053 C 
BRANCH  17  18
ATOM     18  C   UNL     1     -12.265 -15.150  14.124  1.00  0.00     0.041 C 
ATOM     19  O   UNL     1     -12.867 -14.187  14.667  1.00  0.00    -0.550 OA
ATOM     20  O   UNL     1     -11.665 -14.976  12.884  1.00  0.00    -0.550 OA
ENDBRANCH  17  18
ENDBRANCH  16  17
ENDBRANCH  15  16
ENDBRANCH  14  15
ENDBRANCH  13  14
ENDBRANCH  12  13
ENDBRANCH  11  12
ENDBRANCH   1  11
TORSDOF 15
ENDMDL
MODEL 5
REMARK VINA RESULT:    -3.828     16.173     17.549
REMARK INTER + INTRA:          -7.675
REMARK INTER:                  -6.187
REMARK INTRA:                  -1.488
REMARK UNBOUND:                -0.491
REMARK SMILES O=C([O-])CCCCCCCCCCCCCCC(=O)[O-]
REMARK SMILES IDX 10 1 9 2 8 3 7 4 6 5 5 6 4 7 2 8 1 9 3 10 11 11 12 12 13 13
REMARK SMILES IDX 14 14 15 15 16 16 17 17 18 18 19 19 20 20
REMARK H PARENT
REMARK Flexibility Score: inf
ROOT
ATOM      1  C   UNL     1     -13.373 -22.906  21.462  1.00  0.00     0.000 C 
ENDROOT
BRANCH   1   2
ATOM      2  C   UNL     1     -12.582 -22.783  20.147  1.00  0.00     0.000 C 
BRANCH   2   3
ATOM      3  C   UNL     1     -13.253 -21.908  19.067  1.00  0.00     0.000 C 
BRANCH   3   4
ATOM      4  C   UNL     1     -12.312 -20.926  18.341  1.00  0.00     0.000 C 
BRANCH   4   5
ATOM      5  C   UNL     1     -11.437 -20.062  19.267  1.00  0.00     0.000 C 
BRANCH   5   6
ATOM      6  C   UNL     1     -11.910 -18.600  19.341  1.00  0.00     0.006 C 
BRANCH   6   7
ATOM      7  C   UNL     1     -12.997 -18.397  20.405  1.00  0.00     0.053 C 
BRANCH   7   8
ATOM      8  C   UNL     1     -12.459 -17.713  21.625  1.00  0.00     0.041 C 
ATOM      9  O   UNL     1     -12.915 -18.000  22.764  1.00  0.00    -0.550 OA
ATOM     10  O   UNL     1     -11.484 -16.733  21.501  1.00  0.00    -0.550 OA
ENDBRANCH   7   8
ENDBRANCH   6   7
ENDBRANCH   5   6
ENDBRANCH   4   5
ENDBRANCH   3   4
ENDBRANCH   2   3
ENDBRANCH   1   2
BRANCH   1  11
ATOM     11  C   UNL     1     -13.889 -21.550  21.973  1.00  0.00     0.000 C 
BRANCH  11  12
ATOM     12  C   UNL     1     -13.662 -21.360  23.482  1.00  0.00     0.000 C 
BRANCH  12  13
ATOM     13  C   UNL     1     -13.520 -22.697  24.230  1.00  0.00     0.000 C 
BRANCH  13  14
ATOM     14  C   UNL     1     -14.789 -23.069  25.015  1.00  0.00     0.000 C 
BRANCH  14  15
ATOM     15  C   UNL     1     -15.726 -23.992  24.218  1.00  0.00     0.000 C 
BRANCH  15  16
ATOM     16  C   UNL     1     -17.090 -23.343  23.932  1.00  0.00     0.006 C 
BRANCH  16  17
ATOM     17  C   UNL     1     -18.267 -24.286  24.213  1.00  0.00     0.053 C 
BRANCH  17  18
ATOM     18  C   UNL     1     -18.819 -24.038  25.581  1.00  0.00     0.041 C 
ATOM     19  O   UNL     1     -19.327 -24.983  26.241  1.00  0.00    -0.550 OA
ATOM     20  O   UNL     1     -18.733 -22.772  26.147  1.00  0.00    -0.550 OA
ENDBRANCH  17  18
ENDBRANCH  16  17
ENDBRANCH  15  16
ENDBRANCH  14  15
ENDBRANCH  13  14
ENDBRANCH  12  13
ENDBRANCH  11  12
ENDBRANCH   1  11
TORSDOF 15
ENDMDL
MODEL 6
REMARK VINA RESULT:    -3.821     17.903     21.951
REMARK INTER + INTRA:          -7.662
REMARK INTER:                  -7.003
REMARK INTRA:                  -0.659
REMARK UNBOUND:                -0.491
REMARK SMILES O=C([O-])CCCCCCCCCCCCCCC(=O)[O-]
REMARK SMILES IDX 10 1 9 2 8 3 7 4 6 5 5 6 4 7 2 8 1 9 3 10 11 11 12 12 13 13
REMARK SMILES IDX 14 14 15 15 16 16 17 17 18 18 19 19 20 20
REMARK H PARENT
REMARK Flexibility Score: inf
ROOT
ATOM      1  C   UNL     1     -11.791 -14.598  15.333  1.00  0.00     0.000 C 
ENDROOT
BRANCH   1   2
ATOM      2  C   UNL     1     -12.050 -16.065  14.946  1.00  0.00     0.000 C 
BRANCH   2   3
ATOM      3  C   UNL     1     -11.664 -17.098  16.026  1.00  0.00     0.000 C 
BRANCH   3   4
ATOM      4  C   UNL     1     -11.104 -16.501  17.334  1.00  0.00     0.000 C 
BRANCH   4   5
ATOM      5  C   UNL     1     -11.163 -17.439  18.552  1.00  0.00     0.000 C 
BRANCH   5   6
ATOM      6  C   UNL     1     -12.440 -18.296  18.583  1.00  0.00     0.006 C 
BRANCH   6   7
ATOM      7  C   UNL     1     -12.824 -18.709  20.010  1.00  0.00     0.053 C 
BRANCH   7   8
ATOM      8  C   UNL     1     -13.503 -20.044  20.039  1.00  0.00     0.041 C 
ATOM      9  O   UNL     1     -14.182 -20.387  21.043  1.00  0.00    -0.550 OA
ATOM     10  O   UNL     1     -13.358 -20.923  18.975  1.00  0.00    -0.550 OA
ENDBRANCH   7   8
ENDBRANCH   6   7
ENDBRANCH   5   6
ENDBRANCH   4   5
ENDBRANCH   3   4
ENDBRANCH   2   3
ENDBRANCH   1   2
BRANCH   1  11
ATOM     11  C   UNL     1     -12.537 -13.604  14.426  1.00  0.00     0.000 C 
BRANCH  11  12
ATOM     12  C   UNL     1     -11.876 -13.449  13.047  1.00  0.00     0.000 C 
BRANCH  12  13
ATOM     13  C   UNL     1     -11.531 -11.986  12.720  1.00  0.00     0.000 C 
BRANCH  13  14
ATOM     14  C   UNL     1     -11.461 -11.720  11.207  1.00  0.00     0.000 C 
BRANCH  14  15
ATOM     15  C   UNL     1     -12.634 -12.358  10.442  1.00  0.00     0.000 C 
BRANCH  15  16
ATOM     16  C   UNL     1     -12.541 -12.132   8.925  1.00  0.00     0.006 C 
BRANCH  16  17
ATOM     17  C   UNL     1     -13.917 -12.002   8.259  1.00  0.00     0.053 C 
BRANCH  17  18
ATOM     18  C   UNL     1     -14.515 -10.663   8.553  1.00  0.00     0.041 C 
ATOM     19  O   UNL     1     -15.727 -10.567   8.881  1.00  0.00    -0.550 OA
ATOM     20  O   UNL     1     -13.722  -9.523   8.508  1.00  0.00    -0.550 OA
ENDBRANCH  17  18
ENDBRANCH  16  17
ENDBRANCH  15  16
ENDBRANCH  14  15
ENDBRANCH  13  14
ENDBRANCH  12  13
ENDBRANCH  11  12
ENDBRANCH   1  11
TORSDOF 15
ENDMDL
MODEL 7
REMARK VINA RESULT:    -3.813     16.521     17.963
REMARK INTER + INTRA:          -7.648
REMARK INTER:                  -6.024
REMARK INTRA:                  -1.624
REMARK UNBOUND:                -0.491
REMARK SMILES O=C([O-])CCCCCCCCCCCCCCC(=O)[O-]
REMARK SMILES IDX 10 1 9 2 8 3 7 4 6 5 5 6 4 7 2 8 1 9 3 10 11 11 12 12 13 13
REMARK SMILES IDX 14 14 15 15 16 16 17 17 18 18 19 19 20 20
REMARK H PARENT
REMARK Flexibility Score: inf
ROOT
ATOM      1  C   UNL     1     -13.006 -22.638  20.179  1.00  0.00     0.000 C 
ENDROOT
BRANCH   1   2
ATOM      2  C   UNL     1     -13.411 -21.663  19.060  1.00  0.00     0.000 C 
BRANCH   2   3
ATOM      3  C   UNL     1     -12.458 -20.465  18.867  1.00  0.00     0.000 C 
BRANCH   3   4
ATOM      4  C   UNL     1     -13.085 -19.080  19.126  1.00  0.00     0.000 C 
BRANCH   4   5
ATOM      5  C   UNL     1     -12.114 -18.022  19.678  1.00  0.00     0.000 C 
BRANCH   5   6
ATOM      6  C   UNL     1     -11.627 -18.343  21.101  1.00  0.00     0.006 C 
BRANCH   6   7
ATOM      7  C   UNL     1     -12.665 -17.966  22.166  1.00  0.00     0.053 C 
BRANCH   7   8
ATOM      8  C   UNL     1     -12.164 -18.236  23.552  1.00  0.00     0.041 C 
ATOM      9  O   UNL     1     -11.029 -18.755  23.724  1.00  0.00    -0.550 OA
ATOM     10  O   UNL     1     -12.962 -17.949  24.650  1.00  0.00    -0.550 OA
ENDBRANCH   7   8
ENDBRANCH   6   7
ENDBRANCH   5   6
ENDBRANCH   4   5
ENDBRANCH   3   4
ENDBRANCH   2   3
ENDBRANCH   1   2
BRANCH   1  11
ATOM     11  C   UNL     1     -12.612 -21.918  21.481  1.00  0.00     0.000 C 
BRANCH  11  12
ATOM     12  C   UNL     1     -13.831 -21.507  22.323  1.00  0.00     0.000 C 
BRANCH  12  13
ATOM     13  C   UNL     1     -13.550 -21.567  23.834  1.00  0.00     0.000 C 
BRANCH  13  14
ATOM     14  C   UNL     1     -14.694 -22.230  24.620  1.00  0.00     0.000 C 
BRANCH  14  15
ATOM     15  C   UNL     1     -15.465 -23.263  23.780  1.00  0.00     0.000 C 
BRANCH  15  16
ATOM     16  C   UNL     1     -16.989 -23.131  23.936  1.00  0.00     0.006 C 
BRANCH  16  17
ATOM     17  C   UNL     1     -17.394 -22.445  25.247  1.00  0.00     0.053 C 
BRANCH  17  18
ATOM     18  C   UNL     1     -17.948 -23.446  26.211  1.00  0.00     0.041 C 
ATOM     19  O   UNL     1     -19.075 -23.968  26.005  1.00  0.00    -0.550 OA
ATOM     20  O   UNL     1     -17.199 -23.838  27.313  1.00  0.00    -0.550 OA
ENDBRANCH  17  18
ENDBRANCH  16  17
ENDBRANCH  15  16
ENDBRANCH  14  15
ENDBRANCH  13  14
ENDBRANCH  12  13
ENDBRANCH  11  12
ENDBRANCH   1  11
TORSDOF 15
ENDMDL
MODEL 8
REMARK VINA RESULT:    -3.807     16.367     19.039
REMARK INTER + INTRA:          -7.637
REMARK INTER:                  -6.320
REMARK INTRA:                  -1.317
REMARK UNBOUND:                -0.491
REMARK SMILES O=C([O-])CCCCCCCCCCCCCCC(=O)[O-]
REMARK SMILES IDX 10 1 9 2 8 3 7 4 6 5 5 6 4 7 2 8 1 9 3 10 11 11 12 12 13 13
REMARK SMILES IDX 14 14 15 15 16 16 17 17 18 18 19 19 20 20
REMARK H PARENT
REMARK Flexibility Score: inf
ROOT
ATOM      1  C   UNL     1     -13.038 -22.659  19.751  1.00  0.00     0.000 C 
ENDROOT
BRANCH   1   2
ATOM      2  C   UNL     1     -12.465 -22.441  21.163  1.00  0.00     0.000 C 
BRANCH   2   3
ATOM      3  C   UNL     1     -13.196 -23.209  22.284  1.00  0.00     0.000 C 
BRANCH   3   4
ATOM      4  C   UNL     1     -14.565 -22.628  22.692  1.00  0.00     0.000 C 
BRANCH   4   5
ATOM      5  C   UNL     1     -15.280 -23.387  23.823  1.00  0.00     0.000 C 
BRANCH   5   6
ATOM      6  C   UNL     1     -16.724 -22.905  24.046  1.00  0.00     0.006 C 
BRANCH   6   7
ATOM      7  C   UNL     1     -17.731 -24.061  24.017  1.00  0.00     0.053 C 
BRANCH   7   8
ATOM      8  C   UNL     1     -18.475 -24.183  25.312  1.00  0.00     0.041 C 
ATOM      9  O   UNL     1     -18.847 -25.313  25.725  1.00  0.00    -0.550 OA
ATOM     10  O   UNL     1     -18.790 -23.046  26.044  1.00  0.00    -0.550 OA
ENDBRANCH   7   8
ENDBRANCH   6   7
ENDBRANCH   5   6
ENDBRANCH   4   5
ENDBRANCH   3   4
ENDBRANCH   2   3
ENDBRANCH   1   2
BRANCH   1  11
ATOM     11  C   UNL     1     -13.222 -21.343  18.975  1.00  0.00     0.000 C 
BRANCH  11  12
ATOM     12  C   UNL     1     -11.981 -20.963  18.150  1.00  0.00     0.000 C 
BRANCH  12  13
ATOM     13  C   UNL     1     -11.725 -19.446  18.136  1.00  0.00     0.000 C 
BRANCH  13  14
ATOM     14  C   UNL     1     -12.637 -18.686  19.114  1.00  0.00     0.000 C 
BRANCH  14  15
ATOM     15  C   UNL     1     -11.850 -18.018  20.254  1.00  0.00     0.000 C 
BRANCH  15  16
ATOM     16  C   UNL     1     -12.697 -17.828  21.523  1.00  0.00     0.006 C 
BRANCH  16  17
ATOM     17  C   UNL     1     -13.086 -19.158  22.181  1.00  0.00     0.053 C 
BRANCH  17  18
ATOM     18  C   UNL     1     -12.691 -19.162  23.624  1.00  0.00     0.041 C 
ATOM     19  O   UNL     1     -12.311 -20.228  24.175  1.00  0.00    -0.550 OA
ATOM     20  O   UNL     1     -12.698 -17.977  24.350  1.00  0.00    -0.550 OA
ENDBRANCH  17  18
ENDBRANCH  16  17
ENDBRANCH  15  16
ENDBRANCH  14  15
ENDBRANCH  13  14
ENDBRANCH  12  13
ENDBRANCH  11  12
ENDBRANCH   1  11
TORSDOF 15
ENDMDL
MODEL 9
REMARK VINA RESULT:    -3.759     16.233     18.690
REMARK INTER + INTRA:          -7.547
REMARK INTER:                  -5.668
REMARK INTRA:                  -1.879
REMARK UNBOUND:                -0.491
REMARK SMILES O=C([O-])CCCCCCCCCCCCCCC(=O)[O-]
REMARK SMILES IDX 10 1 9 2 8 3 7 4 6 5 5 6 4 7 2 8 1 9 3 10 11 11 12 12 13 13
REMARK SMILES IDX 14 14 15 15 16 16 17 17 18 18 19 19 20 20
REMARK H PARENT
REMARK Flexibility Score: inf
ROOT
ATOM      1  C   UNL     1     -17.635 -25.224  24.476  1.00  0.00     0.000 C 
ENDROOT
BRANCH   1   2
ATOM      2  C   UNL     1     -18.445 -25.029  25.770  1.00  0.00     0.000 C 
BRANCH   2   3
ATOM      3  C   UNL     1     -19.093 -23.637  25.925  1.00  0.00     0.000 C 
BRANCH   3   4
ATOM      4  C   UNL     1     -18.321 -22.651  26.825  1.00  0.00     0.000 C 
BRANCH   4   5
ATOM      5  C   UNL     1     -17.322 -23.305  27.796  1.00  0.00     0.000 C 
BRANCH   5   6
ATOM      6  C   UNL     1     -15.857 -23.103  27.370  1.00  0.00     0.006 C 
BRANCH   6   7
ATOM      7  C   UNL     1     -15.562 -21.647  26.988  1.00  0.00     0.053 C 
BRANCH   7   8
ATOM      8  C   UNL     1     -14.175 -21.486  26.445  1.00  0.00     0.041 C 
ATOM      9  O   UNL     1     -13.807 -20.380  25.967  1.00  0.00    -0.550 OA
ATOM     10  O   UNL     1     -13.302 -22.565  26.431  1.00  0.00    -0.550 OA
ENDBRANCH   7   8
ENDBRANCH   6   7
ENDBRANCH   5   6
ENDBRANCH   4   5
ENDBRANCH   3   4
ENDBRANCH   2   3
ENDBRANCH   1   2
BRANCH   1  11
ATOM     11  C   UNL     1     -17.652 -23.980  23.570  1.00  0.00     0.000 C 
BRANCH  11  12
ATOM     12  C   UNL     1     -16.344 -23.176  23.642  1.00  0.00     0.000 C 
BRANCH  12  13
ATOM     13  C   UNL     1     -15.105 -24.077  23.783  1.00  0.00     0.000 C 
BRANCH  13  14
ATOM     14  C   UNL     1     -13.902 -23.555  22.981  1.00  0.00     0.000 C 
BRANCH  14  15
ATOM     15  C   UNL     1     -13.944 -22.031  22.780  1.00  0.00     0.000 C 
BRANCH  15  16
ATOM     16  C   UNL     1     -13.492 -21.609  21.373  1.00  0.00     0.006 C 
BRANCH  16  17
ATOM     17  C   UNL     1     -13.980 -20.205  20.990  1.00  0.00     0.053 C 
BRANCH  17  18
ATOM     18  C   UNL     1     -13.154 -19.653  19.871  1.00  0.00     0.041 C 
ATOM     19  O   UNL     1     -12.826 -20.389  18.903  1.00  0.00    -0.550 OA
ATOM     20  O   UNL     1     -12.786 -18.314  19.873  1.00  0.00    -0.550 OA
ENDBRANCH  17  18
ENDBRANCH  16  17
ENDBRANCH  15  16
ENDBRANCH  14  15
ENDBRANCH  13  14
ENDBRANCH  12  13
ENDBRANCH  11  12
ENDBRANCH   1  11
TORSDOF 15
ENDMDL
