MODEL 1
REMARK VINA RESULT:     3.794      0.000      0.000
REMARK INTER + INTRA:           5.332
REMARK INTER:                   5.790
REMARK INTRA:                  -0.458
REMARK UNBOUND:                -0.458
REMARK SMILES O=C([O-])CCCCCCCCC(=O)[O-]
REMARK SMILES IDX 7 1 6 2 5 3 4 4 2 5 1 6 3 7 8 8 9 9 10 10 11 11 12 12 13 13
REMARK SMILES IDX 14 14
REMARK H PARENT
REMARK Flexibility Score: inf
ROOT
ATOM      1  C   UNL     1      21.637  21.574  46.090  1.00  0.00     0.000 C 
ENDROOT
BRANCH   1   2
ATOM      2  C   UNL     1      20.551  21.891  47.125  1.00  0.00     0.000 C 
BRANCH   2   3
ATOM      3  C   UNL     1      20.160  23.372  47.077  1.00  0.00     0.006 C 
BRANCH   3   4
ATOM      4  C   UNL     1      18.643  23.537  46.940  1.00  0.00     0.053 C 
BRANCH   4   5
ATOM      5  C   UNL     1      18.280  23.885  45.530  1.00  0.00     0.041 C 
ATOM      6  O   UNL     1      19.181  24.125  44.684  1.00  0.00    -0.550 OA
ATOM      7  O   UNL     1      16.945  23.993  45.163  1.00  0.00    -0.550 OA
ENDBRANCH   4   5
ENDBRANCH   3   4
ENDBRANCH   2   3
ENDBRANCH   1   2
BRANCH   1   8
ATOM      8  C   UNL     1      22.382  22.845  45.666  1.00  0.00     0.000 C 
BRANCH   8   9
ATOM      9  C   UNL     1      23.751  22.938  46.356  1.00  0.00     0.000 C 
BRANCH   9  10
ATOM     10  C   UNL     1      24.898  23.187  45.365  1.00  0.00     0.006 C 
BRANCH  10  11
ATOM     11  C   UNL     1      26.056  23.977  45.989  1.00  0.00     0.053 C 
BRANCH  11  12
ATOM     12  C   UNL     1      27.312  23.165  45.971  1.00  0.00     0.041 C 
ATOM     13  O   UNL     1      27.274  21.946  45.659  1.00  0.00    -0.550 OA
ATOM     14  O   UNL     1      28.519  23.742  46.348  1.00  0.00    -0.550 OA
ENDBRANCH  11  12
ENDBRANCH  10  11
ENDBRANCH   9  10
ENDBRANCH   8   9
ENDBRANCH   1   8
TORSDOF 9
ENDMDL
MODEL 2
REMARK VINA RESULT:     4.759     14.462     16.944
REMARK INTER + INTRA:           6.805
REMARK INTER:                   7.252
REMARK INTRA:                  -0.448
REMARK UNBOUND:                -0.458
REMARK SMILES O=C([O-])CCCCCCCCC(=O)[O-]
REMARK SMILES IDX 7 1 6 2 5 3 4 4 2 5 1 6 3 7 8 8 9 9 10 10 11 11 12 12 13 13
REMARK SMILES IDX 14 14
REMARK H PARENT
REMARK Flexibility Score: inf
ROOT
ATOM      1  C   UNL     1      35.199  13.573  42.671  1.00  0.00     0.000 C 
ENDROOT
BRANCH   1   2
ATOM      2  C   UNL     1      36.593  13.903  43.216  1.00  0.00     0.000 C 
BRANCH   2   3
ATOM      3  C   UNL     1      36.635  15.319  43.801  1.00  0.00     0.006 C 
BRANCH   3   4
ATOM      4  C   UNL     1      35.221  15.844  44.070  1.00  0.00     0.053 C 
BRANCH   4   5
ATOM      5  C   UNL     1      34.981  17.114  43.315  1.00  0.00     0.041 C 
ATOM      6  O   UNL     1      34.253  17.112  42.288  1.00  0.00    -0.550 OA
ATOM      7  O   UNL     1      35.601  18.290  43.718  1.00  0.00    -0.550 OA
ENDBRANCH   4   5
ENDBRANCH   3   4
ENDBRANCH   2   3
ENDBRANCH   1   2
BRANCH   1   8
ATOM      8  C   UNL     1      35.281  12.552  41.530  1.00  0.00     0.000 C 
BRANCH   8   9
ATOM      9  C   UNL     1      34.563  13.071  40.275  1.00  0.00     0.000 C 
BRANCH   9  10
ATOM     10  C   UNL     1      33.223  12.362  40.023  1.00  0.00     0.006 C 
BRANCH  10  11
ATOM     11  C   UNL     1      33.007  11.160  40.951  1.00  0.00     0.053 C 
BRANCH  11  12
ATOM     12  C   UNL     1      33.156   9.880  40.192  1.00  0.00     0.041 C 
ATOM     13  O   UNL     1      32.148   9.165  39.951  1.00  0.00    -0.550 OA
ATOM     14  O   UNL     1      34.416   9.451  39.792  1.00  0.00    -0.550 OA
ENDBRANCH  11  12
ENDBRANCH  10  11
ENDBRANCH   9  10
ENDBRANCH   8   9
ENDBRANCH   1   8
TORSDOF 9
ENDMDL
MODEL 3
REMARK VINA RESULT:     4.826     14.445     16.704
REMARK INTER + INTRA:           6.907
REMARK INTER:                   7.328
REMARK INTRA:                  -0.422
REMARK UNBOUND:                -0.458
REMARK SMILES O=C([O-])CCCCCCCCC(=O)[O-]
REMARK SMILES IDX 7 1 6 2 5 3 4 4 2 5 1 6 3 7 8 8 9 9 10 10 11 11 12 12 13 13
REMARK SMILES IDX 14 14
REMARK H PARENT
REMARK Flexibility Score: inf
ROOT
ATOM      1  C   UNL     1      35.253  12.591  41.468  1.00  0.00     0.000 C 
ENDROOT
BRANCH   1   2
ATOM      2  C   UNL     1      34.509  13.171  40.260  1.00  0.00     0.000 C 
BRANCH   2   3
ATOM      3  C   UNL     1      33.250  12.354  39.946  1.00  0.00     0.006 C 
BRANCH   3   4
ATOM      4  C   UNL     1      33.114  11.165  40.902  1.00  0.00     0.053 C 
BRANCH   4   5
ATOM      5  C   UNL     1      33.273   9.875  40.160  1.00  0.00     0.041 C 
ATOM      6  O   UNL     1      32.273   9.143  39.941  1.00  0.00    -0.550 OA
ATOM      7  O   UNL     1      34.534   9.457  39.755  1.00  0.00    -0.550 OA
ENDBRANCH   4   5
ENDBRANCH   3   4
ENDBRANCH   2   3
ENDBRANCH   1   2
BRANCH   1   8
ATOM      8  C   UNL     1      35.164  13.533  42.675  1.00  0.00     0.000 C 
BRANCH   8   9
ATOM      9  C   UNL     1      36.563  13.920  43.176  1.00  0.00     0.000 C 
BRANCH   9  10
ATOM     10  C   UNL     1      36.602  15.326  43.795  1.00  0.00     0.006 C 
BRANCH  10  11
ATOM     11  C   UNL     1      35.202  15.884  44.083  1.00  0.00     0.053 C 
BRANCH  11  12
ATOM     12  C   UNL     1      34.973  17.145  43.312  1.00  0.00     0.041 C 
ATOM     13  O   UNL     1      34.247  17.137  42.285  1.00  0.00    -0.550 OA
ATOM     14  O   UNL     1      35.604  18.321  43.700  1.00  0.00    -0.550 OA
ENDBRANCH  11  12
ENDBRANCH  10  11
ENDBRANCH   9  10
ENDBRANCH   8   9
ENDBRANCH   1   8
TORSDOF 9
ENDMDL
MODEL 4
REMARK VINA RESULT:     5.371     17.167     19.684
REMARK INTER + INTRA:           7.739
REMARK INTER:                   7.303
REMARK INTRA:                   0.436
REMARK UNBOUND:                -0.458
REMARK SMILES O=C([O-])CCCCCCCCC(=O)[O-]
REMARK SMILES IDX 7 1 6 2 5 3 4 4 2 5 1 6 3 7 8 8 9 9 10 10 11 11 12 12 13 13
REMARK SMILES IDX 14 14
REMARK H PARENT
REMARK Flexibility Score: inf
ROOT
ATOM      1  C   UNL     1      31.185  21.670  26.925  1.00  0.00     0.000 C 
ENDROOT
BRANCH   1   2
ATOM      2  C   UNL     1      32.712  21.803  26.878  1.00  0.00     0.000 C 
BRANCH   2   3
ATOM      3  C   UNL     1      33.138  23.274  26.941  1.00  0.00     0.006 C 
BRANCH   3   4
ATOM      4  C   UNL     1      32.742  23.904  28.281  1.00  0.00     0.053 C 
BRANCH   4   5
ATOM      5  C   UNL     1      33.823  23.698  29.296  1.00  0.00     0.041 C 
ATOM      6  O   UNL     1      34.890  23.113  28.975  1.00  0.00    -0.550 OA
ATOM      7  O   UNL     1      33.631  24.108  30.609  1.00  0.00    -0.550 OA
ENDBRANCH   4   5
ENDBRANCH   3   4
ENDBRANCH   2   3
ENDBRANCH   1   2
BRANCH   1   8
ATOM      8  C   UNL     1      30.658  21.866  28.351  1.00  0.00     0.000 C 
BRANCH   8   9
ATOM      9  C   UNL     1      29.743  23.097  28.435  1.00  0.00     0.000 C 
BRANCH   9  10
ATOM     10  C   UNL     1      29.064  23.237  29.807  1.00  0.00     0.006 C 
BRANCH  10  11
ATOM     11  C   UNL     1      29.969  22.790  30.962  1.00  0.00     0.053 C 
BRANCH  11  12
ATOM     12  C   UNL     1      29.769  23.672  32.153  1.00  0.00     0.041 C 
ATOM     13  O   UNL     1      30.761  24.113  32.789  1.00  0.00    -0.550 OA
ATOM     14  O   UNL     1      28.484  23.966  32.594  1.00  0.00    -0.550 OA
ENDBRANCH  11  12
ENDBRANCH  10  11
ENDBRANCH   9  10
ENDBRANCH   8   9
ENDBRANCH   1   8
TORSDOF 9
ENDMDL
MODEL 5
REMARK VINA RESULT:     6.174     18.870     21.636
REMARK INTER + INTRA:           8.965
REMARK INTER:                   9.274
REMARK INTRA:                  -0.310
REMARK UNBOUND:                -0.458
REMARK SMILES O=C([O-])CCCCCCCCC(=O)[O-]
REMARK SMILES IDX 7 1 6 2 5 3 4 4 2 5 1 6 3 7 8 8 9 9 10 10 11 11 12 12 13 13
REMARK SMILES IDX 14 14
REMARK H PARENT
REMARK Flexibility Score: inf
ROOT
ATOM      1  C   UNL     1      32.312  22.019  28.533  1.00  0.00     0.000 C 
ENDROOT
BRANCH   1   2
ATOM      2  C   UNL     1      33.625  22.319  27.801  1.00  0.00     0.000 C 
BRANCH   2   3
ATOM      3  C   UNL     1      33.882  23.828  27.729  1.00  0.00     0.006 C 
BRANCH   3   4
ATOM      4  C   UNL     1      35.239  24.124  27.081  1.00  0.00     0.053 C 
BRANCH   4   5
ATOM      5  C   UNL     1      36.333  23.403  27.804  1.00  0.00     0.041 C 
ATOM      6  O   UNL     1      36.571  23.662  29.013  1.00  0.00    -0.550 OA
ATOM      7  O   UNL     1      37.122  22.480  27.129  1.00  0.00    -0.550 OA
ENDBRANCH   4   5
ENDBRANCH   3   4
ENDBRANCH   2   3
ENDBRANCH   1   2
BRANCH   1   8
ATOM      8  C   UNL     1      31.265  21.442  27.573  1.00  0.00     0.000 C 
BRANCH   8   9
ATOM      9  C   UNL     1      30.436  22.561  26.925  1.00  0.00     0.000 C 
BRANCH   9  10
ATOM     10  C   UNL     1      29.568  23.319  27.942  1.00  0.00     0.006 C 
BRANCH  10  11
ATOM     11  C   UNL     1      28.882  22.384  28.947  1.00  0.00     0.053 C 
BRANCH  11  12
ATOM     12  C   UNL     1      27.764  21.640  28.288  1.00  0.00     0.041 C 
ATOM     13  O   UNL     1      27.980  20.528  27.740  1.00  0.00    -0.550 OA
ATOM     14  O   UNL     1      26.493  22.199  28.235  1.00  0.00    -0.550 OA
ENDBRANCH  11  12
ENDBRANCH  10  11
ENDBRANCH   9  10
ENDBRANCH   8   9
ENDBRANCH   1   8
TORSDOF 9
ENDMDL
