MODEL 1
REMARK VINA RESULT:    -6.755      0.000      0.000
REMARK INTER + INTRA:          -9.655
REMARK INTER:                  -9.124
REMARK INTRA:                  -0.530
REMARK UNBOUND:                -0.530
REMARK SMILES O=c1c(-c2ccc(O)cc2)coc2c([C@H]3O[C@@H](CO)[C@@H](O)[C@@H](O)[C@H]3O)c(O)ccc12
REMARK SMILES IDX 3 1 11 2 12 3 13 4 30 5 2 6 1 7 29 8 28 9 26 10 14 11 4 12
REMARK SMILES IDX 5 13 6 14 7 15 10 16 9 17 8 18 15 20 24 21 16 22 22 23 17 24
REMARK SMILES IDX 20 25 25 26 23 28 18 30 19 31 21 33 27 35
REMARK H PARENT 8 19 25 27 23 29 19 32 21 34 27 36
REMARK Flexibility Score: inf
ROOT
ATOM      1  C   UNL     1      45.667  15.677  -3.478  1.00  0.00     0.065 A 
ATOM      2  C   UNL     1      44.650  16.115  -2.621  1.00  0.00     0.208 A 
ATOM      3  O   UNL     1      43.960  17.217  -2.890  1.00  0.00    -0.463 OA
ATOM      4  C   UNL     1      44.175  17.973  -3.965  1.00  0.00     0.147 A 
ATOM      5  C   UNL     1      45.209  17.619  -4.864  1.00  0.00     0.066 A 
ATOM      6  C   UNL     1      45.954  16.453  -4.615  1.00  0.00     0.200 A 
ATOM      7  O   UNL     1      46.892  16.117  -5.392  1.00  0.00    -0.288 OA
ATOM      8  C   UNL     1      45.479  18.441  -5.966  1.00  0.00     0.020 A 
ATOM      9  C   UNL     1      44.794  19.640  -6.125  1.00  0.00     0.047 A 
ATOM     10  C   UNL     1      43.803  20.026  -5.219  1.00  0.00     0.125 A 
ATOM     11  C   UNL     1      43.377  19.128  -4.198  1.00  0.00     0.069 A 
ENDROOT
BRANCH   1  12
ATOM     12  C   UNL     1      46.417  14.434  -3.165  1.00  0.00    -0.011 A 
ATOM     13  C   UNL     1      47.823  14.448  -3.120  1.00  0.00     0.013 A 
ATOM     14  C   UNL     1      48.532  13.280  -2.821  1.00  0.00     0.047 A 
ATOM     15  C   UNL     1      47.845  12.087  -2.559  1.00  0.00     0.115 A 
ATOM     16  C   UNL     1      45.737  13.235  -2.894  1.00  0.00     0.013 A 
ATOM     17  C   UNL     1      46.447  12.069  -2.594  1.00  0.00     0.047 A 
BRANCH  15  18
ATOM     18  O   UNL     1      48.540  10.918  -2.259  1.00  0.00    -0.508 OA
ATOM     19  H   UNL     1      49.549  10.868  -2.333  1.00  0.00     0.293 HD
ENDBRANCH  15  18
ENDBRANCH   1  12
BRANCH  11  20
ATOM     20  C   UNL     1      42.148  19.425  -3.320  1.00  0.00     0.188 C 
ATOM     21  C   UNL     1      42.471  20.093  -1.939  1.00  0.00     0.179 C 
ATOM     22  O   UNL     1      41.424  18.238  -3.046  1.00  0.00    -0.362 OA
ATOM     23  C   UNL     1      41.349  19.843  -0.892  1.00  0.00     0.177 C 
ATOM     24  C   UNL     1      40.080  18.534  -2.686  1.00  0.00     0.176 C 
ATOM     25  C   UNL     1      39.994  19.660  -1.599  1.00  0.00     0.177 C 
BRANCH  21  26
ATOM     26  O   UNL     1      43.718  19.688  -1.423  1.00  0.00    -0.387 OA
ATOM     27  H   UNL     1      44.425  20.168  -1.927  1.00  0.00     0.211 HD
ENDBRANCH  21  26
BRANCH  23  28
ATOM     28  O   UNL     1      41.647  18.706  -0.119  1.00  0.00    -0.387 OA
ATOM     29  H   UNL     1      41.925  17.991  -0.747  1.00  0.00     0.211 HD
ENDBRANCH  23  28
BRANCH  24  30
ATOM     30  C   UNL     1      39.390  17.218  -2.286  1.00  0.00     0.191 C 
BRANCH  30  31
ATOM     31  O   UNL     1      40.258  16.391  -1.557  1.00  0.00    -0.394 OA
ATOM     32  H   UNL     1      41.180  16.595  -1.861  1.00  0.00     0.210 HD
ENDBRANCH  30  31
ENDBRANCH  24  30
BRANCH  25  33
ATOM     33  O   UNL     1      38.983  19.425  -0.651  1.00  0.00    -0.388 OA
ATOM     34  H   UNL     1      38.475  20.274  -0.558  1.00  0.00     0.211 HD
ENDBRANCH  25  33
ENDBRANCH  11  20
BRANCH  10  35
ATOM     35  O   UNL     1      43.313  21.328  -5.342  1.00  0.00    -0.507 OA
ATOM     36  H   UNL     1      43.796  22.052  -5.858  1.00  0.00     0.293 HD
ENDBRANCH  10  35
TORSDOF 9
ENDMDL
MODEL 2
REMARK VINA RESULT:    -6.214      2.954      5.389
REMARK INTER + INTRA:          -8.924
REMARK INTER:                  -8.436
REMARK INTRA:                  -0.487
REMARK UNBOUND:                -0.530
REMARK SMILES O=c1c(-c2ccc(O)cc2)coc2c([C@H]3O[C@@H](CO)[C@@H](O)[C@@H](O)[C@H]3O)c(O)ccc12
REMARK SMILES IDX 3 1 11 2 12 3 13 4 30 5 2 6 1 7 29 8 28 9 26 10 14 11 4 12
REMARK SMILES IDX 5 13 6 14 7 15 10 16 9 17 8 18 15 20 24 21 16 22 22 23 17 24
REMARK SMILES IDX 20 25 25 26 23 28 18 30 19 31 21 33 27 35
REMARK H PARENT 8 19 25 27 23 29 19 32 21 34 27 36
REMARK Flexibility Score: inf
ROOT
ATOM      1  C   UNL     1      48.891  14.078  -4.459  1.00  0.00     0.065 A 
ATOM      2  C   UNL     1      47.897  15.001  -4.804  1.00  0.00     0.208 A 
ATOM      3  O   UNL     1      46.639  14.824  -4.419  1.00  0.00    -0.463 OA
ATOM      4  C   UNL     1      46.233  13.784  -3.694  1.00  0.00     0.147 A 
ATOM      5  C   UNL     1      47.169  12.786  -3.332  1.00  0.00     0.066 A 
ATOM      6  C   UNL     1      48.513  12.945  -3.716  1.00  0.00     0.200 A 
ATOM      7  O   UNL     1      49.369  12.066  -3.419  1.00  0.00    -0.288 OA
ATOM      8  C   UNL     1      46.739  11.659  -2.619  1.00  0.00     0.020 A 
ATOM      9  C   UNL     1      45.387  11.482  -2.347  1.00  0.00     0.047 A 
ATOM     10  C   UNL     1      44.445  12.435  -2.740  1.00  0.00     0.125 A 
ATOM     11  C   UNL     1      44.871  13.675  -3.298  1.00  0.00     0.069 A 
ENDROOT
BRANCH   1  12
ATOM     12  C   UNL     1      50.294  14.302  -4.888  1.00  0.00    -0.011 A 
ATOM     13  C   UNL     1      51.052  13.240  -5.415  1.00  0.00     0.013 A 
ATOM     14  C   UNL     1      52.373  13.450  -5.825  1.00  0.00     0.047 A 
ATOM     15  C   UNL     1      52.950  14.723  -5.719  1.00  0.00     0.115 A 
ATOM     16  C   UNL     1      50.879  15.576  -4.793  1.00  0.00     0.013 A 
ATOM     17  C   UNL     1      52.199  15.784  -5.204  1.00  0.00     0.047 A 
BRANCH  15  18
ATOM     18  O   UNL     1      54.263  14.944  -6.125  1.00  0.00    -0.508 OA
ATOM     19  H   UNL     1      54.738  15.818  -5.932  1.00  0.00     0.293 HD
ENDBRANCH  15  18
ENDBRANCH   1  12
BRANCH  11  20
ATOM     20  C   UNL     1      43.885  14.833  -3.543  1.00  0.00     0.188 C 
ATOM     21  C   UNL     1      44.410  16.245  -3.110  1.00  0.00     0.179 C 
ATOM     22  O   UNL     1      42.667  14.613  -2.854  1.00  0.00    -0.362 OA
ATOM     23  C   UNL     1      43.246  17.237  -2.825  1.00  0.00     0.177 C 
ATOM     24  C   UNL     1      41.611  15.368  -3.436  1.00  0.00     0.176 C 
ATOM     25  C   UNL     1      42.012  16.866  -3.667  1.00  0.00     0.177 C 
BRANCH  21  26
ATOM     26  O   UNL     1      45.278  16.182  -2.002  1.00  0.00    -0.387 OA
ATOM     27  H   UNL     1      45.357  15.230  -1.733  1.00  0.00     0.211 HD
ENDBRANCH  21  26
BRANCH  23  28
ATOM     28  O   UNL     1      42.918  17.226  -1.457  1.00  0.00    -0.387 OA
ATOM     29  H   UNL     1      43.052  18.149  -1.118  1.00  0.00     0.211 HD
ENDBRANCH  23  28
BRANCH  24  30
ATOM     30  C   UNL     1      40.353  15.179  -2.570  1.00  0.00     0.191 C 
BRANCH  30  31
ATOM     31  O   UNL     1      40.607  15.506  -1.229  1.00  0.00    -0.394 OA
ATOM     32  H   UNL     1      41.501  15.140  -1.003  1.00  0.00     0.210 HD
ENDBRANCH  30  31
ENDBRANCH  24  30
BRANCH  25  33
ATOM     33  O   UNL     1      40.959  17.758  -3.401  1.00  0.00    -0.388 OA
ATOM     34  H   UNL     1      40.491  17.913  -4.264  1.00  0.00     0.211 HD
ENDBRANCH  25  33
ENDBRANCH  11  20
BRANCH  10  35
ATOM     35  O   UNL     1      43.101  12.082  -2.605  1.00  0.00    -0.507 OA
ATOM     36  H   UNL     1      42.360  12.763  -2.498  1.00  0.00     0.293 HD
ENDBRANCH  10  35
TORSDOF 9
ENDMDL
MODEL 3
REMARK VINA RESULT:    -5.755      2.460      7.963
REMARK INTER + INTRA:          -8.305
REMARK INTER:                  -7.475
REMARK INTRA:                  -0.830
REMARK UNBOUND:                -0.530
REMARK SMILES O=c1c(-c2ccc(O)cc2)coc2c([C@H]3O[C@@H](CO)[C@@H](O)[C@@H](O)[C@H]3O)c(O)ccc12
REMARK SMILES IDX 3 1 11 2 12 3 13 4 30 5 2 6 1 7 29 8 28 9 26 10 14 11 4 12
REMARK SMILES IDX 5 13 6 14 7 15 10 16 9 17 8 18 15 20 24 21 16 22 22 23 17 24
REMARK SMILES IDX 20 25 25 26 23 28 18 30 19 31 21 33 27 35
REMARK H PARENT 8 19 25 27 23 29 19 32 21 34 27 36
REMARK Flexibility Score: inf
ROOT
ATOM      1  C   UNL     1      43.108  17.074  -3.096  1.00  0.00     0.065 A 
ATOM      2  C   UNL     1      44.376  16.570  -2.781  1.00  0.00     0.208 A 
ATOM      3  O   UNL     1      44.846  15.485  -3.385  1.00  0.00    -0.463 OA
ATOM      4  C   UNL     1      44.171  14.808  -4.310  1.00  0.00     0.147 A 
ATOM      5  C   UNL     1      42.866  15.231  -4.661  1.00  0.00     0.066 A 
ATOM      6  C   UNL     1      42.339  16.383  -4.049  1.00  0.00     0.200 A 
ATOM      7  O   UNL     1      41.174  16.778  -4.331  1.00  0.00    -0.288 OA
ATOM      8  C   UNL     1      42.125  14.491  -5.592  1.00  0.00     0.020 A 
ATOM      9  C   UNL     1      42.635  13.302  -6.099  1.00  0.00     0.047 A 
ATOM     10  C   UNL     1      43.902  12.846  -5.726  1.00  0.00     0.125 A 
ATOM     11  C   UNL     1      44.752  13.667  -4.930  1.00  0.00     0.069 A 
ENDROOT
BRANCH   1  12
ATOM     12  C   UNL     1      42.606  18.297  -2.419  1.00  0.00    -0.011 A 
ATOM     13  C   UNL     1      42.890  19.568  -2.951  1.00  0.00     0.013 A 
ATOM     14  C   UNL     1      42.414  20.721  -2.319  1.00  0.00     0.047 A 
ATOM     15  C   UNL     1      41.646  20.617  -1.151  1.00  0.00     0.115 A 
ATOM     16  C   UNL     1      41.829  18.203  -1.252  1.00  0.00     0.013 A 
ATOM     17  C   UNL     1      41.354  19.357  -0.622  1.00  0.00     0.047 A 
BRANCH  15  18
ATOM     18  O   UNL     1      41.167  21.759  -0.513  1.00  0.00    -0.508 OA
ATOM     19  H   UNL     1      41.675  22.635  -0.542  1.00  0.00     0.293 HD
ENDBRANCH  15  18
ENDBRANCH   1  12
BRANCH  11  20
ATOM     20  C   UNL     1      46.226  13.301  -4.677  1.00  0.00     0.188 C 
ATOM     21  C   UNL     1      46.476  12.415  -3.408  1.00  0.00     0.179 C 
ATOM     22  O   UNL     1      47.019  14.467  -4.532  1.00  0.00    -0.362 OA
ATOM     23  C   UNL     1      47.929  12.559  -2.873  1.00  0.00     0.177 C 
ATOM     24  C   UNL     1      48.388  14.185  -4.793  1.00  0.00     0.176 C 
ATOM     25  C   UNL     1      48.887  12.913  -4.024  1.00  0.00     0.177 C 
BRANCH  21  26
ATOM     26  O   UNL     1      45.550  12.675  -2.378  1.00  0.00    -0.387 OA
ATOM     27  H   UNL     1      45.164  13.575  -2.538  1.00  0.00     0.211 HD
ENDBRANCH  21  26
BRANCH  23  28
ATOM     28  O   UNL     1      47.987  13.548  -1.875  1.00  0.00    -0.387 OA
ATOM     29  H   UNL     1      47.911  14.426  -2.331  1.00  0.00     0.211 HD
ENDBRANCH  23  28
BRANCH  24  30
ATOM     30  C   UNL     1      49.203  15.458  -4.499  1.00  0.00     0.191 C 
BRANCH  30  31
ATOM     31  O   UNL     1      48.609  16.217  -3.479  1.00  0.00    -0.394 OA
ATOM     32  H   UNL     1      47.694  15.856  -3.341  1.00  0.00     0.210 HD
ENDBRANCH  30  31
ENDBRANCH  24  30
BRANCH  25  33
ATOM     33  O   UNL     1      50.198  13.051  -3.537  1.00  0.00    -0.388 OA
ATOM     34  H   UNL     1      50.761  13.331  -4.307  1.00  0.00     0.211 HD
ENDBRANCH  25  33
ENDBRANCH  11  20
BRANCH  10  35
ATOM     35  O   UNL     1      44.247  11.553  -6.125  1.00  0.00    -0.507 OA
ATOM     36  H   UNL     1      43.804  11.080  -6.901  1.00  0.00     0.293 HD
ENDBRANCH  10  35
TORSDOF 9
ENDMDL
MODEL 4
REMARK VINA RESULT:    -5.703      2.721      3.712
REMARK INTER + INTRA:          -8.234
REMARK INTER:                  -7.504
REMARK INTRA:                  -0.730
REMARK UNBOUND:                -0.530
REMARK SMILES O=c1c(-c2ccc(O)cc2)coc2c([C@H]3O[C@@H](CO)[C@@H](O)[C@@H](O)[C@H]3O)c(O)ccc12
REMARK SMILES IDX 3 1 11 2 12 3 13 4 30 5 2 6 1 7 29 8 28 9 26 10 14 11 4 12
REMARK SMILES IDX 5 13 6 14 7 15 10 16 9 17 8 18 15 20 24 21 16 22 22 23 17 24
REMARK SMILES IDX 20 25 25 26 23 28 18 30 19 31 21 33 27 35
REMARK H PARENT 8 19 25 27 23 29 19 32 21 34 27 36
REMARK Flexibility Score: inf
ROOT
ATOM      1  C   UNL     1      47.336  15.716  -5.049  1.00  0.00     0.065 A 
ATOM      2  C   UNL     1      46.693  16.885  -4.622  1.00  0.00     0.208 A 
ATOM      3  O   UNL     1      45.370  16.938  -4.525  1.00  0.00    -0.463 OA
ATOM      4  C   UNL     1      44.570  15.915  -4.819  1.00  0.00     0.147 A 
ATOM      5  C   UNL     1      45.138  14.708  -5.292  1.00  0.00     0.066 A 
ATOM      6  C   UNL     1      46.537  14.612  -5.398  1.00  0.00     0.200 A 
ATOM      7  O   UNL     1      47.073  13.553  -5.829  1.00  0.00    -0.288 OA
ATOM      8  C   UNL     1      44.301  13.646  -5.658  1.00  0.00     0.020 A 
ATOM      9  C   UNL     1      42.920  13.810  -5.639  1.00  0.00     0.047 A 
ATOM     10  C   UNL     1      42.346  15.012  -5.220  1.00  0.00     0.125 A 
ATOM     11  C   UNL     1      43.162  16.041  -4.666  1.00  0.00     0.069 A 
ENDROOT
BRANCH   1  12
ATOM     12  C   UNL     1      48.817  15.673  -5.138  1.00  0.00    -0.011 A 
ATOM     13  C   UNL     1      49.497  16.513  -6.038  1.00  0.00     0.013 A 
ATOM     14  C   UNL     1      50.893  16.478  -6.120  1.00  0.00     0.047 A 
ATOM     15  C   UNL     1      51.625  15.608  -5.300  1.00  0.00     0.115 A 
ATOM     16  C   UNL     1      49.560  14.810  -4.314  1.00  0.00     0.013 A 
ATOM     17  C   UNL     1      50.955  14.778  -4.398  1.00  0.00     0.047 A 
BRANCH  15  18
ATOM     18  O   UNL     1      53.015  15.566  -5.372  1.00  0.00    -0.508 OA
ATOM     19  H   UNL     1      53.492  15.034  -6.091  1.00  0.00     0.293 HD
ENDBRANCH  15  18
ENDBRANCH   1  12
BRANCH  11  20
ATOM     20  C   UNL     1      42.551  17.287  -3.997  1.00  0.00     0.188 C 
ATOM     21  C   UNL     1      43.312  17.788  -2.723  1.00  0.00     0.179 C 
ATOM     22  O   UNL     1      41.209  17.045  -3.610  1.00  0.00    -0.362 OA
ATOM     23  C   UNL     1      42.393  18.619  -1.783  1.00  0.00     0.177 C 
ATOM     24  C   UNL     1      40.496  18.266  -3.461  1.00  0.00     0.176 C 
ATOM     25  C   UNL     1      41.285  19.310  -2.597  1.00  0.00     0.177 C 
BRANCH  21  26
ATOM     26  O   UNL     1      43.917  16.737  -2.006  1.00  0.00    -0.387 OA
ATOM     27  H   UNL     1      43.227  16.043  -1.846  1.00  0.00     0.211 HD
ENDBRANCH  21  26
BRANCH  23  28
ATOM     28  O   UNL     1      41.823  17.791  -0.798  1.00  0.00    -0.387 OA
ATOM     29  H   UNL     1      41.320  18.380  -0.178  1.00  0.00     0.211 HD
ENDBRANCH  23  28
BRANCH  24  30
ATOM     30  C   UNL     1      39.091  17.938  -2.924  1.00  0.00     0.191 C 
BRANCH  30  31
ATOM     31  O   UNL     1      39.160  17.304  -1.674  1.00  0.00    -0.394 OA
ATOM     32  H   UNL     1      38.493  16.570  -1.682  1.00  0.00     0.210 HD
ENDBRANCH  30  31
ENDBRANCH  24  30
BRANCH  25  33
ATOM     33  O   UNL     1      40.449  20.052  -1.745  1.00  0.00    -0.388 OA
ATOM     34  H   UNL     1      39.935  20.677  -2.322  1.00  0.00     0.211 HD
ENDBRANCH  25  33
ENDBRANCH  11  20
BRANCH  10  35
ATOM     35  O   UNL     1      40.972  15.156  -5.423  1.00  0.00    -0.507 OA
ATOM     36  H   UNL     1      40.306  15.220  -4.664  1.00  0.00     0.293 HD
ENDBRANCH  10  35
TORSDOF 9
ENDMDL
MODEL 5
REMARK VINA RESULT:    -5.675      2.470      3.717
REMARK INTER + INTRA:          -8.195
REMARK INTER:                  -7.029
REMARK INTRA:                  -1.166
REMARK UNBOUND:                -0.530
REMARK SMILES O=c1c(-c2ccc(O)cc2)coc2c([C@H]3O[C@@H](CO)[C@@H](O)[C@@H](O)[C@H]3O)c(O)ccc12
REMARK SMILES IDX 3 1 11 2 12 3 13 4 30 5 2 6 1 7 29 8 28 9 26 10 14 11 4 12
REMARK SMILES IDX 5 13 6 14 7 15 10 16 9 17 8 18 15 20 24 21 16 22 22 23 17 24
REMARK SMILES IDX 20 25 25 26 23 28 18 30 19 31 21 33 27 35
REMARK H PARENT 8 19 25 27 23 29 19 32 21 34 27 36
REMARK Flexibility Score: inf
ROOT
ATOM      1  C   UNL     1      47.147  14.895  -4.424  1.00  0.00     0.065 A 
ATOM      2  C   UNL     1      46.781  16.190  -4.032  1.00  0.00     0.208 A 
ATOM      3  O   UNL     1      45.513  16.493  -3.782  1.00  0.00    -0.463 OA
ATOM      4  C   UNL     1      44.515  15.618  -3.881  1.00  0.00     0.147 A 
ATOM      5  C   UNL     1      44.794  14.296  -4.306  1.00  0.00     0.066 A 
ATOM      6  C   UNL     1      46.128  13.937  -4.571  1.00  0.00     0.200 A 
ATOM      7  O   UNL     1      46.408  12.770  -4.963  1.00  0.00    -0.288 OA
ATOM      8  C   UNL     1      43.743  13.385  -4.469  1.00  0.00     0.020 A 
ATOM      9  C   UNL     1      42.428  13.802  -4.299  1.00  0.00     0.047 A 
ATOM     10  C   UNL     1      42.134  15.116  -3.927  1.00  0.00     0.125 A 
ATOM     11  C   UNL     1      43.184  16.012  -3.573  1.00  0.00     0.069 A 
ENDROOT
BRANCH   1  12
ATOM     12  C   UNL     1      48.572  14.574  -4.686  1.00  0.00    -0.011 A 
ATOM     13  C   UNL     1      49.262  15.214  -5.731  1.00  0.00     0.013 A 
ATOM     14  C   UNL     1      50.606  14.916  -5.977  1.00  0.00     0.047 A 
ATOM     15  C   UNL     1      51.278  13.980  -5.179  1.00  0.00     0.115 A 
ATOM     16  C   UNL     1      49.256  13.642  -3.886  1.00  0.00     0.013 A 
ATOM     17  C   UNL     1      50.599  13.347  -4.133  1.00  0.00     0.047 A 
BRANCH  15  18
ATOM     18  O   UNL     1      52.616  13.677  -5.414  1.00  0.00    -0.508 OA
ATOM     19  H   UNL     1      53.290  14.397  -5.645  1.00  0.00     0.293 HD
ENDBRANCH  15  18
ENDBRANCH   1  12
BRANCH  11  20
ATOM     20  C   UNL     1      42.896  17.392  -2.953  1.00  0.00     0.188 C 
ATOM     21  C   UNL     1      42.349  17.352  -1.485  1.00  0.00     0.179 C 
ATOM     22  O   UNL     1      41.949  18.106  -3.729  1.00  0.00    -0.362 OA
ATOM     23  C   UNL     1      41.548  18.636  -1.125  1.00  0.00     0.177 C 
ATOM     24  C   UNL     1      42.039  19.503  -3.481  1.00  0.00     0.176 C 
ATOM     25  C   UNL     1      42.062  19.831  -1.947  1.00  0.00     0.177 C 
BRANCH  21  26
ATOM     26  O   UNL     1      41.571  16.206  -1.229  1.00  0.00    -0.387 OA
ATOM     27  H   UNL     1      41.126  16.331  -0.351  1.00  0.00     0.211 HD
ENDBRANCH  21  26
BRANCH  23  28
ATOM     28  O   UNL     1      40.176  18.439  -1.365  1.00  0.00    -0.387 OA
ATOM     29  H   UNL     1      39.789  18.047  -0.540  1.00  0.00     0.211 HD
ENDBRANCH  23  28
BRANCH  24  30
ATOM     30  C   UNL     1      40.909  20.202  -4.257  1.00  0.00     0.191 C 
BRANCH  30  31
ATOM     31  O   UNL     1      39.658  19.652  -3.938  1.00  0.00    -0.394 OA
ATOM     32  H   UNL     1      39.268  19.304  -4.782  1.00  0.00     0.210 HD
ENDBRANCH  30  31
ENDBRANCH  24  30
BRANCH  25  33
ATOM     33  O   UNL     1      41.330  20.988  -1.628  1.00  0.00    -0.388 OA
ATOM     34  H   UNL     1      40.842  20.794  -0.785  1.00  0.00     0.211 HD
ENDBRANCH  25  33
ENDBRANCH  11  20
BRANCH  10  35
ATOM     35  O   UNL     1      40.791  15.497  -3.975  1.00  0.00    -0.507 OA
ATOM     36  H   UNL     1      40.200  15.537  -3.155  1.00  0.00     0.293 HD
ENDBRANCH  10  35
TORSDOF 9
ENDMDL
MODEL 6
REMARK VINA RESULT:    -5.307      2.457      8.638
REMARK INTER + INTRA:          -7.699
REMARK INTER:                  -6.865
REMARK INTRA:                  -0.834
REMARK UNBOUND:                -0.530
REMARK SMILES O=c1c(-c2ccc(O)cc2)coc2c([C@H]3O[C@@H](CO)[C@@H](O)[C@@H](O)[C@H]3O)c(O)ccc12
REMARK SMILES IDX 3 1 11 2 12 3 13 4 30 5 2 6 1 7 29 8 28 9 26 10 14 11 4 12
REMARK SMILES IDX 5 13 6 14 7 15 10 16 9 17 8 18 15 20 24 21 16 22 22 23 17 24
REMARK SMILES IDX 20 25 25 26 23 28 18 30 19 31 21 33 27 35
REMARK H PARENT 8 19 25 27 23 29 19 32 21 34 27 36
REMARK Flexibility Score: inf
ROOT
ATOM      1  C   UNL     1      43.143  17.010  -2.403  1.00  0.00     0.065 A 
ATOM      2  C   UNL     1      44.525  16.784  -2.370  1.00  0.00     0.208 A 
ATOM      3  O   UNL     1      45.031  15.606  -2.716  1.00  0.00    -0.463 OA
ATOM      4  C   UNL     1      44.288  14.575  -3.110  1.00  0.00     0.147 A 
ATOM      5  C   UNL     1      42.879  14.709  -3.138  1.00  0.00     0.066 A 
ATOM      6  C   UNL     1      42.308  15.946  -2.786  1.00  0.00     0.200 A 
ATOM      7  O   UNL     1      41.054  16.093  -2.789  1.00  0.00    -0.288 OA
ATOM      8  C   UNL     1      42.086  13.611  -3.495  1.00  0.00     0.020 A 
ATOM      9  C   UNL     1      42.676  12.375  -3.735  1.00  0.00     0.047 A 
ATOM     10  C   UNL     1      44.062  12.215  -3.665  1.00  0.00     0.125 A 
ATOM     11  C   UNL     1      44.905  13.350  -3.488  1.00  0.00     0.069 A 
ENDROOT
BRANCH   1  12
ATOM     12  C   UNL     1      42.600  18.338  -2.025  1.00  0.00    -0.011 A 
ATOM     13  C   UNL     1      42.803  19.451  -2.862  1.00  0.00     0.013 A 
ATOM     14  C   UNL     1      42.287  20.703  -2.511  1.00  0.00     0.047 A 
ATOM     15  C   UNL     1      41.559  20.857  -1.323  1.00  0.00     0.115 A 
ATOM     16  C   UNL     1      41.861  18.501  -0.840  1.00  0.00     0.013 A 
ATOM     17  C   UNL     1      41.347  19.753  -0.492  1.00  0.00     0.047 A 
BRANCH  15  18
ATOM     18  O   UNL     1      41.040  22.098  -0.964  1.00  0.00    -0.508 OA
ATOM     19  H   UNL     1      41.629  22.921  -0.903  1.00  0.00     0.293 HD
ENDBRANCH  15  18
ENDBRANCH   1  12
BRANCH  11  20
ATOM     20  C   UNL     1      46.436  13.249  -3.621  1.00  0.00     0.188 C 
ATOM     21  C   UNL     1      46.962  13.119  -5.091  1.00  0.00     0.179 C 
ATOM     22  O   UNL     1      46.932  12.133  -2.902  1.00  0.00    -0.362 OA
ATOM     23  C   UNL     1      48.366  12.453  -5.152  1.00  0.00     0.177 C 
ATOM     24  C   UNL     1      48.312  12.297  -2.600  1.00  0.00     0.176 C 
ATOM     25  C   UNL     1      49.145  12.734  -3.854  1.00  0.00     0.177 C 
BRANCH  21  26
ATOM     26  O   UNL     1      46.061  12.431  -5.928  1.00  0.00    -0.387 OA
ATOM     27  H   UNL     1      46.070  12.877  -6.814  1.00  0.00     0.211 HD
ENDBRANCH  21  26
BRANCH  23  28
ATOM     28  O   UNL     1      48.242  11.066  -5.349  1.00  0.00    -0.387 OA
ATOM     29  H   UNL     1      49.000  10.784  -5.923  1.00  0.00     0.211 HD
ENDBRANCH  23  28
BRANCH  24  30
ATOM     30  C   UNL     1      48.813  11.003  -1.932  1.00  0.00     0.191 C 
BRANCH  30  31
ATOM     31  O   UNL     1      49.406  11.271  -0.688  1.00  0.00    -0.394 OA
ATOM     32  H   UNL     1      50.266  11.731  -0.868  1.00  0.00     0.210 HD
ENDBRANCH  30  31
ENDBRANCH  24  30
BRANCH  25  33
ATOM     33  O   UNL     1      50.410  12.124  -3.907  1.00  0.00    -0.388 OA
ATOM     34  H   UNL     1      50.583  11.907  -4.861  1.00  0.00     0.211 HD
ENDBRANCH  25  33
ENDBRANCH  11  20
BRANCH  10  35
ATOM     35  O   UNL     1      44.547  10.907  -3.722  1.00  0.00    -0.507 OA
ATOM     36  H   UNL     1      45.176  10.522  -3.030  1.00  0.00     0.293 HD
ENDBRANCH  10  35
TORSDOF 9
ENDMDL
MODEL 7
REMARK VINA RESULT:    -5.091      2.203      2.701
REMARK INTER + INTRA:          -7.407
REMARK INTER:                  -6.655
REMARK INTRA:                  -0.752
REMARK UNBOUND:                -0.530
REMARK SMILES O=c1c(-c2ccc(O)cc2)coc2c([C@H]3O[C@@H](CO)[C@@H](O)[C@@H](O)[C@H]3O)c(O)ccc12
REMARK SMILES IDX 3 1 11 2 12 3 13 4 30 5 2 6 1 7 29 8 28 9 26 10 14 11 4 12
REMARK SMILES IDX 5 13 6 14 7 15 10 16 9 17 8 18 15 20 24 21 16 22 22 23 17 24
REMARK SMILES IDX 20 25 25 26 23 28 18 30 19 31 21 33 27 35
REMARK H PARENT 8 19 25 27 23 29 19 32 21 34 27 36
REMARK Flexibility Score: inf
ROOT
ATOM      1  C   UNL     1      46.768  16.099  -4.801  1.00  0.00     0.065 A 
ATOM      2  C   UNL     1      45.650  15.654  -4.083  1.00  0.00     0.208 A 
ATOM      3  O   UNL     1      44.519  16.349  -4.085  1.00  0.00    -0.463 OA
ATOM      4  C   UNL     1      44.360  17.491  -4.748  1.00  0.00     0.147 A 
ATOM      5  C   UNL     1      45.451  18.029  -5.471  1.00  0.00     0.066 A 
ATOM      6  C   UNL     1      46.663  17.315  -5.499  1.00  0.00     0.200 A 
ATOM      7  O   UNL     1      47.659  17.775  -6.125  1.00  0.00    -0.288 OA
ATOM      8  C   UNL     1      45.310  19.260  -6.125  1.00  0.00     0.020 A 
ATOM      9  C   UNL     1      44.134  19.988  -5.991  1.00  0.00     0.047 A 
ATOM     10  C   UNL     1      43.064  19.493  -5.241  1.00  0.00     0.125 A 
ATOM     11  C   UNL     1      43.108  18.167  -4.722  1.00  0.00     0.069 A 
ENDROOT
BRANCH   1  12
ATOM     12  C   UNL     1      48.019  15.301  -4.797  1.00  0.00    -0.011 A 
ATOM     13  C   UNL     1      49.166  15.784  -4.141  1.00  0.00     0.013 A 
ATOM     14  C   UNL     1      50.344  15.031  -4.132  1.00  0.00     0.047 A 
ATOM     15  C   UNL     1      50.390  13.785  -4.772  1.00  0.00     0.115 A 
ATOM     16  C   UNL     1      48.072  14.047  -5.430  1.00  0.00     0.013 A 
ATOM     17  C   UNL     1      49.251  13.296  -5.418  1.00  0.00     0.047 A 
BRANCH  15  18
ATOM     18  O   UNL     1      51.557  13.027  -4.769  1.00  0.00    -0.508 OA
ATOM     19  H   UNL     1      52.425  13.392  -4.393  1.00  0.00     0.293 HD
ENDBRANCH  15  18
ENDBRANCH   1  12
BRANCH  11  20
ATOM     20  C   UNL     1      41.872  17.508  -4.079  1.00  0.00     0.188 C 
ATOM     21  C   UNL     1      41.652  17.857  -2.568  1.00  0.00     0.179 C 
ATOM     22  O   UNL     1      41.948  16.096  -4.172  1.00  0.00    -0.362 OA
ATOM     23  C   UNL     1      40.808  16.775  -1.836  1.00  0.00     0.177 C 
ATOM     24  C   UNL     1      40.658  15.509  -4.053  1.00  0.00     0.176 C 
ATOM     25  C   UNL     1      39.861  16.078  -2.828  1.00  0.00     0.177 C 
BRANCH  21  26
ATOM     26  O   UNL     1      42.863  18.076  -1.882  1.00  0.00    -0.387 OA
ATOM     27  H   UNL     1      42.999  19.056  -1.812  1.00  0.00     0.211 HD
ENDBRANCH  21  26
BRANCH  23  28
ATOM     28  O   UNL     1      41.650  15.828  -1.226  1.00  0.00    -0.387 OA
ATOM     29  H   UNL     1      42.464  16.311  -0.928  1.00  0.00     0.211 HD
ENDBRANCH  23  28
BRANCH  24  30
ATOM     30  C   UNL     1      40.826  13.979  -4.038  1.00  0.00     0.191 C 
BRANCH  30  31
ATOM     31  O   UNL     1      41.403  13.543  -2.836  1.00  0.00    -0.394 OA
ATOM     32  H   UNL     1      42.326  13.906  -2.806  1.00  0.00     0.210 HD
ENDBRANCH  30  31
ENDBRANCH  24  30
BRANCH  25  33
ATOM     33  O   UNL     1      39.106  15.094  -2.167  1.00  0.00    -0.388 OA
ATOM     34  H   UNL     1      38.160  15.400  -2.185  1.00  0.00     0.211 HD
ENDBRANCH  25  33
ENDBRANCH  11  20
BRANCH  10  35
ATOM     35  O   UNL     1      42.008  20.373  -4.996  1.00  0.00    -0.507 OA
ATOM     36  H   UNL     1      42.124  21.378  -4.965  1.00  0.00     0.293 HD
ENDBRANCH  10  35
TORSDOF 9
ENDMDL
MODEL 8
REMARK VINA RESULT:    -4.762      2.471      4.082
REMARK INTER + INTRA:          -6.963
REMARK INTER:                  -6.683
REMARK INTRA:                  -0.280
REMARK UNBOUND:                -0.530
REMARK SMILES O=c1c(-c2ccc(O)cc2)coc2c([C@H]3O[C@@H](CO)[C@@H](O)[C@@H](O)[C@H]3O)c(O)ccc12
REMARK SMILES IDX 3 1 11 2 12 3 13 4 30 5 2 6 1 7 29 8 28 9 26 10 14 11 4 12
REMARK SMILES IDX 5 13 6 14 7 15 10 16 9 17 8 18 15 20 24 21 16 22 22 23 17 24
REMARK SMILES IDX 20 25 25 26 23 28 18 30 19 31 21 33 27 35
REMARK H PARENT 8 19 25 27 23 29 19 32 21 34 27 36
REMARK Flexibility Score: inf
ROOT
ATOM      1  C   UNL     1      45.048  13.361  -2.830  1.00  0.00     0.065 A 
ATOM      2  C   UNL     1      44.975  14.753  -2.966  1.00  0.00     0.208 A 
ATOM      3  O   UNL     1      43.865  15.337  -3.401  1.00  0.00    -0.463 OA
ATOM      4  C   UNL     1      42.765  14.668  -3.735  1.00  0.00     0.147 A 
ATOM      5  C   UNL     1      42.766  13.254  -3.660  1.00  0.00     0.066 A 
ATOM      6  C   UNL     1      43.922  12.601  -3.194  1.00  0.00     0.200 A 
ATOM      7  O   UNL     1      43.959  11.341  -3.127  1.00  0.00    -0.288 OA
ATOM      8  C   UNL     1      41.632  12.538  -4.064  1.00  0.00     0.020 A 
ATOM      9  C   UNL     1      40.547  13.208  -4.617  1.00  0.00     0.047 A 
ATOM     10  C   UNL     1      40.549  14.599  -4.742  1.00  0.00     0.125 A 
ATOM     11  C   UNL     1      41.605  15.367  -4.171  1.00  0.00     0.069 A 
ENDROOT
BRANCH   1  12
ATOM     12  C   UNL     1      46.293  12.728  -2.329  1.00  0.00    -0.011 A 
ATOM     13  C   UNL     1      47.523  12.987  -2.960  1.00  0.00     0.013 A 
ATOM     14  C   UNL     1      48.699  12.396  -2.487  1.00  0.00     0.047 A 
ATOM     15  C   UNL     1      48.661  11.544  -1.375  1.00  0.00     0.115 A 
ATOM     16  C   UNL     1      46.266  11.879  -1.209  1.00  0.00     0.013 A 
ATOM     17  C   UNL     1      47.443  11.290  -0.738  1.00  0.00     0.047 A 
BRANCH  15  18
ATOM     18  O   UNL     1      49.825  10.951  -0.894  1.00  0.00    -0.508 OA
ATOM     19  H   UNL     1      49.830  10.000  -0.543  1.00  0.00     0.293 HD
ENDBRANCH  15  18
ENDBRANCH   1  12
BRANCH  11  20
ATOM     20  C   UNL     1      41.540  16.904  -4.096  1.00  0.00     0.188 C 
ATOM     21  C   UNL     1      42.312  17.652  -5.237  1.00  0.00     0.179 C 
ATOM     22  O   UNL     1      42.062  17.373  -2.865  1.00  0.00    -0.362 OA
ATOM     23  C   UNL     1      42.711  19.096  -4.822  1.00  0.00     0.177 C 
ATOM     24  C   UNL     1      41.575  18.676  -2.569  1.00  0.00     0.176 C 
ATOM     25  C   UNL     1      41.711  19.649  -3.791  1.00  0.00     0.177 C 
BRANCH  21  26
ATOM     26  O   UNL     1      43.447  16.941  -5.676  1.00  0.00    -0.387 OA
ATOM     27  H   UNL     1      43.255  15.972  -5.577  1.00  0.00     0.211 HD
ENDBRANCH  21  26
BRANCH  23  28
ATOM     28  O   UNL     1      44.012  19.110  -4.286  1.00  0.00    -0.387 OA
ATOM     29  H   UNL     1      44.539  19.762  -4.818  1.00  0.00     0.211 HD
ENDBRANCH  23  28
BRANCH  24  30
ATOM     30  C   UNL     1      42.273  19.170  -1.290  1.00  0.00     0.191 C 
BRANCH  30  31
ATOM     31  O   UNL     1      41.944  18.364  -0.188  1.00  0.00    -0.394 OA
ATOM     32  H   UNL     1      42.783  17.930   0.117  1.00  0.00     0.210 HD
ENDBRANCH  30  31
ENDBRANCH  24  30
BRANCH  25  33
ATOM     33  O   UNL     1      42.078  20.951  -3.410  1.00  0.00    -0.388 OA
ATOM     34  H   UNL     1      41.353  21.555  -3.721  1.00  0.00     0.211 HD
ENDBRANCH  25  33
ENDBRANCH  11  20
BRANCH  10  35
ATOM     35  O   UNL     1      39.512  15.165  -5.486  1.00  0.00    -0.507 OA
ATOM     36  H   UNL     1      38.715  14.634  -5.812  1.00  0.00     0.293 HD
ENDBRANCH  10  35
TORSDOF 9
ENDMDL
