MODEL 1
REMARK VINA RESULT:    -5.224      0.000      0.000
REMARK INTER + INTRA:          -6.434
REMARK INTER:                  -6.140
REMARK INTRA:                  -0.294
REMARK UNBOUND:                -0.294
REMARK SMILES O=c1c(O)c(-c2ccc(O)c(O)c2)oc2cc(O)ccc12
REMARK SMILES IDX 5 1 3 2 2 3 1 4 21 5 15 6 14 7 16 8 17 9 19 10 20 11 6 12
REMARK SMILES IDX 7 13 8 14 9 15 13 16 11 17 10 18 12 20 4 22 18 24
REMARK H PARENT 10 19 12 21 4 23 18 25
REMARK Flexibility Score: inf
ROOT
ATOM      1  C   UNL     1    -105.349 184.469  51.888  1.00  0.00     0.180 A 
ATOM      2  C   UNL     1    -106.332 185.127  51.118  1.00  0.00     0.208 A 
ATOM      3  C   UNL     1    -105.946 185.757  49.925  1.00  0.00     0.235 A 
ATOM      4  O   UNL     1    -106.809 186.342  49.213  1.00  0.00    -0.285 OA
ATOM      5  C   UNL     1    -104.597 185.736  49.538  1.00  0.00     0.069 A 
ATOM      6  C   UNL     1    -103.671 185.077  50.375  1.00  0.00     0.142 A 
ATOM      7  O   UNL     1    -104.078 184.486  51.492  1.00  0.00    -0.452 OA
ATOM      8  C   UNL     1    -102.316 185.044  50.029  1.00  0.00     0.094 A 
ATOM      9  C   UNL     1    -101.872 185.658  48.853  1.00  0.00     0.119 A 
ATOM     10  C   UNL     1    -102.789 186.312  48.019  1.00  0.00     0.047 A 
ATOM     11  C   UNL     1    -104.145 186.352  48.357  1.00  0.00     0.020 A 
ENDROOT
BRANCH   1  12
ATOM     12  C   UNL     1    -105.679 183.766  53.149  1.00  0.00     0.025 A 
ATOM     13  C   UNL     1    -106.258 182.485  53.142  1.00  0.00     0.016 A 
ATOM     14  C   UNL     1    -106.538 181.831  54.345  1.00  0.00     0.051 A 
ATOM     15  C   UNL     1    -106.231 182.439  55.569  1.00  0.00     0.157 A 
ATOM     16  C   UNL     1    -105.353 184.363  54.378  1.00  0.00     0.062 A 
ATOM     17  C   UNL     1    -105.633 183.710  55.584  1.00  0.00     0.158 A 
BRANCH  15  18
ATOM     18  O   UNL     1    -106.514 181.785  56.768  1.00  0.00    -0.504 OA
ATOM     19  H   UNL     1    -107.176 181.019  56.810  1.00  0.00     0.293 HD
ENDBRANCH  15  18
BRANCH  17  20
ATOM     20  O   UNL     1    -105.309 184.340  56.786  1.00  0.00    -0.504 OA
ATOM     21  H   UNL     1    -104.356 184.586  57.025  1.00  0.00     0.293 HD
ENDBRANCH  17  20
ENDBRANCH   1  12
BRANCH   2  22
ATOM     22  O   UNL     1    -107.658 185.173  51.554  1.00  0.00    -0.502 OA
ATOM     23  H   UNL     1    -108.089 184.408  52.060  1.00  0.00     0.293 HD
ENDBRANCH   2  22
BRANCH   9  24
ATOM     24  O   UNL     1    -100.520 185.614  48.524  1.00  0.00    -0.508 OA
ATOM     25  H   UNL     1     -99.839 185.179  49.137  1.00  0.00     0.293 HD
ENDBRANCH   9  24
TORSDOF 5
ENDMDL
MODEL 2
REMARK VINA RESULT:    -5.153      3.633      5.451
REMARK INTER + INTRA:          -6.351
REMARK INTER:                  -6.049
REMARK INTRA:                  -0.303
REMARK UNBOUND:                -0.294
REMARK SMILES O=c1c(O)c(-c2ccc(O)c(O)c2)oc2cc(O)ccc12
REMARK SMILES IDX 5 1 3 2 2 3 1 4 21 5 15 6 14 7 16 8 17 9 19 10 20 11 6 12
REMARK SMILES IDX 7 13 8 14 9 15 13 16 11 17 10 18 12 20 4 22 18 24
REMARK H PARENT 10 19 12 21 4 23 18 25
REMARK Flexibility Score: inf
ROOT
ATOM      1  C   UNL     1    -105.154 187.777  50.946  1.00  0.00     0.180 A 
ATOM      2  C   UNL     1    -105.604 186.498  51.338  1.00  0.00     0.208 A 
ATOM      3  C   UNL     1    -104.833 185.376  50.997  1.00  0.00     0.235 A 
ATOM      4  O   UNL     1    -105.209 184.223  51.346  1.00  0.00    -0.285 OA
ATOM      5  C   UNL     1    -103.651 185.549  50.261  1.00  0.00     0.069 A 
ATOM      6  C   UNL     1    -103.280 186.859  49.887  1.00  0.00     0.142 A 
ATOM      7  O   UNL     1    -104.033 187.896  50.236  1.00  0.00    -0.452 OA
ATOM      8  C   UNL     1    -102.113 187.071  49.144  1.00  0.00     0.094 A 
ATOM      9  C   UNL     1    -101.308 185.990  48.773  1.00  0.00     0.119 A 
ATOM     10  C   UNL     1    -101.671 184.688  49.144  1.00  0.00     0.047 A 
ATOM     11  C   UNL     1    -102.835 184.466  49.884  1.00  0.00     0.020 A 
ENDROOT
BRANCH   1  12
ATOM     12  C   UNL     1    -105.900 189.011  51.283  1.00  0.00     0.025 A 
ATOM     13  C   UNL     1    -106.813 189.584  50.380  1.00  0.00     0.016 A 
ATOM     14  C   UNL     1    -107.523 190.735  50.731  1.00  0.00     0.051 A 
ATOM     15  C   UNL     1    -107.344 191.321  51.990  1.00  0.00     0.157 A 
ATOM     16  C   UNL     1    -105.739 189.590  52.553  1.00  0.00     0.062 A 
ATOM     17  C   UNL     1    -106.449 190.743  52.906  1.00  0.00     0.158 A 
BRANCH  15  18
ATOM     18  O   UNL     1    -108.053 192.471  52.336  1.00  0.00    -0.504 OA
ATOM     19  H   UNL     1    -108.816 192.816  51.765  1.00  0.00     0.293 HD
ENDBRANCH  15  18
BRANCH  17  20
ATOM     20  O   UNL     1    -106.253 191.299  54.170  1.00  0.00    -0.504 OA
ATOM     21  H   UNL     1    -105.665 192.110  54.316  1.00  0.00     0.293 HD
ENDBRANCH  17  20
ENDBRANCH   1  12
BRANCH   2  22
ATOM     22  O   UNL     1    -106.810 186.354  52.027  1.00  0.00    -0.502 OA
ATOM     23  H   UNL     1    -106.851 186.026  52.984  1.00  0.00     0.293 HD
ENDBRANCH   2  22
BRANCH   9  24
ATOM     24  O   UNL     1    -100.149 186.220  48.034  1.00  0.00    -0.508 OA
ATOM     25  H   UNL     1     -99.313 185.663  48.173  1.00  0.00     0.293 HD
ENDBRANCH   9  24
TORSDOF 5
ENDMDL
MODEL 3
REMARK VINA RESULT:    -5.124      3.990      6.189
REMARK INTER + INTRA:          -6.317
REMARK INTER:                  -5.999
REMARK INTRA:                  -0.318
REMARK UNBOUND:                -0.294
REMARK SMILES O=c1c(O)c(-c2ccc(O)c(O)c2)oc2cc(O)ccc12
REMARK SMILES IDX 5 1 3 2 2 3 1 4 21 5 15 6 14 7 16 8 17 9 19 10 20 11 6 12
REMARK SMILES IDX 7 13 8 14 9 15 13 16 11 17 10 18 12 20 4 22 18 24
REMARK H PARENT 10 19 12 21 4 23 18 25
REMARK Flexibility Score: inf
ROOT
ATOM      1  C   UNL     1    -105.371 187.936  50.244  1.00  0.00     0.180 A 
ATOM      2  C   UNL     1    -106.396 188.083  49.287  1.00  0.00     0.208 A 
ATOM      3  C   UNL     1    -107.135 189.277  49.265  1.00  0.00     0.235 A 
ATOM      4  O   UNL     1    -108.050 189.436  48.410  1.00  0.00    -0.285 OA
ATOM      5  C   UNL     1    -106.852 190.281  50.203  1.00  0.00     0.069 A 
ATOM      6  C   UNL     1    -105.825 190.048  51.143  1.00  0.00     0.142 A 
ATOM      7  O   UNL     1    -105.143 188.908  51.125  1.00  0.00    -0.452 OA
ATOM      8  C   UNL     1    -105.520 191.021  52.101  1.00  0.00     0.094 A 
ATOM      9  C   UNL     1    -106.225 192.228  52.130  1.00  0.00     0.119 A 
ATOM     10  C   UNL     1    -107.243 192.464  51.197  1.00  0.00     0.047 A 
ATOM     11  C   UNL     1    -107.557 191.497  50.237  1.00  0.00     0.020 A 
ENDROOT
BRANCH   1  12
ATOM     12  C   UNL     1    -104.535 186.716  50.320  1.00  0.00     0.025 A 
ATOM     13  C   UNL     1    -104.921 185.611  51.098  1.00  0.00     0.016 A 
ATOM     14  C   UNL     1    -104.128 184.461  51.134  1.00  0.00     0.051 A 
ATOM     15  C   UNL     1    -102.947 184.392  50.385  1.00  0.00     0.157 A 
ATOM     16  C   UNL     1    -103.361 186.635  49.553  1.00  0.00     0.062 A 
ATOM     17  C   UNL     1    -102.564 185.485  49.588  1.00  0.00     0.158 A 
BRANCH  15  18
ATOM     18  O   UNL     1    -102.156 183.245  50.425  1.00  0.00    -0.504 OA
ATOM     19  H   UNL     1    -101.337 183.186  51.018  1.00  0.00     0.293 HD
ENDBRANCH  15  18
BRANCH  17  20
ATOM     20  O   UNL     1    -101.397 185.446  48.825  1.00  0.00    -0.504 OA
ATOM     21  H   UNL     1    -100.741 186.217  48.804  1.00  0.00     0.293 HD
ENDBRANCH  17  20
ENDBRANCH   1  12
BRANCH   2  22
ATOM     22  O   UNL     1    -106.688 187.046  48.397  1.00  0.00    -0.502 OA
ATOM     23  H   UNL     1    -107.545 187.021  47.857  1.00  0.00     0.293 HD
ENDBRANCH   2  22
BRANCH   9  24
ATOM     24  O   UNL     1    -105.907 193.186  53.090  1.00  0.00    -0.508 OA
ATOM     25  H   UNL     1    -106.585 193.490  53.780  1.00  0.00     0.293 HD
ENDBRANCH   9  24
TORSDOF 5
ENDMDL
MODEL 4
REMARK VINA RESULT:    -4.985      2.998      6.436
REMARK INTER + INTRA:          -6.154
REMARK INTER:                  -5.836
REMARK INTRA:                  -0.318
REMARK UNBOUND:                -0.294
REMARK SMILES O=c1c(O)c(-c2ccc(O)c(O)c2)oc2cc(O)ccc12
REMARK SMILES IDX 5 1 3 2 2 3 1 4 21 5 15 6 14 7 16 8 17 9 19 10 20 11 6 12
REMARK SMILES IDX 7 13 8 14 9 15 13 16 11 17 10 18 12 20 4 22 18 24
REMARK H PARENT 10 19 12 21 4 23 18 25
REMARK Flexibility Score: inf
ROOT
ATOM      1  C   UNL     1    -105.748 185.066  50.423  1.00  0.00     0.180 A 
ATOM      2  C   UNL     1    -106.316 185.914  51.397  1.00  0.00     0.208 A 
ATOM      3  C   UNL     1    -107.606 185.630  51.872  1.00  0.00     0.235 A 
ATOM      4  O   UNL     1    -108.130 186.368  52.752  1.00  0.00    -0.285 OA
ATOM      5  C   UNL     1    -108.304 184.527  51.357  1.00  0.00     0.069 A 
ATOM      6  C   UNL     1    -107.676 183.740  50.367  1.00  0.00     0.142 A 
ATOM      7  O   UNL     1    -106.451 184.038  49.950  1.00  0.00    -0.452 OA
ATOM      8  C   UNL     1    -108.344 182.638  49.821  1.00  0.00     0.094 A 
ATOM      9  C   UNL     1    -109.632 182.309  50.254  1.00  0.00     0.119 A 
ATOM     10  C   UNL     1    -110.258 183.087  51.237  1.00  0.00     0.047 A 
ATOM     11  C   UNL     1    -109.600 184.190  51.788  1.00  0.00     0.020 A 
ENDROOT
BRANCH   1  12
ATOM     12  C   UNL     1    -104.387 185.287  49.885  1.00  0.00     0.025 A 
ATOM     13  C   UNL     1    -104.168 186.098  48.757  1.00  0.00     0.016 A 
ATOM     14  C   UNL     1    -102.872 186.311  48.282  1.00  0.00     0.051 A 
ATOM     15  C   UNL     1    -101.775 185.732  48.933  1.00  0.00     0.157 A 
ATOM     16  C   UNL     1    -103.283 184.726  50.547  1.00  0.00     0.062 A 
ATOM     17  C   UNL     1    -101.983 184.938  50.074  1.00  0.00     0.158 A 
BRANCH  15  18
ATOM     18  O   UNL     1    -100.482 185.945  48.456  1.00  0.00    -0.504 OA
ATOM     19  H   UNL     1    -100.280 185.962  47.463  1.00  0.00     0.293 HD
ENDBRANCH  15  18
BRANCH  17  20
ATOM     20  O   UNL     1    -100.912 184.352  50.749  1.00  0.00    -0.504 OA
ATOM     21  H   UNL     1    -100.988 184.037  51.708  1.00  0.00     0.293 HD
ENDBRANCH  17  20
ENDBRANCH   1  12
BRANCH   2  22
ATOM     22  O   UNL     1    -105.617 187.033  51.855  1.00  0.00    -0.502 OA
ATOM     23  H   UNL     1    -104.609 187.038  51.955  1.00  0.00     0.293 HD
ENDBRANCH   2  22
BRANCH   9  24
ATOM     24  O   UNL     1    -110.281 181.208  49.700  1.00  0.00    -0.508 OA
ATOM     25  H   UNL     1    -109.827 180.615  49.014  1.00  0.00     0.293 HD
ENDBRANCH   9  24
TORSDOF 5
ENDMDL
MODEL 5
REMARK VINA RESULT:    -4.845      4.442      6.463
REMARK INTER + INTRA:          -5.989
REMARK INTER:                  -5.684
REMARK INTRA:                  -0.305
REMARK UNBOUND:                -0.294
REMARK SMILES O=c1c(O)c(-c2ccc(O)c(O)c2)oc2cc(O)ccc12
REMARK SMILES IDX 5 1 3 2 2 3 1 4 21 5 15 6 14 7 16 8 17 9 19 10 20 11 6 12
REMARK SMILES IDX 7 13 8 14 9 15 13 16 11 17 10 18 12 20 4 22 18 24
REMARK H PARENT 10 19 12 21 4 23 18 25
REMARK Flexibility Score: inf
ROOT
ATOM      1  C   UNL     1    -105.646 188.716  51.267  1.00  0.00     0.180 A 
ATOM      2  C   UNL     1    -106.318 187.761  52.060  1.00  0.00     0.208 A 
ATOM      3  C   UNL     1    -105.918 186.418  51.986  1.00  0.00     0.235 A 
ATOM      4  O   UNL     1    -106.497 185.548  52.694  1.00  0.00    -0.285 OA
ATOM      5  C   UNL     1    -104.879 186.055  51.116  1.00  0.00     0.069 A 
ATOM      6  C   UNL     1    -104.272 187.065  50.339  1.00  0.00     0.142 A 
ATOM      7  O   UNL     1    -104.675 188.327  50.444  1.00  0.00    -0.452 OA
ATOM      8  C   UNL     1    -103.239 186.741  49.452  1.00  0.00     0.094 A 
ATOM      9  C   UNL     1    -102.801 185.418  49.334  1.00  0.00     0.119 A 
ATOM     10  C   UNL     1    -103.399 184.412  50.105  1.00  0.00     0.047 A 
ATOM     11  C   UNL     1    -104.433 184.726  50.993  1.00  0.00     0.020 A 
ENDROOT
BRANCH   1  12
ATOM     12  C   UNL     1    -105.997 190.154  51.302  1.00  0.00     0.025 A 
ATOM     13  C   UNL     1    -107.057 190.668  50.536  1.00  0.00     0.016 A 
ATOM     14  C   UNL     1    -107.384 192.025  50.604  1.00  0.00     0.051 A 
ATOM     15  C   UNL     1    -106.669 192.884  51.448  1.00  0.00     0.157 A 
ATOM     16  C   UNL     1    -105.296 191.015  52.164  1.00  0.00     0.062 A 
ATOM     17  C   UNL     1    -105.621 192.374  52.233  1.00  0.00     0.158 A 
BRANCH  15  18
ATOM     18  O   UNL     1    -106.996 194.238  51.512  1.00  0.00    -0.504 OA
ATOM     19  H   UNL     1    -107.784 194.617  51.001  1.00  0.00     0.293 HD
ENDBRANCH  15  18
BRANCH  17  20
ATOM     20  O   UNL     1    -104.894 193.202  53.089  1.00  0.00    -0.504 OA
ATOM     21  H   UNL     1    -105.343 193.881  53.691  1.00  0.00     0.293 HD
ENDBRANCH  17  20
ENDBRANCH   1  12
BRANCH   2  22
ATOM     22  O   UNL     1    -107.382 188.146  52.880  1.00  0.00    -0.502 OA
ATOM     23  H   UNL     1    -108.012 187.473  53.300  1.00  0.00     0.293 HD
ENDBRANCH   2  22
BRANCH   9  24
ATOM     24  O   UNL     1    -101.771 185.114  48.447  1.00  0.00    -0.508 OA
ATOM     25  H   UNL     1    -101.958 184.888  47.476  1.00  0.00     0.293 HD
ENDBRANCH   9  24
TORSDOF 5
ENDMDL
MODEL 6
REMARK VINA RESULT:    -4.804      3.712      6.136
REMARK INTER + INTRA:          -5.940
REMARK INTER:                  -5.646
REMARK INTRA:                  -0.294
REMARK UNBOUND:                -0.294
REMARK SMILES O=c1c(O)c(-c2ccc(O)c(O)c2)oc2cc(O)ccc12
REMARK SMILES IDX 5 1 3 2 2 3 1 4 21 5 15 6 14 7 16 8 17 9 19 10 20 11 6 12
REMARK SMILES IDX 7 13 8 14 9 15 13 16 11 17 10 18 12 20 4 22 18 24
REMARK H PARENT 10 19 12 21 4 23 18 25
REMARK Flexibility Score: inf
ROOT
ATOM      1  C   UNL     1    -105.606 186.684  48.489  1.00  0.00     0.180 A 
ATOM      2  C   UNL     1    -106.234 187.820  49.042  1.00  0.00     0.208 A 
ATOM      3  C   UNL     1    -107.315 188.396  48.358  1.00  0.00     0.235 A 
ATOM      4  O   UNL     1    -107.899 189.407  48.839  1.00  0.00    -0.285 OA
ATOM      5  C   UNL     1    -107.732 187.844  47.138  1.00  0.00     0.069 A 
ATOM      6  C   UNL     1    -107.038 186.720  46.639  1.00  0.00     0.142 A 
ATOM      7  O   UNL     1    -106.024 186.200  47.321  1.00  0.00    -0.452 OA
ATOM      8  C   UNL     1    -107.418 186.147  45.420  1.00  0.00     0.094 A 
ATOM      9  C   UNL     1    -108.486 186.681  44.693  1.00  0.00     0.119 A 
ATOM     10  C   UNL     1    -109.179 187.795  45.184  1.00  0.00     0.047 A 
ATOM     11  C   UNL     1    -108.806 188.376  46.401  1.00  0.00     0.020 A 
ENDROOT
BRANCH   1  12
ATOM     12  C   UNL     1    -104.472 186.008  49.159  1.00  0.00     0.025 A 
ATOM     13  C   UNL     1    -104.675 185.135  50.242  1.00  0.00     0.016 A 
ATOM     14  C   UNL     1    -103.591 184.490  50.842  1.00  0.00     0.051 A 
ATOM     15  C   UNL     1    -102.291 184.696  50.362  1.00  0.00     0.157 A 
ATOM     16  C   UNL     1    -103.169 186.195  48.667  1.00  0.00     0.062 A 
ATOM     17  C   UNL     1    -102.081 185.551  49.267  1.00  0.00     0.158 A 
BRANCH  15  18
ATOM     18  O   UNL     1    -101.210 184.053  50.964  1.00  0.00    -0.504 OA
ATOM     19  H   UNL     1    -101.106 183.046  50.928  1.00  0.00     0.293 HD
ENDBRANCH  15  18
BRANCH  17  20
ATOM     20  O   UNL     1    -100.800 185.772  48.761  1.00  0.00    -0.504 OA
ATOM     21  H   UNL     1    -100.639 186.318  47.923  1.00  0.00     0.293 HD
ENDBRANCH  17  20
ENDBRANCH   1  12
BRANCH   2  22
ATOM     22  O   UNL     1    -105.764 188.377  50.235  1.00  0.00    -0.502 OA
ATOM     23  H   UNL     1    -106.354 188.486  51.051  1.00  0.00     0.293 HD
ENDBRANCH   2  22
BRANCH   9  24
ATOM     24  O   UNL     1    -108.851 186.097  43.481  1.00  0.00    -0.508 OA
ATOM     25  H   UNL     1    -109.799 185.783  43.309  1.00  0.00     0.293 HD
ENDBRANCH   9  24
TORSDOF 5
ENDMDL
MODEL 7
REMARK VINA RESULT:    -4.788      3.679      6.237
REMARK INTER + INTRA:          -5.922
REMARK INTER:                  -5.610
REMARK INTRA:                  -0.313
REMARK UNBOUND:                -0.294
REMARK SMILES O=c1c(O)c(-c2ccc(O)c(O)c2)oc2cc(O)ccc12
REMARK SMILES IDX 5 1 3 2 2 3 1 4 21 5 15 6 14 7 16 8 17 9 19 10 20 11 6 12
REMARK SMILES IDX 7 13 8 14 9 15 13 16 11 17 10 18 12 20 4 22 18 24
REMARK H PARENT 10 19 12 21 4 23 18 25
REMARK Flexibility Score: inf
ROOT
ATOM      1  C   UNL     1    -105.438 187.837  50.102  1.00  0.00     0.180 A 
ATOM      2  C   UNL     1    -105.438 188.868  51.065  1.00  0.00     0.208 A 
ATOM      3  C   UNL     1    -106.298 189.963  50.884  1.00  0.00     0.235 A 
ATOM      4  O   UNL     1    -106.323 190.892  51.738  1.00  0.00    -0.285 OA
ATOM      5  C   UNL     1    -107.118 190.015  49.748  1.00  0.00     0.069 A 
ATOM      6  C   UNL     1    -107.044 188.955  48.819  1.00  0.00     0.142 A 
ATOM      7  O   UNL     1    -106.223 187.932  49.030  1.00  0.00    -0.452 OA
ATOM      8  C   UNL     1    -107.839 188.976  47.667  1.00  0.00     0.094 A 
ATOM      9  C   UNL     1    -108.712 190.042  47.433  1.00  0.00     0.119 A 
ATOM     10  C   UNL     1    -108.791 191.096  48.353  1.00  0.00     0.047 A 
ATOM     11  C   UNL     1    -107.999 191.085  49.506  1.00  0.00     0.020 A 
ENDROOT
BRANCH   1  12
ATOM     12  C   UNL     1    -104.574 186.641  50.230  1.00  0.00     0.025 A 
ATOM     13  C   UNL     1    -104.947 185.551  51.035  1.00  0.00     0.016 A 
ATOM     14  C   UNL     1    -104.126 184.424  51.121  1.00  0.00     0.051 A 
ATOM     15  C   UNL     1    -102.930 184.362  50.395  1.00  0.00     0.157 A 
ATOM     16  C   UNL     1    -103.384 186.567  49.488  1.00  0.00     0.062 A 
ATOM     17  C   UNL     1    -102.560 185.439  49.573  1.00  0.00     0.158 A 
BRANCH  15  18
ATOM     18  O   UNL     1    -102.112 183.237  50.485  1.00  0.00    -0.504 OA
ATOM     19  H   UNL     1    -101.567 183.042  51.317  1.00  0.00     0.293 HD
ENDBRANCH  15  18
BRANCH  17  20
ATOM     20  O   UNL     1    -101.378 185.407  48.832  1.00  0.00    -0.504 OA
ATOM     21  H   UNL     1    -100.644 184.734  49.018  1.00  0.00     0.293 HD
ENDBRANCH  17  20
ENDBRANCH   1  12
BRANCH   2  22
ATOM     22  O   UNL     1    -104.574 188.812  52.161  1.00  0.00    -0.502 OA
ATOM     23  H   UNL     1    -104.673 189.426  52.961  1.00  0.00     0.293 HD
ENDBRANCH   2  22
BRANCH   9  24
ATOM     24  O   UNL     1    -109.497 190.046  46.281  1.00  0.00    -0.508 OA
ATOM     25  H   UNL     1    -109.972 189.210  45.961  1.00  0.00     0.293 HD
ENDBRANCH   9  24
TORSDOF 5
ENDMDL
MODEL 8
REMARK VINA RESULT:    -4.774      2.643      6.423
REMARK INTER + INTRA:          -5.906
REMARK INTER:                  -5.605
REMARK INTRA:                  -0.301
REMARK UNBOUND:                -0.294
REMARK SMILES O=c1c(O)c(-c2ccc(O)c(O)c2)oc2cc(O)ccc12
REMARK SMILES IDX 5 1 3 2 2 3 1 4 21 5 15 6 14 7 16 8 17 9 19 10 20 11 6 12
REMARK SMILES IDX 7 13 8 14 9 15 13 16 11 17 10 18 12 20 4 22 18 24
REMARK H PARENT 10 19 12 21 4 23 18 25
REMARK Flexibility Score: inf
ROOT
ATOM      1  C   UNL     1    -105.609 185.310  51.120  1.00  0.00     0.180 A 
ATOM      2  C   UNL     1    -106.673 184.518  50.636  1.00  0.00     0.208 A 
ATOM      3  C   UNL     1    -107.873 184.480  51.363  1.00  0.00     0.235 A 
ATOM      4  O   UNL     1    -108.842 183.787  50.945  1.00  0.00    -0.285 OA
ATOM      5  C   UNL     1    -107.980 185.209  52.557  1.00  0.00     0.069 A 
ATOM      6  C   UNL     1    -106.863 185.959  52.986  1.00  0.00     0.142 A 
ATOM      7  O   UNL     1    -105.748 185.975  52.265  1.00  0.00    -0.452 OA
ATOM      8  C   UNL     1    -106.927 186.691  54.177  1.00  0.00     0.094 A 
ATOM      9  C   UNL     1    -108.096 186.688  54.944  1.00  0.00     0.119 A 
ATOM     10  C   UNL     1    -109.207 185.947  54.521  1.00  0.00     0.047 A 
ATOM     11  C   UNL     1    -109.152 185.211  53.334  1.00  0.00     0.020 A 
ENDROOT
BRANCH   1  12
ATOM     12  C   UNL     1    -104.319 185.417  50.402  1.00  0.00     0.025 A 
ATOM     13  C   UNL     1    -104.171 186.256  49.284  1.00  0.00     0.016 A 
ATOM     14  C   UNL     1    -102.937 186.358  48.637  1.00  0.00     0.051 A 
ATOM     15  C   UNL     1    -101.830 185.637  49.105  1.00  0.00     0.157 A 
ATOM     16  C   UNL     1    -103.202 184.712  50.880  1.00  0.00     0.062 A 
ATOM     17  C   UNL     1    -101.965 184.812  50.234  1.00  0.00     0.158 A 
BRANCH  15  18
ATOM     18  O   UNL     1    -100.600 185.740  48.456  1.00  0.00    -0.504 OA
ATOM     19  H   UNL     1     -99.846 185.091  48.645  1.00  0.00     0.293 HD
ENDBRANCH  15  18
BRANCH  17  20
ATOM     20  O   UNL     1    -100.881 184.087  50.729  1.00  0.00    -0.504 OA
ATOM     21  H   UNL     1    -100.517 184.232  51.663  1.00  0.00     0.293 HD
ENDBRANCH  17  20
ENDBRANCH   1  12
BRANCH   2  22
ATOM     22  O   UNL     1    -106.519 183.764  49.471  1.00  0.00    -0.502 OA
ATOM     23  H   UNL     1    -107.310 183.450  48.921  1.00  0.00     0.293 HD
ENDBRANCH   2  22
BRANCH   9  24
ATOM     24  O   UNL     1    -108.142 187.424  56.127  1.00  0.00    -0.508 OA
ATOM     25  H   UNL     1    -107.613 187.145  56.945  1.00  0.00     0.293 HD
ENDBRANCH   9  24
TORSDOF 5
ENDMDL
MODEL 9
REMARK VINA RESULT:    -4.774      1.357      1.934
REMARK INTER + INTRA:          -5.905
REMARK INTER:                  -5.636
REMARK INTRA:                  -0.269
REMARK UNBOUND:                -0.294
REMARK SMILES O=c1c(O)c(-c2ccc(O)c(O)c2)oc2cc(O)ccc12
REMARK SMILES IDX 5 1 3 2 2 3 1 4 21 5 15 6 14 7 16 8 17 9 19 10 20 11 6 12
REMARK SMILES IDX 7 13 8 14 9 15 13 16 11 17 10 18 12 20 4 22 18 24
REMARK H PARENT 10 19 12 21 4 23 18 25
REMARK Flexibility Score: inf
ROOT
ATOM      1  C   UNL     1    -105.564 184.382  52.737  1.00  0.00     0.180 A 
ATOM      2  C   UNL     1    -106.368 185.510  52.470  1.00  0.00     0.208 A 
ATOM      3  C   UNL     1    -106.024 186.348  51.399  1.00  0.00     0.235 A 
ATOM      4  O   UNL     1    -106.735 187.357  51.134  1.00  0.00    -0.285 OA
ATOM      5  C   UNL     1    -104.884 186.058  50.634  1.00  0.00     0.069 A 
ATOM      6  C   UNL     1    -104.118 184.924  50.978  1.00  0.00     0.142 A 
ATOM      7  O   UNL     1    -104.482 184.151  51.996  1.00  0.00    -0.452 OA
ATOM      8  C   UNL     1    -102.968 184.607  50.247  1.00  0.00     0.094 A 
ATOM      9  C   UNL     1    -102.574 185.408  49.170  1.00  0.00     0.119 A 
ATOM     10  C   UNL     1    -103.333 186.534  48.824  1.00  0.00     0.047 A 
ATOM     11  C   UNL     1    -104.483 186.860  49.550  1.00  0.00     0.020 A 
ENDROOT
BRANCH   1  12
ATOM     12  C   UNL     1    -105.870 183.440  53.837  1.00  0.00     0.025 A 
ATOM     13  C   UNL     1    -105.595 183.764  55.177  1.00  0.00     0.016 A 
ATOM     14  C   UNL     1    -105.916 182.868  56.200  1.00  0.00     0.051 A 
ATOM     15  C   UNL     1    -106.527 181.644  55.903  1.00  0.00     0.157 A 
ATOM     16  C   UNL     1    -106.503 182.220  53.545  1.00  0.00     0.062 A 
ATOM     17  C   UNL     1    -106.824 181.321  54.568  1.00  0.00     0.158 A 
BRANCH  15  18
ATOM     18  O   UNL     1    -106.844 180.750  56.926  1.00  0.00    -0.504 OA
ATOM     19  H   UNL     1    -107.087 179.786  56.731  1.00  0.00     0.293 HD
ENDBRANCH  15  18
BRANCH  17  20
ATOM     20  O   UNL     1    -107.439 180.112  54.239  1.00  0.00    -0.504 OA
ATOM     21  H   UNL     1    -106.956 179.384  53.726  1.00  0.00     0.293 HD
ENDBRANCH  17  20
ENDBRANCH   1  12
BRANCH   2  22
ATOM     22  O   UNL     1    -107.469 185.800  53.280  1.00  0.00    -0.502 OA
ATOM     23  H   UNL     1    -108.030 186.634  53.152  1.00  0.00     0.293 HD
ENDBRANCH   2  22
BRANCH   9  24
ATOM     24  O   UNL     1    -101.427 185.077  48.452  1.00  0.00    -0.508 OA
ATOM     25  H   UNL     1    -101.093 185.658  47.691  1.00  0.00     0.293 HD
ENDBRANCH   9  24
TORSDOF 5
ENDMDL
