MODEL 1
REMARK VINA RESULT:    -4.144      0.000      0.000
REMARK INTER + INTRA:          -4.848
REMARK INTER:                  -4.749
REMARK INTRA:                  -0.098
REMARK UNBOUND:                -0.098
REMARK SMILES COc1cc(C(=O)[O-])ccc1O
REMARK SMILES IDX 5 1 9 2 4 3 10 4 3 5 11 6 6 7 7 8 8 9 2 10 1 11 12 12
REMARK H PARENT 12 13
REMARK Flexibility Score: inf
ROOT
ATOM      1  C   UNL     1      23.740   6.994  -5.365  1.00  0.00     0.001 A 
ATOM      2  C   UNL     1      23.085   5.854  -5.857  1.00  0.00     0.014 A 
ATOM      3  C   UNL     1      23.203   8.264  -5.645  1.00  0.00     0.060 A 
ATOM      4  C   UNL     1      21.919   5.978  -6.612  1.00  0.00     0.051 A 
ATOM      5  C   UNL     1      22.026   8.395  -6.408  1.00  0.00     0.161 A 
ATOM      6  C   UNL     1      21.387   7.244  -6.888  1.00  0.00     0.157 A 
ENDROOT
BRANCH   1   7
ATOM      7  C   UNL     1      24.977   6.856  -4.564  1.00  0.00     0.072 C 
ATOM      8  O   UNL     1      26.014   7.503  -4.868  1.00  0.00    -0.545 OA
ATOM      9  O   UNL     1      25.011   6.008  -3.463  1.00  0.00    -0.545 OA
ENDBRANCH   1   7
BRANCH   5  10
ATOM     10  O   UNL     1      21.461   9.646  -6.706  1.00  0.00    -0.493 OA
ATOM     11  C   UNL     1      21.951  10.534  -7.705  1.00  0.00     0.278 C 
ENDBRANCH   5  10
BRANCH   6  12
ATOM     12  O   UNL     1      20.221   7.367  -7.643  1.00  0.00    -0.504 OA
ATOM     13  H   UNL     1      20.189   7.939  -8.479  1.00  0.00     0.293 HD
ENDBRANCH   6  12
TORSDOF 3
ENDMDL
MODEL 2
REMARK VINA RESULT:    -4.139      2.411      3.898
REMARK INTER + INTRA:          -4.842
REMARK INTER:                  -4.754
REMARK INTRA:                  -0.088
REMARK UNBOUND:                -0.098
REMARK SMILES COc1cc(C(=O)[O-])ccc1O
REMARK SMILES IDX 5 1 9 2 4 3 10 4 3 5 11 6 6 7 7 8 8 9 2 10 1 11 12 12
REMARK H PARENT 12 13
REMARK Flexibility Score: inf
ROOT
ATOM      1  C   UNL     1      21.694   7.471  -7.011  1.00  0.00     0.001 A 
ATOM      2  C   UNL     1      22.202   7.448  -5.702  1.00  0.00     0.014 A 
ATOM      3  C   UNL     1      21.892   8.618  -7.801  1.00  0.00     0.060 A 
ATOM      4  C   UNL     1      22.893   8.547  -5.192  1.00  0.00     0.051 A 
ATOM      5  C   UNL     1      22.589   9.731  -7.290  1.00  0.00     0.161 A 
ATOM      6  C   UNL     1      23.088   9.688  -5.981  1.00  0.00     0.157 A 
ENDROOT
BRANCH   1   7
ATOM      7  C   UNL     1      20.962   6.300  -7.547  1.00  0.00     0.072 C 
ATOM      8  O   UNL     1      19.702   6.285  -7.565  1.00  0.00    -0.545 OA
ATOM      9  O   UNL     1      21.656   5.201  -8.037  1.00  0.00    -0.545 OA
ENDBRANCH   1   7
BRANCH   5  10
ATOM     10  O   UNL     1      22.806  10.892  -8.049  1.00  0.00    -0.493 OA
ATOM     11  C   UNL     1      21.775  11.657  -8.666  1.00  0.00     0.278 C 
ENDBRANCH   5  10
BRANCH   6  12
ATOM     12  O   UNL     1      23.778  10.786  -5.470  1.00  0.00    -0.504 OA
ATOM     13  H   UNL     1      23.511  11.220  -4.594  1.00  0.00     0.293 HD
ENDBRANCH   6  12
TORSDOF 3
ENDMDL
MODEL 3
REMARK VINA RESULT:    -4.119      2.400      4.445
REMARK INTER + INTRA:          -4.819
REMARK INTER:                  -4.751
REMARK INTRA:                  -0.068
REMARK UNBOUND:                -0.098
REMARK SMILES COc1cc(C(=O)[O-])ccc1O
REMARK SMILES IDX 5 1 9 2 4 3 10 4 3 5 11 6 6 7 7 8 8 9 2 10 1 11 12 12
REMARK H PARENT 12 13
REMARK Flexibility Score: inf
ROOT
ATOM      1  C   UNL     1      22.029   9.081  -7.430  1.00  0.00     0.001 A 
ATOM      2  C   UNL     1      22.296   8.866  -6.068  1.00  0.00     0.014 A 
ATOM      3  C   UNL     1      21.622   7.995  -8.227  1.00  0.00     0.060 A 
ATOM      4  C   UNL     1      22.159   7.593  -5.513  1.00  0.00     0.051 A 
ATOM      5  C   UNL     1      21.483   6.708  -7.671  1.00  0.00     0.161 A 
ATOM      6  C   UNL     1      21.754   6.514  -6.309  1.00  0.00     0.157 A 
ENDROOT
BRANCH   1   7
ATOM      7  C   UNL     1      22.175  10.434  -8.013  1.00  0.00     0.072 C 
ATOM      8  O   UNL     1      21.251  11.284  -7.898  1.00  0.00    -0.545 OA
ATOM      9  O   UNL     1      23.332  10.785  -8.696  1.00  0.00    -0.545 OA
ENDBRANCH   1   7
BRANCH   5  10
ATOM     10  O   UNL     1      21.079   5.601  -8.435  1.00  0.00    -0.493 OA
ATOM     11  C   UNL     1      21.968   4.729  -9.125  1.00  0.00     0.278 C 
ENDBRANCH   5  10
BRANCH   6  12
ATOM     12  O   UNL     1      21.618   5.243  -5.753  1.00  0.00    -0.504 OA
ATOM     13  H   UNL     1      20.733   4.918  -5.382  1.00  0.00     0.293 HD
ENDBRANCH   6  12
TORSDOF 3
ENDMDL
MODEL 4
REMARK VINA RESULT:    -4.048      1.517      4.148
REMARK INTER + INTRA:          -4.738
REMARK INTER:                  -4.642
REMARK INTRA:                  -0.096
REMARK UNBOUND:                -0.098
REMARK SMILES COc1cc(C(=O)[O-])ccc1O
REMARK SMILES IDX 5 1 9 2 4 3 10 4 3 5 11 6 6 7 7 8 8 9 2 10 1 11 12 12
REMARK H PARENT 12 13
REMARK Flexibility Score: inf
ROOT
ATOM      1  C   UNL     1      22.316   8.561  -6.805  1.00  0.00     0.001 A 
ATOM      2  C   UNL     1      21.243   7.710  -7.116  1.00  0.00     0.014 A 
ATOM      3  C   UNL     1      23.450   8.026  -6.166  1.00  0.00     0.060 A 
ATOM      4  C   UNL     1      21.300   6.354  -6.794  1.00  0.00     0.051 A 
ATOM      5  C   UNL     1      23.512   6.657  -5.839  1.00  0.00     0.161 A 
ATOM      6  C   UNL     1      22.430   5.825  -6.158  1.00  0.00     0.157 A 
ENDROOT
BRANCH   1   7
ATOM      7  C   UNL     1      22.250   9.999  -7.150  1.00  0.00     0.072 C 
ATOM      8  O   UNL     1      23.222  10.568  -7.715  1.00  0.00    -0.545 OA
ATOM      9  O   UNL     1      21.115  10.743  -6.852  1.00  0.00    -0.545 OA
ENDBRANCH   1   7
BRANCH   5  10
ATOM     10  O   UNL     1      24.626   6.088  -5.201  1.00  0.00    -0.493 OA
ATOM     11  C   UNL     1      25.055   6.415  -3.883  1.00  0.00     0.278 C 
ENDBRANCH   5  10
BRANCH   6  12
ATOM     12  O   UNL     1      22.485   4.469  -5.837  1.00  0.00    -0.504 OA
ATOM     13  H   UNL     1      22.795   4.152  -4.926  1.00  0.00     0.293 HD
ENDBRANCH   6  12
TORSDOF 3
ENDMDL
MODEL 5
REMARK VINA RESULT:    -3.975      1.224      2.702
REMARK INTER + INTRA:          -4.654
REMARK INTER:                  -4.574
REMARK INTRA:                  -0.080
REMARK UNBOUND:                -0.098
REMARK SMILES COc1cc(C(=O)[O-])ccc1O
REMARK SMILES IDX 5 1 9 2 4 3 10 4 3 5 11 6 6 7 7 8 8 9 2 10 1 11 12 12
REMARK H PARENT 12 13
REMARK Flexibility Score: inf
ROOT
ATOM      1  C   UNL     1      23.636   6.991  -5.338  1.00  0.00     0.001 A 
ATOM      2  C   UNL     1      22.804   8.120  -5.265  1.00  0.00     0.014 A 
ATOM      3  C   UNL     1      23.287   5.939  -6.205  1.00  0.00     0.060 A 
ATOM      4  C   UNL     1      21.648   8.197  -6.042  1.00  0.00     0.051 A 
ATOM      5  C   UNL     1      22.120   6.013  -6.992  1.00  0.00     0.161 A 
ATOM      6  C   UNL     1      21.304   7.149  -6.905  1.00  0.00     0.157 A 
ENDROOT
BRANCH   1   7
ATOM      7  C   UNL     1      24.862   6.915  -4.512  1.00  0.00     0.072 C 
ATOM      8  O   UNL     1      25.853   7.650  -4.766  1.00  0.00    -0.545 OA
ATOM      9  O   UNL     1      24.937   6.029  -3.444  1.00  0.00    -0.545 OA
ENDBRANCH   1   7
BRANCH   5  10
ATOM     10  O   UNL     1      21.741   4.984  -7.869  1.00  0.00    -0.493 OA
ATOM     11  C   UNL     1      22.653   4.184  -8.615  1.00  0.00     0.278 C 
ENDBRANCH   5  10
BRANCH   6  12
ATOM     12  O   UNL     1      20.148   7.228  -7.681  1.00  0.00    -0.504 OA
ATOM     13  H   UNL     1      19.825   6.442  -8.232  1.00  0.00     0.293 HD
ENDBRANCH   6  12
TORSDOF 3
ENDMDL
MODEL 6
REMARK VINA RESULT:    -3.958      1.996      3.047
REMARK INTER + INTRA:          -4.635
REMARK INTER:                  -4.547
REMARK INTRA:                  -0.088
REMARK UNBOUND:                -0.098
REMARK SMILES COc1cc(C(=O)[O-])ccc1O
REMARK SMILES IDX 5 1 9 2 4 3 10 4 3 5 11 6 6 7 7 8 8 9 2 10 1 11 12 12
REMARK H PARENT 12 13
REMARK Flexibility Score: inf
ROOT
ATOM      1  C   UNL     1      23.677   8.970  -6.208  1.00  0.00     0.001 A 
ATOM      2  C   UNL     1      24.199   7.889  -5.480  1.00  0.00     0.014 A 
ATOM      3  C   UNL     1      22.444   8.816  -6.869  1.00  0.00     0.060 A 
ATOM      4  C   UNL     1      23.506   6.680  -5.412  1.00  0.00     0.051 A 
ATOM      5  C   UNL     1      21.740   7.598  -6.803  1.00  0.00     0.161 A 
ATOM      6  C   UNL     1      22.279   6.531  -6.070  1.00  0.00     0.157 A 
ENDROOT
BRANCH   1   7
ATOM      7  C   UNL     1      24.417  10.250  -6.276  1.00  0.00     0.072 C 
ATOM      8  O   UNL     1      24.602  10.826  -7.382  1.00  0.00    -0.545 OA
ATOM      9  O   UNL     1      24.920  10.834  -5.120  1.00  0.00    -0.545 OA
ENDBRANCH   1   7
BRANCH   5  10
ATOM     10  O   UNL     1      20.507   7.409  -7.448  1.00  0.00    -0.493 OA
ATOM     11  C   UNL     1      20.361   7.005  -8.806  1.00  0.00     0.278 C 
ENDBRANCH   5  10
BRANCH   6  12
ATOM     12  O   UNL     1      21.587   5.323  -6.001  1.00  0.00    -0.504 OA
ATOM     13  H   UNL     1      20.946   5.121  -5.242  1.00  0.00     0.293 HD
ENDBRANCH   6  12
TORSDOF 3
ENDMDL
MODEL 7
REMARK VINA RESULT:    -3.943      1.145      2.481
REMARK INTER + INTRA:          -4.618
REMARK INTER:                  -4.535
REMARK INTRA:                  -0.083
REMARK UNBOUND:                -0.098
REMARK SMILES COc1cc(C(=O)[O-])ccc1O
REMARK SMILES IDX 5 1 9 2 4 3 10 4 3 5 11 6 6 7 7 8 8 9 2 10 1 11 12 12
REMARK H PARENT 12 13
REMARK Flexibility Score: inf
ROOT
ATOM      1  C   UNL     1      23.787   7.318  -5.401  1.00  0.00     0.001 A 
ATOM      2  C   UNL     1      24.223   8.653  -5.375  1.00  0.00     0.014 A 
ATOM      3  C   UNL     1      22.549   7.015  -5.998  1.00  0.00     0.060 A 
ATOM      4  C   UNL     1      23.440   9.664  -5.932  1.00  0.00     0.051 A 
ATOM      5  C   UNL     1      21.754   8.033  -6.562  1.00  0.00     0.161 A 
ATOM      6  C   UNL     1      22.208   9.359  -6.525  1.00  0.00     0.157 A 
ENDROOT
BRANCH   1   7
ATOM      7  C   UNL     1      24.623   6.249  -4.809  1.00  0.00     0.072 C 
ATOM      8  O   UNL     1      25.014   5.278  -5.511  1.00  0.00    -0.545 OA
ATOM      9  O   UNL     1      24.987   6.301  -3.469  1.00  0.00    -0.545 OA
ENDBRANCH   1   7
BRANCH   5  10
ATOM     10  O   UNL     1      20.515   7.769  -7.165  1.00  0.00    -0.493 OA
ATOM     11  C   UNL     1      20.254   6.659  -8.019  1.00  0.00     0.278 C 
ENDBRANCH   5  10
BRANCH   6  12
ATOM     12  O   UNL     1      21.427  10.370  -7.082  1.00  0.00    -0.504 OA
ATOM     13  H   UNL     1      20.878  10.217  -7.920  1.00  0.00     0.293 HD
ENDBRANCH   6  12
TORSDOF 3
ENDMDL
MODEL 8
REMARK VINA RESULT:    -3.865      1.647      4.452
REMARK INTER + INTRA:          -4.528
REMARK INTER:                  -4.448
REMARK INTRA:                  -0.080
REMARK UNBOUND:                -0.098
REMARK SMILES COc1cc(C(=O)[O-])ccc1O
REMARK SMILES IDX 5 1 9 2 4 3 10 4 3 5 11 6 6 7 7 8 8 9 2 10 1 11 12 12
REMARK H PARENT 12 13
REMARK Flexibility Score: inf
ROOT
ATOM      1  C   UNL     1      22.059   7.904  -6.491  1.00  0.00     0.001 A 
ATOM      2  C   UNL     1      21.631   9.241  -6.504  1.00  0.00     0.014 A 
ATOM      3  C   UNL     1      23.383   7.613  -6.111  1.00  0.00     0.060 A 
ATOM      4  C   UNL     1      22.505  10.267  -6.145  1.00  0.00     0.051 A 
ATOM      5  C   UNL     1      24.270   8.647  -5.748  1.00  0.00     0.161 A 
ATOM      6  C   UNL     1      23.822   9.975  -5.768  1.00  0.00     0.157 A 
ENDROOT
BRANCH   1   7
ATOM      7  C   UNL     1      21.127   6.818  -6.871  1.00  0.00     0.072 C 
ATOM      8  O   UNL     1      20.276   6.995  -7.784  1.00  0.00    -0.545 OA
ATOM      9  O   UNL     1      21.176   5.589  -6.225  1.00  0.00    -0.545 OA
ENDBRANCH   1   7
BRANCH   5  10
ATOM     10  O   UNL     1      25.596   8.395  -5.364  1.00  0.00    -0.493 OA
ATOM     11  C   UNL     1      26.124   7.102  -5.084  1.00  0.00     0.278 C 
ENDBRANCH   5  10
BRANCH   6  12
ATOM     12  O   UNL     1      24.694  11.002  -5.410  1.00  0.00    -0.504 OA
ATOM     13  H   UNL     1      24.354  11.918  -5.141  1.00  0.00     0.293 HD
ENDBRANCH   6  12
TORSDOF 3
ENDMDL
MODEL 9
REMARK VINA RESULT:    -3.822      2.230      4.112
REMARK INTER + INTRA:          -4.478
REMARK INTER:                  -4.378
REMARK INTRA:                  -0.101
REMARK UNBOUND:                -0.098
REMARK SMILES COc1cc(C(=O)[O-])ccc1O
REMARK SMILES IDX 5 1 9 2 4 3 10 4 3 5 11 6 6 7 7 8 8 9 2 10 1 11 12 12
REMARK H PARENT 12 13
REMARK Flexibility Score: inf
ROOT
ATOM      1  C   UNL     1      22.013   8.346  -6.938  1.00  0.00     0.001 A 
ATOM      2  C   UNL     1      21.675   8.078  -8.274  1.00  0.00     0.014 A 
ATOM      3  C   UNL     1      22.314   7.272  -6.080  1.00  0.00     0.060 A 
ATOM      4  C   UNL     1      21.638   6.765  -8.745  1.00  0.00     0.051 A 
ATOM      5  C   UNL     1      22.277   5.944  -6.551  1.00  0.00     0.161 A 
ATOM      6  C   UNL     1      21.938   5.698  -7.889  1.00  0.00     0.157 A 
ENDROOT
BRANCH   1   7
ATOM      7  C   UNL     1      22.052   9.741  -6.444  1.00  0.00     0.072 C 
ATOM      8  O   UNL     1      21.258  10.606  -6.903  1.00  0.00    -0.545 OA
ATOM      9  O   UNL     1      22.967  10.117  -5.468  1.00  0.00    -0.545 OA
ENDBRANCH   1   7
BRANCH   5  10
ATOM     10  O   UNL     1      22.571   4.848  -5.725  1.00  0.00    -0.493 OA
ATOM     11  C   UNL     1      23.888   4.423  -5.387  1.00  0.00     0.278 C 
ENDBRANCH   5  10
BRANCH   6  12
ATOM     12  O   UNL     1      21.900   4.387  -8.360  1.00  0.00    -0.504 OA
ATOM     13  H   UNL     1      22.529   3.676  -8.003  1.00  0.00     0.293 HD
ENDBRANCH   6  12
TORSDOF 3
ENDMDL
