MODEL 1
REMARK VINA RESULT:    -4.846      0.000      0.000
REMARK INTER + INTRA:          -5.707
REMARK INTER:                  -5.412
REMARK INTRA:                  -0.295
REMARK UNBOUND:                -0.295
REMARK SMILES CC(=O)c1ccc(O)cc1O
REMARK SMILES IDX 4 1 10 2 9 3 7 4 6 5 5 6 2 7 1 8 3 9 11 10 8 12
REMARK H PARENT 11 11 8 13
REMARK Flexibility Score: inf
ROOT
ATOM      1  C   UNL     1      17.416  19.005  16.573  1.00  0.00     0.059 A 
ATOM      2  C   UNL     1      17.223  17.682  17.039  1.00  0.00     0.130 A 
ATOM      3  C   UNL     1      17.566  17.345  18.357  1.00  0.00     0.093 A 
ATOM      4  C   UNL     1      18.095  18.305  19.222  1.00  0.00     0.119 A 
ATOM      5  C   UNL     1      18.286  19.614  18.770  1.00  0.00     0.047 A 
ATOM      6  C   UNL     1      17.951  19.962  17.460  1.00  0.00     0.019 A 
ENDROOT
BRANCH   1   7
ATOM      7  C   UNL     1      17.071  19.389  15.174  1.00  0.00     0.163 C 
ATOM      8  C   UNL     1      16.460  20.721  14.849  1.00  0.00     0.093 C 
ATOM      9  O   UNL     1      17.316  18.601  14.221  1.00  0.00    -0.294 OA
ENDBRANCH   1   7
BRANCH   2  10
ATOM     10  O   UNL     1      16.683  16.703  16.203  1.00  0.00    -0.507 OA
ATOM     11  H   UNL     1      15.780  16.283  16.389  1.00  0.00     0.293 HD
ENDBRANCH   2  10
BRANCH   4  12
ATOM     12  O   UNL     1      18.427  17.947  20.527  1.00  0.00    -0.508 OA
ATOM     13  H   UNL     1      19.343  18.142  20.912  1.00  0.00     0.293 HD
ENDBRANCH   4  12
TORSDOF 3
ENDMDL
MODEL 2
REMARK VINA RESULT:    -4.796      2.238      2.960
REMARK INTER + INTRA:          -5.651
REMARK INTER:                  -5.350
REMARK INTRA:                  -0.302
REMARK UNBOUND:                -0.295
REMARK SMILES CC(=O)c1ccc(O)cc1O
REMARK SMILES IDX 4 1 10 2 9 3 7 4 6 5 5 6 2 7 1 8 3 9 11 10 8 12
REMARK H PARENT 11 11 8 13
REMARK Flexibility Score: inf
ROOT
ATOM      1  C   UNL     1      15.794  18.639  16.614  1.00  0.00     0.059 A 
ATOM      2  C   UNL     1      16.382  19.919  16.467  1.00  0.00     0.130 A 
ATOM      3  C   UNL     1      17.555  20.237  17.168  1.00  0.00     0.093 A 
ATOM      4  C   UNL     1      18.156  19.300  18.010  1.00  0.00     0.119 A 
ATOM      5  C   UNL     1      17.584  18.033  18.158  1.00  0.00     0.047 A 
ATOM      6  C   UNL     1      16.415  17.705  17.468  1.00  0.00     0.019 A 
ENDROOT
BRANCH   1   7
ATOM      7  C   UNL     1      14.541  18.277  15.889  1.00  0.00     0.163 C 
ATOM      8  C   UNL     1      13.407  17.577  16.577  1.00  0.00     0.093 C 
ATOM      9  O   UNL     1      14.399  18.584  14.675  1.00  0.00    -0.294 OA
ENDBRANCH   1   7
BRANCH   2  10
ATOM     10  O   UNL     1      15.813  20.872  15.621  1.00  0.00    -0.507 OA
ATOM     11  H   UNL     1      15.763  20.733  14.619  1.00  0.00     0.293 HD
ENDBRANCH   2  10
BRANCH   4  12
ATOM     12  O   UNL     1      19.321  19.638  18.695  1.00  0.00    -0.508 OA
ATOM     13  H   UNL     1      19.750  19.002  19.357  1.00  0.00     0.293 HD
ENDBRANCH   4  12
TORSDOF 3
ENDMDL
MODEL 3
REMARK VINA RESULT:    -4.558      1.861      2.134
REMARK INTER + INTRA:          -5.385
REMARK INTER:                  -5.122
REMARK INTRA:                  -0.263
REMARK UNBOUND:                -0.295
REMARK SMILES CC(=O)c1ccc(O)cc1O
REMARK SMILES IDX 4 1 10 2 9 3 7 4 6 5 5 6 2 7 1 8 3 9 11 10 8 12
REMARK H PARENT 11 11 8 13
REMARK Flexibility Score: inf
ROOT
ATOM      1  C   UNL     1      15.884  18.986  16.215  1.00  0.00     0.059 A 
ATOM      2  C   UNL     1      16.291  17.972  17.116  1.00  0.00     0.130 A 
ATOM      3  C   UNL     1      17.407  18.174  17.943  1.00  0.00     0.093 A 
ATOM      4  C   UNL     1      18.123  19.371  17.891  1.00  0.00     0.119 A 
ATOM      5  C   UNL     1      17.725  20.379  17.007  1.00  0.00     0.047 A 
ATOM      6  C   UNL     1      16.618  20.189  16.177  1.00  0.00     0.019 A 
ENDROOT
BRANCH   1   7
ATOM      7  C   UNL     1      14.708  18.794  15.317  1.00  0.00     0.163 C 
ATOM      8  C   UNL     1      14.626  19.458  13.974  1.00  0.00     0.093 C 
ATOM      9  O   UNL     1      13.762  18.037  15.664  1.00  0.00    -0.294 OA
ENDBRANCH   1   7
BRANCH   2  10
ATOM     10  O   UNL     1      15.588  16.770  17.202  1.00  0.00    -0.507 OA
ATOM     11  H   UNL     1      16.057  15.889  17.375  1.00  0.00     0.293 HD
ENDBRANCH   2  10
BRANCH   4  12
ATOM     12  O   UNL     1      19.226  19.550  18.722  1.00  0.00    -0.508 OA
ATOM     13  H   UNL     1      19.608  18.785  19.266  1.00  0.00     0.293 HD
ENDBRANCH   4  12
TORSDOF 3
ENDMDL
MODEL 4
REMARK VINA RESULT:    -4.525      1.402      2.383
REMARK INTER + INTRA:          -5.349
REMARK INTER:                  -5.046
REMARK INTRA:                  -0.303
REMARK UNBOUND:                -0.295
REMARK SMILES CC(=O)c1ccc(O)cc1O
REMARK SMILES IDX 4 1 10 2 9 3 7 4 6 5 5 6 2 7 1 8 3 9 11 10 8 12
REMARK H PARENT 11 11 8 13
REMARK Flexibility Score: inf
ROOT
ATOM      1  C   UNL     1      17.312  18.469  16.051  1.00  0.00     0.059 A 
ATOM      2  C   UNL     1      17.563  19.764  16.567  1.00  0.00     0.130 A 
ATOM      3  C   UNL     1      17.878  19.929  17.925  1.00  0.00     0.093 A 
ATOM      4  C   UNL     1      17.950  18.826  18.777  1.00  0.00     0.119 A 
ATOM      5  C   UNL     1      17.707  17.545  18.275  1.00  0.00     0.047 A 
ATOM      6  C   UNL     1      17.390  17.367  16.926  1.00  0.00     0.019 A 
ENDROOT
BRANCH   1   7
ATOM      7  C   UNL     1      16.964  18.265  14.615  1.00  0.00     0.163 C 
ATOM      8  C   UNL     1      17.751  17.336  13.738  1.00  0.00     0.093 C 
ATOM      9  O   UNL     1      15.970  18.855  14.113  1.00  0.00    -0.294 OA
ENDBRANCH   1   7
BRANCH   2  10
ATOM     10  O   UNL     1      17.513  20.884  15.737  1.00  0.00    -0.507 OA
ATOM     11  H   UNL     1      16.674  21.446  15.651  1.00  0.00     0.293 HD
ENDBRANCH   2  10
BRANCH   4  12
ATOM     12  O   UNL     1      18.267  19.015  20.121  1.00  0.00    -0.508 OA
ATOM     13  H   UNL     1      17.897  19.798  20.647  1.00  0.00     0.293 HD
ENDBRANCH   4  12
TORSDOF 3
ENDMDL
MODEL 5
REMARK VINA RESULT:    -4.473      1.812      4.545
REMARK INTER + INTRA:          -5.291
REMARK INTER:                  -4.984
REMARK INTRA:                  -0.307
REMARK UNBOUND:                -0.295
REMARK SMILES CC(=O)c1ccc(O)cc1O
REMARK SMILES IDX 4 1 10 2 9 3 7 4 6 5 5 6 2 7 1 8 3 9 11 10 8 12
REMARK H PARENT 11 11 8 13
REMARK Flexibility Score: inf
ROOT
ATOM      1  C   UNL     1      17.420  18.869  17.324  1.00  0.00     0.059 A 
ATOM      2  C   UNL     1      16.694  20.054  17.055  1.00  0.00     0.130 A 
ATOM      3  C   UNL     1      16.105  20.247  15.796  1.00  0.00     0.093 A 
ATOM      4  C   UNL     1      16.223  19.276  14.800  1.00  0.00     0.119 A 
ATOM      5  C   UNL     1      16.935  18.101  15.059  1.00  0.00     0.047 A 
ATOM      6  C   UNL     1      17.528  17.898  16.307  1.00  0.00     0.019 A 
ENDROOT
BRANCH   1   7
ATOM      7  C   UNL     1      18.065  18.642  18.650  1.00  0.00     0.163 C 
ATOM      8  C   UNL     1      17.873  17.364  19.412  1.00  0.00     0.093 C 
ATOM      9  O   UNL     1      18.818  19.522  19.147  1.00  0.00    -0.294 OA
ENDBRANCH   1   7
BRANCH   2  10
ATOM     10  O   UNL     1      16.546  21.037  18.035  1.00  0.00    -0.507 OA
ATOM     11  H   UNL     1      15.745  21.055  18.655  1.00  0.00     0.293 HD
ENDBRANCH   2  10
BRANCH   4  12
ATOM     12  O   UNL     1      15.629  19.488  13.558  1.00  0.00    -0.508 OA
ATOM     13  H   UNL     1      16.181  19.555  12.711  1.00  0.00     0.293 HD
ENDBRANCH   4  12
TORSDOF 3
ENDMDL
MODEL 6
REMARK VINA RESULT:    -4.444      1.687      4.114
REMARK INTER + INTRA:          -5.258
REMARK INTER:                  -4.975
REMARK INTRA:                  -0.283
REMARK UNBOUND:                -0.295
REMARK SMILES CC(=O)c1ccc(O)cc1O
REMARK SMILES IDX 4 1 10 2 9 3 7 4 6 5 5 6 2 7 1 8 3 9 11 10 8 12
REMARK H PARENT 11 11 8 13
REMARK Flexibility Score: inf
ROOT
ATOM      1  C   UNL     1      16.963  19.044  17.183  1.00  0.00     0.059 A 
ATOM      2  C   UNL     1      15.837  18.234  16.899  1.00  0.00     0.130 A 
ATOM      3  C   UNL     1      15.003  18.546  15.814  1.00  0.00     0.093 A 
ATOM      4  C   UNL     1      15.275  19.650  15.003  1.00  0.00     0.119 A 
ATOM      5  C   UNL     1      16.387  20.452  15.275  1.00  0.00     0.047 A 
ATOM      6  C   UNL     1      17.223  20.154  16.354  1.00  0.00     0.019 A 
ENDROOT
BRANCH   1   7
ATOM      7  C   UNL     1      17.860  18.742  18.336  1.00  0.00     0.163 C 
ATOM      8  C   UNL     1      18.480  19.833  19.159  1.00  0.00     0.093 C 
ATOM      9  O   UNL     1      18.093  17.548  18.663  1.00  0.00    -0.294 OA
ENDBRANCH   1   7
BRANCH   2  10
ATOM     10  O   UNL     1      15.547  17.116  17.682  1.00  0.00    -0.507 OA
ATOM     11  H   UNL     1      16.249  16.679  18.267  1.00  0.00     0.293 HD
ENDBRANCH   2  10
BRANCH   4  12
ATOM     12  O   UNL     1      14.435  19.939  13.931  1.00  0.00    -0.508 OA
ATOM     13  H   UNL     1      14.078  19.208  13.326  1.00  0.00     0.293 HD
ENDBRANCH   4  12
TORSDOF 3
ENDMDL
MODEL 7
REMARK VINA RESULT:    -4.429      1.666      2.140
REMARK INTER + INTRA:          -5.241
REMARK INTER:                  -4.933
REMARK INTRA:                  -0.309
REMARK UNBOUND:                -0.295
REMARK SMILES CC(=O)c1ccc(O)cc1O
REMARK SMILES IDX 4 1 10 2 9 3 7 4 6 5 5 6 2 7 1 8 3 9 11 10 8 12
REMARK H PARENT 11 11 8 13
REMARK Flexibility Score: inf
ROOT
ATOM      1  C   UNL     1      17.214  18.394  15.528  1.00  0.00     0.059 A 
ATOM      2  C   UNL     1      17.551  17.731  16.732  1.00  0.00     0.130 A 
ATOM      3  C   UNL     1      17.808  18.474  17.895  1.00  0.00     0.093 A 
ATOM      4  C   UNL     1      17.730  19.867  17.879  1.00  0.00     0.119 A 
ATOM      5  C   UNL     1      17.394  20.529  16.695  1.00  0.00     0.047 A 
ATOM      6  C   UNL     1      17.139  19.802  15.530  1.00  0.00     0.019 A 
ENDROOT
BRANCH   1   7
ATOM      7  C   UNL     1      16.947  17.631  14.274  1.00  0.00     0.163 C 
ATOM      8  C   UNL     1      17.674  17.933  12.997  1.00  0.00     0.093 C 
ATOM      9  O   UNL     1      16.114  16.684  14.273  1.00  0.00    -0.294 OA
ENDBRANCH   1   7
BRANCH   2  10
ATOM     10  O   UNL     1      17.623  16.338  16.783  1.00  0.00    -0.507 OA
ATOM     11  H   UNL     1      18.114  15.857  17.528  1.00  0.00     0.293 HD
ENDBRANCH   2  10
BRANCH   4  12
ATOM     12  O   UNL     1      17.987  20.584  19.046  1.00  0.00    -0.508 OA
ATOM     13  H   UNL     1      17.426  21.385  19.310  1.00  0.00     0.293 HD
ENDBRANCH   4  12
TORSDOF 3
ENDMDL
MODEL 8
REMARK VINA RESULT:    -4.318     11.477     13.078
REMARK INTER + INTRA:          -5.117
REMARK INTER:                  -4.809
REMARK INTRA:                  -0.308
REMARK UNBOUND:                -0.295
REMARK SMILES CC(=O)c1ccc(O)cc1O
REMARK SMILES IDX 4 1 10 2 9 3 7 4 6 5 5 6 2 7 1 8 3 9 11 10 8 12
REMARK H PARENT 11 11 8 13
REMARK Flexibility Score: inf
ROOT
ATOM      1  C   UNL     1      15.605   8.983  10.569  1.00  0.00     0.059 A 
ATOM      2  C   UNL     1      16.516   8.520   9.589  1.00  0.00     0.130 A 
ATOM      3  C   UNL     1      16.097   7.591   8.624  1.00  0.00     0.093 A 
ATOM      4  C   UNL     1      14.784   7.117   8.618  1.00  0.00     0.119 A 
ATOM      5  C   UNL     1      13.878   7.571   9.580  1.00  0.00     0.047 A 
ATOM      6  C   UNL     1      14.283   8.494  10.547  1.00  0.00     0.019 A 
ENDROOT
BRANCH   1   7
ATOM      7  C   UNL     1      16.027   9.962  11.613  1.00  0.00     0.163 C 
ATOM      8  C   UNL     1      15.832   9.689  13.075  1.00  0.00     0.093 C 
ATOM      9  O   UNL     1      16.588  11.041  11.280  1.00  0.00    -0.294 OA
ENDBRANCH   1   7
BRANCH   2  10
ATOM     10  O   UNL     1      17.831   8.986   9.560  1.00  0.00    -0.507 OA
ATOM     11  H   UNL     1      18.522   8.674  10.232  1.00  0.00     0.293 HD
ENDBRANCH   2  10
BRANCH   4  12
ATOM     12  O   UNL     1      14.390   6.196   7.650  1.00  0.00    -0.508 OA
ATOM     13  H   UNL     1      14.917   5.347   7.481  1.00  0.00     0.293 HD
ENDBRANCH   4  12
TORSDOF 3
ENDMDL
MODEL 9
REMARK VINA RESULT:    -4.199      7.091      8.364
REMARK INTER + INTRA:          -4.984
REMARK INTER:                  -4.683
REMARK INTRA:                  -0.301
REMARK UNBOUND:                -0.295
REMARK SMILES CC(=O)c1ccc(O)cc1O
REMARK SMILES IDX 4 1 10 2 9 3 7 4 6 5 5 6 2 7 1 8 3 9 11 10 8 12
REMARK H PARENT 11 11 8 13
REMARK Flexibility Score: inf
ROOT
ATOM      1  C   UNL     1      18.865  13.391  11.759  1.00  0.00     0.059 A 
ATOM      2  C   UNL     1      20.095  13.204  11.085  1.00  0.00     0.130 A 
ATOM      3  C   UNL     1      20.903  14.310  10.778  1.00  0.00     0.093 A 
ATOM      4  C   UNL     1      20.507  15.600  11.135  1.00  0.00     0.119 A 
ATOM      5  C   UNL     1      19.295  15.793  11.804  1.00  0.00     0.047 A 
ATOM      6  C   UNL     1      18.481  14.701  12.113  1.00  0.00     0.019 A 
ENDROOT
BRANCH   1   7
ATOM      7  C   UNL     1      17.981  12.235  12.088  1.00  0.00     0.163 C 
ATOM      8  C   UNL     1      17.284  12.127  13.412  1.00  0.00     0.093 C 
ATOM      9  O   UNL     1      17.778  11.329  11.235  1.00  0.00    -0.294 OA
ENDBRANCH   1   7
BRANCH   2  10
ATOM     10  O   UNL     1      20.526  11.926  10.727  1.00  0.00    -0.507 OA
ATOM     11  H   UNL     1      20.063  11.392  10.001  1.00  0.00     0.293 HD
ENDBRANCH   2  10
BRANCH   4  12
ATOM     12  O   UNL     1      21.326  16.683  10.822  1.00  0.00    -0.508 OA
ATOM     13  H   UNL     1      22.334  16.628  10.915  1.00  0.00     0.293 HD
ENDBRANCH   4  12
TORSDOF 3
ENDMDL
