MODEL 1
REMARK VINA RESULT:    -4.693      0.000      0.000
REMARK INTER + INTRA:          -8.292
REMARK INTER:                  -7.436
REMARK INTRA:                  -0.856
REMARK UNBOUND:                -0.856
REMARK SMILES CCCCCCCCCCCC(=O)[O-]
REMARK SMILES IDX 7 1 8 2 9 3 10 4 11 5 12 6 13 7 14 8 6 9 5 10 4 11 3 12 2 13
REMARK SMILES IDX 1 14
REMARK H PARENT
REMARK Flexibility Score: inf
ROOT
ATOM      1  C   UNL     1      11.619  12.008   3.355  1.00  0.00     0.000 C 
ENDROOT
BRANCH   1   2
ATOM      2  C   UNL     1      10.243  11.555   3.864  1.00  0.00     0.000 C 
BRANCH   2   3
ATOM      3  C   UNL     1      10.313  10.291   4.741  1.00  0.00     0.000 C 
BRANCH   3   4
ATOM      4  C   UNL     1       9.671  10.429   6.138  1.00  0.00     0.006 C 
BRANCH   4   5
ATOM      5  C   UNL     1       9.079  11.816   6.432  1.00  0.00     0.053 C 
BRANCH   5   6
ATOM      6  C   UNL     1       7.806  11.728   7.217  1.00  0.00     0.041 C 
ATOM      7  O   UNL     1       7.826  11.347   8.417  1.00  0.00    -0.550 OA
ATOM      8  O   UNL     1       6.593  12.034   6.613  1.00  0.00    -0.550 OA
ENDBRANCH   5   6
ENDBRANCH   4   5
ENDBRANCH   3   4
ENDBRANCH   2   3
ENDBRANCH   1   2
BRANCH   1   9
ATOM      9  C   UNL     1      12.733  11.560   4.309  1.00  0.00     0.000 C 
BRANCH   9  10
ATOM     10  C   UNL     1      13.297  12.752   5.095  1.00  0.00    -0.000 C 
BRANCH  10  11
ATOM     11  C   UNL     1      14.834  12.762   5.146  1.00  0.00    -0.000 C 
BRANCH  11  12
ATOM     12  C   UNL     1      15.516  13.686   4.116  1.00  0.00    -0.000 C 
BRANCH  12  13
ATOM     13  C   UNL     1      15.604  13.115   2.690  1.00  0.00    -0.003 C 
ATOM     14  C   UNL     1      14.568  13.717   1.743  1.00  0.00     0.004 C 
ENDBRANCH  12  13
ENDBRANCH  11  12
ENDBRANCH  10  11
ENDBRANCH   9  10
ENDBRANCH   1   9
TORSDOF 10
ENDMDL
MODEL 2
REMARK VINA RESULT:    -4.642      3.866      6.473
REMARK INTER + INTRA:          -8.212
REMARK INTER:                  -6.982
REMARK INTRA:                  -1.230
REMARK UNBOUND:                -0.856
REMARK SMILES CCCCCCCCCCCC(=O)[O-]
REMARK SMILES IDX 7 1 8 2 9 3 10 4 11 5 12 6 13 7 14 8 6 9 5 10 4 11 3 12 2 13
REMARK SMILES IDX 1 14
REMARK H PARENT
REMARK Flexibility Score: inf
ROOT
ATOM      1  C   UNL     1      11.051  13.622   4.081  1.00  0.00     0.000 C 
ENDROOT
BRANCH   1   2
ATOM      2  C   UNL     1      11.765  12.500   3.314  1.00  0.00     0.000 C 
BRANCH   2   3
ATOM      3  C   UNL     1      12.907  11.854   4.120  1.00  0.00     0.000 C 
BRANCH   3   4
ATOM      4  C   UNL     1      13.496  12.736   5.241  1.00  0.00     0.006 C 
BRANCH   4   5
ATOM      5  C   UNL     1      15.027  12.856   5.219  1.00  0.00     0.053 C 
BRANCH   5   6
ATOM      6  C   UNL     1      15.511  13.668   4.057  1.00  0.00     0.041 C 
ATOM      7  O   UNL     1      14.978  14.779   3.795  1.00  0.00    -0.550 OA
ATOM      8  O   UNL     1      16.526  13.183   3.243  1.00  0.00    -0.550 OA
ENDBRANCH   5   6
ENDBRANCH   4   5
ENDBRANCH   3   4
ENDBRANCH   2   3
ENDBRANCH   1   2
BRANCH   1   9
ATOM      9  C   UNL     1       9.681  13.926   3.461  1.00  0.00     0.000 C 
BRANCH   9  10
ATOM     10  C   UNL     1       8.689  12.787   3.732  1.00  0.00    -0.000 C 
BRANCH  10  11
ATOM     11  C   UNL     1       8.235  12.724   5.201  1.00  0.00    -0.000 C 
BRANCH  11  12
ATOM     12  C   UNL     1       8.309  11.327   5.849  1.00  0.00    -0.000 C 
BRANCH  12  13
ATOM     13  C   UNL     1       9.733  10.820   6.139  1.00  0.00    -0.003 C 
ATOM     14  C   UNL     1      10.147   9.660   5.235  1.00  0.00     0.004 C 
ENDBRANCH  12  13
ENDBRANCH  11  12
ENDBRANCH  10  11
ENDBRANCH   9  10
ENDBRANCH   1   9
TORSDOF 10
ENDMDL
MODEL 3
REMARK VINA RESULT:    -4.641      4.144      7.120
REMARK INTER + INTRA:          -8.211
REMARK INTER:                  -7.652
REMARK INTRA:                  -0.559
REMARK UNBOUND:                -0.856
REMARK SMILES CCCCCCCCCCCC(=O)[O-]
REMARK SMILES IDX 7 1 8 2 9 3 10 4 11 5 12 6 13 7 14 8 6 9 5 10 4 11 3 12 2 13
REMARK SMILES IDX 1 14
REMARK H PARENT
REMARK Flexibility Score: inf
ROOT
ATOM      1  C   UNL     1      10.979  11.942   4.036  1.00  0.00     0.000 C 
ENDROOT
BRANCH   1   2
ATOM      2  C   UNL     1      12.312  12.531   3.551  1.00  0.00     0.000 C 
BRANCH   2   3
ATOM      3  C   UNL     1      13.525  12.001   4.338  1.00  0.00     0.000 C 
BRANCH   3   4
ATOM      4  C   UNL     1      14.410  13.088   4.983  1.00  0.00     0.006 C 
BRANCH   4   5
ATOM      5  C   UNL     1      15.036  14.074   3.987  1.00  0.00     0.053 C 
BRANCH   5   6
ATOM      6  C   UNL     1      16.200  13.475   3.259  1.00  0.00     0.041 C 
ATOM      7  O   UNL     1      16.028  12.905   2.149  1.00  0.00    -0.550 OA
ATOM      8  O   UNL     1      17.469  13.515   3.822  1.00  0.00    -0.550 OA
ENDBRANCH   5   6
ENDBRANCH   4   5
ENDBRANCH   3   4
ENDBRANCH   2   3
ENDBRANCH   1   2
BRANCH   1   9
ATOM      9  C   UNL     1      11.133  10.460   4.400  1.00  0.00     0.000 C 
BRANCH   9  10
ATOM     10  C   UNL     1       9.968   9.984   5.279  1.00  0.00    -0.000 C 
BRANCH  10  11
ATOM     11  C   UNL     1       8.857  11.039   5.422  1.00  0.00    -0.000 C 
BRANCH  11  12
ATOM     12  C   UNL     1       8.421  11.338   6.872  1.00  0.00    -0.000 C 
BRANCH  12  13
ATOM     13  C   UNL     1       7.211  12.278   7.005  1.00  0.00    -0.003 C 
ATOM     14  C   UNL     1       7.403  13.603   6.269  1.00  0.00     0.004 C 
ENDBRANCH  12  13
ENDBRANCH  11  12
ENDBRANCH  10  11
ENDBRANCH   9  10
ENDBRANCH   1   9
TORSDOF 10
ENDMDL
MODEL 4
REMARK VINA RESULT:    -4.626      4.205      6.845
REMARK INTER + INTRA:          -8.187
REMARK INTER:                  -7.183
REMARK INTRA:                  -1.005
REMARK UNBOUND:                -0.856
REMARK SMILES CCCCCCCCCCCC(=O)[O-]
REMARK SMILES IDX 7 1 8 2 9 3 10 4 11 5 12 6 13 7 14 8 6 9 5 10 4 11 3 12 2 13
REMARK SMILES IDX 1 14
REMARK H PARENT
REMARK Flexibility Score: inf
ROOT
ATOM      1  C   UNL     1      12.043  12.167   5.171  1.00  0.00     0.000 C 
ENDROOT
BRANCH   1   2
ATOM      2  C   UNL     1      12.692  13.253   4.301  1.00  0.00     0.000 C 
BRANCH   2   3
ATOM      3  C   UNL     1      13.153  12.728   2.929  1.00  0.00     0.000 C 
BRANCH   3   4
ATOM      4  C   UNL     1      14.169  13.627   2.194  1.00  0.00     0.006 C 
BRANCH   4   5
ATOM      5  C   UNL     1      15.628  13.155   2.295  1.00  0.00     0.053 C 
BRANCH   5   6
ATOM      6  C   UNL     1      16.420  13.981   3.261  1.00  0.00     0.041 C 
ATOM      7  O   UNL     1      16.012  15.124   3.600  1.00  0.00    -0.550 OA
ATOM      8  O   UNL     1      17.625  13.505   3.760  1.00  0.00    -0.550 OA
ENDBRANCH   5   6
ENDBRANCH   4   5
ENDBRANCH   3   4
ENDBRANCH   2   3
ENDBRANCH   1   2
BRANCH   1   9
ATOM      9  C   UNL     1      11.877  10.861   4.386  1.00  0.00     0.000 C 
BRANCH   9  10
ATOM     10  C   UNL     1      10.548  10.174   4.734  1.00  0.00    -0.000 C 
BRANCH  10  11
ATOM     11  C   UNL     1       9.711  10.970   5.751  1.00  0.00    -0.000 C 
BRANCH  11  12
ATOM     12  C   UNL     1       8.447  11.640   5.175  1.00  0.00    -0.000 C 
BRANCH  12  13
ATOM     13  C   UNL     1       8.571  12.120   3.719  1.00  0.00    -0.003 C 
ATOM     14  C   UNL     1       8.985  13.587   3.609  1.00  0.00     0.004 C 
ENDBRANCH  12  13
ENDBRANCH  11  12
ENDBRANCH  10  11
ENDBRANCH   9  10
ENDBRANCH   1   9
TORSDOF 10
ENDMDL
MODEL 5
REMARK VINA RESULT:    -4.614      1.757      3.080
REMARK INTER + INTRA:          -8.167
REMARK INTER:                  -6.540
REMARK INTRA:                  -1.628
REMARK UNBOUND:                -0.856
REMARK SMILES CCCCCCCCCCCC(=O)[O-]
REMARK SMILES IDX 7 1 8 2 9 3 10 4 11 5 12 6 13 7 14 8 6 9 5 10 4 11 3 12 2 13
REMARK SMILES IDX 1 14
REMARK H PARENT
REMARK Flexibility Score: inf
ROOT
ATOM      1  C   UNL     1      12.172  12.220   3.302  1.00  0.00     0.000 C 
ENDROOT
BRANCH   1   2
ATOM      2  C   UNL     1      10.783  11.695   3.693  1.00  0.00     0.000 C 
BRANCH   2   3
ATOM      3  C   UNL     1      10.842  10.508   4.671  1.00  0.00     0.000 C 
BRANCH   3   4
ATOM      4  C   UNL     1       9.629  10.378   5.615  1.00  0.00     0.006 C 
BRANCH   4   5
ATOM      5  C   UNL     1       8.490  11.369   5.330  1.00  0.00     0.053 C 
BRANCH   5   6
ATOM      6  C   UNL     1       7.757  11.757   6.577  1.00  0.00     0.041 C 
ATOM      7  O   UNL     1       6.562  12.151   6.513  1.00  0.00    -0.550 OA
ATOM      8  O   UNL     1       8.403  11.716   7.806  1.00  0.00    -0.550 OA
ENDBRANCH   5   6
ENDBRANCH   4   5
ENDBRANCH   3   4
ENDBRANCH   2   3
ENDBRANCH   1   2
BRANCH   1   9
ATOM      9  C   UNL     1      13.107  12.258   4.517  1.00  0.00     0.000 C 
BRANCH   9  10
ATOM     10  C   UNL     1      12.967  13.584   5.278  1.00  0.00    -0.000 C 
BRANCH  10  11
ATOM     11  C   UNL     1      12.199  13.435   6.603  1.00  0.00    -0.000 C 
BRANCH  11  12
ATOM     12  C   UNL     1      10.810  14.104   6.633  1.00  0.00    -0.000 C 
BRANCH  12  13
ATOM     13  C   UNL     1      10.525  15.062   5.463  1.00  0.00    -0.003 C 
ATOM     14  C   UNL     1       9.094  14.953   4.939  1.00  0.00     0.004 C 
ENDBRANCH  12  13
ENDBRANCH  11  12
ENDBRANCH  10  11
ENDBRANCH   9  10
ENDBRANCH   1   9
TORSDOF 10
ENDMDL
MODEL 6
REMARK VINA RESULT:    -4.541      1.304      2.441
REMARK INTER + INTRA:          -8.052
REMARK INTER:                  -7.105
REMARK INTRA:                  -0.947
REMARK UNBOUND:                -0.856
REMARK SMILES CCCCCCCCCCCC(=O)[O-]
REMARK SMILES IDX 7 1 8 2 9 3 10 4 11 5 12 6 13 7 14 8 6 9 5 10 4 11 3 12 2 13
REMARK SMILES IDX 1 14
REMARK H PARENT
REMARK Flexibility Score: inf
ROOT
ATOM      1  C   UNL     1      11.499  13.544   3.522  1.00  0.00     0.000 C 
ENDROOT
BRANCH   1   2
ATOM      2  C   UNL     1      11.852  12.052   3.440  1.00  0.00     0.000 C 
BRANCH   2   3
ATOM      3  C   UNL     1      10.984  11.178   4.364  1.00  0.00     0.000 C 
BRANCH   3   4
ATOM      4  C   UNL     1       9.463  11.289   4.127  1.00  0.00     0.006 C 
BRANCH   4   5
ATOM      5  C   UNL     1       8.604  11.058   5.380  1.00  0.00     0.053 C 
BRANCH   5   6
ATOM      6  C   UNL     1       7.788  12.264   5.731  1.00  0.00     0.041 C 
ATOM      7  O   UNL     1       8.153  13.408   5.352  1.00  0.00    -0.550 OA
ATOM      8  O   UNL     1       6.643  12.128   6.506  1.00  0.00    -0.550 OA
ENDBRANCH   5   6
ENDBRANCH   4   5
ENDBRANCH   3   4
ENDBRANCH   2   3
ENDBRANCH   1   2
BRANCH   1   9
ATOM      9  C   UNL     1      12.083  14.312   2.330  1.00  0.00     0.000 C 
BRANCH   9  10
ATOM     10  C   UNL     1      13.136  13.471   1.594  1.00  0.00    -0.000 C 
BRANCH  10  11
ATOM     11  C   UNL     1      14.561  14.028   1.747  1.00  0.00    -0.000 C 
BRANCH  11  12
ATOM     12  C   UNL     1      15.567  13.075   2.425  1.00  0.00    -0.000 C 
BRANCH  12  13
ATOM     13  C   UNL     1      16.025  13.506   3.830  1.00  0.00    -0.003 C 
ATOM     14  C   UNL     1      15.053  13.080   4.929  1.00  0.00     0.004 C 
ENDBRANCH  12  13
ENDBRANCH  11  12
ENDBRANCH  10  11
ENDBRANCH   9  10
ENDBRANCH   1   9
TORSDOF 10
ENDMDL
MODEL 7
REMARK VINA RESULT:    -4.450      2.598      3.874
REMARK INTER + INTRA:          -7.908
REMARK INTER:                  -6.502
REMARK INTRA:                  -1.406
REMARK UNBOUND:                -0.856
REMARK SMILES CCCCCCCCCCCC(=O)[O-]
REMARK SMILES IDX 7 1 8 2 9 3 10 4 11 5 12 6 13 7 14 8 6 9 5 10 4 11 3 12 2 13
REMARK SMILES IDX 1 14
REMARK H PARENT
REMARK Flexibility Score: inf
ROOT
ATOM      1  C   UNL     1       9.027  10.890   6.101  1.00  0.00     0.000 C 
ENDROOT
BRANCH   1   2
ATOM      2  C   UNL     1       8.195  11.636   5.048  1.00  0.00     0.000 C 
BRANCH   2   3
ATOM      3  C   UNL     1       7.858  13.080   5.462  1.00  0.00     0.000 C 
BRANCH   3   4
ATOM      4  C   UNL     1       7.974  13.370   6.974  1.00  0.00     0.006 C 
BRANCH   4   5
ATOM      5  C   UNL     1       6.842  14.236   7.546  1.00  0.00     0.053 C 
BRANCH   5   6
ATOM      6  C   UNL     1       7.118  14.662   8.955  1.00  0.00     0.041 C 
ATOM      7  O   UNL     1       6.873  13.882   9.912  1.00  0.00    -0.550 OA
ATOM      8  O   UNL     1       7.612  15.934   9.213  1.00  0.00    -0.550 OA
ENDBRANCH   5   6
ENDBRANCH   4   5
ENDBRANCH   3   4
ENDBRANCH   2   3
ENDBRANCH   1   2
BRANCH   1   9
ATOM      9  C   UNL     1      10.157  10.090   5.442  1.00  0.00     0.000 C 
BRANCH   9  10
ATOM     10  C   UNL     1      10.676  10.802   4.184  1.00  0.00    -0.000 C 
BRANCH  10  11
ATOM     11  C   UNL     1      11.851  11.751   4.475  1.00  0.00    -0.000 C 
BRANCH  11  12
ATOM     12  C   UNL     1      11.591  13.235   4.147  1.00  0.00    -0.000 C 
BRANCH  12  13
ATOM     13  C   UNL     1      11.438  14.154   5.371  1.00  0.00    -0.003 C 
ATOM     14  C   UNL     1      11.748  13.446   6.689  1.00  0.00     0.004 C 
ENDBRANCH  12  13
ENDBRANCH  11  12
ENDBRANCH  10  11
ENDBRANCH   9  10
ENDBRANCH   1   9
TORSDOF 10
ENDMDL
MODEL 8
REMARK VINA RESULT:    -4.448      2.182      3.552
REMARK INTER + INTRA:          -7.904
REMARK INTER:                  -6.651
REMARK INTRA:                  -1.253
REMARK UNBOUND:                -0.856
REMARK SMILES CCCCCCCCCCCC(=O)[O-]
REMARK SMILES IDX 7 1 8 2 9 3 10 4 11 5 12 6 13 7 14 8 6 9 5 10 4 11 3 12 2 13
REMARK SMILES IDX 1 14
REMARK H PARENT
REMARK Flexibility Score: inf
ROOT
ATOM      1  C   UNL     1       9.707  10.128   5.523  1.00  0.00     0.000 C 
ENDROOT
BRANCH   1   2
ATOM      2  C   UNL     1       9.449  11.203   6.589  1.00  0.00     0.000 C 
BRANCH   2   3
ATOM      3  C   UNL     1       8.006  11.738   6.566  1.00  0.00     0.000 C 
BRANCH   3   4
ATOM      4  C   UNL     1       7.815  13.068   5.806  1.00  0.00     0.006 C 
BRANCH   4   5
ATOM      5  C   UNL     1       8.965  14.072   5.979  1.00  0.00     0.053 C 
BRANCH   5   6
ATOM      6  C   UNL     1       8.509  15.341   6.629  1.00  0.00     0.041 C 
ATOM      7  O   UNL     1       9.115  16.422   6.404  1.00  0.00    -0.550 OA
ATOM      8  O   UNL     1       7.436  15.326   7.511  1.00  0.00    -0.550 OA
ENDBRANCH   5   6
ENDBRANCH   4   5
ENDBRANCH   3   4
ENDBRANCH   2   3
ENDBRANCH   1   2
BRANCH   1   9
ATOM      9  C   UNL     1      10.966  10.451   4.710  1.00  0.00     0.000 C 
BRANCH   9  10
ATOM     10  C   UNL     1      10.708  11.602   3.728  1.00  0.00    -0.000 C 
BRANCH  10  11
ATOM     11  C   UNL     1      11.974  12.419   3.417  1.00  0.00    -0.000 C 
BRANCH  11  12
ATOM     12  C   UNL     1      13.127  12.249   4.427  1.00  0.00    -0.000 C 
BRANCH  12  13
ATOM     13  C   UNL     1      13.432  13.492   5.280  1.00  0.00    -0.003 C 
ATOM     14  C   UNL     1      12.610  13.547   6.567  1.00  0.00     0.004 C 
ENDBRANCH  12  13
ENDBRANCH  11  12
ENDBRANCH  10  11
ENDBRANCH   9  10
ENDBRANCH   1   9
TORSDOF 10
ENDMDL
MODEL 9
REMARK VINA RESULT:    -4.404      1.984      2.886
REMARK INTER + INTRA:          -7.836
REMARK INTER:                  -6.164
REMARK INTRA:                  -1.671
REMARK UNBOUND:                -0.856
REMARK SMILES CCCCCCCCCCCC(=O)[O-]
REMARK SMILES IDX 7 1 8 2 9 3 10 4 11 5 12 6 13 7 14 8 6 9 5 10 4 11 3 12 2 13
REMARK SMILES IDX 1 14
REMARK H PARENT
REMARK Flexibility Score: inf
ROOT
ATOM      1  C   UNL     1       9.555  14.550   3.528  1.00  0.00     0.000 C 
ENDROOT
BRANCH   1   2
ATOM      2  C   UNL     1       8.475  13.676   4.182  1.00  0.00     0.000 C 
BRANCH   2   3
ATOM      3  C   UNL     1       8.603  12.187   3.814  1.00  0.00     0.000 C 
BRANCH   3   4
ATOM      4  C   UNL     1       8.621  11.217   5.014  1.00  0.00     0.006 C 
BRANCH   4   5
ATOM      5  C   UNL     1       8.796  11.897   6.380  1.00  0.00     0.053 C 
BRANCH   5   6
ATOM      6  C   UNL     1       7.532  11.879   7.184  1.00  0.00     0.041 C 
ATOM      7  O   UNL     1       6.418  12.019   6.614  1.00  0.00    -0.550 OA
ATOM      8  O   UNL     1       7.587  11.741   8.564  1.00  0.00    -0.550 OA
ENDBRANCH   5   6
ENDBRANCH   4   5
ENDBRANCH   3   4
ENDBRANCH   2   3
ENDBRANCH   1   2
BRANCH   1   9
ATOM      9  C   UNL     1      10.146  15.541   4.537  1.00  0.00     0.000 C 
BRANCH   9  10
ATOM     10  C   UNL     1      10.919  14.807   5.642  1.00  0.00    -0.000 C 
BRANCH  10  11
ATOM     11  C   UNL     1      12.227  14.173   5.138  1.00  0.00    -0.000 C 
BRANCH  11  12
ATOM     12  C   UNL     1      12.396  12.675   5.466  1.00  0.00    -0.000 C 
BRANCH  12  13
ATOM     13  C   UNL     1      12.274  11.728   4.259  1.00  0.00    -0.003 C 
ATOM     14  C   UNL     1      12.467  12.441   2.922  1.00  0.00     0.004 C 
ENDBRANCH  12  13
ENDBRANCH  11  12
ENDBRANCH  10  11
ENDBRANCH   9  10
ENDBRANCH   1   9
TORSDOF 10
ENDMDL
