MODEL 1
REMARK VINA RESULT:    -6.680      0.000      0.000
REMARK INTER + INTRA:          -7.645
REMARK INTER:                  -7.266
REMARK INTRA:                  -0.380
REMARK UNBOUND:                -0.380
REMARK SMILES C=C1C[C@@]2(O)O[C@@]3(C[C@H]2C(C)C)[C@H](C)CC[C@H]13
REMARK SMILES IDX 14 1 13 2 15 3 16 4 17 5 7 6 8 7 9 8 4 9 6 10 3 11 2 12 1 13
REMARK SMILES IDX 10 14 11 15 12 16 5 17
REMARK H PARENT 5 18
REMARK Flexibility Score: inf
ROOT
ATOM      1  C   UNL     1      74.951  75.027 279.018  1.00  0.00     0.011 C 
ATOM      2  C   UNL     1      74.214  76.357 279.231  1.00  0.00     0.019 C 
ATOM      3  C   UNL     1      72.712  76.184 279.556  1.00  0.00     0.007 C 
ATOM      4  C   UNL     1      71.993  77.420 278.975  1.00  0.00     0.011 C 
ATOM      5  C   UNL     1      73.126  78.317 278.488  1.00  0.00     0.047 C 
ATOM      6  C   UNL     1      74.222  77.342 278.051  1.00  0.00     0.081 C 
ATOM      7  C   UNL     1      73.932  76.701 276.660  1.00  0.00     0.046 C 
ATOM      8  C   UNL     1      74.815  77.508 275.715  1.00  0.00     0.054 C 
ATOM      9  C   UNL     1      75.245  78.684 276.622  1.00  0.00     0.173 C 
ATOM     10  O   UNL     1      75.402  78.098 277.907  1.00  0.00    -0.342 OA
ATOM     11  C   UNL     1      74.171  79.827 276.707  1.00  0.00     0.096 C 
ATOM     12  C   UNL     1      72.907  79.337 277.398  1.00  0.00    -0.066 C 
ATOM     13  C   UNL     1      71.725  79.934 277.194  1.00  0.00     0.008 C 
ENDROOT
BRANCH   8  14
ATOM     14  C   UNL     1      74.140  77.852 274.352  1.00  0.00    -0.009 C 
ATOM     15  C   UNL     1      72.895  76.976 274.123  1.00  0.00     0.008 C 
ATOM     16  C   UNL     1      75.110  77.646 273.176  1.00  0.00     0.008 C 
ENDBRANCH   8  14
BRANCH   9  17
ATOM     17  O   UNL     1      76.466  79.233 276.193  1.00  0.00    -0.365 OA
ATOM     18  H   UNL     1      76.353  79.512 275.246  1.00  0.00     0.214 HD
ENDBRANCH   9  17
TORSDOF 2
ENDMDL
MODEL 2
REMARK VINA RESULT:    -6.597      1.339      4.432
REMARK INTER + INTRA:          -7.555
REMARK INTER:                  -7.135
REMARK INTRA:                  -0.420
REMARK UNBOUND:                -0.380
REMARK SMILES C=C1C[C@@]2(O)O[C@@]3(C[C@H]2C(C)C)[C@H](C)CC[C@H]13
REMARK SMILES IDX 14 1 13 2 15 3 16 4 17 5 7 6 8 7 9 8 4 9 6 10 3 11 2 12 1 13
REMARK SMILES IDX 10 14 11 15 12 16 5 17
REMARK H PARENT 5 18
REMARK Flexibility Score: inf
ROOT
ATOM      1  C   UNL     1      73.345  78.959 274.293  1.00  0.00     0.011 C 
ATOM      2  C   UNL     1      74.065  77.762 274.930  1.00  0.00     0.019 C 
ATOM      3  C   UNL     1      73.388  76.405 274.632  1.00  0.00     0.007 C 
ATOM      4  C   UNL     1      73.654  75.504 275.857  1.00  0.00     0.011 C 
ATOM      5  C   UNL     1      74.603  76.325 276.725  1.00  0.00     0.047 C 
ATOM      6  C   UNL     1      74.198  77.777 276.461  1.00  0.00     0.081 C 
ATOM      7  C   UNL     1      72.904  78.187 277.228  1.00  0.00     0.046 C 
ATOM      8  C   UNL     1      73.441  78.962 278.426  1.00  0.00     0.054 C 
ATOM      9  C   UNL     1      74.950  78.631 278.358  1.00  0.00     0.173 C 
ATOM     10  O   UNL     1      75.237  78.584 276.967  1.00  0.00    -0.342 OA
ATOM     11  C   UNL     1      75.311  77.246 279.003  1.00  0.00     0.096 C 
ATOM     12  C   UNL     1      74.698  76.099 278.214  1.00  0.00    -0.066 C 
ATOM     13  C   UNL     1      74.468  74.907 278.780  1.00  0.00     0.008 C 
ENDROOT
BRANCH   8  14
ATOM     14  C   UNL     1      72.693  78.666 279.762  1.00  0.00    -0.009 C 
ATOM     15  C   UNL     1      71.577  77.629 279.543  1.00  0.00     0.008 C 
ATOM     16  C   UNL     1      72.070  79.943 280.352  1.00  0.00     0.008 C 
ENDBRANCH   8  14
BRANCH   9  17
ATOM     17  O   UNL     1      75.715  79.638 278.971  1.00  0.00    -0.365 OA
ATOM     18  H   UNL     1      75.119  80.417 279.124  1.00  0.00     0.214 HD
ENDBRANCH   9  17
TORSDOF 2
ENDMDL
MODEL 3
REMARK VINA RESULT:    -6.521      1.773      4.257
REMARK INTER + INTRA:          -7.473
REMARK INTER:                  -7.105
REMARK INTRA:                  -0.368
REMARK UNBOUND:                -0.380
REMARK SMILES C=C1C[C@@]2(O)O[C@@]3(C[C@H]2C(C)C)[C@H](C)CC[C@H]13
REMARK SMILES IDX 14 1 13 2 15 3 16 4 17 5 7 6 8 7 9 8 4 9 6 10 3 11 2 12 1 13
REMARK SMILES IDX 10 14 11 15 12 16 5 17
REMARK H PARENT 5 18
REMARK Flexibility Score: inf
ROOT
ATOM      1  C   UNL     1      70.159  78.113 275.794  1.00  0.00     0.011 C 
ATOM      2  C   UNL     1      71.458  78.876 275.496  1.00  0.00     0.019 C 
ATOM      3  C   UNL     1      71.946  78.717 274.038  1.00  0.00     0.007 C 
ATOM      4  C   UNL     1      73.486  78.798 274.079  1.00  0.00     0.011 C 
ATOM      5  C   UNL     1      73.802  79.159 275.527  1.00  0.00     0.047 C 
ATOM      6  C   UNL     1      72.687  78.494 276.337  1.00  0.00     0.081 C 
ATOM      7  C   UNL     1      72.909  76.961 276.515  1.00  0.00     0.046 C 
ATOM      8  C   UNL     1      73.468  76.853 277.929  1.00  0.00     0.054 C 
ATOM      9  C   UNL     1      73.782  78.332 278.251  1.00  0.00     0.173 C 
ATOM     10  O   UNL     1      72.732  79.058 277.627  1.00  0.00    -0.342 OA
ATOM     11  C   UNL     1      75.158  78.816 277.669  1.00  0.00     0.096 C 
ATOM     12  C   UNL     1      75.135  78.820 276.148  1.00  0.00    -0.066 C 
ATOM     13  C   UNL     1      76.266  78.742 275.434  1.00  0.00     0.008 C 
ENDROOT
BRANCH   8  14
ATOM     14  C   UNL     1      74.624  75.816 278.078  1.00  0.00    -0.009 C 
ATOM     15  C   UNL     1      74.626  74.829 276.897  1.00  0.00     0.008 C 
ATOM     16  C   UNL     1      74.498  75.019 279.387  1.00  0.00     0.008 C 
ENDBRANCH   8  14
BRANCH   9  17
ATOM     17  O   UNL     1      73.764  78.561 279.638  1.00  0.00    -0.365 OA
ATOM     18  H   UNL     1      74.294  77.839 280.068  1.00  0.00     0.214 HD
ENDBRANCH   9  17
TORSDOF 2
ENDMDL
MODEL 4
REMARK VINA RESULT:    -6.461      1.103      1.431
REMARK INTER + INTRA:          -7.407
REMARK INTER:                  -7.037
REMARK INTRA:                  -0.370
REMARK UNBOUND:                -0.380
REMARK SMILES C=C1C[C@@]2(O)O[C@@]3(C[C@H]2C(C)C)[C@H](C)CC[C@H]13
REMARK SMILES IDX 14 1 13 2 15 3 16 4 17 5 7 6 8 7 9 8 4 9 6 10 3 11 2 12 1 13
REMARK SMILES IDX 10 14 11 15 12 16 5 17
REMARK H PARENT 5 18
REMARK Flexibility Score: inf
ROOT
ATOM      1  C   UNL     1      73.338  76.244 279.734  1.00  0.00     0.011 C 
ATOM      2  C   UNL     1      72.777  77.541 279.136  1.00  0.00     0.019 C 
ATOM      3  C   UNL     1      71.278  77.455 278.770  1.00  0.00     0.007 C 
ATOM      4  C   UNL     1      71.068  78.384 277.556  1.00  0.00     0.011 C 
ATOM      5  C   UNL     1      72.413  79.081 277.381  1.00  0.00     0.047 C 
ATOM      6  C   UNL     1      73.440  78.044 277.843  1.00  0.00     0.081 C 
ATOM      7  C   UNL     1      73.704  76.943 276.771  1.00  0.00     0.046 C 
ATOM      8  C   UNL     1      75.016  77.387 276.133  1.00  0.00     0.054 C 
ATOM      9  C   UNL     1      75.164  78.820 276.695  1.00  0.00     0.173 C 
ATOM     10  O   UNL     1      74.657  78.732 278.020  1.00  0.00    -0.342 OA
ATOM     11  C   UNL     1      74.334  79.888 275.898  1.00  0.00     0.096 C 
ATOM     12  C   UNL     1      72.840  79.641 276.047  1.00  0.00    -0.066 C 
ATOM     13  C   UNL     1      71.965  80.094 275.140  1.00  0.00     0.008 C 
ENDROOT
BRANCH   8  14
ATOM     14  C   UNL     1      75.063  77.206 274.585  1.00  0.00    -0.009 C 
ATOM     15  C   UNL     1      73.972  76.226 274.117  1.00  0.00     0.008 C 
ATOM     16  C   UNL     1      76.431  76.677 274.122  1.00  0.00     0.008 C 
ENDBRANCH   8  14
BRANCH   9  17
ATOM     17  O   UNL     1      76.513  79.213 276.723  1.00  0.00    -0.365 OA
ATOM     18  H   UNL     1      76.883  79.082 275.811  1.00  0.00     0.214 HD
ENDBRANCH   9  17
TORSDOF 2
ENDMDL
MODEL 5
REMARK VINA RESULT:    -6.433      1.366      3.931
REMARK INTER + INTRA:          -7.377
REMARK INTER:                  -6.963
REMARK INTRA:                  -0.414
REMARK UNBOUND:                -0.380
REMARK SMILES C=C1C[C@@]2(O)O[C@@]3(C[C@H]2C(C)C)[C@H](C)CC[C@H]13
REMARK SMILES IDX 14 1 13 2 15 3 16 4 17 5 7 6 8 7 9 8 4 9 6 10 3 11 2 12 1 13
REMARK SMILES IDX 10 14 11 15 12 16 5 17
REMARK H PARENT 5 18
REMARK Flexibility Score: inf
ROOT
ATOM      1  C   UNL     1      74.285  77.786 272.860  1.00  0.00     0.011 C 
ATOM      2  C   UNL     1      74.706  77.120 274.178  1.00  0.00     0.019 C 
ATOM      3  C   UNL     1      73.839  75.897 274.555  1.00  0.00     0.007 C 
ATOM      4  C   UNL     1      73.800  75.845 276.097  1.00  0.00     0.011 C 
ATOM      5  C   UNL     1      74.772  76.937 276.532  1.00  0.00     0.047 C 
ATOM      6  C   UNL     1      74.662  78.001 275.436  1.00  0.00     0.081 C 
ATOM      7  C   UNL     1      73.381  78.878 275.579  1.00  0.00     0.046 C 
ATOM      8  C   UNL     1      73.904  80.155 276.226  1.00  0.00     0.054 C 
ATOM      9  C   UNL     1      75.328  79.727 276.648  1.00  0.00     0.173 C 
ATOM     10  O   UNL     1      75.761  78.867 275.603  1.00  0.00    -0.342 OA
ATOM     11  C   UNL     1      75.363  78.941 278.007  1.00  0.00     0.096 C 
ATOM     12  C   UNL     1      74.653  77.601 277.881  1.00  0.00    -0.066 C 
ATOM     13  C   UNL     1      74.153  76.974 278.954  1.00  0.00     0.008 C 
ENDROOT
BRANCH   8  14
ATOM     14  C   UNL     1      72.966  80.740 277.326  1.00  0.00    -0.009 C 
ATOM     15  C   UNL     1      71.650  79.945 277.401  1.00  0.00     0.008 C 
ATOM     16  C   UNL     1      72.634  82.217 277.054  1.00  0.00     0.008 C 
ENDBRANCH   8  14
BRANCH   9  17
ATOM     17  O   UNL     1      76.183  80.839 276.739  1.00  0.00    -0.365 OA
ATOM     18  H   UNL     1      76.559  80.854 277.658  1.00  0.00     0.214 HD
ENDBRANCH   9  17
TORSDOF 2
ENDMDL
MODEL 6
REMARK VINA RESULT:    -6.430      1.926      4.057
REMARK INTER + INTRA:          -7.374
REMARK INTER:                  -6.980
REMARK INTRA:                  -0.393
REMARK UNBOUND:                -0.380
REMARK SMILES C=C1C[C@@]2(O)O[C@@]3(C[C@H]2C(C)C)[C@H](C)CC[C@H]13
REMARK SMILES IDX 14 1 13 2 15 3 16 4 17 5 7 6 8 7 9 8 4 9 6 10 3 11 2 12 1 13
REMARK SMILES IDX 10 14 11 15 12 16 5 17
REMARK H PARENT 5 18
REMARK Flexibility Score: inf
ROOT
ATOM      1  C   UNL     1      75.903  80.626 276.072  1.00  0.00     0.011 C 
ATOM      2  C   UNL     1      74.458  80.414 275.598  1.00  0.00     0.019 C 
ATOM      3  C   UNL     1      73.418  81.221 276.410  1.00  0.00     0.007 C 
ATOM      4  C   UNL     1      72.120  80.385 276.414  1.00  0.00     0.011 C 
ATOM      5  C   UNL     1      72.422  79.221 275.475  1.00  0.00     0.047 C 
ATOM      6  C   UNL     1      73.923  78.974 275.649  1.00  0.00     0.081 C 
ATOM      7  C   UNL     1      74.254  78.197 276.959  1.00  0.00     0.046 C 
ATOM      8  C   UNL     1      74.470  76.768 276.471  1.00  0.00     0.054 C 
ATOM      9  C   UNL     1      73.936  76.853 275.022  1.00  0.00     0.173 C 
ATOM     10  O   UNL     1      74.322  78.147 274.580  1.00  0.00    -0.342 OA
ATOM     11  C   UNL     1      72.373  76.723 274.928  1.00  0.00     0.096 C 
ATOM     12  C   UNL     1      71.687  77.909 275.590  1.00  0.00    -0.066 C 
ATOM     13  C   UNL     1      70.429  77.823 276.043  1.00  0.00     0.008 C 
ENDROOT
BRANCH   8  14
ATOM     14  C   UNL     1      73.863  75.678 277.406  1.00  0.00    -0.009 C 
ATOM     15  C   UNL     1      73.452  76.288 278.759  1.00  0.00     0.008 C 
ATOM     16  C   UNL     1      74.862  74.538 277.663  1.00  0.00     0.008 C 
ENDBRANCH   8  14
BRANCH   9  17
ATOM     17  O   UNL     1      74.528  75.871 274.208  1.00  0.00    -0.365 OA
ATOM     18  H   UNL     1      73.918  75.712 273.440  1.00  0.00     0.214 HD
ENDBRANCH   9  17
TORSDOF 2
ENDMDL
MODEL 7
REMARK VINA RESULT:    -6.413      1.796      3.486
REMARK INTER + INTRA:          -7.354
REMARK INTER:                  -7.036
REMARK INTRA:                  -0.319
REMARK UNBOUND:                -0.380
REMARK SMILES C=C1C[C@@]2(O)O[C@@]3(C[C@H]2C(C)C)[C@H](C)CC[C@H]13
REMARK SMILES IDX 14 1 13 2 15 3 16 4 17 5 7 6 8 7 9 8 4 9 6 10 3 11 2 12 1 13
REMARK SMILES IDX 10 14 11 15 12 16 5 17
REMARK H PARENT 5 18
REMARK Flexibility Score: inf
ROOT
ATOM      1  C   UNL     1      71.643  79.397 281.296  1.00  0.00     0.011 C 
ATOM      2  C   UNL     1      72.076  80.149 280.030  1.00  0.00     0.019 C 
ATOM      3  C   UNL     1      70.918  80.407 279.039  1.00  0.00     0.007 C 
ATOM      4  C   UNL     1      71.538  80.396 277.626  1.00  0.00     0.011 C 
ATOM      5  C   UNL     1      73.039  80.293 277.878  1.00  0.00     0.047 C 
ATOM      6  C   UNL     1      73.153  79.473 279.165  1.00  0.00     0.081 C 
ATOM      7  C   UNL     1      72.939  77.948 278.925  1.00  0.00     0.046 C 
ATOM      8  C   UNL     1      74.359  77.395 278.909  1.00  0.00     0.054 C 
ATOM      9  C   UNL     1      75.195  78.694 278.828  1.00  0.00     0.173 C 
ATOM     10  O   UNL     1      74.476  79.625 279.625  1.00  0.00    -0.342 OA
ATOM     11  C   UNL     1      75.323  79.260 277.368  1.00  0.00     0.096 C 
ATOM     12  C   UNL     1      73.972  79.718 276.840  1.00  0.00    -0.066 C 
ATOM     13  C   UNL     1      73.729  79.800 275.526  1.00  0.00     0.008 C 
ENDROOT
BRANCH   8  14
ATOM     14  C   UNL     1      74.605  76.305 277.821  1.00  0.00    -0.009 C 
ATOM     15  C   UNL     1      73.427  76.246 276.832  1.00  0.00     0.008 C 
ATOM     16  C   UNL     1      74.791  74.915 278.451  1.00  0.00     0.008 C 
ENDBRANCH   8  14
BRANCH   9  17
ATOM     17  O   UNL     1      76.482  78.500 279.360  1.00  0.00    -0.365 OA
ATOM     18  H   UNL     1      77.095  78.318 278.601  1.00  0.00     0.214 HD
ENDBRANCH   9  17
TORSDOF 2
ENDMDL
MODEL 8
REMARK VINA RESULT:    -6.360      1.868      3.547
REMARK INTER + INTRA:          -7.297
REMARK INTER:                  -7.102
REMARK INTRA:                  -0.196
REMARK UNBOUND:                -0.380
REMARK SMILES C=C1C[C@@]2(O)O[C@@]3(C[C@H]2C(C)C)[C@H](C)CC[C@H]13
REMARK SMILES IDX 14 1 13 2 15 3 16 4 17 5 7 6 8 7 9 8 4 9 6 10 3 11 2 12 1 13
REMARK SMILES IDX 10 14 11 15 12 16 5 17
REMARK H PARENT 5 18
REMARK Flexibility Score: inf
ROOT
ATOM      1  C   UNL     1      71.252  80.132 277.353  1.00  0.00     0.011 C 
ATOM      2  C   UNL     1      71.558  78.769 277.989  1.00  0.00     0.019 C 
ATOM      3  C   UNL     1      72.093  78.869 279.436  1.00  0.00     0.007 C 
ATOM      4  C   UNL     1      73.048  77.673 279.634  1.00  0.00     0.011 C 
ATOM      5  C   UNL     1      72.893  76.855 278.356  1.00  0.00     0.047 C 
ATOM      6  C   UNL     1      72.601  77.897 277.273  1.00  0.00     0.081 C 
ATOM      7  C   UNL     1      73.883  78.654 276.809  1.00  0.00     0.046 C 
ATOM      8  C   UNL     1      74.242  77.962 275.499  1.00  0.00     0.054 C 
ATOM      9  C   UNL     1      73.322  76.720 275.544  1.00  0.00     0.173 C 
ATOM     10  O   UNL     1      72.126  77.190 276.150  1.00  0.00    -0.342 OA
ATOM     11  C   UNL     1      73.906  75.544 276.407  1.00  0.00     0.096 C 
ATOM     12  C   UNL     1      73.987  75.934 277.875  1.00  0.00    -0.066 C 
ATOM     13  C   UNL     1      74.838  75.326 278.712  1.00  0.00     0.008 C 
ENDROOT
BRANCH   8  14
ATOM     14  C   UNL     1      75.771  77.725 275.303  1.00  0.00    -0.009 C 
ATOM     15  C   UNL     1      76.573  78.970 275.723  1.00  0.00     0.008 C 
ATOM     16  C   UNL     1      76.105  77.394 273.839  1.00  0.00     0.008 C 
ENDBRANCH   8  14
BRANCH   9  17
ATOM     17  O   UNL     1      73.049  76.247 274.249  1.00  0.00    -0.365 OA
ATOM     18  H   UNL     1      73.920  76.087 273.799  1.00  0.00     0.214 HD
ENDBRANCH   9  17
TORSDOF 2
ENDMDL
MODEL 9
REMARK VINA RESULT:    -6.356      1.927      3.475
REMARK INTER + INTRA:          -7.293
REMARK INTER:                  -6.887
REMARK INTRA:                  -0.406
REMARK UNBOUND:                -0.380
REMARK SMILES C=C1C[C@@]2(O)O[C@@]3(C[C@H]2C(C)C)[C@H](C)CC[C@H]13
REMARK SMILES IDX 14 1 13 2 15 3 16 4 17 5 7 6 8 7 9 8 4 9 6 10 3 11 2 12 1 13
REMARK SMILES IDX 10 14 11 15 12 16 5 17
REMARK H PARENT 5 18
REMARK Flexibility Score: inf
ROOT
ATOM      1  C   UNL     1      72.664  77.335 280.113  1.00  0.00     0.011 C 
ATOM      2  C   UNL     1      72.855  76.474 278.857  1.00  0.00     0.019 C 
ATOM      3  C   UNL     1      74.073  75.524 278.939  1.00  0.00     0.007 C 
ATOM      4  C   UNL     1      74.601  75.364 277.498  1.00  0.00     0.011 C 
ATOM      5  C   UNL     1      73.573  76.093 276.639  1.00  0.00     0.047 C 
ATOM      6  C   UNL     1      73.068  77.227 277.534  1.00  0.00     0.081 C 
ATOM      7  C   UNL     1      74.068  78.420 277.612  1.00  0.00     0.046 C 
ATOM      8  C   UNL     1      73.472  79.439 276.647  1.00  0.00     0.054 C 
ATOM      9  C   UNL     1      72.404  78.588 275.922  1.00  0.00     0.173 C 
ATOM     10  O   UNL     1      71.896  77.726 276.931  1.00  0.00    -0.342 OA
ATOM     11  C   UNL     1      72.990  77.719 274.752  1.00  0.00     0.096 C 
ATOM     12  C   UNL     1      73.937  76.654 275.286  1.00  0.00    -0.066 C 
ATOM     13  C   UNL     1      74.886  76.113 274.511  1.00  0.00     0.008 C 
ENDROOT
BRANCH   8  14
ATOM     14  C   UNL     1      74.528  80.179 275.770  1.00  0.00    -0.009 C 
ATOM     15  C   UNL     1      75.939  79.620 276.029  1.00  0.00     0.008 C 
ATOM     16  C   UNL     1      74.536  81.690 276.057  1.00  0.00     0.008 C 
ENDBRANCH   8  14
BRANCH   9  17
ATOM     17  O   UNL     1      71.370  79.397 275.419  1.00  0.00    -0.365 OA
ATOM     18  H   UNL     1      71.411  79.353 274.427  1.00  0.00     0.214 HD
ENDBRANCH   9  17
TORSDOF 2
ENDMDL
