MODEL 1
REMARK VINA RESULT:    -5.896      0.000      0.000
REMARK INTER + INTRA:          -7.044
REMARK INTER:                  -6.758
REMARK INTRA:                  -0.286
REMARK UNBOUND:                -0.286
REMARK SMILES O=C1C[C@H](c2ccc(O)cc2)Oc2cc(O)cc(O)c21
REMARK SMILES IDX 3 1 4 2 12 3 13 4 14 5 15 6 17 7 18 8 20 9 2 10 1 11 5 12
REMARK SMILES IDX 6 13 11 14 7 15 10 16 8 17 9 18 19 20 16 22
REMARK H PARENT 9 19 19 21 16 23
REMARK Flexibility Score: inf
ROOT
ATOM      1  C   UNL     1       6.925 -16.067  14.232  1.00  0.00     0.131 C 
ATOM      2  C   UNL     1       6.117 -17.235  14.812  1.00  0.00     0.211 C 
ATOM      3  O   UNL     1       4.727 -17.047  14.551  1.00  0.00    -0.484 OA
ATOM      4  C   UNL     1       4.100 -15.813  14.750  1.00  0.00     0.138 A 
ATOM      5  C   UNL     1       2.705 -15.766  14.791  1.00  0.00     0.093 A 
ATOM      6  C   UNL     1       2.048 -14.555  15.014  1.00  0.00     0.123 A 
ATOM      7  C   UNL     1       2.791 -13.391  15.215  1.00  0.00     0.093 A 
ATOM      8  C   UNL     1       4.191 -13.414  15.187  1.00  0.00     0.133 A 
ATOM      9  C   UNL     1       4.866 -14.635  14.900  1.00  0.00     0.102 A 
ATOM     10  C   UNL     1       6.335 -14.752  14.662  1.00  0.00     0.174 C 
ATOM     11  O   UNL     1       7.094 -13.750  14.702  1.00  0.00    -0.294 OA
ENDROOT
BRANCH   2  12
ATOM     12  C   UNL     1       6.583 -18.549  14.234  1.00  0.00    -0.007 A 
ATOM     13  C   UNL     1       7.362 -18.570  13.065  1.00  0.00     0.011 A 
ATOM     14  C   UNL     1       6.197 -19.767  14.823  1.00  0.00     0.011 A 
ATOM     15  C   UNL     1       7.770 -19.787  12.509  1.00  0.00     0.046 A 
ATOM     16  C   UNL     1       6.607 -20.981  14.265  1.00  0.00     0.046 A 
ATOM     17  C   UNL     1       7.395 -20.994  13.107  1.00  0.00     0.115 A 
BRANCH  17  18
ATOM     18  O   UNL     1       7.809 -22.199  12.543  1.00  0.00    -0.508 OA
ATOM     19  H   UNL     1       7.196 -22.743  11.947  1.00  0.00     0.293 HD
ENDBRANCH  17  18
ENDBRANCH   2  12
BRANCH   8  20
ATOM     20  O   UNL     1       4.848 -12.213  15.462  1.00  0.00    -0.507 OA
ATOM     21  H   UNL     1       4.406 -11.307  15.461  1.00  0.00     0.293 HD
ENDBRANCH   8  20
BRANCH   6  22
ATOM     22  O   UNL     1       0.656 -14.497  15.050  1.00  0.00    -0.508 OA
ATOM     23  H   UNL     1       0.168 -13.672  15.377  1.00  0.00     0.293 HD
ENDBRANCH   6  22
TORSDOF 4
ENDMDL
MODEL 2
REMARK VINA RESULT:    -5.324      3.745      6.204
REMARK INTER + INTRA:          -6.389
REMARK INTER:                  -6.100
REMARK INTRA:                  -0.289
REMARK UNBOUND:                -0.286
REMARK SMILES O=C1C[C@H](c2ccc(O)cc2)Oc2cc(O)cc(O)c21
REMARK SMILES IDX 3 1 4 2 12 3 13 4 14 5 15 6 17 7 18 8 20 9 2 10 1 11 5 12
REMARK SMILES IDX 6 13 11 14 7 15 10 16 8 17 9 18 19 20 16 22
REMARK H PARENT 9 19 19 21 16 23
REMARK Flexibility Score: inf
ROOT
ATOM      1  C   UNL     1       4.921 -11.501  15.777  1.00  0.00     0.131 C 
ATOM      2  C   UNL     1       4.558 -12.173  14.447  1.00  0.00     0.211 C 
ATOM      3  O   UNL     1       5.566 -11.908  13.472  1.00  0.00    -0.484 OA
ATOM      4  C   UNL     1       6.100 -10.627  13.295  1.00  0.00     0.138 A 
ATOM      5  C   UNL     1       6.831 -10.357  12.137  1.00  0.00     0.093 A 
ATOM      6  C   UNL     1       7.355  -9.082  11.916  1.00  0.00     0.123 A 
ATOM      7  C   UNL     1       7.132  -8.071  12.851  1.00  0.00     0.093 A 
ATOM      8  C   UNL     1       6.396  -8.315  14.018  1.00  0.00     0.133 A 
ATOM      9  C   UNL     1       5.909  -9.628  14.277  1.00  0.00     0.102 A 
ATOM     10  C   UNL     1       5.275 -10.056  15.559  1.00  0.00     0.174 C 
ATOM     11  O   UNL     1       5.124  -9.260  16.521  1.00  0.00    -0.294 OA
ENDROOT
BRANCH   2  12
ATOM     12  C   UNL     1       4.388 -13.662  14.626  1.00  0.00    -0.007 A 
ATOM     13  C   UNL     1       5.513 -14.486  14.804  1.00  0.00     0.011 A 
ATOM     14  C   UNL     1       3.112 -14.250  14.562  1.00  0.00     0.011 A 
ATOM     15  C   UNL     1       5.362 -15.869  14.940  1.00  0.00     0.046 A 
ATOM     16  C   UNL     1       2.964 -15.633  14.699  1.00  0.00     0.046 A 
ATOM     17  C   UNL     1       4.089 -16.447  14.890  1.00  0.00     0.115 A 
BRANCH  17  18
ATOM     18  O   UNL     1       3.953 -17.826  15.028  1.00  0.00    -0.508 OA
ATOM     19  H   UNL     1       4.314 -18.316  15.838  1.00  0.00     0.293 HD
ENDBRANCH  17  18
ENDBRANCH   2  12
BRANCH   8  20
ATOM     20  O   UNL     1       6.170  -7.225  14.862  1.00  0.00    -0.507 OA
ATOM     21  H   UNL     1       5.258  -6.894  15.135  1.00  0.00     0.293 HD
ENDBRANCH   8  20
BRANCH   6  22
ATOM     22  O   UNL     1       8.091  -8.805  10.766  1.00  0.00    -0.508 OA
ATOM     23  H   UNL     1       8.127  -9.456   9.991  1.00  0.00     0.293 HD
ENDBRANCH   6  22
TORSDOF 4
ENDMDL
MODEL 3
REMARK VINA RESULT:    -5.320      2.088      3.652
REMARK INTER + INTRA:          -6.384
REMARK INTER:                  -6.083
REMARK INTRA:                  -0.301
REMARK UNBOUND:                -0.286
REMARK SMILES O=C1C[C@H](c2ccc(O)cc2)Oc2cc(O)cc(O)c21
REMARK SMILES IDX 3 1 4 2 12 3 13 4 14 5 15 6 17 7 18 8 20 9 2 10 1 11 5 12
REMARK SMILES IDX 6 13 11 14 7 15 10 16 8 17 9 18 19 20 16 22
REMARK H PARENT 9 19 19 21 16 23
REMARK Flexibility Score: inf
ROOT
ATOM      1  C   UNL     1       3.581 -15.423  16.687  1.00  0.00     0.131 C 
ATOM      2  C   UNL     1       3.853 -15.739  15.211  1.00  0.00     0.211 C 
ATOM      3  O   UNL     1       4.638 -14.702  14.624  1.00  0.00    -0.484 OA
ATOM      4  C   UNL     1       4.349 -13.350  14.835  1.00  0.00     0.138 A 
ATOM      5  C   UNL     1       4.931 -12.398  13.997  1.00  0.00     0.093 A 
ATOM      6  C   UNL     1       4.644 -11.042  14.164  1.00  0.00     0.123 A 
ATOM      7  C   UNL     1       3.756 -10.641  15.162  1.00  0.00     0.093 A 
ATOM      8  C   UNL     1       3.152 -11.578  16.011  1.00  0.00     0.133 A 
ATOM      9  C   UNL     1       3.488 -12.956  15.885  1.00  0.00     0.102 A 
ATOM     10  C   UNL     1       3.057 -14.021  16.839  1.00  0.00     0.174 C 
ATOM     11  O   UNL     1       2.349 -13.761  17.845  1.00  0.00    -0.294 OA
ENDROOT
BRANCH   2  12
ATOM     12  C   UNL     1       4.555 -17.067  15.068  1.00  0.00    -0.007 A 
ATOM     13  C   UNL     1       4.798 -17.865  16.199  1.00  0.00     0.011 A 
ATOM     14  C   UNL     1       5.025 -17.497  13.813  1.00  0.00     0.011 A 
ATOM     15  C   UNL     1       5.475 -19.082  16.075  1.00  0.00     0.046 A 
ATOM     16  C   UNL     1       5.702 -18.715  13.692  1.00  0.00     0.046 A 
ATOM     17  C   UNL     1       5.927 -19.511  14.823  1.00  0.00     0.115 A 
BRANCH  17  18
ATOM     18  O   UNL     1       6.600 -20.725  14.714  1.00  0.00    -0.508 OA
ATOM     19  H   UNL     1       6.370 -21.395  13.989  1.00  0.00     0.293 HD
ENDBRANCH  17  18
ENDBRANCH   2  12
BRANCH   8  20
ATOM     20  O   UNL     1       2.229 -11.088  16.937  1.00  0.00    -0.507 OA
ATOM     21  H   UNL     1       2.392 -10.299  17.544  1.00  0.00     0.293 HD
ENDBRANCH   8  20
BRANCH   6  22
ATOM     22  O   UNL     1       5.226 -10.085  13.336  1.00  0.00    -0.508 OA
ATOM     23  H   UNL     1       6.191 -10.159  13.037  1.00  0.00     0.293 HD
ENDBRANCH   6  22
TORSDOF 4
ENDMDL
MODEL 4
REMARK VINA RESULT:    -5.104      3.042      4.851
REMARK INTER + INTRA:          -6.136
REMARK INTER:                  -5.823
REMARK INTRA:                  -0.314
REMARK UNBOUND:                -0.286
REMARK SMILES O=C1C[C@H](c2ccc(O)cc2)Oc2cc(O)cc(O)c21
REMARK SMILES IDX 3 1 4 2 12 3 13 4 14 5 15 6 17 7 18 8 20 9 2 10 1 11 5 12
REMARK SMILES IDX 6 13 11 14 7 15 10 16 8 17 9 18 19 20 16 22
REMARK H PARENT 9 19 19 21 16 23
REMARK Flexibility Score: inf
ROOT
ATOM      1  C   UNL     1       5.862 -12.239  14.106  1.00  0.00     0.131 C 
ATOM      2  C   UNL     1       5.027 -12.892  15.214  1.00  0.00     0.211 C 
ATOM      3  O   UNL     1       3.726 -12.306  15.257  1.00  0.00    -0.484 OA
ATOM      4  C   UNL     1       3.540 -10.922  15.194  1.00  0.00     0.138 A 
ATOM      5  C   UNL     1       2.302 -10.392  15.561  1.00  0.00     0.093 A 
ATOM      6  C   UNL     1       2.090  -9.012  15.535  1.00  0.00     0.123 A 
ATOM      7  C   UNL     1       3.129  -8.160  15.158  1.00  0.00     0.093 A 
ATOM      8  C   UNL     1       4.383  -8.667  14.793  1.00  0.00     0.133 A 
ATOM      9  C   UNL     1       4.586 -10.076  14.760  1.00  0.00     0.102 A 
ATOM     10  C   UNL     1       5.809 -10.740  14.218  1.00  0.00     0.174 C 
ATOM     11  O   UNL     1       6.766 -10.078  13.743  1.00  0.00    -0.294 OA
ENDROOT
BRANCH   2  12
ATOM     12  C   UNL     1       4.918 -14.382  14.996  1.00  0.00    -0.007 A 
ATOM     13  C   UNL     1       6.073 -15.148  14.763  1.00  0.00     0.011 A 
ATOM     14  C   UNL     1       3.661 -15.012  14.968  1.00  0.00     0.011 A 
ATOM     15  C   UNL     1       5.974 -16.524  14.531  1.00  0.00     0.046 A 
ATOM     16  C   UNL     1       3.566 -16.388  14.735  1.00  0.00     0.046 A 
ATOM     17  C   UNL     1       4.723 -17.147  14.518  1.00  0.00     0.115 A 
BRANCH  17  18
ATOM     18  O   UNL     1       4.639 -18.518  14.286  1.00  0.00    -0.508 OA
ATOM     19  H   UNL     1       5.408 -19.140  14.504  1.00  0.00     0.293 HD
ENDBRANCH  17  18
ENDBRANCH   2  12
BRANCH   8  20
ATOM     20  O   UNL     1       5.378  -7.734  14.494  1.00  0.00    -0.507 OA
ATOM     21  H   UNL     1       5.212  -6.752  14.336  1.00  0.00     0.293 HD
ENDBRANCH   8  20
BRANCH   6  22
ATOM     22  O   UNL     1       0.855  -8.475  15.892  1.00  0.00    -0.508 OA
ATOM     23  H   UNL     1       0.199  -8.991  16.466  1.00  0.00     0.293 HD
ENDBRANCH   6  22
TORSDOF 4
ENDMDL
MODEL 5
REMARK VINA RESULT:    -5.086      3.955      6.427
REMARK INTER + INTRA:          -6.116
REMARK INTER:                  -5.799
REMARK INTRA:                  -0.317
REMARK UNBOUND:                -0.286
REMARK SMILES O=C1C[C@H](c2ccc(O)cc2)Oc2cc(O)cc(O)c21
REMARK SMILES IDX 3 1 4 2 12 3 13 4 14 5 15 6 17 7 18 8 20 9 2 10 1 11 5 12
REMARK SMILES IDX 6 13 11 14 7 15 10 16 8 17 9 18 19 20 16 22
REMARK H PARENT 9 19 19 21 16 23
REMARK Flexibility Score: inf
ROOT
ATOM      1  C   UNL     1       4.450 -10.774  14.993  1.00  0.00     0.131 C 
ATOM      2  C   UNL     1       3.347 -11.608  15.657  1.00  0.00     0.211 C 
ATOM      3  O   UNL     1       2.063 -11.124  15.264  1.00  0.00    -0.484 OA
ATOM      4  C   UNL     1       1.764  -9.759  15.249  1.00  0.00     0.138 A 
ATOM      5  C   UNL     1       0.427  -9.364  15.174  1.00  0.00     0.093 A 
ATOM      6  C   UNL     1       0.091  -8.009  15.184  1.00  0.00     0.123 A 
ATOM      7  C   UNL     1       1.097  -7.047  15.288  1.00  0.00     0.093 A 
ATOM      8  C   UNL     1       2.445  -7.418  15.372  1.00  0.00     0.133 A 
ATOM      9  C   UNL     1       2.797  -8.796  15.303  1.00  0.00     0.102 A 
ATOM     10  C   UNL     1       4.197  -9.305  15.198  1.00  0.00     0.174 C 
ATOM     11  O   UNL     1       5.184  -8.526  15.166  1.00  0.00    -0.294 OA
ENDROOT
BRANCH   2  12
ATOM     12  C   UNL     1       3.487 -13.067  15.295  1.00  0.00    -0.007 A 
ATOM     13  C   UNL     1       4.761 -13.641  15.154  1.00  0.00     0.011 A 
ATOM     14  C   UNL     1       2.348 -13.853  15.039  1.00  0.00     0.011 A 
ATOM     15  C   UNL     1       4.895 -14.985  14.789  1.00  0.00     0.046 A 
ATOM     16  C   UNL     1       2.486 -15.195  14.674  1.00  0.00     0.046 A 
ATOM     17  C   UNL     1       3.760 -15.765  14.550  1.00  0.00     0.115 A 
BRANCH  17  18
ATOM     18  O   UNL     1       3.907 -17.102  14.187  1.00  0.00    -0.508 OA
ATOM     19  H   UNL     1       3.633 -17.436  13.271  1.00  0.00     0.293 HD
ENDBRANCH  17  18
ENDBRANCH   2  12
BRANCH   8  20
ATOM     20  O   UNL     1       3.374  -6.389  15.538  1.00  0.00    -0.507 OA
ATOM     21  H   UNL     1       4.356  -6.467  15.327  1.00  0.00     0.293 HD
ENDBRANCH   8  20
BRANCH   6  22
ATOM     22  O   UNL     1      -1.241  -7.605  15.102  1.00  0.00    -0.508 OA
ATOM     23  H   UNL     1      -1.998  -8.278  15.089  1.00  0.00     0.293 HD
ENDBRANCH   6  22
TORSDOF 4
ENDMDL
MODEL 6
REMARK VINA RESULT:    -5.031      2.821      7.404
REMARK INTER + INTRA:          -6.053
REMARK INTER:                  -5.763
REMARK INTRA:                  -0.290
REMARK UNBOUND:                -0.286
REMARK SMILES O=C1C[C@H](c2ccc(O)cc2)Oc2cc(O)cc(O)c21
REMARK SMILES IDX 3 1 4 2 12 3 13 4 14 5 15 6 17 7 18 8 20 9 2 10 1 11 5 12
REMARK SMILES IDX 6 13 11 14 7 15 10 16 8 17 9 18 19 20 16 22
REMARK H PARENT 9 19 19 21 16 23
REMARK Flexibility Score: inf
ROOT
ATOM      1  C   UNL     1       4.096 -13.345  14.705  1.00  0.00     0.131 C 
ATOM      2  C   UNL     1       5.553 -12.974  15.004  1.00  0.00     0.211 C 
ATOM      3  O   UNL     1       6.436 -13.885  14.350  1.00  0.00    -0.484 OA
ATOM      4  C   UNL     1       6.220 -15.266  14.376  1.00  0.00     0.138 A 
ATOM      5  C   UNL     1       7.264 -16.117  14.007  1.00  0.00     0.093 A 
ATOM      6  C   UNL     1       7.091 -17.502  14.047  1.00  0.00     0.123 A 
ATOM      7  C   UNL     1       5.875 -18.036  14.476  1.00  0.00     0.093 A 
ATOM      8  C   UNL     1       4.816 -17.203  14.859  1.00  0.00     0.133 A 
ATOM      9  C   UNL     1       4.966 -15.790  14.763  1.00  0.00     0.102 A 
ATOM     10  C   UNL     1       3.859 -14.808  14.965  1.00  0.00     0.174 C 
ATOM     11  O   UNL     1       2.689 -15.177  15.241  1.00  0.00    -0.294 OA
ENDROOT
BRANCH   2  12
ATOM     12  C   UNL     1       5.847 -11.560  14.567  1.00  0.00    -0.007 A 
ATOM     13  C   UNL     1       5.978 -10.537  15.522  1.00  0.00     0.011 A 
ATOM     14  C   UNL     1       5.938 -11.237  13.201  1.00  0.00     0.011 A 
ATOM     15  C   UNL     1       6.220  -9.220  15.119  1.00  0.00     0.046 A 
ATOM     16  C   UNL     1       6.180  -9.919  12.801  1.00  0.00     0.046 A 
ATOM     17  C   UNL     1       6.323  -8.908  13.760  1.00  0.00     0.115 A 
BRANCH  17  18
ATOM     18  O   UNL     1       6.565  -7.591  13.373  1.00  0.00    -0.508 OA
ATOM     19  H   UNL     1       7.002  -6.927  14.000  1.00  0.00     0.293 HD
ENDBRANCH  17  18
ENDBRANCH   2  12
BRANCH   8  20
ATOM     20  O   UNL     1       3.661 -17.828  15.334  1.00  0.00    -0.507 OA
ATOM     21  H   UNL     1       3.589 -18.812  15.543  1.00  0.00     0.293 HD
ENDBRANCH   8  20
BRANCH   6  22
ATOM     22  O   UNL     1       8.125 -18.359  13.674  1.00  0.00    -0.508 OA
ATOM     23  H   UNL     1       8.046 -19.362  13.782  1.00  0.00     0.293 HD
ENDBRANCH   6  22
TORSDOF 4
ENDMDL
MODEL 7
REMARK VINA RESULT:    -5.030      3.530      5.704
REMARK INTER + INTRA:          -6.051
REMARK INTER:                  -5.759
REMARK INTRA:                  -0.293
REMARK UNBOUND:                -0.286
REMARK SMILES O=C1C[C@H](c2ccc(O)cc2)Oc2cc(O)cc(O)c21
REMARK SMILES IDX 3 1 4 2 12 3 13 4 14 5 15 6 17 7 18 8 20 9 2 10 1 11 5 12
REMARK SMILES IDX 6 13 11 14 7 15 10 16 8 17 9 18 19 20 16 22
REMARK H PARENT 9 19 19 21 16 23
REMARK Flexibility Score: inf
ROOT
ATOM      1  C   UNL     1       3.769 -12.140  16.454  1.00  0.00     0.131 C 
ATOM      2  C   UNL     1       3.764 -13.070  15.235  1.00  0.00     0.211 C 
ATOM      3  O   UNL     1       4.865 -12.766  14.380  1.00  0.00    -0.484 OA
ATOM      4  C   UNL     1       5.195 -11.449  14.046  1.00  0.00     0.138 A 
ATOM      5  C   UNL     1       6.058 -11.224  12.972  1.00  0.00     0.093 A 
ATOM      6  C   UNL     1       6.388  -9.921  12.594  1.00  0.00     0.123 A 
ATOM      7  C   UNL     1       5.837  -8.840  13.283  1.00  0.00     0.093 A 
ATOM      8  C   UNL     1       4.962  -9.040  14.359  1.00  0.00     0.133 A 
ATOM      9  C   UNL     1       4.669 -10.367  14.787  1.00  0.00     0.102 A 
ATOM     10  C   UNL     1       3.904 -10.706  16.023  1.00  0.00     0.174 C 
ATOM     11  O   UNL     1       3.455  -9.815  16.789  1.00  0.00    -0.294 OA
ENDROOT
BRANCH   2  12
ATOM     12  C   UNL     1       3.822 -14.517  15.663  1.00  0.00    -0.007 A 
ATOM     13  C   UNL     1       4.035 -14.847  17.012  1.00  0.00     0.011 A 
ATOM     14  C   UNL     1       3.721 -15.549  14.713  1.00  0.00     0.011 A 
ATOM     15  C   UNL     1       4.120 -16.185  17.408  1.00  0.00     0.046 A 
ATOM     16  C   UNL     1       3.806 -16.886  15.112  1.00  0.00     0.046 A 
ATOM     17  C   UNL     1       4.004 -17.208  16.461  1.00  0.00     0.115 A 
BRANCH  17  18
ATOM     18  O   UNL     1       4.090 -18.537  16.870  1.00  0.00    -0.508 OA
ATOM     19  H   UNL     1       4.204 -19.290  16.202  1.00  0.00     0.293 HD
ENDBRANCH  17  18
ENDBRANCH   2  12
BRANCH   8  20
ATOM     20  O   UNL     1       4.410  -7.898  14.945  1.00  0.00    -0.507 OA
ATOM     21  H   UNL     1       4.861  -7.349  15.660  1.00  0.00     0.293 HD
ENDBRANCH   8  20
BRANCH   6  22
ATOM     22  O   UNL     1       7.254  -9.687  11.528  1.00  0.00    -0.508 OA
ATOM     23  H   UNL     1       6.987  -9.894  10.573  1.00  0.00     0.293 HD
ENDBRANCH   6  22
TORSDOF 4
ENDMDL
MODEL 8
REMARK VINA RESULT:    -4.980      3.371      7.364
REMARK INTER + INTRA:          -5.994
REMARK INTER:                  -5.707
REMARK INTRA:                  -0.287
REMARK UNBOUND:                -0.286
REMARK SMILES O=C1C[C@H](c2ccc(O)cc2)Oc2cc(O)cc(O)c21
REMARK SMILES IDX 3 1 4 2 12 3 13 4 14 5 15 6 17 7 18 8 20 9 2 10 1 11 5 12
REMARK SMILES IDX 6 13 11 14 7 15 10 16 8 17 9 18 19 20 16 22
REMARK H PARENT 9 19 19 21 16 23
REMARK Flexibility Score: inf
ROOT
ATOM      1  C   UNL     1       6.746 -12.825  14.736  1.00  0.00     0.131 C 
ATOM      2  C   UNL     1       5.784 -11.966  13.907  1.00  0.00     0.211 C 
ATOM      3  O   UNL     1       4.451 -12.110  14.397  1.00  0.00    -0.484 OA
ATOM      4  C   UNL     1       3.914 -13.363  14.710  1.00  0.00     0.138 A 
ATOM      5  C   UNL     1       2.532 -13.481  14.870  1.00  0.00     0.093 A 
ATOM      6  C   UNL     1       1.960 -14.721  15.157  1.00  0.00     0.123 A 
ATOM      7  C   UNL     1       2.773 -15.850  15.265  1.00  0.00     0.093 A 
ATOM      8  C   UNL     1       4.161 -15.759  15.100  1.00  0.00     0.133 A 
ATOM      9  C   UNL     1       4.757 -14.486  14.867  1.00  0.00     0.102 A 
ATOM     10  C   UNL     1       6.228 -14.232  14.856  1.00  0.00     0.174 C 
ATOM     11  O   UNL     1       7.060 -15.153  15.058  1.00  0.00    -0.294 OA
ENDROOT
BRANCH   2  12
ATOM     12  C   UNL     1       6.196 -10.514  13.942  1.00  0.00    -0.007 A 
ATOM     13  C   UNL     1       6.093  -9.778  15.135  1.00  0.00     0.011 A 
ATOM     14  C   UNL     1       6.634  -9.866  12.773  1.00  0.00     0.011 A 
ATOM     15  C   UNL     1       6.445  -8.425  15.163  1.00  0.00     0.046 A 
ATOM     16  C   UNL     1       6.985  -8.513  12.805  1.00  0.00     0.046 A 
ATOM     17  C   UNL     1       6.893  -7.789  14.001  1.00  0.00     0.115 A 
BRANCH  17  18
ATOM     18  O   UNL     1       7.241  -6.441  14.044  1.00  0.00    -0.508 OA
ATOM     19  H   UNL     1       6.721  -5.743  13.525  1.00  0.00     0.293 HD
ENDBRANCH  17  18
ENDBRANCH   2  12
BRANCH   8  20
ATOM     20  O   UNL     1       4.884 -16.952  15.162  1.00  0.00    -0.507 OA
ATOM     21  H   UNL     1       5.886 -17.018  15.072  1.00  0.00     0.293 HD
ENDBRANCH   8  20
BRANCH   6  22
ATOM     22  O   UNL     1       0.582 -14.847  15.326  1.00  0.00    -0.508 OA
ATOM     23  H   UNL     1       0.024 -15.426  14.710  1.00  0.00     0.293 HD
ENDBRANCH   6  22
TORSDOF 4
ENDMDL
