MODEL 1
REMARK VINA RESULT:    -5.647      0.000      0.000
REMARK INTER + INTRA:          -6.753
REMARK INTER:                  -6.472
REMARK INTRA:                  -0.281
REMARK UNBOUND:                -0.281
REMARK SMILES O=C1C[C@@H](c2ccc(O)cc2)Oc2cc(O)cc(O)c21
REMARK SMILES IDX 3 1 4 2 12 3 13 4 14 5 15 6 17 7 18 8 20 9 2 10 1 11 5 12
REMARK SMILES IDX 6 13 11 14 7 15 10 16 8 17 9 18 19 20 16 22
REMARK H PARENT 9 19 19 21 16 23
REMARK Flexibility Score: inf
ROOT
ATOM      1  C   UNL     1      52.388   7.340 -46.519  1.00  0.00     0.131 C 
ATOM      2  C   UNL     1      53.824   7.295 -47.054  1.00  0.00     0.211 C 
ATOM      3  O   UNL     1      54.682   8.067 -46.215  1.00  0.00    -0.484 OA
ATOM      4  C   UNL     1      54.645   7.942 -44.823  1.00  0.00     0.138 A 
ATOM      5  C   UNL     1      55.715   8.431 -44.071  1.00  0.00     0.093 A 
ATOM      6  C   UNL     1      55.727   8.283 -42.685  1.00  0.00     0.123 A 
ATOM      7  C   UNL     1      54.669   7.625 -42.049  1.00  0.00     0.093 A 
ATOM      8  C   UNL     1      53.588   7.122 -42.784  1.00  0.00     0.133 A 
ATOM      9  C   UNL     1      53.540   7.330 -44.190  1.00  0.00     0.102 A 
ATOM     10  C   UNL     1      52.360   7.016 -45.049  1.00  0.00     0.174 C 
ATOM     11  O   UNL     1      51.280   6.596 -44.557  1.00  0.00    -0.294 OA
ENDROOT
BRANCH   2  12
ATOM     12  C   UNL     1      53.894   7.806 -48.473  1.00  0.00    -0.007 A 
ATOM     13  C   UNL     1      53.130   8.917 -48.873  1.00  0.00     0.011 A 
ATOM     14  C   UNL     1      54.706   7.157 -49.419  1.00  0.00     0.011 A 
ATOM     15  C   UNL     1      53.198   9.385 -50.189  1.00  0.00     0.046 A 
ATOM     16  C   UNL     1      54.773   7.627 -50.733  1.00  0.00     0.046 A 
ATOM     17  C   UNL     1      54.023   8.746 -51.120  1.00  0.00     0.115 A 
BRANCH  17  18
ATOM     18  O   UNL     1      54.089   9.229 -52.425  1.00  0.00    -0.508 OA
ATOM     19  H   UNL     1      54.690  10.009 -52.669  1.00  0.00     0.293 HD
ENDBRANCH  17  18
ENDBRANCH   2  12
BRANCH   8  20
ATOM     20  O   UNL     1      52.615   6.413 -42.076  1.00  0.00    -0.507 OA
ATOM     21  H   UNL     1      52.814   5.800 -41.299  1.00  0.00     0.293 HD
ENDBRANCH   8  20
BRANCH   6  22
ATOM     22  O   UNL     1      56.800   8.782 -41.950  1.00  0.00    -0.508 OA
ATOM     23  H   UNL     1      57.703   8.950 -42.378  1.00  0.00     0.293 HD
ENDBRANCH   6  22
TORSDOF 4
ENDMDL
MODEL 2
REMARK VINA RESULT:    -5.646      0.054      1.085
REMARK INTER + INTRA:          -6.752
REMARK INTER:                  -6.470
REMARK INTRA:                  -0.282
REMARK UNBOUND:                -0.281
REMARK SMILES O=C1C[C@@H](c2ccc(O)cc2)Oc2cc(O)cc(O)c21
REMARK SMILES IDX 3 1 4 2 12 3 13 4 14 5 15 6 17 7 18 8 20 9 2 10 1 11 5 12
REMARK SMILES IDX 6 13 11 14 7 15 10 16 8 17 9 18 19 20 16 22
REMARK H PARENT 9 19 19 21 16 23
REMARK Flexibility Score: inf
ROOT
ATOM      1  C   UNL     1      52.402   7.325 -46.543  1.00  0.00     0.131 C 
ATOM      2  C   UNL     1      53.839   7.262 -47.073  1.00  0.00     0.211 C 
ATOM      3  O   UNL     1      54.701   8.039 -46.242  1.00  0.00    -0.484 OA
ATOM      4  C   UNL     1      54.659   7.932 -44.848  1.00  0.00     0.138 A 
ATOM      5  C   UNL     1      55.730   8.423 -44.100  1.00  0.00     0.093 A 
ATOM      6  C   UNL     1      55.738   8.294 -42.713  1.00  0.00     0.123 A 
ATOM      7  C   UNL     1      54.674   7.651 -42.070  1.00  0.00     0.093 A 
ATOM      8  C   UNL     1      53.591   7.147 -42.801  1.00  0.00     0.133 A 
ATOM      9  C   UNL     1      53.548   7.336 -44.211  1.00  0.00     0.102 A 
ATOM     10  C   UNL     1      52.368   7.020 -45.068  1.00  0.00     0.174 C 
ATOM     11  O   UNL     1      51.284   6.615 -44.573  1.00  0.00    -0.294 OA
ENDROOT
BRANCH   2  12
ATOM     12  C   UNL     1      53.916   7.754 -48.499  1.00  0.00    -0.007 A 
ATOM     13  C   UNL     1      54.736   7.104 -49.437  1.00  0.00     0.011 A 
ATOM     14  C   UNL     1      53.185   8.887 -48.896  1.00  0.00     0.011 A 
ATOM     15  C   UNL     1      54.804   7.564 -50.756  1.00  0.00     0.046 A 
ATOM     16  C   UNL     1      53.253   9.344 -50.215  1.00  0.00     0.046 A 
ATOM     17  C   UNL     1      54.059   8.680 -51.149  1.00  0.00     0.115 A 
BRANCH  17  18
ATOM     18  O   UNL     1      54.128   9.121 -52.469  1.00  0.00    -0.508 OA
ATOM     19  H   UNL     1      53.655   8.625 -53.217  1.00  0.00     0.293 HD
ENDBRANCH  17  18
ENDBRANCH   2  12
BRANCH   8  20
ATOM     20  O   UNL     1      52.611   6.454 -42.087  1.00  0.00    -0.507 OA
ATOM     21  H   UNL     1      52.142   6.818 -41.270  1.00  0.00     0.293 HD
ENDBRANCH   8  20
BRANCH   6  22
ATOM     22  O   UNL     1      56.813   8.794 -41.981  1.00  0.00    -0.508 OA
ATOM     23  H   UNL     1      57.722   8.933 -42.405  1.00  0.00     0.293 HD
ENDBRANCH   6  22
TORSDOF 4
ENDMDL
MODEL 3
REMARK VINA RESULT:    -5.370      1.919      7.284
REMARK INTER + INTRA:          -6.436
REMARK INTER:                  -6.153
REMARK INTRA:                  -0.283
REMARK UNBOUND:                -0.281
REMARK SMILES O=C1C[C@@H](c2ccc(O)cc2)Oc2cc(O)cc(O)c21
REMARK SMILES IDX 3 1 4 2 12 3 13 4 14 5 15 6 17 7 18 8 20 9 2 10 1 11 5 12
REMARK SMILES IDX 6 13 11 14 7 15 10 16 8 17 9 18 19 20 16 22
REMARK H PARENT 9 19 19 21 16 23
REMARK Flexibility Score: inf
ROOT
ATOM      1  C   UNL     1      55.264   6.180 -48.425  1.00  0.00     0.131 C 
ATOM      2  C   UNL     1      54.102   7.026 -47.891  1.00  0.00     0.211 C 
ATOM      3  O   UNL     1      53.919   8.178 -48.713  1.00  0.00    -0.484 OA
ATOM      4  C   UNL     1      53.891   8.081 -50.108  1.00  0.00     0.138 A 
ATOM      5  C   UNL     1      53.365   9.141 -50.850  1.00  0.00     0.093 A 
ATOM      6  C   UNL     1      53.284   9.056 -52.238  1.00  0.00     0.123 A 
ATOM      7  C   UNL     1      53.714   7.895 -52.888  1.00  0.00     0.093 A 
ATOM      8  C   UNL     1      54.240   6.817 -52.164  1.00  0.00     0.133 A 
ATOM      9  C   UNL     1      54.387   6.926 -50.754  1.00  0.00     0.102 A 
ATOM     10  C   UNL     1      55.106   5.934 -49.902  1.00  0.00     0.174 C 
ATOM     11  O   UNL     1      55.700   4.944 -50.403  1.00  0.00    -0.294 OA
ENDROOT
BRANCH   2  12
ATOM     12  C   UNL     1      54.344   7.445 -46.461  1.00  0.00    -0.007 A 
ATOM     13  C   UNL     1      53.315   7.366 -45.507  1.00  0.00     0.011 A 
ATOM     14  C   UNL     1      55.599   7.946 -46.075  1.00  0.00     0.011 A 
ATOM     15  C   UNL     1      53.544   7.756 -44.185  1.00  0.00     0.046 A 
ATOM     16  C   UNL     1      55.827   8.335 -44.751  1.00  0.00     0.046 A 
ATOM     17  C   UNL     1      54.801   8.235 -43.802  1.00  0.00     0.115 A 
BRANCH  17  18
ATOM     18  O   UNL     1      55.019   8.610 -42.478  1.00  0.00    -0.508 OA
ATOM     19  H   UNL     1      54.770   9.534 -42.143  1.00  0.00     0.293 HD
ENDBRANCH  17  18
ENDBRANCH   2  12
BRANCH   8  20
ATOM     20  O   UNL     1      54.574   5.670 -52.888  1.00  0.00    -0.507 OA
ATOM     21  H   UNL     1      53.907   5.103 -53.390  1.00  0.00     0.293 HD
ENDBRANCH   8  20
BRANCH   6  22
ATOM     22  O   UNL     1      52.761  10.125 -52.963  1.00  0.00    -0.508 OA
ATOM     23  H   UNL     1      52.072   9.984 -53.691  1.00  0.00     0.293 HD
ENDBRANCH   6  22
TORSDOF 4
ENDMDL
MODEL 4
REMARK VINA RESULT:    -5.083      2.961      8.124
REMARK INTER + INTRA:          -6.106
REMARK INTER:                  -5.822
REMARK INTRA:                  -0.285
REMARK UNBOUND:                -0.281
REMARK SMILES O=C1C[C@@H](c2ccc(O)cc2)Oc2cc(O)cc(O)c21
REMARK SMILES IDX 3 1 4 2 12 3 13 4 14 5 15 6 17 7 18 8 20 9 2 10 1 11 5 12
REMARK SMILES IDX 6 13 11 14 7 15 10 16 8 17 9 18 19 20 16 22
REMARK H PARENT 9 19 19 21 16 23
REMARK Flexibility Score: inf
ROOT
ATOM      1  C   UNL     1      54.156   8.724 -50.851  1.00  0.00     0.131 C 
ATOM      2  C   UNL     1      53.919   7.311 -50.306  1.00  0.00     0.211 C 
ATOM      3  O   UNL     1      52.524   7.011 -50.317  1.00  0.00    -0.484 OA
ATOM      4  C   UNL     1      51.731   7.272 -51.438  1.00  0.00     0.138 A 
ATOM      5  C   UNL     1      50.483   6.654 -51.544  1.00  0.00     0.093 A 
ATOM      6  C   UNL     1      49.689   6.861 -52.669  1.00  0.00     0.123 A 
ATOM      7  C   UNL     1      50.153   7.678 -53.706  1.00  0.00     0.093 A 
ATOM      8  C   UNL     1      51.402   8.305 -53.623  1.00  0.00     0.133 A 
ATOM      9  C   UNL     1      52.188   8.150 -52.447  1.00  0.00     0.102 A 
ATOM     10  C   UNL     1      53.437   8.915 -52.160  1.00  0.00     0.174 C 
ATOM     11  O   UNL     1      53.849   9.817 -52.935  1.00  0.00    -0.294 OA
ENDROOT
BRANCH   2  12
ATOM     12  C   UNL     1      54.468   7.167 -48.907  1.00  0.00    -0.007 A 
ATOM     13  C   UNL     1      53.868   7.841 -47.829  1.00  0.00     0.011 A 
ATOM     14  C   UNL     1      55.605   6.375 -48.673  1.00  0.00     0.011 A 
ATOM     15  C   UNL     1      54.381   7.704 -46.536  1.00  0.00     0.046 A 
ATOM     16  C   UNL     1      56.115   6.238 -47.379  1.00  0.00     0.046 A 
ATOM     17  C   UNL     1      55.501   6.899 -46.306  1.00  0.00     0.115 A 
BRANCH  17  18
ATOM     18  O   UNL     1      55.995   6.763 -45.011  1.00  0.00    -0.508 OA
ATOM     19  H   UNL     1      56.963   6.517 -44.838  1.00  0.00     0.293 HD
ENDBRANCH  17  18
ENDBRANCH   2  12
BRANCH   8  20
ATOM     20  O   UNL     1      51.817   9.041 -54.735  1.00  0.00    -0.507 OA
ATOM     21  H   UNL     1      51.990   8.642 -55.646  1.00  0.00     0.293 HD
ENDBRANCH   8  20
BRANCH   6  22
ATOM     22  O   UNL     1      48.445   6.240 -52.756  1.00  0.00    -0.508 OA
ATOM     23  H   UNL     1      47.954   5.919 -51.930  1.00  0.00     0.293 HD
ENDBRANCH   6  22
TORSDOF 4
ENDMDL
MODEL 5
REMARK VINA RESULT:    -5.038     13.180     14.602
REMARK INTER + INTRA:          -6.055
REMARK INTER:                  -5.767
REMARK INTRA:                  -0.288
REMARK UNBOUND:                -0.281
REMARK SMILES O=C1C[C@@H](c2ccc(O)cc2)Oc2cc(O)cc(O)c21
REMARK SMILES IDX 3 1 4 2 12 3 13 4 14 5 15 6 17 7 18 8 20 9 2 10 1 11 5 12
REMARK SMILES IDX 6 13 11 14 7 15 10 16 8 17 9 18 19 20 16 22
REMARK H PARENT 9 19 19 21 16 23
REMARK Flexibility Score: inf
ROOT
ATOM      1  C   UNL     1      54.134  -3.936 -51.332  1.00  0.00     0.131 C 
ATOM      2  C   UNL     1      52.993  -4.060 -52.349  1.00  0.00     0.211 C 
ATOM      3  O   UNL     1      52.733  -5.436 -52.626  1.00  0.00    -0.484 OA
ATOM      4  C   UNL     1      52.614  -6.376 -51.598  1.00  0.00     0.138 A 
ATOM      5  C   UNL     1      52.020  -7.609 -51.875  1.00  0.00     0.093 A 
ATOM      6  C   UNL     1      51.849  -8.550 -50.862  1.00  0.00     0.123 A 
ATOM      7  C   UNL     1      52.257  -8.249 -49.558  1.00  0.00     0.093 A 
ATOM      8  C   UNL     1      52.852  -7.018 -49.257  1.00  0.00     0.133 A 
ATOM      9  C   UNL     1      53.090  -6.080 -50.301  1.00  0.00     0.102 A 
ATOM     10  C   UNL     1      53.883  -4.826 -50.143  1.00  0.00     0.174 C 
ATOM     11  O   UNL     1      54.462  -4.545 -49.062  1.00  0.00    -0.294 OA
ENDROOT
BRANCH   2  12
ATOM     12  C   UNL     1      53.321  -3.329 -53.628  1.00  0.00    -0.007 A 
ATOM     13  C   UNL     1      52.341  -3.145 -54.620  1.00  0.00     0.011 A 
ATOM     14  C   UNL     1      54.621  -2.845 -53.852  1.00  0.00     0.011 A 
ATOM     15  C   UNL     1      52.651  -2.468 -55.803  1.00  0.00     0.046 A 
ATOM     16  C   UNL     1      54.928  -2.166 -55.035  1.00  0.00     0.046 A 
ATOM     17  C   UNL     1      53.942  -1.972 -56.011  1.00  0.00     0.115 A 
BRANCH  17  18
ATOM     18  O   UNL     1      54.233  -1.289 -57.189  1.00  0.00    -0.508 OA
ATOM     19  H   UNL     1      53.952  -1.652 -58.094  1.00  0.00     0.293 HD
ENDBRANCH  17  18
ENDBRANCH   2  12
BRANCH   8  20
ATOM     20  O   UNL     1      53.160  -6.773 -47.917  1.00  0.00    -0.507 OA
ATOM     21  H   UNL     1      53.988  -6.286 -47.606  1.00  0.00     0.293 HD
ENDBRANCH   8  20
BRANCH   6  22
ATOM     22  O   UNL     1      51.258  -9.778 -51.156  1.00  0.00    -0.508 OA
ATOM     23  H   UNL     1      50.330 -10.011 -50.824  1.00  0.00     0.293 HD
ENDBRANCH   6  22
TORSDOF 4
ENDMDL
MODEL 6
REMARK VINA RESULT:    -5.016      2.074      7.030
REMARK INTER + INTRA:          -6.030
REMARK INTER:                  -5.729
REMARK INTRA:                  -0.300
REMARK UNBOUND:                -0.281
REMARK SMILES O=C1C[C@@H](c2ccc(O)cc2)Oc2cc(O)cc(O)c21
REMARK SMILES IDX 3 1 4 2 12 3 13 4 14 5 15 6 17 7 18 8 20 9 2 10 1 11 5 12
REMARK SMILES IDX 6 13 11 14 7 15 10 16 8 17 9 18 19 20 16 22
REMARK H PARENT 9 19 19 21 16 23
REMARK Flexibility Score: inf
ROOT
ATOM      1  C   UNL     1      53.405   5.947 -47.915  1.00  0.00     0.131 C 
ATOM      2  C   UNL     1      53.303   7.436 -47.564  1.00  0.00     0.211 C 
ATOM      3  O   UNL     1      53.937   8.220 -48.574  1.00  0.00    -0.484 OA
ATOM      4  C   UNL     1      53.695   7.992 -49.932  1.00  0.00     0.138 A 
ATOM      5  C   UNL     1      54.041   8.980 -50.856  1.00  0.00     0.093 A 
ATOM      6  C   UNL     1      53.774   8.800 -52.212  1.00  0.00     0.123 A 
ATOM      7  C   UNL     1      53.140   7.630 -52.645  1.00  0.00     0.093 A 
ATOM      8  C   UNL     1      52.781   6.628 -51.735  1.00  0.00     0.133 A 
ATOM      9  C   UNL     1      53.112   6.778 -50.360  1.00  0.00     0.102 A 
ATOM     10  C   UNL     1      52.958   5.705 -49.333  1.00  0.00     0.174 C 
ATOM     11  O   UNL     1      52.576   4.547 -49.643  1.00  0.00    -0.294 OA
ENDROOT
BRANCH   2  12
ATOM     12  C   UNL     1      53.928   7.722 -46.220  1.00  0.00    -0.007 A 
ATOM     13  C   UNL     1      55.232   8.240 -46.131  1.00  0.00     0.011 A 
ATOM     14  C   UNL     1      53.218   7.449 -45.038  1.00  0.00     0.011 A 
ATOM     15  C   UNL     1      55.806   8.503 -44.884  1.00  0.00     0.046 A 
ATOM     16  C   UNL     1      53.793   7.714 -43.792  1.00  0.00     0.046 A 
ATOM     17  C   UNL     1      55.087   8.247 -43.712  1.00  0.00     0.115 A 
BRANCH  17  18
ATOM     18  O   UNL     1      55.666   8.524 -42.476  1.00  0.00    -0.508 OA
ATOM     19  H   UNL     1      56.500   9.095 -42.400  1.00  0.00     0.293 HD
ENDBRANCH  17  18
ENDBRANCH   2  12
BRANCH   8  20
ATOM     20  O   UNL     1      52.085   5.528 -52.244  1.00  0.00    -0.507 OA
ATOM     21  H   UNL     1      52.257   4.572 -51.970  1.00  0.00     0.293 HD
ENDBRANCH   8  20
BRANCH   6  22
ATOM     22  O   UNL     1      54.129   9.794 -53.121  1.00  0.00    -0.508 OA
ATOM     23  H   UNL     1      53.538  10.602 -53.279  1.00  0.00     0.293 HD
ENDBRANCH   6  22
TORSDOF 4
ENDMDL
MODEL 7
REMARK VINA RESULT:    -4.958      2.156      3.977
REMARK INTER + INTRA:          -5.964
REMARK INTER:                  -5.674
REMARK INTRA:                  -0.290
REMARK UNBOUND:                -0.281
REMARK SMILES O=C1C[C@@H](c2ccc(O)cc2)Oc2cc(O)cc(O)c21
REMARK SMILES IDX 3 1 4 2 12 3 13 4 14 5 15 6 17 7 18 8 20 9 2 10 1 11 5 12
REMARK SMILES IDX 6 13 11 14 7 15 10 16 8 17 9 18 19 20 16 22
REMARK H PARENT 9 19 19 21 16 23
REMARK Flexibility Score: inf
ROOT
ATOM      1  C   UNL     1      54.684   7.068 -49.798  1.00  0.00     0.131 C 
ATOM      2  C   UNL     1      53.649   8.198 -49.740  1.00  0.00     0.211 C 
ATOM      3  O   UNL     1      52.651   7.897 -48.765  1.00  0.00    -0.484 OA
ATOM      4  C   UNL     1      52.994   7.444 -47.488  1.00  0.00     0.138 A 
ATOM      5  C   UNL     1      52.040   7.502 -46.470  1.00  0.00     0.093 A 
ATOM      6  C   UNL     1      52.364   7.098 -45.177  1.00  0.00     0.123 A 
ATOM      7  C   UNL     1      53.659   6.650 -44.895  1.00  0.00     0.093 A 
ATOM      8  C   UNL     1      54.634   6.588 -45.898  1.00  0.00     0.133 A 
ATOM      9  C   UNL     1      54.288   6.936 -47.234  1.00  0.00     0.102 A 
ATOM     10  C   UNL     1      55.175   6.728 -48.416  1.00  0.00     0.174 C 
ATOM     11  O   UNL     1      56.291   6.156 -48.310  1.00  0.00    -0.294 OA
ENDROOT
BRANCH   2  12
ATOM     12  C   UNL     1      53.005   8.417 -51.088  1.00  0.00    -0.007 A 
ATOM     13  C   UNL     1      51.978   7.569 -51.538  1.00  0.00     0.011 A 
ATOM     14  C   UNL     1      53.446   9.460 -51.920  1.00  0.00     0.011 A 
ATOM     15  C   UNL     1      51.386   7.776 -52.787  1.00  0.00     0.046 A 
ATOM     16  C   UNL     1      52.851   9.666 -53.168  1.00  0.00     0.046 A 
ATOM     17  C   UNL     1      51.816   8.828 -53.602  1.00  0.00     0.115 A 
BRANCH  17  18
ATOM     18  O   UNL     1      51.209   9.030 -54.840  1.00  0.00    -0.508 OA
ATOM     19  H   UNL     1      51.175   8.295 -55.538  1.00  0.00     0.293 HD
ENDBRANCH  17  18
ENDBRANCH   2  12
BRANCH   8  20
ATOM     20  O   UNL     1      55.919   6.201 -45.511  1.00  0.00    -0.507 OA
ATOM     21  H   UNL     1      56.334   6.427 -44.620  1.00  0.00     0.293 HD
ENDBRANCH   8  20
BRANCH   6  22
ATOM     22  O   UNL     1      51.398   7.157 -44.175  1.00  0.00    -0.508 OA
ATOM     23  H   UNL     1      51.639   7.031 -43.199  1.00  0.00     0.293 HD
ENDBRANCH   6  22
TORSDOF 4
ENDMDL
MODEL 8
REMARK VINA RESULT:    -4.936     13.564     15.414
REMARK INTER + INTRA:          -5.938
REMARK INTER:                  -5.634
REMARK INTRA:                  -0.304
REMARK UNBOUND:                -0.281
REMARK SMILES O=C1C[C@@H](c2ccc(O)cc2)Oc2cc(O)cc(O)c21
REMARK SMILES IDX 3 1 4 2 12 3 13 4 14 5 15 6 17 7 18 8 20 9 2 10 1 11 5 12
REMARK SMILES IDX 6 13 11 14 7 15 10 16 8 17 9 18 19 20 16 22
REMARK H PARENT 9 19 19 21 16 23
REMARK Flexibility Score: inf
ROOT
ATOM      1  C   UNL     1      60.215  -3.095 -45.067  1.00  0.00     0.131 C 
ATOM      2  C   UNL     1      61.281  -4.148 -45.390  1.00  0.00     0.211 C 
ATOM      3  O   UNL     1      61.017  -4.737 -46.663  1.00  0.00    -0.484 OA
ATOM      4  C   UNL     1      60.711  -3.952 -47.779  1.00  0.00     0.138 A 
ATOM      5  C   UNL     1      60.809  -4.518 -49.052  1.00  0.00     0.093 A 
ATOM      6  C   UNL     1      60.552  -3.750 -50.185  1.00  0.00     0.123 A 
ATOM      7  C   UNL     1      60.212  -2.400 -50.046  1.00  0.00     0.093 A 
ATOM      8  C   UNL     1      60.112  -1.810 -48.780  1.00  0.00     0.133 A 
ATOM      9  C   UNL     1      60.308  -2.607 -47.618  1.00  0.00     0.102 A 
ATOM     10  C   UNL     1      60.040  -2.146 -46.224  1.00  0.00     0.174 C 
ATOM     11  O   UNL     1      59.549  -1.012 -45.988  1.00  0.00    -0.294 OA
ENDROOT
BRANCH   2  12
ATOM     12  C   UNL     1      61.330  -5.219 -44.327  1.00  0.00    -0.007 A 
ATOM     13  C   UNL     1      61.882  -4.948 -43.062  1.00  0.00     0.011 A 
ATOM     14  C   UNL     1      60.845  -6.509 -44.600  1.00  0.00     0.011 A 
ATOM     15  C   UNL     1      61.926  -5.943 -42.082  1.00  0.00     0.046 A 
ATOM     16  C   UNL     1      60.889  -7.502 -43.617  1.00  0.00     0.046 A 
ATOM     17  C   UNL     1      61.424  -7.219 -42.354  1.00  0.00     0.115 A 
BRANCH  17  18
ATOM     18  O   UNL     1      61.464  -8.198 -41.363  1.00  0.00    -0.508 OA
ATOM     19  H   UNL     1      60.699  -8.319 -40.709  1.00  0.00     0.293 HD
ENDBRANCH  17  18
ENDBRANCH   2  12
BRANCH   8  20
ATOM     20  O   UNL     1      59.842  -0.440 -48.737  1.00  0.00    -0.507 OA
ATOM     21  H   UNL     1      60.520   0.264 -48.487  1.00  0.00     0.293 HD
ENDBRANCH   8  20
BRANCH   6  22
ATOM     22  O   UNL     1      60.650  -4.332 -51.447  1.00  0.00    -0.508 OA
ATOM     23  H   UNL     1      60.053  -5.102 -51.723  1.00  0.00     0.293 HD
ENDBRANCH   6  22
TORSDOF 4
ENDMDL
MODEL 9
REMARK VINA RESULT:    -4.838     10.985     12.365
REMARK INTER + INTRA:          -5.827
REMARK INTER:                  -5.541
REMARK INTRA:                  -0.285
REMARK UNBOUND:                -0.281
REMARK SMILES O=C1C[C@@H](c2ccc(O)cc2)Oc2cc(O)cc(O)c21
REMARK SMILES IDX 3 1 4 2 12 3 13 4 14 5 15 6 17 7 18 8 20 9 2 10 1 11 5 12
REMARK SMILES IDX 6 13 11 14 7 15 10 16 8 17 9 18 19 20 16 22
REMARK H PARENT 9 19 19 21 16 23
REMARK Flexibility Score: inf
ROOT
ATOM      1  C   UNL     1      56.256  -1.103 -50.861  1.00  0.00     0.131 C 
ATOM      2  C   UNL     1      56.276  -2.566 -51.317  1.00  0.00     0.211 C 
ATOM      3  O   UNL     1      57.612  -2.966 -51.620  1.00  0.00    -0.484 OA
ATOM      4  C   UNL     1      58.672  -2.680 -50.754  1.00  0.00     0.138 A 
ATOM      5  C   UNL     1      59.873  -3.378 -50.901  1.00  0.00     0.093 A 
ATOM      6  C   UNL     1      60.932  -3.145 -50.027  1.00  0.00     0.123 A 
ATOM      7  C   UNL     1      60.785  -2.222 -48.987  1.00  0.00     0.093 A 
ATOM      8  C   UNL     1      59.588  -1.513 -48.819  1.00  0.00     0.133 A 
ATOM      9  C   UNL     1      58.527  -1.698 -49.748  1.00  0.00     0.102 A 
ATOM     10  C   UNL     1      57.288  -0.868 -49.790  1.00  0.00     0.174 C 
ATOM     11  O   UNL     1      57.130   0.118 -49.023  1.00  0.00    -0.294 OA
ENDROOT
BRANCH   2  12
ATOM     12  C   UNL     1      55.389  -2.775 -52.521  1.00  0.00    -0.007 A 
ATOM     13  C   UNL     1      54.229  -3.565 -52.428  1.00  0.00     0.011 A 
ATOM     14  C   UNL     1      55.730  -2.200 -53.757  1.00  0.00     0.011 A 
ATOM     15  C   UNL     1      53.412  -3.755 -53.547  1.00  0.00     0.046 A 
ATOM     16  C   UNL     1      54.910  -2.390 -54.874  1.00  0.00     0.046 A 
ATOM     17  C   UNL     1      53.746  -3.164 -54.769  1.00  0.00     0.115 A 
BRANCH  17  18
ATOM     18  O   UNL     1      52.917  -3.353 -55.872  1.00  0.00    -0.508 OA
ATOM     19  H   UNL     1      52.945  -4.210 -56.413  1.00  0.00     0.293 HD
ENDBRANCH  17  18
ENDBRANCH   2  12
BRANCH   8  20
ATOM     20  O   UNL     1      59.502  -0.668 -47.710  1.00  0.00    -0.507 OA
ATOM     21  H   UNL     1      58.680  -0.137 -47.465  1.00  0.00     0.293 HD
ENDBRANCH   8  20
BRANCH   6  22
ATOM     22  O   UNL     1      62.125  -3.847 -50.190  1.00  0.00    -0.508 OA
ATOM     23  H   UNL     1      62.950  -3.624 -49.646  1.00  0.00     0.293 HD
ENDBRANCH   6  22
TORSDOF 4
ENDMDL
