MODEL 1
REMARK VINA RESULT:    -5.126      0.000      0.000
REMARK INTER + INTRA:          -5.854
REMARK INTER:                  -5.725
REMARK INTRA:                  -0.129
REMARK UNBOUND:                -0.129
REMARK SMILES O=C([O-])C=Cc1ccccc1
REMARK SMILES IDX 4 1 5 2 2 3 1 4 3 5 6 6 7 7 11 8 8 9 10 10 9 11
REMARK H PARENT
REMARK Flexibility Score: inf
ROOT
ATOM      1  C   UNL     1      10.091  51.035  40.351  1.00  0.00     0.025 C 
ATOM      2  C   UNL     1      10.773  51.295  41.477  1.00  0.00     0.010 C 
ENDROOT
BRANCH   1   3
ATOM      3  C   UNL     1       8.636  50.813  40.349  1.00  0.00     0.064 C 
ATOM      4  O   UNL     1       7.876  51.460  41.119  1.00  0.00    -0.545 OA
ATOM      5  O   UNL     1       8.089  49.875  39.484  1.00  0.00    -0.545 OA
ENDBRANCH   1   3
BRANCH   2   6
ATOM      6  C   UNL     1      12.242  51.528  41.548  1.00  0.00    -0.026 A 
ATOM      7  C   UNL     1      12.698  52.707  42.166  1.00  0.00     0.008 A 
ATOM      8  C   UNL     1      13.196  50.626  41.026  1.00  0.00     0.008 A 
ATOM      9  C   UNL     1      14.065  52.981  42.261  1.00  0.00     0.001 A 
ATOM     10  C   UNL     1      14.564  50.908  41.126  1.00  0.00     0.001 A 
ATOM     11  C   UNL     1      14.997  52.082  41.742  1.00  0.00     0.000 A 
ENDBRANCH   2   6
TORSDOF 2
ENDMDL
MODEL 2
REMARK VINA RESULT:    -5.112      0.220      1.469
REMARK INTER + INTRA:          -5.838
REMARK INTER:                  -5.694
REMARK INTRA:                  -0.145
REMARK UNBOUND:                -0.129
REMARK SMILES O=C([O-])C=Cc1ccccc1
REMARK SMILES IDX 4 1 5 2 2 3 1 4 3 5 6 6 7 7 11 8 8 9 10 10 9 11
REMARK H PARENT
REMARK Flexibility Score: inf
ROOT
ATOM      1  C   UNL     1      10.143  50.847  40.401  1.00  0.00     0.025 C 
ATOM      2  C   UNL     1      10.762  51.559  41.355  1.00  0.00     0.010 C 
ENDROOT
BRANCH   1   3
ATOM      3  C   UNL     1       8.676  50.789  40.293  1.00  0.00     0.064 C 
ATOM      4  O   UNL     1       7.941  51.545  40.982  1.00  0.00    -0.545 OA
ATOM      5  O   UNL     1       8.091  49.885  39.416  1.00  0.00    -0.545 OA
ENDBRANCH   1   3
BRANCH   2   6
ATOM      6  C   UNL     1      12.238  51.659  41.519  1.00  0.00    -0.026 A 
ATOM      7  C   UNL     1      13.036  50.618  41.008  1.00  0.00     0.008 A 
ATOM      8  C   UNL     1      12.875  52.745  42.161  1.00  0.00     0.008 A 
ATOM      9  C   UNL     1      14.427  50.657  41.133  1.00  0.00     0.001 A 
ATOM     10  C   UNL     1      14.269  52.776  42.282  1.00  0.00     0.001 A 
ATOM     11  C   UNL     1      15.043  51.735  41.769  1.00  0.00     0.000 A 
ENDBRANCH   2   6
TORSDOF 2
ENDMDL
MODEL 3
REMARK VINA RESULT:    -4.966      3.367      5.227
REMARK INTER + INTRA:          -5.675
REMARK INTER:                  -5.544
REMARK INTRA:                  -0.132
REMARK UNBOUND:                -0.129
REMARK SMILES O=C([O-])C=Cc1ccccc1
REMARK SMILES IDX 4 1 5 2 2 3 1 4 3 5 6 6 7 7 11 8 8 9 10 10 9 11
REMARK H PARENT
REMARK Flexibility Score: inf
ROOT
ATOM      1  C   UNL     1      13.219  50.666  41.051  1.00  0.00     0.025 C 
ATOM      2  C   UNL     1      12.249  51.475  41.505  1.00  0.00     0.010 C 
ENDROOT
BRANCH   1   3
ATOM      3  C   UNL     1      14.629  50.840  41.438  1.00  0.00     0.064 C 
ATOM      4  O   UNL     1      15.196  50.027  42.217  1.00  0.00    -0.545 OA
ATOM      5  O   UNL     1      15.347  51.916  40.936  1.00  0.00    -0.545 OA
ENDBRANCH   1   3
BRANCH   2   6
ATOM      6  C   UNL     1      10.807  51.354  41.153  1.00  0.00    -0.026 A 
ATOM      7  C   UNL     1       9.897  52.229  41.775  1.00  0.00     0.008 A 
ATOM      8  C   UNL     1      10.311  50.407  40.230  1.00  0.00     0.008 A 
ATOM      9  C   UNL     1       8.532  52.163  41.485  1.00  0.00     0.001 A 
ATOM     10  C   UNL     1       8.941  50.347  39.946  1.00  0.00     0.001 A 
ATOM     11  C   UNL     1       8.054  51.223  40.571  1.00  0.00     0.000 A 
ENDBRANCH   2   6
TORSDOF 2
ENDMDL
MODEL 4
REMARK VINA RESULT:    -4.932      3.388      5.450
REMARK INTER + INTRA:          -5.638
REMARK INTER:                  -5.499
REMARK INTRA:                  -0.139
REMARK UNBOUND:                -0.129
REMARK SMILES O=C([O-])C=Cc1ccccc1
REMARK SMILES IDX 4 1 5 2 2 3 1 4 3 5 6 6 7 7 11 8 8 9 10 10 9 11
REMARK H PARENT
REMARK Flexibility Score: inf
ROOT
ATOM      1  C   UNL     1      13.314  50.762  40.883  1.00  0.00     0.025 C 
ATOM      2  C   UNL     1      12.258  51.078  41.648  1.00  0.00     0.010 C 
ENDROOT
BRANCH   1   3
ATOM      3  C   UNL     1      14.695  50.814  41.392  1.00  0.00     0.064 C 
ATOM      4  O   UNL     1      15.170  49.876  42.087  1.00  0.00    -0.545 OA
ATOM      5  O   UNL     1      15.489  51.915  41.102  1.00  0.00    -0.545 OA
ENDBRANCH   1   3
BRANCH   2   6
ATOM      6  C   UNL     1      10.840  51.046  41.195  1.00  0.00    -0.026 A 
ATOM      7  C   UNL     1      10.450  50.027  40.307  1.00  0.00     0.008 A 
ATOM      8  C   UNL     1       9.872  51.986  41.613  1.00  0.00     0.008 A 
ATOM      9  C   UNL     1       9.133  49.946  39.847  1.00  0.00     0.001 A 
ATOM     10  C   UNL     1       8.554  51.898  41.148  1.00  0.00     0.001 A 
ATOM     11  C   UNL     1       8.186  50.880  40.267  1.00  0.00     0.000 A 
ENDBRANCH   2   6
TORSDOF 2
ENDMDL
MODEL 5
REMARK VINA RESULT:    -4.890      1.152      1.376
REMARK INTER + INTRA:          -5.590
REMARK INTER:                  -5.457
REMARK INTRA:                  -0.134
REMARK UNBOUND:                -0.129
REMARK SMILES O=C([O-])C=Cc1ccccc1
REMARK SMILES IDX 4 1 5 2 2 3 1 4 3 5 6 6 7 7 11 8 8 9 10 10 9 11
REMARK H PARENT
REMARK Flexibility Score: inf
ROOT
ATOM      1  C   UNL     1       9.205  51.718  41.226  1.00  0.00     0.025 C 
ATOM      2  C   UNL     1      10.238  52.534  41.483  1.00  0.00     0.010 C 
ENDROOT
BRANCH   1   3
ATOM      3  C   UNL     1       7.813  52.198  41.198  1.00  0.00     0.064 C 
ATOM      4  O   UNL     1       7.522  53.375  41.541  1.00  0.00    -0.545 OA
ATOM      5  O   UNL     1       6.803  51.340  40.786  1.00  0.00    -0.545 OA
ENDBRANCH   1   3
BRANCH   2   6
ATOM      6  C   UNL     1      11.665  52.113  41.526  1.00  0.00    -0.026 A 
ATOM      7  C   UNL     1      12.597  52.986  42.116  1.00  0.00     0.008 A 
ATOM      8  C   UNL     1      12.127  50.884  41.004  1.00  0.00     0.008 A 
ATOM      9  C   UNL     1      13.950  52.645  42.185  1.00  0.00     0.001 A 
ATOM     10  C   UNL     1      13.484  50.550  41.078  1.00  0.00     0.001 A 
ATOM     11  C   UNL     1      14.394  51.428  41.667  1.00  0.00     0.000 A 
ENDBRANCH   2   6
TORSDOF 2
ENDMDL
MODEL 6
REMARK VINA RESULT:    -4.800      4.169      5.590
REMARK INTER + INTRA:          -5.490
REMARK INTER:                  -5.346
REMARK INTRA:                  -0.144
REMARK UNBOUND:                -0.129
REMARK SMILES O=C([O-])C=Cc1ccccc1
REMARK SMILES IDX 4 1 5 2 2 3 1 4 3 5 6 6 7 7 11 8 8 9 10 10 9 11
REMARK H PARENT
REMARK Flexibility Score: inf
ROOT
ATOM      1  C   UNL     1      14.549  53.370  42.188  1.00  0.00     0.025 C 
ATOM      2  C   UNL     1      14.063  52.123  42.267  1.00  0.00     0.010 C 
ENDROOT
BRANCH   1   3
ATOM      3  C   UNL     1      15.927  53.703  42.586  1.00  0.00     0.064 C 
ATOM      4  O   UNL     1      16.236  54.866  42.960  1.00  0.00    -0.545 OA
ATOM      5  O   UNL     1      16.905  52.718  42.550  1.00  0.00    -0.545 OA
ENDBRANCH   1   3
BRANCH   2   6
ATOM      6  C   UNL     1      12.683  51.721  41.881  1.00  0.00    -0.026 A 
ATOM      7  C   UNL     1      11.680  52.708  41.879  1.00  0.00     0.008 A 
ATOM      8  C   UNL     1      12.332  50.401  41.519  1.00  0.00     0.008 A 
ATOM      9  C   UNL     1      10.366  52.391  41.527  1.00  0.00     0.001 A 
ATOM     10  C   UNL     1      11.013  50.091  41.167  1.00  0.00     0.001 A 
ATOM     11  C   UNL     1      10.032  51.084  41.171  1.00  0.00     0.000 A 
ENDBRANCH   2   6
TORSDOF 2
ENDMDL
MODEL 7
REMARK VINA RESULT:    -4.569     12.628     14.506
REMARK INTER + INTRA:          -5.231
REMARK INTER:                  -5.100
REMARK INTRA:                  -0.131
REMARK UNBOUND:                -0.129
REMARK SMILES O=C([O-])C=Cc1ccccc1
REMARK SMILES IDX 4 1 5 2 2 3 1 4 3 5 6 6 7 7 11 8 8 9 10 10 9 11
REMARK H PARENT
REMARK Flexibility Score: inf
ROOT
ATOM      1  C   UNL     1      17.225  62.272  44.363  1.00  0.00     0.025 C 
ATOM      2  C   UNL     1      18.181  63.044  43.824  1.00  0.00     0.010 C 
ENDROOT
BRANCH   1   3
ATOM      3  C   UNL     1      16.546  61.214  43.596  1.00  0.00     0.064 C 
ATOM      4  O   UNL     1      17.189  60.450  42.828  1.00  0.00    -0.545 OA
ATOM      5  O   UNL     1      15.172  61.055  43.721  1.00  0.00    -0.545 OA
ENDBRANCH   1   3
BRANCH   2   6
ATOM      6  C   UNL     1      18.905  64.128  44.544  1.00  0.00    -0.026 A 
ATOM      7  C   UNL     1      19.849  63.761  45.521  1.00  0.00     0.008 A 
ATOM      8  C   UNL     1      18.690  65.502  44.294  1.00  0.00     0.008 A 
ATOM      9  C   UNL     1      20.558  64.735  46.229  1.00  0.00     0.001 A 
ATOM     10  C   UNL     1      19.405  66.471  45.008  1.00  0.00     0.001 A 
ATOM     11  C   UNL     1      20.337  66.088  45.973  1.00  0.00     0.000 A 
ENDBRANCH   2   6
TORSDOF 2
ENDMDL
MODEL 8
REMARK VINA RESULT:    -4.540      4.939      6.556
REMARK INTER + INTRA:          -5.200
REMARK INTER:                  -5.072
REMARK INTRA:                  -0.128
REMARK UNBOUND:                -0.129
REMARK SMILES O=C([O-])C=Cc1ccccc1
REMARK SMILES IDX 4 1 5 2 2 3 1 4 3 5 6 6 7 7 11 8 8 9 10 10 9 11
REMARK H PARENT
REMARK Flexibility Score: inf
ROOT
ATOM      1  C   UNL     1      16.496  53.776  43.054  1.00  0.00     0.025 C 
ATOM      2  C   UNL     1      15.326  53.902  42.412  1.00  0.00     0.010 C 
ENDROOT
BRANCH   1   3
ATOM      3  C   UNL     1      17.281  54.943  43.491  1.00  0.00     0.064 C 
ATOM      4  O   UNL     1      18.492  55.074  43.165  1.00  0.00    -0.545 OA
ATOM      5  O   UNL     1      16.678  55.917  44.274  1.00  0.00    -0.545 OA
ENDBRANCH   1   3
BRANCH   2   6
ATOM      6  C   UNL     1      14.485  52.766  41.945  1.00  0.00    -0.026 A 
ATOM      7  C   UNL     1      13.107  52.797  42.231  1.00  0.00     0.008 A 
ATOM      8  C   UNL     1      15.001  51.661  41.231  1.00  0.00     0.008 A 
ATOM      9  C   UNL     1      12.269  51.758  41.819  1.00  0.00     0.001 A 
ATOM     10  C   UNL     1      14.154  50.625  40.821  1.00  0.00     0.001 A 
ATOM     11  C   UNL     1      12.791  50.673  41.115  1.00  0.00     0.000 A 
ENDBRANCH   2   6
TORSDOF 2
ENDMDL
MODEL 9
REMARK VINA RESULT:    -4.513     10.938     12.768
REMARK INTER + INTRA:          -5.169
REMARK INTER:                  -5.035
REMARK INTRA:                  -0.134
REMARK UNBOUND:                -0.129
REMARK SMILES O=C([O-])C=Cc1ccccc1
REMARK SMILES IDX 4 1 5 2 2 3 1 4 3 5 6 6 7 7 11 8 8 9 10 10 9 11
REMARK H PARENT
REMARK Flexibility Score: inf
ROOT
ATOM      1  C   UNL     1      16.869  60.686  43.435  1.00  0.00     0.025 C 
ATOM      2  C   UNL     1      16.766  61.828  44.131  1.00  0.00     0.010 C 
ENDROOT
BRANCH   1   3
ATOM      3  C   UNL     1      15.696  59.858  43.107  1.00  0.00     0.064 C 
ATOM      4  O   UNL     1      14.636  60.375  42.665  1.00  0.00    -0.545 OA
ATOM      5  O   UNL     1      15.759  58.483  43.289  1.00  0.00    -0.545 OA
ENDBRANCH   1   3
BRANCH   2   6
ATOM      6  C   UNL     1      17.910  62.709  44.494  1.00  0.00    -0.026 A 
ATOM      7  C   UNL     1      18.952  62.161  45.265  1.00  0.00     0.008 A 
ATOM      8  C   UNL     1      18.000  64.064  44.103  1.00  0.00     0.008 A 
ATOM      9  C   UNL     1      20.051  62.940  45.637  1.00  0.00     0.001 A 
ATOM     10  C   UNL     1      19.104  64.837  44.480  1.00  0.00     0.001 A 
ATOM     11  C   UNL     1      20.127  64.276  45.245  1.00  0.00     0.000 A 
ENDBRANCH   2   6
TORSDOF 2
ENDMDL
