MODEL 1
REMARK VINA RESULT:    -5.060      0.000      0.000
REMARK INTER + INTRA:          -7.433
REMARK INTER:                  -6.391
REMARK INTRA:                  -1.042
REMARK UNBOUND:                -1.042
REMARK SMILES O=C(C=Cc1ccc(O)cc1)c1ccc(O)cc1O
REMARK SMILES IDX 4 1 3 2 5 3 6 4 7 5 8 6 11 7 10 8 9 9 2 11 1 12 12 13 18 14
REMARK SMILES IDX 13 15 17 16 14 17 15 18 19 19 16 21
REMARK H PARENT 9 10 19 20 16 22
REMARK Flexibility Score: inf
ROOT
ATOM      1  C   UNL     1       4.302  28.630  52.671  1.00  0.00     0.012 C 
ATOM      2  C   UNL     1       4.073  27.965  53.814  1.00  0.00     0.053 C 
ENDROOT
BRANCH   1   3
ATOM      3  C   UNL     1       4.589  30.077  52.567  1.00  0.00    -0.025 A 
ATOM      4  C   UNL     1       3.596  30.939  52.083  1.00  0.00     0.012 A 
ATOM      5  C   UNL     1       3.856  32.306  51.935  1.00  0.00     0.047 A 
ATOM      6  C   UNL     1       5.122  32.819  52.249  1.00  0.00     0.115 A 
ATOM      7  C   UNL     1       5.867  30.592  52.853  1.00  0.00     0.012 A 
ATOM      8  C   UNL     1       6.125  31.958  52.705  1.00  0.00     0.047 A 
BRANCH   6   9
ATOM      9  O   UNL     1       5.393  34.177  52.108  1.00  0.00    -0.508 OA
ATOM     10  H   UNL     1       5.209  34.835  52.857  1.00  0.00     0.293 HD
ENDBRANCH   6   9
ENDBRANCH   1   3
BRANCH   2  11
ATOM     11  C   UNL     1       3.879  28.594  55.140  1.00  0.00     0.189 C 
ATOM     12  O   UNL     1       4.876  29.031  55.776  1.00  0.00    -0.289 OA
BRANCH  11  13
ATOM     13  C   UNL     1       2.518  28.811  55.690  1.00  0.00     0.064 A 
ATOM     14  C   UNL     1       2.188  28.468  57.021  1.00  0.00     0.130 A 
ATOM     15  C   UNL     1       1.534  29.398  54.875  1.00  0.00     0.020 A 
ATOM     16  C   UNL     1       0.884  28.681  57.495  1.00  0.00     0.093 A 
ATOM     17  C   UNL     1       0.242  29.611  55.359  1.00  0.00     0.047 A 
ATOM     18  C   UNL     1      -0.088  29.250  56.670  1.00  0.00     0.119 A 
BRANCH  14  19
ATOM     19  O   UNL     1       3.153  27.939  57.879  1.00  0.00    -0.507 OA
ATOM     20  H   UNL     1       2.920  27.243  58.577  1.00  0.00     0.293 HD
ENDBRANCH  14  19
BRANCH  18  21
ATOM     21  O   UNL     1      -1.375  29.455  57.162  1.00  0.00    -0.508 OA
ATOM     22  H   UNL     1      -2.046  28.698  57.222  1.00  0.00     0.293 HD
ENDBRANCH  18  21
ENDBRANCH  11  13
ENDBRANCH   2  11
TORSDOF 6
ENDMDL
MODEL 2
REMARK VINA RESULT:    -4.914     10.991     13.506
REMARK INTER + INTRA:          -7.248
REMARK INTER:                  -5.902
REMARK INTRA:                  -1.346
REMARK UNBOUND:                -1.042
REMARK SMILES O=C(C=Cc1ccc(O)cc1)c1ccc(O)cc1O
REMARK SMILES IDX 4 1 3 2 5 3 6 4 7 5 8 6 11 7 10 8 9 9 2 11 1 12 12 13 18 14
REMARK SMILES IDX 13 15 17 16 14 17 15 18 19 19 16 21
REMARK H PARENT 9 10 19 20 16 22
REMARK Flexibility Score: inf
ROOT
ATOM      1  C   UNL     1      -0.370  31.168  45.090  1.00  0.00     0.012 C 
ATOM      2  C   UNL     1       0.207  31.628  43.969  1.00  0.00     0.053 C 
ENDROOT
BRANCH   1   3
ATOM      3  C   UNL     1      -1.387  30.098  45.150  1.00  0.00    -0.025 A 
ATOM      4  C   UNL     1      -0.973  28.758  45.170  1.00  0.00     0.012 A 
ATOM      5  C   UNL     1      -1.917  27.726  45.185  1.00  0.00     0.047 A 
ATOM      6  C   UNL     1      -3.287  28.025  45.156  1.00  0.00     0.115 A 
ATOM      7  C   UNL     1      -2.762  30.390  45.092  1.00  0.00     0.012 A 
ATOM      8  C   UNL     1      -3.704  29.358  45.107  1.00  0.00     0.047 A 
BRANCH   6   9
ATOM      9  O   UNL     1      -4.236  27.006  45.171  1.00  0.00    -0.508 OA
ATOM     10  H   UNL     1      -4.728  26.727  44.329  1.00  0.00     0.293 HD
ENDBRANCH   6   9
ENDBRANCH   1   3
BRANCH   2  11
ATOM     11  C   UNL     1      -0.210  31.280  42.592  1.00  0.00     0.189 C 
ATOM     12  O   UNL     1      -0.835  32.126  41.895  1.00  0.00    -0.289 OA
BRANCH  11  13
ATOM     13  C   UNL     1       0.183  29.987  41.979  1.00  0.00     0.064 A 
ATOM     14  C   UNL     1      -0.777  29.028  41.580  1.00  0.00     0.130 A 
ATOM     15  C   UNL     1       1.546  29.716  41.764  1.00  0.00     0.020 A 
ATOM     16  C   UNL     1      -0.358  27.814  41.016  1.00  0.00     0.093 A 
ATOM     17  C   UNL     1       1.951  28.507  41.195  1.00  0.00     0.047 A 
ATOM     18  C   UNL     1       1.000  27.551  40.822  1.00  0.00     0.119 A 
BRANCH  14  19
ATOM     19  O   UNL     1      -2.141  29.286  41.723  1.00  0.00    -0.507 OA
ATOM     20  H   UNL     1      -2.503  29.818  42.504  1.00  0.00     0.293 HD
ENDBRANCH  14  19
BRANCH  18  21
ATOM     21  O   UNL     1       1.393  26.340  40.257  1.00  0.00    -0.508 OA
ATOM     22  H   UNL     1       1.164  26.103  39.299  1.00  0.00     0.293 HD
ENDBRANCH  18  21
ENDBRANCH  11  13
ENDBRANCH   2  11
TORSDOF 6
ENDMDL
MODEL 3
REMARK VINA RESULT:    -4.852     10.126     12.673
REMARK INTER + INTRA:          -7.170
REMARK INTER:                  -6.264
REMARK INTRA:                  -0.905
REMARK UNBOUND:                -1.042
REMARK SMILES O=C(C=Cc1ccc(O)cc1)c1ccc(O)cc1O
REMARK SMILES IDX 4 1 3 2 5 3 6 4 7 5 8 6 11 7 10 8 9 9 2 11 1 12 12 13 18 14
REMARK SMILES IDX 13 15 17 16 14 17 15 18 19 19 16 21
REMARK H PARENT 9 10 19 20 16 22
REMARK Flexibility Score: inf
ROOT
ATOM      1  C   UNL     1      -9.137  31.077  56.927  1.00  0.00     0.012 C 
ATOM      2  C   UNL     1      -9.335  32.014  55.987  1.00  0.00     0.053 C 
ENDROOT
BRANCH   1   3
ATOM      3  C   UNL     1      -7.925  30.948  57.764  1.00  0.00    -0.025 A 
ATOM      4  C   UNL     1      -7.713  31.858  58.809  1.00  0.00     0.012 A 
ATOM      5  C   UNL     1      -6.554  31.783  59.588  1.00  0.00     0.047 A 
ATOM      6  C   UNL     1      -5.584  30.808  59.314  1.00  0.00     0.115 A 
ATOM      7  C   UNL     1      -6.935  29.991  57.475  1.00  0.00     0.012 A 
ATOM      8  C   UNL     1      -5.778  29.917  58.255  1.00  0.00     0.047 A 
BRANCH   6   9
ATOM      9  O   UNL     1      -4.426  30.722  60.083  1.00  0.00    -0.508 OA
ATOM     10  H   UNL     1      -4.153  29.856  60.534  1.00  0.00     0.293 HD
ENDBRANCH   6   9
ENDBRANCH   1   3
BRANCH   2  11
ATOM     11  C   UNL     1      -8.304  32.957  55.496  1.00  0.00     0.189 C 
ATOM     12  O   UNL     1      -7.563  32.626  54.530  1.00  0.00    -0.289 OA
BRANCH  11  13
ATOM     13  C   UNL     1      -8.194  34.328  56.053  1.00  0.00     0.064 A 
ATOM     14  C   UNL     1      -7.237  35.252  55.576  1.00  0.00     0.130 A 
ATOM     15  C   UNL     1      -9.082  34.729  57.067  1.00  0.00     0.020 A 
ATOM     16  C   UNL     1      -7.162  36.534  56.142  1.00  0.00     0.093 A 
ATOM     17  C   UNL     1      -9.002  36.009  57.618  1.00  0.00     0.047 A 
ATOM     18  C   UNL     1      -8.039  36.915  57.160  1.00  0.00     0.119 A 
BRANCH  14  19
ATOM     19  O   UNL     1      -6.378  34.911  54.531  1.00  0.00    -0.507 OA
ATOM     20  H   UNL     1      -5.933  34.003  54.482  1.00  0.00     0.293 HD
ENDBRANCH  14  19
BRANCH  18  21
ATOM     21  O   UNL     1      -7.949  38.193  57.705  1.00  0.00    -0.508 OA
ATOM     22  H   UNL     1      -7.113  38.757  57.597  1.00  0.00     0.293 HD
ENDBRANCH  18  21
ENDBRANCH  11  13
ENDBRANCH   2  11
TORSDOF 6
ENDMDL
MODEL 4
REMARK VINA RESULT:    -4.848      1.633      2.175
REMARK INTER + INTRA:          -7.165
REMARK INTER:                  -6.112
REMARK INTRA:                  -1.053
REMARK UNBOUND:                -1.042
REMARK SMILES O=C(C=Cc1ccc(O)cc1)c1ccc(O)cc1O
REMARK SMILES IDX 4 1 3 2 5 3 6 4 7 5 8 6 11 7 10 8 9 9 2 11 1 12 12 13 18 14
REMARK SMILES IDX 13 15 17 16 14 17 15 18 19 19 16 21
REMARK H PARENT 9 10 19 20 16 22
REMARK Flexibility Score: inf
ROOT
ATOM      1  C   UNL     1       5.552  29.921  54.551  1.00  0.00     0.012 C 
ATOM      2  C   UNL     1       5.085  29.228  55.601  1.00  0.00     0.053 C 
ENDROOT
BRANCH   1   3
ATOM      3  C   UNL     1       4.931  29.965  53.211  1.00  0.00    -0.025 A 
ATOM      4  C   UNL     1       5.128  28.893  52.328  1.00  0.00     0.012 A 
ATOM      5  C   UNL     1       4.586  28.930  51.039  1.00  0.00     0.047 A 
ATOM      6  C   UNL     1       3.858  30.050  50.613  1.00  0.00     0.115 A 
ATOM      7  C   UNL     1       4.225  31.098  52.768  1.00  0.00     0.012 A 
ATOM      8  C   UNL     1       3.683  31.133  51.480  1.00  0.00     0.047 A 
BRANCH   6   9
ATOM      9  O   UNL     1       3.312  30.097  49.333  1.00  0.00    -0.508 OA
ATOM     10  H   UNL     1       3.627  30.775  48.647  1.00  0.00     0.293 HD
ENDBRANCH   6   9
ENDBRANCH   1   3
BRANCH   2  11
ATOM     11  C   UNL     1       3.981  28.242  55.547  1.00  0.00     0.189 C 
ATOM     12  O   UNL     1       4.231  27.038  55.266  1.00  0.00    -0.289 OA
BRANCH  11  13
ATOM     13  C   UNL     1       2.596  28.625  55.918  1.00  0.00     0.064 A 
ATOM     14  C   UNL     1       2.068  28.358  57.202  1.00  0.00     0.130 A 
ATOM     15  C   UNL     1       1.794  29.294  54.977  1.00  0.00     0.020 A 
ATOM     16  C   UNL     1       0.748  28.727  57.504  1.00  0.00     0.093 A 
ATOM     17  C   UNL     1       0.484  29.663  55.291  1.00  0.00     0.047 A 
ATOM     18  C   UNL     1      -0.044  29.378  56.554  1.00  0.00     0.119 A 
BRANCH  14  19
ATOM     19  O   UNL     1       2.852  27.749  58.181  1.00  0.00    -0.507 OA
ATOM     20  H   UNL     1       3.701  28.181  58.528  1.00  0.00     0.293 HD
ENDBRANCH  14  19
BRANCH  18  21
ATOM     21  O   UNL     1      -1.350  29.738  56.877  1.00  0.00    -0.508 OA
ATOM     22  H   UNL     1      -2.136  29.141  56.647  1.00  0.00     0.293 HD
ENDBRANCH  18  21
ENDBRANCH  11  13
ENDBRANCH   2  11
TORSDOF 6
ENDMDL
MODEL 5
REMARK VINA RESULT:    -4.830     10.124     12.148
REMARK INTER + INTRA:          -7.142
REMARK INTER:                  -6.151
REMARK INTRA:                  -0.991
REMARK UNBOUND:                -1.042
REMARK SMILES O=C(C=Cc1ccc(O)cc1)c1ccc(O)cc1O
REMARK SMILES IDX 4 1 3 2 5 3 6 4 7 5 8 6 11 7 10 8 9 9 2 11 1 12 12 13 18 14
REMARK SMILES IDX 13 15 17 16 14 17 15 18 19 19 16 21
REMARK H PARENT 9 10 19 20 16 22
REMARK Flexibility Score: inf
ROOT
ATOM      1  C   UNL     1      -9.948  27.685  55.457  1.00  0.00     0.012 C 
ATOM      2  C   UNL     1      -9.596  28.904  55.894  1.00  0.00     0.053 C 
ENDROOT
BRANCH   1   3
ATOM      3  C   UNL     1      -9.041  26.715  54.808  1.00  0.00    -0.025 A 
ATOM      4  C   UNL     1      -9.100  26.545  53.417  1.00  0.00     0.012 A 
ATOM      5  C   UNL     1      -8.282  25.604  52.784  1.00  0.00     0.047 A 
ATOM      6  C   UNL     1      -7.412  24.806  53.540  1.00  0.00     0.115 A 
ATOM      7  C   UNL     1      -8.187  25.891  55.564  1.00  0.00     0.012 A 
ATOM      8  C   UNL     1      -7.370  24.952  54.930  1.00  0.00     0.047 A 
BRANCH   6   9
ATOM      9  O   UNL     1      -6.591  23.866  52.921  1.00  0.00    -0.508 OA
ATOM     10  H   UNL     1      -6.103  23.155  53.455  1.00  0.00     0.293 HD
ENDBRANCH   6   9
ENDBRANCH   1   3
BRANCH   2  11
ATOM     11  C   UNL     1      -8.294  29.559  55.633  1.00  0.00     0.189 C 
ATOM     12  O   UNL     1      -8.021  29.966  54.471  1.00  0.00    -0.289 OA
BRANCH  11  13
ATOM     13  C   UNL     1      -7.344  29.837  56.738  1.00  0.00     0.064 A 
ATOM     14  C   UNL     1      -7.227  31.122  57.315  1.00  0.00     0.130 A 
ATOM     15  C   UNL     1      -6.553  28.789  57.243  1.00  0.00     0.020 A 
ATOM     16  C   UNL     1      -6.305  31.342  58.351  1.00  0.00     0.093 A 
ATOM     17  C   UNL     1      -5.644  29.018  58.278  1.00  0.00     0.047 A 
ATOM     18  C   UNL     1      -5.515  30.296  58.832  1.00  0.00     0.119 A 
BRANCH  14  19
ATOM     19  O   UNL     1      -8.037  32.172  56.882  1.00  0.00    -0.507 OA
ATOM     20  H   UNL     1      -8.827  32.496  57.427  1.00  0.00     0.293 HD
ENDBRANCH  14  19
BRANCH  18  21
ATOM     21  O   UNL     1      -4.608  30.536  59.862  1.00  0.00    -0.508 OA
ATOM     22  H   UNL     1      -4.823  30.296  60.823  1.00  0.00     0.293 HD
ENDBRANCH  18  21
ENDBRANCH  11  13
ENDBRANCH   2  11
TORSDOF 6
ENDMDL
MODEL 6
REMARK VINA RESULT:    -4.782     10.241     13.829
REMARK INTER + INTRA:          -7.081
REMARK INTER:                  -6.090
REMARK INTRA:                  -0.991
REMARK UNBOUND:                -1.042
REMARK SMILES O=C(C=Cc1ccc(O)cc1)c1ccc(O)cc1O
REMARK SMILES IDX 4 1 3 2 5 3 6 4 7 5 8 6 11 7 10 8 9 9 2 11 1 12 12 13 18 14
REMARK SMILES IDX 13 15 17 16 14 17 15 18 19 19 16 21
REMARK H PARENT 9 10 19 20 16 22
REMARK Flexibility Score: inf
ROOT
ATOM      1  C   UNL     1      -7.913  33.146  57.533  1.00  0.00     0.012 C 
ATOM      2  C   UNL     1      -9.229  33.350  57.700  1.00  0.00     0.053 C 
ENDROOT
BRANCH   1   3
ATOM      3  C   UNL     1      -7.193  31.898  57.863  1.00  0.00    -0.025 A 
ATOM      4  C   UNL     1      -6.247  31.905  58.897  1.00  0.00     0.012 A 
ATOM      5  C   UNL     1      -5.522  30.748  59.201  1.00  0.00     0.047 A 
ATOM      6  C   UNL     1      -5.721  29.577  58.456  1.00  0.00     0.115 A 
ATOM      7  C   UNL     1      -7.368  30.729  57.100  1.00  0.00     0.012 A 
ATOM      8  C   UNL     1      -6.643  29.573  57.405  1.00  0.00     0.047 A 
BRANCH   6   9
ATOM      9  O   UNL     1      -5.007  28.418  58.749  1.00  0.00    -0.508 OA
ATOM     10  H   UNL     1      -4.421  28.351  59.574  1.00  0.00     0.293 HD
ENDBRANCH   6   9
ENDBRANCH   1   3
BRANCH   2  11
ATOM     11  C   UNL     1     -10.148  32.435  58.414  1.00  0.00     0.189 C 
ATOM     12  O   UNL     1     -10.101  32.358  59.673  1.00  0.00    -0.289 OA
BRANCH  11  13
ATOM     13  C   UNL     1     -11.197  31.681  57.684  1.00  0.00     0.064 A 
ATOM     14  C   UNL     1     -12.474  31.448  58.243  1.00  0.00     0.130 A 
ATOM     15  C   UNL     1     -10.924  31.206  56.388  1.00  0.00     0.020 A 
ATOM     16  C   UNL     1     -13.431  30.719  57.520  1.00  0.00     0.093 A 
ATOM     17  C   UNL     1     -11.885  30.487  55.676  1.00  0.00     0.047 A 
ATOM     18  C   UNL     1     -13.141  30.239  56.241  1.00  0.00     0.119 A 
BRANCH  14  19
ATOM     19  O   UNL     1     -12.803  31.954  59.500  1.00  0.00    -0.507 OA
ATOM     20  H   UNL     1     -12.355  31.617  60.344  1.00  0.00     0.293 HD
ENDBRANCH  14  19
BRANCH  18  21
ATOM     21  O   UNL     1     -14.106  29.520  55.539  1.00  0.00    -0.508 OA
ATOM     22  H   UNL     1     -15.014  29.320  55.942  1.00  0.00     0.293 HD
ENDBRANCH  18  21
ENDBRANCH  11  13
ENDBRANCH   2  11
TORSDOF 6
ENDMDL
MODEL 7
REMARK VINA RESULT:    -4.716      3.305      4.469
REMARK INTER + INTRA:          -6.998
REMARK INTER:                  -5.981
REMARK INTRA:                  -1.018
REMARK UNBOUND:                -1.042
REMARK SMILES O=C(C=Cc1ccc(O)cc1)c1ccc(O)cc1O
REMARK SMILES IDX 4 1 3 2 5 3 6 4 7 5 8 6 11 7 10 8 9 9 2 11 1 12 12 13 18 14
REMARK SMILES IDX 13 15 17 16 14 17 15 18 19 19 16 21
REMARK H PARENT 9 10 19 20 16 22
REMARK Flexibility Score: inf
ROOT
ATOM      1  C   UNL     1       6.104  29.377  51.745  1.00  0.00     0.012 C 
ATOM      2  C   UNL     1       5.472  30.270  52.521  1.00  0.00     0.053 C 
ENDROOT
BRANCH   1   3
ATOM      3  C   UNL     1       5.492  28.638  50.620  1.00  0.00    -0.025 A 
ATOM      4  C   UNL     1       4.967  27.357  50.845  1.00  0.00     0.012 A 
ATOM      5  C   UNL     1       4.421  26.621  49.788  1.00  0.00     0.047 A 
ATOM      6  C   UNL     1       4.415  27.151  48.491  1.00  0.00     0.115 A 
ATOM      7  C   UNL     1       5.509  29.152  49.310  1.00  0.00     0.012 A 
ATOM      8  C   UNL     1       4.962  28.415  48.256  1.00  0.00     0.047 A 
BRANCH   6   9
ATOM      9  O   UNL     1       3.872  26.428  47.431  1.00  0.00    -0.508 OA
ATOM     10  H   UNL     1       2.970  26.667  47.034  1.00  0.00     0.293 HD
ENDBRANCH   6   9
ENDBRANCH   1   3
BRANCH   2  11
ATOM     11  C   UNL     1       4.015  30.529  52.509  1.00  0.00     0.189 C 
ATOM     12  O   UNL     1       3.509  31.216  51.580  1.00  0.00    -0.289 OA
BRANCH  11  13
ATOM     13  C   UNL     1       3.120  29.906  53.515  1.00  0.00     0.064 A 
ATOM     14  C   UNL     1       1.880  30.486  53.871  1.00  0.00     0.130 A 
ATOM     15  C   UNL     1       3.502  28.693  54.116  1.00  0.00     0.020 A 
ATOM     16  C   UNL     1       1.072  29.868  54.838  1.00  0.00     0.093 A 
ATOM     17  C   UNL     1       2.686  28.084  55.072  1.00  0.00     0.047 A 
ATOM     18  C   UNL     1       1.471  28.671  55.438  1.00  0.00     0.119 A 
BRANCH  14  19
ATOM     19  O   UNL     1       1.440  31.657  53.254  1.00  0.00    -0.507 OA
ATOM     20  H   UNL     1       0.985  32.395  53.777  1.00  0.00     0.293 HD
ENDBRANCH  14  19
BRANCH  18  21
ATOM     21  O   UNL     1       0.651  28.074  56.393  1.00  0.00    -0.508 OA
ATOM     22  H   UNL     1      -0.153  27.517  56.127  1.00  0.00     0.293 HD
ENDBRANCH  18  21
ENDBRANCH  11  13
ENDBRANCH   2  11
TORSDOF 6
ENDMDL
MODEL 8
REMARK VINA RESULT:    -4.680     14.588     16.235
REMARK INTER + INTRA:          -6.953
REMARK INTER:                  -6.130
REMARK INTRA:                  -0.824
REMARK UNBOUND:                -1.042
REMARK SMILES O=C(C=Cc1ccc(O)cc1)c1ccc(O)cc1O
REMARK SMILES IDX 4 1 3 2 5 3 6 4 7 5 8 6 11 7 10 8 9 9 2 11 1 12 12 13 18 14
REMARK SMILES IDX 13 15 17 16 14 17 15 18 19 19 16 21
REMARK H PARENT 9 10 19 20 16 22
REMARK Flexibility Score: inf
ROOT
ATOM      1  C   UNL     1      -3.946  36.849  40.332  1.00  0.00     0.012 C 
ATOM      2  C   UNL     1      -4.372  37.879  41.079  1.00  0.00     0.053 C 
ENDROOT
BRANCH   1   3
ATOM      3  C   UNL     1      -3.484  35.546  40.857  1.00  0.00    -0.025 A 
ATOM      4  C   UNL     1      -2.135  35.189  40.714  1.00  0.00     0.012 A 
ATOM      5  C   UNL     1      -1.682  33.944  41.165  1.00  0.00     0.047 A 
ATOM      6  C   UNL     1      -2.580  33.036  41.742  1.00  0.00     0.115 A 
ATOM      7  C   UNL     1      -4.385  34.619  41.411  1.00  0.00     0.012 A 
ATOM      8  C   UNL     1      -3.930  33.376  41.861  1.00  0.00     0.047 A 
BRANCH   6   9
ATOM      9  O   UNL     1      -2.140  31.794  42.196  1.00  0.00    -0.508 OA
ATOM     10  H   UNL     1      -2.784  31.115  42.588  1.00  0.00     0.293 HD
ENDBRANCH   6   9
ENDBRANCH   1   3
BRANCH   2  11
ATOM     11  C   UNL     1      -4.275  37.958  42.554  1.00  0.00     0.189 C 
ATOM     12  O   UNL     1      -3.166  38.225  43.094  1.00  0.00    -0.289 OA
BRANCH  11  13
ATOM     13  C   UNL     1      -5.482  37.831  43.408  1.00  0.00     0.064 A 
ATOM     14  C   UNL     1      -6.392  38.900  43.576  1.00  0.00     0.130 A 
ATOM     15  C   UNL     1      -5.743  36.606  44.048  1.00  0.00     0.020 A 
ATOM     16  C   UNL     1      -7.514  38.737  44.403  1.00  0.00     0.093 A 
ATOM     17  C   UNL     1      -6.867  36.455  44.863  1.00  0.00     0.047 A 
ATOM     18  C   UNL     1      -7.754  37.521  45.046  1.00  0.00     0.119 A 
BRANCH  14  19
ATOM     19  O   UNL     1      -6.199  40.110  42.910  1.00  0.00    -0.507 OA
ATOM     20  H   UNL     1      -5.307  40.590  42.927  1.00  0.00     0.293 HD
ENDBRANCH  14  19
BRANCH  18  21
ATOM     21  O   UNL     1      -8.876  37.381  45.860  1.00  0.00    -0.508 OA
ATOM     22  H   UNL     1      -8.901  36.706  46.615  1.00  0.00     0.293 HD
ENDBRANCH  18  21
ENDBRANCH  11  13
ENDBRANCH   2  11
TORSDOF 6
ENDMDL
MODEL 9
REMARK VINA RESULT:    -4.677      9.657     11.336
REMARK INTER + INTRA:          -6.950
REMARK INTER:                  -5.821
REMARK INTRA:                  -1.129
REMARK UNBOUND:                -1.042
REMARK SMILES O=C(C=Cc1ccc(O)cc1)c1ccc(O)cc1O
REMARK SMILES IDX 4 1 3 2 5 3 6 4 7 5 8 6 11 7 10 8 9 9 2 11 1 12 12 13 18 14
REMARK SMILES IDX 13 15 17 16 14 17 15 18 19 19 16 21
REMARK H PARENT 9 10 19 20 16 22
REMARK Flexibility Score: inf
ROOT
ATOM      1  C   UNL     1      -8.967  27.265  55.312  1.00  0.00     0.012 C 
ATOM      2  C   UNL     1      -9.205  28.195  56.249  1.00  0.00     0.053 C 
ENDROOT
BRANCH   1   3
ATOM      3  C   UNL     1      -7.961  27.376  54.234  1.00  0.00    -0.025 A 
ATOM      4  C   UNL     1      -8.356  27.844  52.972  1.00  0.00     0.012 A 
ATOM      5  C   UNL     1      -7.433  27.918  51.924  1.00  0.00     0.047 A 
ATOM      6  C   UNL     1      -6.109  27.503  52.122  1.00  0.00     0.115 A 
ATOM      7  C   UNL     1      -6.638  26.934  54.418  1.00  0.00     0.012 A 
ATOM      8  C   UNL     1      -5.717  27.009  53.370  1.00  0.00     0.047 A 
BRANCH   6   9
ATOM      9  O   UNL     1      -5.180  27.573  51.087  1.00  0.00    -0.508 OA
ATOM     10  H   UNL     1      -5.263  28.261  50.346  1.00  0.00     0.293 HD
ENDBRANCH   6   9
ENDBRANCH   1   3
BRANCH   2  11
ATOM     11  C   UNL     1      -8.641  29.564  56.252  1.00  0.00     0.189 C 
ATOM     12  O   UNL     1      -9.129  30.444  55.491  1.00  0.00    -0.289 OA
BRANCH  11  13
ATOM     13  C   UNL     1      -7.575  29.949  57.211  1.00  0.00     0.064 A 
ATOM     14  C   UNL     1      -7.599  31.186  57.894  1.00  0.00     0.130 A 
ATOM     15  C   UNL     1      -6.525  29.049  57.467  1.00  0.00     0.020 A 
ATOM     16  C   UNL     1      -6.563  31.513  58.783  1.00  0.00     0.093 A 
ATOM     17  C   UNL     1      -5.503  29.382  58.359  1.00  0.00     0.047 A 
ATOM     18  C   UNL     1      -5.518  30.617  59.017  1.00  0.00     0.119 A 
BRANCH  14  19
ATOM     19  O   UNL     1      -8.655  32.080  57.711  1.00  0.00    -0.507 OA
ATOM     20  H   UNL     1      -9.567  31.769  57.400  1.00  0.00     0.293 HD
ENDBRANCH  14  19
BRANCH  18  21
ATOM     21  O   UNL     1      -4.501  30.961  59.905  1.00  0.00    -0.508 OA
ATOM     22  H   UNL     1      -3.637  30.433  59.951  1.00  0.00     0.293 HD
ENDBRANCH  18  21
ENDBRANCH  11  13
ENDBRANCH   2  11
TORSDOF 6
ENDMDL
