MODEL 1
REMARK VINA RESULT:    -4.716      0.000      0.000
REMARK INTER + INTRA:          -7.313
REMARK INTER:                  -7.197
REMARK INTRA:                  -0.117
REMARK UNBOUND:                -0.117
REMARK SMILES CC1=CCC[C@@H](C)C(=O)C[C@@H](C(C)C)C(=O)C1
REMARK SMILES IDX 8 1 9 2 6 3 7 4 5 5 4 6 3 7 2 8 1 9 10 11 11 12 15 13 16 14
REMARK SMILES IDX 17 15 12 17 13 18 14 19
REMARK H PARENT
REMARK Flexibility Score: 70.00
ROOT
ATOM      1  C   UNL     1     -12.251 -36.414  31.466  1.00  0.00     0.136 C 
ATOM      2  O   UNL     1     -11.095 -36.552  31.091  1.00  0.00    -0.299 OA
ENDROOT
BRANCH   1   3
ATOM      3  C   UNL     1     -13.239 -37.550  31.295  1.00  0.00     0.053 C 
ATOM      4  C   UNL     1     -12.761 -38.764  32.097  1.00  0.00     0.016 C 
BRANCH   3   5
ATOM      5  C   UNL     1     -13.439 -37.935  29.812  1.00  0.00     0.015 C 
BRANCH   5   6
ATOM      6  C   UNL     1     -13.966 -36.780  28.951  1.00  0.00     0.028 C 
BRANCH   6   7
ATOM      7  C   UNL     1     -12.883 -36.226  28.055  1.00  0.00    -0.028 C 
ATOM      8  C   UNL     1     -12.535 -34.924  27.934  1.00  0.00    -0.070 CG0
ATOM      9  C   UNL     1     -11.438 -34.579  26.957  1.00  0.00     0.039 C 
ATOM     10  G   UNL     1     -13.194 -33.793  28.704  1.00  0.00     0.000 G0
ENDBRANCH   6   7
ENDBRANCH   5   6
ENDBRANCH   3   5
ENDBRANCH   1   3
BRANCH   1  11
ATOM     11  C   UNL     1     -12.648 -35.157  32.199  1.00  0.00     0.087 C 
BRANCH  11  12
ATOM     12  C   UNL     1     -13.507 -34.180  31.357  1.00  0.00     0.066 C 
BRANCH  12  13
ATOM     13  C   UNL     1     -12.704 -33.711  30.143  1.00  0.00     0.140 C 
ATOM     14  O   UNL     1     -11.578 -33.279  30.344  1.00  0.00    -0.299 OA
BRANCH  13  15
ATOM     15  C   UNL     1     -13.188 -33.777  28.709  1.00  0.00     0.106 CG0
ATOM     16  G   UNL     1     -12.543 -34.927  27.955  1.00  0.00     0.000 G0
ENDBRANCH  13  15
ENDBRANCH  12  13
BRANCH  12  17
ATOM     17  C   UNL     1     -14.215 -33.053  32.182  1.00  0.00    -0.006 C 
ATOM     18  C   UNL     1     -15.253 -32.303  31.324  1.00  0.00     0.008 C 
ATOM     19  C   UNL     1     -14.942 -33.615  33.419  1.00  0.00     0.008 C 
ENDBRANCH  12  17
ENDBRANCH  11  12
ENDBRANCH   1  11
TORSDOF 1
ENDMDL
MODEL 2
REMARK VINA RESULT:    -4.416      1.893      4.627
REMARK INTER + INTRA:          -6.856
REMARK INTER:                  -7.014
REMARK INTRA:                   0.158
REMARK UNBOUND:                -0.117
REMARK SMILES CC1=CCC[C@@H](C)C(=O)C[C@@H](C(C)C)C(=O)C1
REMARK SMILES IDX 8 1 9 2 6 3 7 4 5 5 4 6 3 7 2 8 1 9 10 11 11 12 15 13 16 14
REMARK SMILES IDX 17 15 12 17 13 18 14 19
REMARK H PARENT
REMARK Flexibility Score: 70.00
ROOT
ATOM      1  C   UNL     1     -13.471 -33.549  30.632  1.00  0.00     0.136 C 
ATOM      2  O   UNL     1     -14.374 -32.740  30.474  1.00  0.00    -0.299 OA
ENDROOT
BRANCH   1   3
ATOM      3  C   UNL     1     -13.223 -34.144  32.003  1.00  0.00     0.053 C 
ATOM      4  C   UNL     1     -14.232 -33.564  32.998  1.00  0.00     0.016 C 
BRANCH   3   5
ATOM      5  C   UNL     1     -11.780 -33.895  32.498  1.00  0.00     0.015 C 
BRANCH   5   6
ATOM      6  C   UNL     1     -10.846 -35.090  32.270  1.00  0.00     0.028 C 
BRANCH   6   7
ATOM      7  C   UNL     1     -11.602 -36.396  32.333  1.00  0.00    -0.028 C 
ATOM      8  C   UNL     1     -11.988 -37.147  31.276  1.00  0.00    -0.070 CG0
ATOM      9  C   UNL     1     -12.762 -38.412  31.559  1.00  0.00     0.039 C 
ATOM     10  G   UNL     1     -11.708 -36.785  29.828  1.00  0.00     0.000 G0
ENDBRANCH   6   7
ENDBRANCH   5   6
ENDBRANCH   3   5
ENDBRANCH   1   3
BRANCH   1  11
ATOM     11  C   UNL     1     -12.688 -34.030  29.435  1.00  0.00     0.087 C 
BRANCH  11  12
ATOM     12  C   UNL     1     -13.419 -35.106  28.592  1.00  0.00     0.066 C 
BRANCH  12  13
ATOM     13  C   UNL     1     -12.969 -36.497  29.040  1.00  0.00     0.140 C 
ATOM     14  O   UNL     1     -13.669 -37.447  28.717  1.00  0.00    -0.299 OA
BRANCH  13  15
ATOM     15  C   UNL     1     -11.704 -36.787  29.822  1.00  0.00     0.106 CG0
ATOM     16  G   UNL     1     -12.012 -37.150  31.264  1.00  0.00     0.000 G0
ENDBRANCH  13  15
ENDBRANCH  12  13
BRANCH  12  17
ATOM     17  C   UNL     1     -13.406 -34.849  27.048  1.00  0.00    -0.006 C 
ATOM     18  C   UNL     1     -14.099 -33.517  26.699  1.00  0.00     0.008 C 
ATOM     19  C   UNL     1     -11.972 -34.797  26.484  1.00  0.00     0.008 C 
ENDBRANCH  12  17
ENDBRANCH  11  12
ENDBRANCH   1  11
TORSDOF 1
ENDMDL
MODEL 3
REMARK VINA RESULT:    -4.306      1.818      2.405
REMARK INTER + INTRA:          -6.688
REMARK INTER:                  -6.658
REMARK INTRA:                  -0.029
REMARK UNBOUND:                -0.117
REMARK SMILES CC1=CCC[C@@H](C)C(=O)C[C@@H](C(C)C)C(=O)C1
REMARK SMILES IDX 8 1 9 2 6 3 7 4 5 5 4 6 3 7 2 8 1 9 10 11 11 12 15 13 16 14
REMARK SMILES IDX 17 15 12 17 13 18 14 19
REMARK H PARENT
REMARK Flexibility Score: 70.00
ROOT
ATOM      1  C   UNL     1     -13.313 -37.095  30.993  1.00  0.00     0.136 C 
ATOM      2  O   UNL     1     -12.601 -38.064  31.215  1.00  0.00    -0.299 OA
ENDROOT
BRANCH   1   3
ATOM      3  C   UNL     1     -13.980 -36.945  29.640  1.00  0.00     0.053 C 
ATOM      4  C   UNL     1     -13.779 -38.229  28.830  1.00  0.00     0.016 C 
BRANCH   3   5
ATOM      5  C   UNL     1     -13.444 -35.728  28.853  1.00  0.00     0.015 C 
BRANCH   5   6
ATOM      6  C   UNL     1     -11.971 -35.868  28.448  1.00  0.00     0.028 C 
BRANCH   6   7
ATOM      7  C   UNL     1     -11.227 -34.566  28.626  1.00  0.00    -0.028 C 
ATOM      8  C   UNL     1     -10.653 -34.124  29.769  1.00  0.00    -0.070 CG0
ATOM      9  C   UNL     1      -9.978 -32.774  29.738  1.00  0.00     0.039 C 
ATOM     10  G   UNL     1     -10.665 -34.893  31.078  1.00  0.00     0.000 G0
ENDBRANCH   6   7
ENDBRANCH   5   6
ENDBRANCH   3   5
ENDBRANCH   1   3
BRANCH   1  11
ATOM     11  C   UNL     1     -13.611 -36.121  32.105  1.00  0.00     0.087 C 
BRANCH  11  12
ATOM     12  C   UNL     1     -13.245 -34.652  31.774  1.00  0.00     0.066 C 
BRANCH  12  13
ATOM     13  C   UNL     1     -11.753 -34.429  32.022  1.00  0.00     0.140 C 
ATOM     14  O   UNL     1     -11.432 -33.864  33.059  1.00  0.00    -0.299 OA
BRANCH  13  15
ATOM     15  C   UNL     1     -10.644 -34.887  31.097  1.00  0.00     0.106 CG0
ATOM     16  G   UNL     1     -10.660 -34.121  29.786  1.00  0.00     0.000 G0
ENDBRANCH  13  15
ENDBRANCH  12  13
BRANCH  12  17
ATOM     17  C   UNL     1     -14.207 -33.582  32.393  1.00  0.00    -0.006 C 
ATOM     18  C   UNL     1     -14.770 -32.645  31.307  1.00  0.00     0.008 C 
ATOM     19  C   UNL     1     -15.400 -34.232  33.121  1.00  0.00     0.008 C 
ENDBRANCH  12  17
ENDBRANCH  11  12
ENDBRANCH   1  11
TORSDOF 1
ENDMDL
MODEL 4
REMARK VINA RESULT:    -3.936      2.332      4.197
REMARK INTER + INTRA:          -6.124
REMARK INTER:                  -6.423
REMARK INTRA:                   0.299
REMARK UNBOUND:                -0.117
REMARK SMILES CC1=CCC[C@@H](C)C(=O)C[C@@H](C(C)C)C(=O)C1
REMARK SMILES IDX 8 1 9 2 6 3 7 4 5 5 4 6 3 7 2 8 1 9 10 11 11 12 15 13 16 14
REMARK SMILES IDX 17 15 12 17 13 18 14 19
REMARK H PARENT
REMARK Flexibility Score: 70.00
ROOT
ATOM      1  C   UNL     1     -12.588 -35.353  28.897  1.00  0.00     0.136 C 
ATOM      2  O   UNL     1     -12.192 -36.496  28.719  1.00  0.00    -0.299 OA
ENDROOT
BRANCH   1   3
ATOM      3  C   UNL     1     -12.123 -34.243  27.976  1.00  0.00     0.053 C 
ATOM      4  C   UNL     1     -11.346 -34.848  26.803  1.00  0.00     0.016 C 
BRANCH   3   5
ATOM      5  C   UNL     1     -11.254 -33.197  28.710  1.00  0.00     0.015 C 
BRANCH   5   6
ATOM      6  C   UNL     1     -10.050 -33.810  29.435  1.00  0.00     0.028 C 
BRANCH   6   7
ATOM      7  C   UNL     1      -9.926 -33.272  30.842  1.00  0.00    -0.028 C 
ATOM      8  C   UNL     1     -10.166 -33.958  31.983  1.00  0.00    -0.070 CG0
ATOM      9  C   UNL     1     -10.007 -33.221  33.291  1.00  0.00     0.039 C 
ATOM     10  G   UNL     1     -10.601 -35.412  32.025  1.00  0.00     0.000 G0
ENDBRANCH   6   7
ENDBRANCH   5   6
ENDBRANCH   3   5
ENDBRANCH   1   3
BRANCH   1  11
ATOM     11  C   UNL     1     -13.622 -35.083  29.961  1.00  0.00     0.087 C 
BRANCH  11  12
ATOM     12  C   UNL     1     -13.040 -34.511  31.279  1.00  0.00     0.066 C 
BRANCH  12  13
ATOM     13  C   UNL     1     -12.119 -35.548  31.921  1.00  0.00     0.140 C 
ATOM     14  O   UNL     1     -12.632 -36.577  32.339  1.00  0.00    -0.299 OA
BRANCH  13  15
ATOM     15  C   UNL     1     -10.615 -35.411  32.046  1.00  0.00     0.106 CG0
ATOM     16  G   UNL     1     -10.179 -33.959  31.966  1.00  0.00     0.000 G0
ENDBRANCH  13  15
ENDBRANCH  12  13
BRANCH  12  17
ATOM     17  C   UNL     1     -14.096 -33.854  32.231  1.00  0.00    -0.006 C 
ATOM     18  C   UNL     1     -13.421 -33.251  33.478  1.00  0.00     0.008 C 
ATOM     19  C   UNL     1     -14.883 -32.730  31.530  1.00  0.00     0.008 C 
ENDBRANCH  12  17
ENDBRANCH  11  12
ENDBRANCH   1  11
TORSDOF 1
ENDMDL
MODEL 5
REMARK VINA RESULT:    -3.729      1.445      2.098
REMARK INTER + INTRA:          -5.808
REMARK INTER:                  -6.944
REMARK INTRA:                   1.136
REMARK UNBOUND:                -0.117
REMARK SMILES CC1=CCC[C@@H](C)C(=O)C[C@@H](C(C)C)C(=O)C1
REMARK SMILES IDX 8 1 9 2 6 3 7 4 5 5 4 6 3 7 2 8 1 9 10 11 11 12 15 13 16 14
REMARK SMILES IDX 17 15 12 17 13 18 14 19
REMARK H PARENT
REMARK Flexibility Score: 70.00
ROOT
ATOM      1  C   UNL     1     -12.478 -36.347  31.729  1.00  0.00     0.136 C 
ATOM      2  O   UNL     1     -11.270 -36.531  31.761  1.00  0.00    -0.299 OA
ENDROOT
BRANCH   1   3
ATOM      3  C   UNL     1     -13.414 -37.524  31.543  1.00  0.00     0.053 C 
ATOM      4  C   UNL     1     -12.702 -38.812  31.968  1.00  0.00     0.016 C 
BRANCH   3   5
ATOM      5  C   UNL     1     -13.918 -37.648  30.087  1.00  0.00     0.015 C 
BRANCH   5   6
ATOM      6  C   UNL     1     -12.852 -37.291  29.044  1.00  0.00     0.028 C 
BRANCH   6   7
ATOM      7  C   UNL     1     -13.392 -36.321  28.019  1.00  0.00    -0.028 C 
ATOM      8  C   UNL     1     -13.016 -35.031  27.865  1.00  0.00    -0.070 CG0
ATOM      9  C   UNL     1     -13.704 -34.224  26.791  1.00  0.00     0.039 C 
ATOM     10  G   UNL     1     -11.964 -34.345  28.718  1.00  0.00     0.000 G0
ENDBRANCH   6   7
ENDBRANCH   5   6
ENDBRANCH   3   5
ENDBRANCH   1   3
BRANCH   1  11
ATOM     11  C   UNL     1     -13.026 -34.967  31.991  1.00  0.00     0.087 C 
BRANCH  11  12
ATOM     12  C   UNL     1     -12.187 -33.824  31.366  1.00  0.00     0.066 C 
BRANCH  12  13
ATOM     13  C   UNL     1     -12.599 -33.628  29.907  1.00  0.00     0.140 C 
ATOM     14  O   UNL     1     -13.485 -32.816  29.676  1.00  0.00    -0.299 OA
BRANCH  13  15
ATOM     15  C   UNL     1     -11.969 -34.337  28.726  1.00  0.00     0.106 CG0
ATOM     16  G   UNL     1     -13.012 -35.041  27.877  1.00  0.00     0.000 G0
ENDBRANCH  13  15
ENDBRANCH  12  13
BRANCH  12  17
ATOM     17  C   UNL     1     -10.647 -33.922  31.632  1.00  0.00    -0.006 C 
ATOM     18  C   UNL     1      -9.875 -32.853  30.833  1.00  0.00     0.008 C 
ATOM     19  C   UNL     1     -10.307 -33.734  33.123  1.00  0.00     0.008 C 
ENDBRANCH  12  17
ENDBRANCH  11  12
ENDBRANCH   1  11
TORSDOF 1
ENDMDL
MODEL 6
REMARK VINA RESULT:    -3.726      1.734      3.707
REMARK INTER + INTRA:          -5.803
REMARK INTER:                  -6.644
REMARK INTRA:                   0.841
REMARK UNBOUND:                -0.117
REMARK SMILES CC1=CCC[C@@H](C)C(=O)C[C@@H](C(C)C)C(=O)C1
REMARK SMILES IDX 8 1 9 2 6 3 7 4 5 5 4 6 3 7 2 8 1 9 10 11 11 12 15 13 16 14
REMARK SMILES IDX 17 15 12 17 13 18 14 19
REMARK H PARENT
REMARK Flexibility Score: 70.00
ROOT
ATOM      1  C   UNL     1     -11.971 -34.242  28.964  1.00  0.00     0.136 C 
ATOM      2  O   UNL     1     -11.016 -33.495  28.804  1.00  0.00    -0.299 OA
ENDROOT
BRANCH   1   3
ATOM      3  C   UNL     1     -12.321 -35.257  27.895  1.00  0.00     0.053 C 
ATOM      4  C   UNL     1     -12.473 -34.544  26.548  1.00  0.00     0.016 C 
BRANCH   3   5
ATOM      5  C   UNL     1     -13.609 -36.043  28.231  1.00  0.00     0.015 C 
BRANCH   5   6
ATOM      6  C   UNL     1     -13.351 -37.521  28.548  1.00  0.00     0.028 C 
BRANCH   6   7
ATOM      7  C   UNL     1     -13.400 -37.779  30.036  1.00  0.00    -0.028 C 
ATOM      8  C   UNL     1     -12.455 -37.429  30.939  1.00  0.00    -0.070 CG0
ATOM      9  C   UNL     1     -12.689 -37.807  32.381  1.00  0.00     0.039 C 
ATOM     10  G   UNL     1     -11.170 -36.701  30.585  1.00  0.00     0.000 G0
ENDBRANCH   6   7
ENDBRANCH   5   6
ENDBRANCH   3   5
ENDBRANCH   1   3
BRANCH   1  11
ATOM     11  C   UNL     1     -12.719 -34.221  30.275  1.00  0.00     0.087 C 
BRANCH  11  12
ATOM     12  C   UNL     1     -11.804 -34.264  31.525  1.00  0.00     0.066 C 
BRANCH  12  13
ATOM     13  C   UNL     1     -10.901 -35.495  31.454  1.00  0.00     0.140 C 
ATOM     14  O   UNL     1      -9.919 -35.517  32.183  1.00  0.00    -0.299 OA
BRANCH  13  15
ATOM     15  C   UNL     1     -11.151 -36.703  30.574  1.00  0.00     0.106 CG0
ATOM     16  G   UNL     1     -12.441 -37.409  30.951  1.00  0.00     0.000 G0
ENDBRANCH  13  15
ENDBRANCH  12  13
BRANCH  12  17
ATOM     17  C   UNL     1     -12.545 -34.039  32.886  1.00  0.00    -0.006 C 
ATOM     18  C   UNL     1     -11.784 -33.035  33.775  1.00  0.00     0.008 C 
ATOM     19  C   UNL     1     -13.974 -33.501  32.683  1.00  0.00     0.008 C 
ENDBRANCH  12  17
ENDBRANCH  11  12
ENDBRANCH   1  11
TORSDOF 1
ENDMDL
MODEL 7
REMARK VINA RESULT:    -3.687      2.455      4.902
REMARK INTER + INTRA:          -5.743
REMARK INTER:                  -6.301
REMARK INTRA:                   0.558
REMARK UNBOUND:                -0.117
REMARK SMILES CC1=CCC[C@@H](C)C(=O)C[C@@H](C(C)C)C(=O)C1
REMARK SMILES IDX 8 1 9 2 6 3 7 4 5 5 4 6 3 7 2 8 1 9 10 11 11 12 15 13 16 14
REMARK SMILES IDX 17 15 12 17 13 18 14 19
REMARK H PARENT
REMARK Flexibility Score: 70.00
ROOT
ATOM      1  C   UNL     1     -12.628 -35.016  29.088  1.00  0.00     0.136 C 
ATOM      2  O   UNL     1     -11.975 -35.630  28.256  1.00  0.00    -0.299 OA
ENDROOT
BRANCH   1   3
ATOM      3  C   UNL     1     -12.425 -33.524  29.253  1.00  0.00     0.053 C 
ATOM      4  C   UNL     1     -13.372 -32.774  28.312  1.00  0.00     0.016 C 
BRANCH   3   5
ATOM      5  C   UNL     1     -10.962 -33.098  28.989  1.00  0.00     0.015 C 
BRANCH   5   6
ATOM      6  C   UNL     1      -9.940 -33.905  29.799  1.00  0.00     0.028 C 
BRANCH   6   7
ATOM      7  C   UNL     1      -9.899 -33.447  31.238  1.00  0.00    -0.028 C 
ATOM      8  C   UNL     1     -10.324 -34.151  32.313  1.00  0.00    -0.070 CG0
ATOM      9  C   UNL     1     -10.217 -33.495  33.668  1.00  0.00     0.039 C 
ATOM     10  G   UNL     1     -10.918 -35.546  32.234  1.00  0.00     0.000 G0
ENDBRANCH   6   7
ENDBRANCH   5   6
ENDBRANCH   3   5
ENDBRANCH   1   3
BRANCH   1  11
ATOM     11  C   UNL     1     -13.709 -35.732  29.859  1.00  0.00     0.087 C 
BRANCH  11  12
ATOM     12  C   UNL     1     -13.201 -36.467  31.125  1.00  0.00     0.066 C 
BRANCH  12  13
ATOM     13  C   UNL     1     -12.419 -35.491  32.003  1.00  0.00     0.140 C 
ATOM     14  O   UNL     1     -13.055 -34.625  32.589  1.00  0.00    -0.299 OA
BRANCH  13  15
ATOM     15  C   UNL     1     -10.922 -35.538  32.229  1.00  0.00     0.106 CG0
ATOM     16  G   UNL     1     -10.326 -34.144  32.311  1.00  0.00     0.000 G0
ENDBRANCH  13  15
ENDBRANCH  12  13
BRANCH  12  17
ATOM     17  C   UNL     1     -12.506 -37.843  30.849  1.00  0.00    -0.006 C 
ATOM     18  C   UNL     1     -12.589 -38.766  32.080  1.00  0.00     0.008 C 
ATOM     19  C   UNL     1     -13.147 -38.584  29.659  1.00  0.00     0.008 C 
ENDBRANCH  12  17
ENDBRANCH  11  12
ENDBRANCH   1  11
TORSDOF 1
ENDMDL
MODEL 8
REMARK VINA RESULT:    -3.617      1.800      3.922
REMARK INTER + INTRA:          -5.637
REMARK INTER:                  -5.741
REMARK INTRA:                   0.104
REMARK UNBOUND:                -0.117
REMARK SMILES CC1=CCC[C@@H](C)C(=O)C[C@@H](C(C)C)C(=O)C1
REMARK SMILES IDX 8 1 9 2 6 3 7 4 5 5 4 6 3 7 2 8 1 9 10 11 11 12 15 13 16 14
REMARK SMILES IDX 17 15 12 17 13 18 14 19
REMARK H PARENT
REMARK Flexibility Score: 70.00
ROOT
ATOM      1  C   UNL     1     -12.066 -33.216  29.370  1.00  0.00     0.136 C 
ATOM      2  O   UNL     1     -10.853 -33.114  29.255  1.00  0.00    -0.299 OA
ENDROOT
BRANCH   1   3
ATOM      3  C   UNL     1     -12.964 -32.892  28.194  1.00  0.00     0.053 C 
ATOM      4  C   UNL     1     -14.190 -32.118  28.689  1.00  0.00     0.016 C 
BRANCH   3   5
ATOM      5  C   UNL     1     -13.406 -34.158  27.426  1.00  0.00     0.015 C 
BRANCH   5   6
ATOM      6  C   UNL     1     -12.472 -35.355  27.643  1.00  0.00     0.028 C 
BRANCH   6   7
ATOM      7  C   UNL     1     -13.215 -36.530  28.235  1.00  0.00    -0.028 C 
ATOM      8  C   UNL     1     -12.856 -37.229  29.337  1.00  0.00    -0.070 CG0
ATOM      9  C   UNL     1     -13.730 -38.390  29.745  1.00  0.00     0.039 C 
ATOM     10  G   UNL     1     -11.623 -36.928  30.169  1.00  0.00     0.000 G0
ENDBRANCH   6   7
ENDBRANCH   5   6
ENDBRANCH   3   5
ENDBRANCH   1   3
BRANCH   1  11
ATOM     11  C   UNL     1     -12.646 -33.774  30.646  1.00  0.00     0.087 C 
BRANCH  11  12
ATOM     12  C   UNL     1     -11.635 -34.579  31.501  1.00  0.00     0.066 C 
BRANCH  12  13
ATOM     13  C   UNL     1     -11.938 -36.073  31.377  1.00  0.00     0.140 C 
ATOM     14  O   UNL     1     -12.511 -36.611  32.314  1.00  0.00    -0.299 OA
BRANCH  13  15
ATOM     15  C   UNL     1     -11.614 -36.925  30.167  1.00  0.00     0.106 CG0
ATOM     16  G   UNL     1     -12.859 -37.237  29.356  1.00  0.00     0.000 G0
ENDBRANCH  13  15
ENDBRANCH  12  13
BRANCH  12  17
ATOM     17  C   UNL     1     -11.435 -34.042  32.958  1.00  0.00    -0.006 C 
ATOM     18  C   UNL     1     -10.186 -33.144  33.054  1.00  0.00     0.008 C 
ATOM     19  C   UNL     1     -12.646 -33.221  33.441  1.00  0.00     0.008 C 
ENDBRANCH  12  17
ENDBRANCH  11  12
ENDBRANCH   1  11
TORSDOF 1
ENDMDL
MODEL 9
REMARK VINA RESULT:    -3.539      1.597      3.702
REMARK INTER + INTRA:          -5.517
REMARK INTER:                  -5.993
REMARK INTRA:                   0.476
REMARK UNBOUND:                -0.117
REMARK SMILES CC1=CCC[C@@H](C)C(=O)C[C@@H](C(C)C)C(=O)C1
REMARK SMILES IDX 8 1 9 2 6 3 7 4 5 5 4 6 3 7 2 8 1 9 10 11 11 12 15 13 16 14
REMARK SMILES IDX 17 15 12 17 13 18 14 19
REMARK H PARENT
REMARK Flexibility Score: 70.00
ROOT
ATOM      1  C   UNL     1     -13.701 -34.176  32.192  1.00  0.00     0.136 C 
ATOM      2  O   UNL     1     -14.534 -34.909  32.706  1.00  0.00    -0.299 OA
ENDROOT
BRANCH   1   3
ATOM      3  C   UNL     1     -14.145 -32.919  31.472  1.00  0.00     0.053 C 
ATOM      4  C   UNL     1     -15.417 -32.378  32.133  1.00  0.00     0.016 C 
BRANCH   3   5
ATOM      5  C   UNL     1     -14.388 -33.160  29.965  1.00  0.00     0.015 C 
BRANCH   5   6
ATOM      6  C   UNL     1     -13.300 -32.554  29.071  1.00  0.00     0.028 C 
BRANCH   6   7
ATOM      7  C   UNL     1     -12.667 -33.606  28.190  1.00  0.00    -0.028 C 
ATOM      8  C   UNL     1     -11.573 -34.345  28.488  1.00  0.00    -0.070 CG0
ATOM      9  C   UNL     1     -11.087 -35.327  27.450  1.00  0.00     0.039 C 
ATOM     10  G   UNL     1     -10.799 -34.230  29.789  1.00  0.00     0.000 G0
ENDBRANCH   6   7
ENDBRANCH   5   6
ENDBRANCH   3   5
ENDBRANCH   1   3
BRANCH   1  11
ATOM     11  C   UNL     1     -12.234 -34.473  32.380  1.00  0.00     0.087 C 
BRANCH  11  12
ATOM     12  C   UNL     1     -11.770 -35.803  31.733  1.00  0.00     0.066 C 
BRANCH  12  13
ATOM     13  C   UNL     1     -10.803 -35.503  30.587  1.00  0.00     0.140 C 
ATOM     14  O   UNL     1     -10.007 -36.379  30.278  1.00  0.00    -0.299 OA
BRANCH  13  15
ATOM     15  C   UNL     1     -10.783 -34.218  29.785  1.00  0.00     0.106 CG0
ATOM     16  G   UNL     1     -11.564 -34.357  28.491  1.00  0.00     0.000 G0
ENDBRANCH  13  15
ENDBRANCH  12  13
BRANCH  12  17
ATOM     17  C   UNL     1     -12.925 -36.809  31.406  1.00  0.00    -0.006 C 
ATOM     18  C   UNL     1     -13.220 -36.845  29.893  1.00  0.00     0.008 C 
ATOM     19  C   UNL     1     -12.583 -38.243  31.855  1.00  0.00     0.008 C 
ENDBRANCH  12  17
ENDBRANCH  11  12
ENDBRANCH   1  11
TORSDOF 1
ENDMDL
