MODEL 1
REMARK VINA RESULT:    -5.832      0.000      0.000
REMARK INTER + INTRA:          -7.600
REMARK INTER:                  -7.195
REMARK INTRA:                  -0.404
REMARK UNBOUND:                -0.404
REMARK SMILES COc1cc(-c2oc3cc(O)cc(O)c3c(=O)c2O)ccc1O
REMARK SMILES IDX 6 1 18 2 16 3 17 4 15 5 13 6 12 7 10 8 9 9 8 10 7 11 5 12
REMARK SMILES IDX 3 13 22 14 4 15 21 16 20 17 2 18 1 19 23 20 19 22 14 24
REMARK SMILES IDX 11 26
REMARK H PARENT 23 21 19 23 14 25 11 27
REMARK Flexibility Score: inf
ROOT
ATOM      1  C   UNL     1      -3.559  47.912  25.874  1.00  0.00     0.180 A 
ATOM      2  C   UNL     1      -2.211  48.089  25.517  1.00  0.00     0.208 A 
ATOM      3  C   UNL     1      -1.660  49.380  25.561  1.00  0.00     0.238 A 
ATOM      4  O   UNL     1      -0.438  49.523  25.294  1.00  0.00    -0.285 OA
ATOM      5  C   UNL     1      -2.466  50.479  25.943  1.00  0.00     0.111 A 
ATOM      6  C   UNL     1      -2.024  51.835  25.980  1.00  0.00     0.134 A 
ATOM      7  C   UNL     1      -2.871  52.824  26.496  1.00  0.00     0.093 A 
ATOM      8  C   UNL     1      -4.167  52.514  26.914  1.00  0.00     0.123 A 
ATOM      9  C   UNL     1      -4.629  51.204  26.827  1.00  0.00     0.094 A 
ATOM     10  C   UNL     1      -3.795  50.189  26.350  1.00  0.00     0.146 A 
ATOM     11  O   UNL     1      -4.272  48.952  26.291  1.00  0.00    -0.452 OA
ENDROOT
BRANCH   1  12
ATOM     12  C   UNL     1      -4.217  46.586  25.829  1.00  0.00     0.025 A 
ATOM     13  C   UNL     1      -5.457  44.853  24.625  1.00  0.00     0.161 A 
ATOM     14  C   UNL     1      -5.504  44.085  25.802  1.00  0.00     0.157 A 
ATOM     15  C   UNL     1      -4.815  46.108  24.648  1.00  0.00     0.062 A 
ATOM     16  C   UNL     1      -4.927  44.570  26.979  1.00  0.00     0.051 A 
ATOM     17  C   UNL     1      -4.296  45.815  26.996  1.00  0.00     0.016 A 
BRANCH  13  18
ATOM     18  O   UNL     1      -6.057  44.348  23.461  1.00  0.00    -0.493 OA
ATOM     19  C   UNL     1      -5.365  43.643  22.435  1.00  0.00     0.278 C 
ENDBRANCH  13  18
BRANCH  14  20
ATOM     20  O   UNL     1      -6.125  42.836  25.823  1.00  0.00    -0.504 OA
ATOM     21  H   UNL     1      -6.052  42.210  26.617  1.00  0.00     0.293 HD
ENDBRANCH  14  20
ENDBRANCH   1  12
BRANCH   2  22
ATOM     22  O   UNL     1      -1.429  46.987  25.161  1.00  0.00    -0.502 OA
ATOM     23  H   UNL     1      -1.797  46.209  24.627  1.00  0.00     0.293 HD
ENDBRANCH   2  22
BRANCH   6  24
ATOM     24  O   UNL     1      -0.782  52.265  25.504  1.00  0.00    -0.507 OA
ATOM     25  H   UNL     1       0.093  51.788  25.661  1.00  0.00     0.293 HD
ENDBRANCH   6  24
BRANCH   8  26
ATOM     26  O   UNL     1      -5.010  53.507  27.410  1.00  0.00    -0.508 OA
ATOM     27  H   UNL     1      -5.451  53.423  28.319  1.00  0.00     0.293 HD
ENDBRANCH   8  26
TORSDOF 6
ENDMDL
MODEL 2
REMARK VINA RESULT:    -5.659      0.827      1.791
REMARK INTER + INTRA:          -7.387
REMARK INTER:                  -7.128
REMARK INTRA:                  -0.259
REMARK UNBOUND:                -0.404
REMARK SMILES COc1cc(-c2oc3cc(O)cc(O)c3c(=O)c2O)ccc1O
REMARK SMILES IDX 6 1 18 2 16 3 17 4 15 5 13 6 12 7 10 8 9 9 8 10 7 11 5 12
REMARK SMILES IDX 3 13 22 14 4 15 21 16 20 17 2 18 1 19 23 20 19 22 14 24
REMARK SMILES IDX 11 26
REMARK H PARENT 23 21 19 23 14 25 11 27
REMARK Flexibility Score: inf
ROOT
ATOM      1  C   UNL     1      -3.696  47.956  25.162  1.00  0.00     0.180 A 
ATOM      2  C   UNL     1      -2.308  48.145  25.043  1.00  0.00     0.208 A 
ATOM      3  C   UNL     1      -1.758  49.387  25.396  1.00  0.00     0.238 A 
ATOM      4  O   UNL     1      -0.509  49.532  25.341  1.00  0.00    -0.285 OA
ATOM      5  C   UNL     1      -2.603  50.430  25.847  1.00  0.00     0.111 A 
ATOM      6  C   UNL     1      -2.158  51.743  26.190  1.00  0.00     0.134 A 
ATOM      7  C   UNL     1      -3.065  52.655  26.745  1.00  0.00     0.093 A 
ATOM      8  C   UNL     1      -4.411  52.323  26.908  1.00  0.00     0.123 A 
ATOM      9  C   UNL     1      -4.866  51.066  26.521  1.00  0.00     0.094 A 
ATOM     10  C   UNL     1      -3.980  50.121  25.997  1.00  0.00     0.146 A 
ATOM     11  O   UNL     1      -4.454  48.931  25.649  1.00  0.00    -0.452 OA
ENDROOT
BRANCH   1  12
ATOM     12  C   UNL     1      -4.351  46.683  24.784  1.00  0.00     0.025 A 
ATOM     13  C   UNL     1      -5.519  44.618  25.384  1.00  0.00     0.161 A 
ATOM     14  C   UNL     1      -5.537  44.246  24.028  1.00  0.00     0.157 A 
ATOM     15  C   UNL     1      -4.918  45.838  25.756  1.00  0.00     0.062 A 
ATOM     16  C   UNL     1      -4.956  45.078  23.066  1.00  0.00     0.051 A 
ATOM     17  C   UNL     1      -4.360  46.283  23.441  1.00  0.00     0.016 A 
BRANCH  13  18
ATOM     18  O   UNL     1      -6.097  43.757  26.331  1.00  0.00    -0.493 OA
ATOM     19  C   UNL     1      -5.366  42.862  27.163  1.00  0.00     0.278 C 
ENDBRANCH  13  18
BRANCH  14  20
ATOM     20  O   UNL     1      -6.125  43.051  23.616  1.00  0.00    -0.504 OA
ATOM     21  H   UNL     1      -6.823  43.017  22.883  1.00  0.00     0.293 HD
ENDBRANCH  14  20
ENDBRANCH   1  12
BRANCH   2  22
ATOM     22  O   UNL     1      -1.491  47.095  24.612  1.00  0.00    -0.502 OA
ATOM     23  H   UNL     1      -1.514  46.178  25.041  1.00  0.00     0.293 HD
ENDBRANCH   2  22
BRANCH   6  24
ATOM     24  O   UNL     1      -0.855  52.205  25.985  1.00  0.00    -0.507 OA
ATOM     25  H   UNL     1      -0.571  53.172  26.042  1.00  0.00     0.293 HD
ENDBRANCH   6  24
BRANCH   8  26
ATOM     26  O   UNL     1      -5.310  53.243  27.445  1.00  0.00    -0.508 OA
ATOM     27  H   UNL     1      -4.994  54.035  27.993  1.00  0.00     0.293 HD
ENDBRANCH   8  26
TORSDOF 6
ENDMDL
MODEL 3
REMARK VINA RESULT:    -5.432      1.827      7.292
REMARK INTER + INTRA:          -7.107
REMARK INTER:                  -6.708
REMARK INTRA:                  -0.399
REMARK UNBOUND:                -0.404
REMARK SMILES COc1cc(-c2oc3cc(O)cc(O)c3c(=O)c2O)ccc1O
REMARK SMILES IDX 6 1 18 2 16 3 17 4 15 5 13 6 12 7 10 8 9 9 8 10 7 11 5 12
REMARK SMILES IDX 3 13 22 14 4 15 21 16 20 17 2 18 1 19 23 20 19 22 14 24
REMARK SMILES IDX 11 26
REMARK H PARENT 23 21 19 23 14 25 11 27
REMARK Flexibility Score: inf
ROOT
ATOM      1  C   UNL     1      -5.276  47.789  25.592  1.00  0.00     0.180 A 
ATOM      2  C   UNL     1      -5.612  47.381  24.290  1.00  0.00     0.208 A 
ATOM      3  C   UNL     1      -5.761  46.010  24.023  1.00  0.00     0.238 A 
ATOM      4  O   UNL     1      -6.116  45.655  22.869  1.00  0.00    -0.285 OA
ATOM      5  C   UNL     1      -5.556  45.065  25.056  1.00  0.00     0.111 A 
ATOM      6  C   UNL     1      -5.639  43.649  24.888  1.00  0.00     0.134 A 
ATOM      7  C   UNL     1      -5.543  42.815  26.009  1.00  0.00     0.093 A 
ATOM      8  C   UNL     1      -5.302  43.341  27.280  1.00  0.00     0.123 A 
ATOM      9  C   UNL     1      -5.162  44.716  27.445  1.00  0.00     0.094 A 
ATOM     10  C   UNL     1      -5.288  45.578  26.353  1.00  0.00     0.146 A 
ATOM     11  O   UNL     1      -5.155  46.883  26.555  1.00  0.00    -0.452 OA
ENDROOT
BRANCH   1  12
ATOM     12  C   UNL     1      -5.077  49.213  25.943  1.00  0.00     0.025 A 
ATOM     13  C   UNL     1      -3.656  51.199  26.101  1.00  0.00     0.161 A 
ATOM     14  C   UNL     1      -4.727  51.907  26.676  1.00  0.00     0.157 A 
ATOM     15  C   UNL     1      -3.838  49.848  25.742  1.00  0.00     0.062 A 
ATOM     16  C   UNL     1      -5.952  51.269  26.894  1.00  0.00     0.051 A 
ATOM     17  C   UNL     1      -6.124  49.930  26.539  1.00  0.00     0.016 A 
BRANCH  13  18
ATOM     18  O   UNL     1      -2.433  51.861  25.907  1.00  0.00    -0.493 OA
ATOM     19  C   UNL     1      -1.901  52.220  24.636  1.00  0.00     0.278 C 
ENDBRANCH  13  18
BRANCH  14  20
ATOM     20  O   UNL     1      -4.593  53.246  27.042  1.00  0.00    -0.504 OA
ATOM     21  H   UNL     1      -3.998  53.539  27.808  1.00  0.00     0.293 HD
ENDBRANCH  14  20
ENDBRANCH   1  12
BRANCH   2  22
ATOM     22  O   UNL     1      -5.827  48.333  23.289  1.00  0.00    -0.502 OA
ATOM     23  H   UNL     1      -5.328  48.318  22.408  1.00  0.00     0.293 HD
ENDBRANCH   2  22
BRANCH   6  24
ATOM     24  O   UNL     1      -5.787  43.017  23.651  1.00  0.00    -0.507 OA
ATOM     25  H   UNL     1      -5.614  43.451  22.757  1.00  0.00     0.293 HD
ENDBRANCH   6  24
BRANCH   8  26
ATOM     26  O   UNL     1      -5.191  42.502  28.388  1.00  0.00    -0.508 OA
ATOM     27  H   UNL     1      -4.356  41.951  28.553  1.00  0.00     0.293 HD
ENDBRANCH   8  26
TORSDOF 6
ENDMDL
MODEL 4
REMARK VINA RESULT:    -5.348      2.657      4.365
REMARK INTER + INTRA:          -7.003
REMARK INTER:                  -6.622
REMARK INTRA:                  -0.380
REMARK UNBOUND:                -0.404
REMARK SMILES COc1cc(-c2oc3cc(O)cc(O)c3c(=O)c2O)ccc1O
REMARK SMILES IDX 6 1 18 2 16 3 17 4 15 5 13 6 12 7 10 8 9 9 8 10 7 11 5 12
REMARK SMILES IDX 3 13 22 14 4 15 21 16 20 17 2 18 1 19 23 20 19 22 14 24
REMARK SMILES IDX 11 26
REMARK H PARENT 23 21 19 23 14 25 11 27
REMARK Flexibility Score: inf
ROOT
ATOM      1  C   UNL     1      -3.958  48.989  26.247  1.00  0.00     0.180 A 
ATOM      2  C   UNL     1      -4.159  50.377  26.153  1.00  0.00     0.208 A 
ATOM      3  C   UNL     1      -4.710  51.060  27.248  1.00  0.00     0.238 A 
ATOM      4  O   UNL     1      -4.836  52.311  27.178  1.00  0.00    -0.285 OA
ATOM      5  C   UNL     1      -5.071  50.346  28.416  1.00  0.00     0.111 A 
ATOM      6  C   UNL     1      -5.677  50.930  29.569  1.00  0.00     0.134 A 
ATOM      7  C   UNL     1      -5.873  50.150  30.716  1.00  0.00     0.093 A 
ATOM      8  C   UNL     1      -5.544  48.793  30.728  1.00  0.00     0.123 A 
ATOM      9  C   UNL     1      -5.006  48.200  29.589  1.00  0.00     0.094 A 
ATOM     10  C   UNL     1      -4.766  48.960  28.441  1.00  0.00     0.146 A 
ATOM     11  O   UNL     1      -4.244  48.357  27.379  1.00  0.00    -0.452 OA
ENDROOT
BRANCH   1  12
ATOM     12  C   UNL     1      -3.405  48.197  25.125  1.00  0.00     0.025 A 
ATOM     13  C   UNL     1      -3.701  46.693  23.217  1.00  0.00     0.161 A 
ATOM     14  C   UNL     1      -2.306  46.661  23.040  1.00  0.00     0.157 A 
ATOM     15  C   UNL     1      -4.243  47.460  24.268  1.00  0.00     0.062 A 
ATOM     16  C   UNL     1      -1.473  47.376  23.905  1.00  0.00     0.051 A 
ATOM     17  C   UNL     1      -2.017  48.132  24.945  1.00  0.00     0.016 A 
BRANCH  13  18
ATOM     18  O   UNL     1      -4.513  45.953  22.343  1.00  0.00    -0.493 OA
ATOM     19  C   UNL     1      -5.230  44.777  22.705  1.00  0.00     0.278 C 
ENDBRANCH  13  18
BRANCH  14  20
ATOM     20  O   UNL     1      -1.727  45.918  22.010  1.00  0.00    -0.504 OA
ATOM     21  H   UNL     1      -1.464  46.336  21.126  1.00  0.00     0.293 HD
ENDBRANCH  14  20
ENDBRANCH   1  12
BRANCH   2  22
ATOM     22  O   UNL     1      -3.780  51.064  24.996  1.00  0.00    -0.502 OA
ATOM     23  H   UNL     1      -4.425  51.252  24.239  1.00  0.00     0.293 HD
ENDBRANCH   2  22
BRANCH   6  24
ATOM     24  O   UNL     1      -6.125  52.253  29.631  1.00  0.00    -0.507 OA
ATOM     25  H   UNL     1      -6.067  52.843  30.448  1.00  0.00     0.293 HD
ENDBRANCH   6  24
BRANCH   8  26
ATOM     26  O   UNL     1      -5.758  48.019  31.868  1.00  0.00    -0.508 OA
ATOM     27  H   UNL     1      -5.135  48.068  32.666  1.00  0.00     0.293 HD
ENDBRANCH   8  26
TORSDOF 6
ENDMDL
MODEL 5
REMARK VINA RESULT:    -5.312      2.489      3.780
REMARK INTER + INTRA:          -6.959
REMARK INTER:                  -6.625
REMARK INTRA:                  -0.333
REMARK UNBOUND:                -0.404
REMARK SMILES COc1cc(-c2oc3cc(O)cc(O)c3c(=O)c2O)ccc1O
REMARK SMILES IDX 6 1 18 2 16 3 17 4 15 5 13 6 12 7 10 8 9 9 8 10 7 11 5 12
REMARK SMILES IDX 3 13 22 14 4 15 21 16 20 17 2 18 1 19 23 20 19 22 14 24
REMARK SMILES IDX 11 26
REMARK H PARENT 23 21 19 23 14 25 11 27
REMARK Flexibility Score: inf
ROOT
ATOM      1  C   UNL     1      -4.235  47.606  25.811  1.00  0.00     0.180 A 
ATOM      2  C   UNL     1      -4.158  46.959  27.057  1.00  0.00     0.208 A 
ATOM      3  C   UNL     1      -4.287  47.722  28.228  1.00  0.00     0.238 A 
ATOM      4  O   UNL     1      -4.273  47.130  29.339  1.00  0.00    -0.285 OA
ATOM      5  C   UNL     1      -4.474  49.123  28.141  1.00  0.00     0.111 A 
ATOM      6  C   UNL     1      -4.575  49.999  29.263  1.00  0.00     0.134 A 
ATOM      7  C   UNL     1      -4.886  51.349  29.058  1.00  0.00     0.093 A 
ATOM      8  C   UNL     1      -5.037  51.866  27.770  1.00  0.00     0.123 A 
ATOM      9  C   UNL     1      -4.883  51.031  26.667  1.00  0.00     0.094 A 
ATOM     10  C   UNL     1      -4.607  49.672  26.838  1.00  0.00     0.146 A 
ATOM     11  O   UNL     1      -4.477  48.910  25.760  1.00  0.00    -0.452 OA
ENDROOT
BRANCH   1  12
ATOM     12  C   UNL     1      -4.082  46.872  24.534  1.00  0.00     0.025 A 
ATOM     13  C   UNL     1      -2.790  46.302  22.535  1.00  0.00     0.161 A 
ATOM     14  C   UNL     1      -3.857  45.503  22.086  1.00  0.00     0.157 A 
ATOM     15  C   UNL     1      -2.913  46.989  23.760  1.00  0.00     0.062 A 
ATOM     16  C   UNL     1      -5.026  45.405  22.846  1.00  0.00     0.051 A 
ATOM     17  C   UNL     1      -5.142  46.090  24.056  1.00  0.00     0.016 A 
BRANCH  13  18
ATOM     18  O   UNL     1      -1.633  46.394  21.745  1.00  0.00    -0.493 OA
ATOM     19  C   UNL     1      -1.247  47.551  21.010  1.00  0.00     0.278 C 
ENDBRANCH  13  18
BRANCH  14  20
ATOM     20  O   UNL     1      -3.777  44.803  20.883  1.00  0.00    -0.504 OA
ATOM     21  H   UNL     1      -3.317  43.903  20.812  1.00  0.00     0.293 HD
ENDBRANCH  14  20
ENDBRANCH   1  12
BRANCH   2  22
ATOM     22  O   UNL     1      -3.990  45.573  27.119  1.00  0.00    -0.502 OA
ATOM     23  H   UNL     1      -3.136  45.143  27.452  1.00  0.00     0.293 HD
ENDBRANCH   2  22
BRANCH   6  24
ATOM     24  O   UNL     1      -4.354  49.604  30.585  1.00  0.00    -0.507 OA
ATOM     25  H   UNL     1      -4.986  49.038  31.131  1.00  0.00     0.293 HD
ENDBRANCH   6  24
BRANCH   8  26
ATOM     26  O   UNL     1      -5.331  53.215  27.574  1.00  0.00    -0.508 OA
ATOM     27  H   UNL     1      -4.722  53.946  27.924  1.00  0.00     0.293 HD
ENDBRANCH   8  26
TORSDOF 6
ENDMDL
MODEL 6
REMARK VINA RESULT:    -5.306      2.851      3.540
REMARK INTER + INTRA:          -6.951
REMARK INTER:                  -6.557
REMARK INTRA:                  -0.393
REMARK UNBOUND:                -0.404
REMARK SMILES COc1cc(-c2oc3cc(O)cc(O)c3c(=O)c2O)ccc1O
REMARK SMILES IDX 6 1 18 2 16 3 17 4 15 5 13 6 12 7 10 8 9 9 8 10 7 11 5 12
REMARK SMILES IDX 3 13 22 14 4 15 21 16 20 17 2 18 1 19 23 20 19 22 14 24
REMARK SMILES IDX 11 26
REMARK H PARENT 23 21 19 23 14 25 11 27
REMARK Flexibility Score: inf
ROOT
ATOM      1  C   UNL     1      -3.733  49.042  24.275  1.00  0.00     0.180 A 
ATOM      2  C   UNL     1      -2.903  50.150  24.032  1.00  0.00     0.208 A 
ATOM      3  C   UNL     1      -2.641  51.048  25.080  1.00  0.00     0.238 A 
ATOM      4  O   UNL     1      -1.853  52.006  24.871  1.00  0.00    -0.285 OA
ATOM      5  C   UNL     1      -3.228  50.837  26.351  1.00  0.00     0.111 A 
ATOM      6  C   UNL     1      -3.067  51.705  27.472  1.00  0.00     0.134 A 
ATOM      7  C   UNL     1      -3.589  51.330  28.716  1.00  0.00     0.093 A 
ATOM      8  C   UNL     1      -4.321  50.150  28.864  1.00  0.00     0.123 A 
ATOM      9  C   UNL     1      -4.533  49.325  27.763  1.00  0.00     0.094 A 
ATOM     10  C   UNL     1      -3.995  49.654  26.516  1.00  0.00     0.146 A 
ATOM     11  O   UNL     1      -4.214  48.835  25.495  1.00  0.00    -0.452 OA
ENDROOT
BRANCH   1  12
ATOM     12  C   UNL     1      -4.073  48.067  23.214  1.00  0.00     0.025 A 
ATOM     13  C   UNL     1      -3.622  46.001  21.982  1.00  0.00     0.161 A 
ATOM     14  C   UNL     1      -4.723  46.270  21.149  1.00  0.00     0.157 A 
ATOM     15  C   UNL     1      -3.299  46.909  23.010  1.00  0.00     0.062 A 
ATOM     16  C   UNL     1      -5.478  47.431  21.339  1.00  0.00     0.051 A 
ATOM     17  C   UNL     1      -5.151  48.328  22.358  1.00  0.00     0.016 A 
BRANCH  13  18
ATOM     18  O   UNL     1      -2.873  44.835  21.759  1.00  0.00    -0.493 OA
ATOM     19  C   UNL     1      -1.641  44.789  21.045  1.00  0.00     0.278 C 
ENDBRANCH  13  18
BRANCH  14  20
ATOM     20  O   UNL     1      -5.081  45.396  20.122  1.00  0.00    -0.504 OA
ATOM     21  H   UNL     1      -6.021  45.360  19.748  1.00  0.00     0.293 HD
ENDBRANCH  14  20
ENDBRANCH   1  12
BRANCH   2  22
ATOM     22  O   UNL     1      -2.320  50.329  22.773  1.00  0.00    -0.502 OA
ATOM     23  H   UNL     1      -2.183  51.244  22.363  1.00  0.00     0.293 HD
ENDBRANCH   2  22
BRANCH   6  24
ATOM     24  O   UNL     1      -2.431  52.949  27.412  1.00  0.00    -0.507 OA
ATOM     25  H   UNL     1      -1.451  53.105  27.596  1.00  0.00     0.293 HD
ENDBRANCH   6  24
BRANCH   8  26
ATOM     26  O   UNL     1      -4.852  49.793  30.102  1.00  0.00    -0.508 OA
ATOM     27  H   UNL     1      -5.262  48.879  30.259  1.00  0.00     0.293 HD
ENDBRANCH   8  26
TORSDOF 6
ENDMDL
MODEL 7
REMARK VINA RESULT:    -5.056      1.620      7.283
REMARK INTER + INTRA:          -6.642
REMARK INTER:                  -6.245
REMARK INTRA:                  -0.397
REMARK UNBOUND:                -0.404
REMARK SMILES COc1cc(-c2oc3cc(O)cc(O)c3c(=O)c2O)ccc1O
REMARK SMILES IDX 6 1 18 2 16 3 17 4 15 5 13 6 12 7 10 8 9 9 8 10 7 11 5 12
REMARK SMILES IDX 3 13 22 14 4 15 21 16 20 17 2 18 1 19 23 20 19 22 14 24
REMARK SMILES IDX 11 26
REMARK H PARENT 23 21 19 23 14 25 11 27
REMARK Flexibility Score: inf
ROOT
ATOM      1  C   UNL     1      -4.798  48.332  26.242  1.00  0.00     0.180 A 
ATOM      2  C   UNL     1      -4.743  47.459  27.341  1.00  0.00     0.208 A 
ATOM      3  C   UNL     1      -5.032  46.099  27.146  1.00  0.00     0.238 A 
ATOM      4  O   UNL     1      -4.927  45.313  28.123  1.00  0.00    -0.285 OA
ATOM      5  C   UNL     1      -5.391  45.633  25.858  1.00  0.00     0.111 A 
ATOM      6  C   UNL     1      -5.747  44.284  25.553  1.00  0.00     0.134 A 
ATOM      7  C   UNL     1      -5.959  43.911  24.221  1.00  0.00     0.093 A 
ATOM      8  C   UNL     1      -5.893  44.851  23.190  1.00  0.00     0.123 A 
ATOM      9  C   UNL     1      -5.605  46.181  23.484  1.00  0.00     0.094 A 
ATOM     10  C   UNL     1      -5.352  46.578  24.799  1.00  0.00     0.146 A 
ATOM     11  O   UNL     1      -5.073  47.854  25.034  1.00  0.00    -0.452 OA
ENDROOT
BRANCH   1  12
ATOM     12  C   UNL     1      -4.530  49.782  26.375  1.00  0.00     0.025 A 
ATOM     13  C   UNL     1      -2.982  51.677  26.421  1.00  0.00     0.161 A 
ATOM     14  C   UNL     1      -4.060  52.538  26.692  1.00  0.00     0.157 A 
ATOM     15  C   UNL     1      -3.225  50.296  26.269  1.00  0.00     0.062 A 
ATOM     16  C   UNL     1      -5.353  52.023  26.818  1.00  0.00     0.051 A 
ATOM     17  C   UNL     1      -5.586  50.655  26.670  1.00  0.00     0.016 A 
BRANCH  13  18
ATOM     18  O   UNL     1      -1.691  52.219  26.314  1.00  0.00    -0.493 OA
ATOM     19  C   UNL     1      -0.896  52.189  25.133  1.00  0.00     0.278 C 
ENDBRANCH  13  18
BRANCH  14  20
ATOM     20  O   UNL     1      -3.865  53.911  26.845  1.00  0.00    -0.504 OA
ATOM     21  H   UNL     1      -4.341  54.591  26.265  1.00  0.00     0.293 HD
ENDBRANCH  14  20
ENDBRANCH   1  12
BRANCH   2  22
ATOM     22  O   UNL     1      -4.369  47.938  28.601  1.00  0.00    -0.502 OA
ATOM     23  H   UNL     1      -3.599  47.543  29.126  1.00  0.00     0.293 HD
ENDBRANCH   2  22
BRANCH   6  24
ATOM     24  O   UNL     1      -5.928  43.287  26.517  1.00  0.00    -0.507 OA
ATOM     25  H   UNL     1      -6.216  43.452  27.470  1.00  0.00     0.293 HD
ENDBRANCH   6  24
BRANCH   8  26
ATOM     26  O   UNL     1      -6.123  44.474  21.868  1.00  0.00    -0.508 OA
ATOM     27  H   UNL     1      -6.872  44.885  21.322  1.00  0.00     0.293 HD
ENDBRANCH   8  26
TORSDOF 6
ENDMDL
MODEL 8
REMARK VINA RESULT:    -4.931      2.754      6.306
REMARK INTER + INTRA:          -6.489
REMARK INTER:                  -6.096
REMARK INTRA:                  -0.392
REMARK UNBOUND:                -0.404
REMARK SMILES COc1cc(-c2oc3cc(O)cc(O)c3c(=O)c2O)ccc1O
REMARK SMILES IDX 6 1 18 2 16 3 17 4 15 5 13 6 12 7 10 8 9 9 8 10 7 11 5 12
REMARK SMILES IDX 3 13 22 14 4 15 21 16 20 17 2 18 1 19 23 20 19 22 14 24
REMARK SMILES IDX 11 26
REMARK H PARENT 23 21 19 23 14 25 11 27
REMARK Flexibility Score: inf
ROOT
ATOM      1  C   UNL     1      -3.914  49.032  25.507  1.00  0.00     0.180 A 
ATOM      2  C   UNL     1      -2.544  48.753  25.360  1.00  0.00     0.208 A 
ATOM      3  C   UNL     1      -2.128  47.917  24.311  1.00  0.00     0.238 A 
ATOM      4  O   UNL     1      -0.896  47.716  24.152  1.00  0.00    -0.285 OA
ATOM      5  C   UNL     1      -3.088  47.357  23.433  1.00  0.00     0.111 A 
ATOM      6  C   UNL     1      -2.784  46.462  22.363  1.00  0.00     0.134 A 
ATOM      7  C   UNL     1      -3.798  46.072  21.481  1.00  0.00     0.093 A 
ATOM      8  C   UNL     1      -5.117  46.492  21.669  1.00  0.00     0.123 A 
ATOM      9  C   UNL     1      -5.434  47.317  22.744  1.00  0.00     0.094 A 
ATOM     10  C   UNL     1      -4.438  47.753  23.622  1.00  0.00     0.146 A 
ATOM     11  O   UNL     1      -4.783  48.546  24.629  1.00  0.00    -0.452 OA
ENDROOT
BRANCH   1  12
ATOM     12  C   UNL     1      -4.430  49.884  26.603  1.00  0.00     0.025 A 
ATOM     13  C   UNL     1      -5.249  50.161  28.892  1.00  0.00     0.161 A 
ATOM     14  C   UNL     1      -5.460  51.529  28.639  1.00  0.00     0.157 A 
ATOM     15  C   UNL     1      -4.738  49.343  27.864  1.00  0.00     0.062 A 
ATOM     16  C   UNL     1      -5.173  52.061  27.379  1.00  0.00     0.051 A 
ATOM     17  C   UNL     1      -4.670  51.244  26.365  1.00  0.00     0.016 A 
BRANCH  13  18
ATOM     18  O   UNL     1      -5.559  49.651  30.162  1.00  0.00    -0.493 OA
ATOM     19  C   UNL     1      -4.951  48.501  30.743  1.00  0.00     0.278 C 
ENDBRANCH  13  18
BRANCH  14  20
ATOM     20  O   UNL     1      -5.960  52.376  29.628  1.00  0.00    -0.504 OA
ATOM     21  H   UNL     1      -6.456  52.025  30.439  1.00  0.00     0.293 HD
ENDBRANCH  14  20
ENDBRANCH   1  12
BRANCH   2  22
ATOM     22  O   UNL     1      -1.613  49.331  26.228  1.00  0.00    -0.502 OA
ATOM     23  H   UNL     1      -0.662  48.992  26.309  1.00  0.00     0.293 HD
ENDBRANCH   2  22
BRANCH   6  24
ATOM     24  O   UNL     1      -1.518  45.913  22.140  1.00  0.00    -0.507 OA
ATOM     25  H   UNL     1      -0.777  46.362  21.622  1.00  0.00     0.293 HD
ENDBRANCH   6  24
BRANCH   8  26
ATOM     26  O   UNL     1      -6.124  46.084  20.795  1.00  0.00    -0.508 OA
ATOM     27  H   UNL     1      -7.100  46.096  21.069  1.00  0.00     0.293 HD
ENDBRANCH   8  26
TORSDOF 6
ENDMDL
