MODEL 1
REMARK VINA RESULT:    -2.684      0.000      0.000
REMARK INTER + INTRA:          -5.343
REMARK INTER:                  -5.038
REMARK INTRA:                  -0.305
REMARK UNBOUND:                -0.305
REMARK SMILES O=C([O-])CCCCCCCCCCCCCCC(=O)[O-]
REMARK SMILES IDX 10 1 9 2 8 3 7 4 6 5 5 6 4 7 2 8 1 9 3 10 11 11 12 12 13 13
REMARK SMILES IDX 14 14 15 15 16 16 17 17 18 18 19 19 20 20
REMARK H PARENT
REMARK Flexibility Score: inf
ROOT
ATOM      1  C   UNL     1      -5.724 -10.597   3.086  1.00  0.00     0.000 C 
ENDROOT
BRANCH   1   2
ATOM      2  C   UNL     1      -6.071 -11.918   2.374  1.00  0.00     0.000 C 
BRANCH   2   3
ATOM      3  C   UNL     1      -7.558 -12.048   1.982  1.00  0.00     0.000 C 
BRANCH   3   4
ATOM      4  C   UNL     1      -7.787 -11.825   0.479  1.00  0.00     0.000 C 
BRANCH   4   5
ATOM      5  C   UNL     1      -9.133 -11.137   0.223  1.00  0.00     0.000 C 
BRANCH   5   6
ATOM      6  C   UNL     1      -9.535 -11.245  -1.253  1.00  0.00     0.006 C 
BRANCH   6   7
ATOM      7  C   UNL     1     -10.208  -9.957  -1.735  1.00  0.00     0.053 C 
BRANCH   7   8
ATOM      8  C   UNL     1     -11.452  -9.689  -0.950  1.00  0.00     0.041 C 
ATOM      9  O   UNL     1     -12.121 -10.645  -0.477  1.00  0.00    -0.550 OA
ATOM     10  O   UNL     1     -11.849  -8.382  -0.701  1.00  0.00    -0.550 OA
ENDBRANCH   7   8
ENDBRANCH   6   7
ENDBRANCH   5   6
ENDBRANCH   4   5
ENDBRANCH   3   4
ENDBRANCH   2   3
ENDBRANCH   1   2
BRANCH   1  11
ATOM     11  C   UNL     1      -5.531 -10.704   4.610  1.00  0.00     0.000 C 
BRANCH  11  12
ATOM     12  C   UNL     1      -6.250 -11.921   5.219  1.00  0.00     0.000 C 
BRANCH  12  13
ATOM     13  C   UNL     1      -7.734 -11.647   5.521  1.00  0.00     0.000 C 
BRANCH  13  14
ATOM     14  C   UNL     1      -8.214 -12.109   6.909  1.00  0.00     0.000 C 
BRANCH  14  15
ATOM     15  C   UNL     1      -9.644 -11.654   7.231  1.00  0.00     0.000 C 
BRANCH  15  16
ATOM     16  C   UNL     1      -9.926 -11.752   8.734  1.00  0.00     0.006 C 
BRANCH  16  17
ATOM     17  C   UNL     1      -9.660 -10.416   9.434  1.00  0.00     0.053 C 
BRANCH  17  18
ATOM     18  C   UNL     1     -10.948  -9.746   9.790  1.00  0.00     0.041 C 
ATOM     19  O   UNL     1     -11.131  -9.302  10.954  1.00  0.00    -0.550 OA
ATOM     20  O   UNL     1     -11.928  -9.561   8.822  1.00  0.00    -0.550 OA
ENDBRANCH  17  18
ENDBRANCH  16  17
ENDBRANCH  15  16
ENDBRANCH  14  15
ENDBRANCH  13  14
ENDBRANCH  12  13
ENDBRANCH  11  12
ENDBRANCH   1  11
TORSDOF 15
ENDMDL
MODEL 2
REMARK VINA RESULT:    -2.369      3.526     10.710
REMARK INTER + INTRA:          -4.752
REMARK INTER:                  -4.239
REMARK INTRA:                  -0.513
REMARK UNBOUND:                -0.305
REMARK SMILES O=C([O-])CCCCCCCCCCCCCCC(=O)[O-]
REMARK SMILES IDX 10 1 9 2 8 3 7 4 6 5 5 6 4 7 2 8 1 9 3 10 11 11 12 12 13 13
REMARK SMILES IDX 14 14 15 15 16 16 17 17 18 18 19 19 20 20
REMARK H PARENT
REMARK Flexibility Score: inf
ROOT
ATOM      1  C   UNL     1     -11.216 -11.465   4.722  1.00  0.00     0.000 C 
ENDROOT
BRANCH   1   2
ATOM      2  C   UNL     1     -12.124 -12.125   5.778  1.00  0.00     0.000 C 
BRANCH   2   3
ATOM      3  C   UNL     1     -12.045 -11.468   7.172  1.00  0.00     0.000 C 
BRANCH   3   4
ATOM      4  C   UNL     1     -10.837 -11.963   7.982  1.00  0.00     0.000 C 
BRANCH   4   5
ATOM      5  C   UNL     1     -10.460 -10.959   9.078  1.00  0.00     0.000 C 
BRANCH   5   6
ATOM      6  C   UNL     1     -10.857 -11.481  10.464  1.00  0.00     0.006 C 
BRANCH   6   7
ATOM      7  C   UNL     1     -11.903 -10.573  11.115  1.00  0.00     0.053 C 
BRANCH   7   8
ATOM      8  C   UNL     1     -11.357  -9.954  12.362  1.00  0.00     0.041 C 
ATOM      9  O   UNL     1     -10.572 -10.604  13.101  1.00  0.00    -0.550 OA
ATOM     10  O   UNL     1     -11.681  -8.642  12.685  1.00  0.00    -0.550 OA
ENDBRANCH   7   8
ENDBRANCH   6   7
ENDBRANCH   5   6
ENDBRANCH   4   5
ENDBRANCH   3   4
ENDBRANCH   2   3
ENDBRANCH   1   2
BRANCH   1  11
ATOM     11  C   UNL     1     -11.916 -11.070   3.409  1.00  0.00     0.000 C 
BRANCH  11  12
ATOM     12  C   UNL     1     -11.373 -11.835   2.189  1.00  0.00     0.000 C 
BRANCH  12  13
ATOM     13  C   UNL     1     -11.956 -11.326   0.859  1.00  0.00     0.000 C 
BRANCH  13  14
ATOM     14  C   UNL     1     -10.934 -10.693  -0.103  1.00  0.00     0.000 C 
BRANCH  14  15
ATOM     15  C   UNL     1     -11.496  -9.484  -0.864  1.00  0.00     0.000 C 
BRANCH  15  16
ATOM     16  C   UNL     1     -11.224  -9.608  -2.368  1.00  0.00     0.006 C 
BRANCH  16  17
ATOM     17  C   UNL     1     -10.536 -10.937  -2.697  1.00  0.00     0.053 C 
BRANCH  17  18
ATOM     18  C   UNL     1     -10.212 -11.011  -4.155  1.00  0.00     0.041 C 
ATOM     19  O   UNL     1      -9.068 -11.379  -4.530  1.00  0.00    -0.550 OA
ATOM     20  O   UNL     1     -11.188 -10.726  -5.101  1.00  0.00    -0.550 OA
ENDBRANCH  17  18
ENDBRANCH  16  17
ENDBRANCH  15  16
ENDBRANCH  14  15
ENDBRANCH  13  14
ENDBRANCH  12  13
ENDBRANCH  11  12
ENDBRANCH   1  11
TORSDOF 15
ENDMDL
MODEL 3
REMARK VINA RESULT:    -2.123      1.440      9.193
REMARK INTER + INTRA:          -4.290
REMARK INTER:                  -3.761
REMARK INTRA:                  -0.529
REMARK UNBOUND:                -0.305
REMARK SMILES O=C([O-])CCCCCCCCCCCCCCC(=O)[O-]
REMARK SMILES IDX 10 1 9 2 8 3 7 4 6 5 5 6 4 7 2 8 1 9 3 10 11 11 12 12 13 13
REMARK SMILES IDX 14 14 15 15 16 16 17 17 18 18 19 19 20 20
REMARK H PARENT
REMARK Flexibility Score: inf
ROOT
ATOM      1  C   UNL     1      -6.546 -10.946   4.440  1.00  0.00     0.000 C 
ENDROOT
BRANCH   1   2
ATOM      2  C   UNL     1      -6.715 -11.725   5.759  1.00  0.00     0.000 C 
BRANCH   2   3
ATOM      3  C   UNL     1      -8.184 -11.938   6.178  1.00  0.00     0.000 C 
BRANCH   3   4
ATOM      4  C   UNL     1      -8.338 -12.123   7.695  1.00  0.00     0.000 C 
BRANCH   4   5
ATOM      5  C   UNL     1      -9.788 -11.890   8.135  1.00  0.00     0.000 C 
BRANCH   5   6
ATOM      6  C   UNL     1      -9.846 -11.262   9.533  1.00  0.00     0.006 C 
BRANCH   6   7
ATOM      7  C   UNL     1     -11.294 -11.008   9.961  1.00  0.00     0.053 C 
BRANCH   7   8
ATOM      8  C   UNL     1     -11.337 -10.388  11.322  1.00  0.00     0.041 C 
ATOM      9  O   UNL     1     -11.148  -9.151  11.461  1.00  0.00    -0.550 OA
ATOM     10  O   UNL     1     -11.630 -11.169  12.432  1.00  0.00    -0.550 OA
ENDBRANCH   7   8
ENDBRANCH   6   7
ENDBRANCH   5   6
ENDBRANCH   4   5
ENDBRANCH   3   4
ENDBRANCH   2   3
ENDBRANCH   1   2
BRANCH   1  11
ATOM     11  C   UNL     1      -5.531 -11.544   3.449  1.00  0.00     0.000 C 
BRANCH  11  12
ATOM     12  C   UNL     1      -6.173 -11.960   2.114  1.00  0.00     0.000 C 
BRANCH  12  13
ATOM     13  C   UNL     1      -7.707 -11.825   2.122  1.00  0.00     0.000 C 
BRANCH  13  14
ATOM     14  C   UNL     1      -8.385 -11.995   0.751  1.00  0.00     0.000 C 
BRANCH  14  15
ATOM     15  C   UNL     1      -9.878 -11.640   0.772  1.00  0.00     0.000 C 
BRANCH  15  16
ATOM     16  C   UNL     1     -10.486 -11.741  -0.632  1.00  0.00     0.006 C 
BRANCH  16  17
ATOM     17  C   UNL     1     -11.017 -10.384  -1.103  1.00  0.00     0.053 C 
BRANCH  17  18
ATOM     18  C   UNL     1     -10.948 -10.284  -2.593  1.00  0.00     0.041 C 
ATOM     19  O   UNL     1     -10.030 -10.870  -3.225  1.00  0.00    -0.550 OA
ATOM     20  O   UNL     1     -11.929  -9.590  -3.291  1.00  0.00    -0.550 OA
ENDBRANCH  17  18
ENDBRANCH  16  17
ENDBRANCH  15  16
ENDBRANCH  14  15
ENDBRANCH  13  14
ENDBRANCH  12  13
ENDBRANCH  11  12
ENDBRANCH   1  11
TORSDOF 15
ENDMDL
MODEL 4
REMARK VINA RESULT:    -1.669     22.057     24.947
REMARK INTER + INTRA:          -3.439
REMARK INTER:                  -2.290
REMARK INTRA:                  -1.148
REMARK UNBOUND:                -0.305
REMARK SMILES O=C([O-])CCCCCCCCCCCCCCC(=O)[O-]
REMARK SMILES IDX 10 1 9 2 8 3 7 4 6 5 5 6 4 7 2 8 1 9 3 10 11 11 12 12 13 13
REMARK SMILES IDX 14 14 15 15 16 16 17 17 18 18 19 19 20 20
REMARK H PARENT
REMARK Flexibility Score: inf
ROOT
ATOM      1  C   UNL     1       6.073   3.978   1.317  1.00  0.00     0.000 C 
ENDROOT
BRANCH   1   2
ATOM      2  C   UNL     1       7.399   4.374   1.995  1.00  0.00     0.000 C 
BRANCH   2   3
ATOM      3  C   UNL     1       7.258   5.502   3.038  1.00  0.00     0.000 C 
BRANCH   3   4
ATOM      4  C   UNL     1       8.093   6.740   2.676  1.00  0.00     0.000 C 
BRANCH   4   5
ATOM      5  C   UNL     1       7.219   7.997   2.618  1.00  0.00     0.000 C 
BRANCH   5   6
ATOM      6  C   UNL     1       6.032   7.888   3.582  1.00  0.00     0.006 C 
BRANCH   6   7
ATOM      7  C   UNL     1       4.728   7.628   2.822  1.00  0.00     0.053 C 
BRANCH   7   8
ATOM      8  C   UNL     1       3.592   7.445   3.776  1.00  0.00     0.041 C 
ATOM      9  O   UNL     1       2.411   7.361   3.348  1.00  0.00    -0.550 OA
ATOM     10  O   UNL     1       3.841   7.323   5.137  1.00  0.00    -0.550 OA
ENDBRANCH   7   8
ENDBRANCH   6   7
ENDBRANCH   5   6
ENDBRANCH   4   5
ENDBRANCH   3   4
ENDBRANCH   2   3
ENDBRANCH   1   2
BRANCH   1  11
ATOM     11  C   UNL     1       5.830   4.605  -0.066  1.00  0.00     0.000 C 
BRANCH  11  12
ATOM     12  C   UNL     1       5.084   5.949   0.010  1.00  0.00     0.000 C 
BRANCH  12  13
ATOM     13  C   UNL     1       5.997   7.154  -0.282  1.00  0.00     0.000 C 
BRANCH  13  14
ATOM     14  C   UNL     1       7.358   6.807  -0.911  1.00  0.00     0.000 C 
BRANCH  14  15
ATOM     15  C   UNL     1       8.122   8.041  -1.408  1.00  0.00     0.000 C 
BRANCH  15  16
ATOM     16  C   UNL     1       8.095   8.125  -2.939  1.00  0.00     0.006 C 
BRANCH  16  17
ATOM     17  C   UNL     1       6.659   8.072  -3.469  1.00  0.00     0.053 C 
BRANCH  17  18
ATOM     18  C   UNL     1       6.652   7.755  -4.930  1.00  0.00     0.041 C 
ATOM     19  O   UNL     1       5.612   7.948  -5.615  1.00  0.00    -0.550 OA
ATOM     20  O   UNL     1       7.809   7.300  -5.550  1.00  0.00    -0.550 OA
ENDBRANCH  17  18
ENDBRANCH  16  17
ENDBRANCH  15  16
ENDBRANCH  14  15
ENDBRANCH  13  14
ENDBRANCH  12  13
ENDBRANCH  11  12
ENDBRANCH   1  11
TORSDOF 15
ENDMDL
MODEL 5
REMARK VINA RESULT:    -1.466     21.365     24.009
REMARK INTER + INTRA:          -3.056
REMARK INTER:                  -2.612
REMARK INTRA:                  -0.444
REMARK UNBOUND:                -0.305
REMARK SMILES O=C([O-])CCCCCCCCCCCCCCC(=O)[O-]
REMARK SMILES IDX 10 1 9 2 8 3 7 4 6 5 5 6 4 7 2 8 1 9 3 10 11 11 12 12 13 13
REMARK SMILES IDX 14 14 15 15 16 16 17 17 18 18 19 19 20 20
REMARK H PARENT
REMARK Flexibility Score: inf
ROOT
ATOM      1  C   UNL     1       7.230   4.952   2.432  1.00  0.00     0.000 C 
ENDROOT
BRANCH   1   2
ATOM      2  C   UNL     1       8.001   6.209   1.985  1.00  0.00     0.000 C 
BRANCH   2   3
ATOM      3  C   UNL     1       7.875   7.401   2.956  1.00  0.00     0.000 C 
BRANCH   3   4
ATOM      4  C   UNL     1       6.525   8.122   2.825  1.00  0.00     0.000 C 
BRANCH   4   5
ATOM      5  C   UNL     1       5.360   7.163   3.093  1.00  0.00     0.000 C 
BRANCH   5   6
ATOM      6  C   UNL     1       4.057   7.933   3.343  1.00  0.00     0.006 C 
BRANCH   6   7
ATOM      7  C   UNL     1       3.287   7.341   4.526  1.00  0.00     0.053 C 
BRANCH   7   8
ATOM      8  C   UNL     1       1.829   7.655   4.412  1.00  0.00     0.041 C 
ATOM      9  O   UNL     1       1.358   8.097   3.332  1.00  0.00    -0.550 OA
ATOM     10  O   UNL     1       0.982   7.418   5.487  1.00  0.00    -0.550 OA
ENDBRANCH   7   8
ENDBRANCH   6   7
ENDBRANCH   5   6
ENDBRANCH   4   5
ENDBRANCH   3   4
ENDBRANCH   2   3
ENDBRANCH   1   2
BRANCH   1  11
ATOM     11  C   UNL     1       6.839   3.985   1.301  1.00  0.00     0.000 C 
BRANCH  11  12
ATOM     12  C   UNL     1       5.337   3.650   1.293  1.00  0.00     0.000 C 
BRANCH  12  13
ATOM     13  C   UNL     1       4.458   4.862   0.936  1.00  0.00     0.000 C 
BRANCH  13  14
ATOM     14  C   UNL     1       5.175   5.984   0.162  1.00  0.00     0.000 C 
BRANCH  14  15
ATOM     15  C   UNL     1       4.261   7.178  -0.148  1.00  0.00     0.000 C 
BRANCH  15  16
ATOM     16  C   UNL     1       4.918   8.125  -1.158  1.00  0.00     0.006 C 
BRANCH  16  17
ATOM     17  C   UNL     1       6.392   7.767  -1.372  1.00  0.00     0.053 C 
BRANCH  17  18
ATOM     18  C   UNL     1       6.764   7.923  -2.812  1.00  0.00     0.041 C 
ATOM     19  O   UNL     1       7.976   7.949  -3.153  1.00  0.00    -0.550 OA
ATOM     20  O   UNL     1       5.774   7.984  -3.785  1.00  0.00    -0.550 OA
ENDBRANCH  17  18
ENDBRANCH  16  17
ENDBRANCH  15  16
ENDBRANCH  14  15
ENDBRANCH  13  14
ENDBRANCH  12  13
ENDBRANCH  11  12
ENDBRANCH   1  11
TORSDOF 15
ENDMDL
MODEL 6
REMARK VINA RESULT:    -1.458     21.758     23.583
REMARK INTER + INTRA:          -3.043
REMARK INTER:                  -1.914
REMARK INTRA:                  -1.129
REMARK UNBOUND:                -0.305
REMARK SMILES O=C([O-])CCCCCCCCCCCCCCC(=O)[O-]
REMARK SMILES IDX 10 1 9 2 8 3 7 4 6 5 5 6 4 7 2 8 1 9 3 10 11 11 12 12 13 13
REMARK SMILES IDX 14 14 15 15 16 16 17 17 18 18 19 19 20 20
REMARK H PARENT
REMARK Flexibility Score: inf
ROOT
ATOM      1  C   UNL     1       6.264   3.639   1.455  1.00  0.00     0.000 C 
ENDROOT
BRANCH   1   2
ATOM      2  C   UNL     1       5.308   4.730   0.936  1.00  0.00     0.000 C 
BRANCH   2   3
ATOM      3  C   UNL     1       5.899   5.593  -0.199  1.00  0.00     0.000 C 
BRANCH   3   4
ATOM      4  C   UNL     1       4.918   6.673  -0.681  1.00  0.00     0.000 C 
BRANCH   4   5
ATOM      5  C   UNL     1       4.918   6.773  -2.211  1.00  0.00     0.000 C 
BRANCH   5   6
ATOM      6  C   UNL     1       5.476   8.124  -2.675  1.00  0.00     0.006 C 
BRANCH   6   7
ATOM      7  C   UNL     1       5.735   8.122  -4.184  1.00  0.00     0.053 C 
BRANCH   7   8
ATOM      8  C   UNL     1       7.197   7.979  -4.465  1.00  0.00     0.041 C 
ATOM      9  O   UNL     1       8.030   8.017  -3.523  1.00  0.00    -0.550 OA
ATOM     10  O   UNL     1       7.636   7.757  -5.764  1.00  0.00    -0.550 OA
ENDBRANCH   7   8
ENDBRANCH   6   7
ENDBRANCH   5   6
ENDBRANCH   4   5
ENDBRANCH   3   4
ENDBRANCH   2   3
ENDBRANCH   1   2
BRANCH   1  11
ATOM     11  C   UNL     1       7.726   4.082   1.644  1.00  0.00     0.000 C 
BRANCH  11  12
ATOM     12  C   UNL     1       7.877   5.218   2.672  1.00  0.00     0.000 C 
BRANCH  12  13
ATOM     13  C   UNL     1       8.102   6.591   2.013  1.00  0.00     0.000 C 
BRANCH  13  14
ATOM     14  C   UNL     1       7.582   7.796   2.819  1.00  0.00     0.000 C 
BRANCH  14  15
ATOM     15  C   UNL     1       6.080   8.043   2.625  1.00  0.00     0.000 C 
BRANCH  15  16
ATOM     16  C   UNL     1       5.253   7.188   3.593  1.00  0.00     0.006 C 
BRANCH  16  17
ATOM     17  C   UNL     1       4.087   7.990   4.179  1.00  0.00     0.053 C 
BRANCH  17  18
ATOM     18  C   UNL     1       2.793   7.553   3.570  1.00  0.00     0.041 C 
ATOM     19  O   UNL     1       1.709   8.070   3.948  1.00  0.00    -0.550 OA
ATOM     20  O   UNL     1       2.788   6.613   2.546  1.00  0.00    -0.550 OA
ENDBRANCH  17  18
ENDBRANCH  16  17
ENDBRANCH  15  16
ENDBRANCH  14  15
ENDBRANCH  13  14
ENDBRANCH  12  13
ENDBRANCH  11  12
ENDBRANCH   1  11
TORSDOF 15
ENDMDL
MODEL 7
REMARK VINA RESULT:    -1.263     21.952     24.758
REMARK INTER + INTRA:          -2.677
REMARK INTER:                  -1.732
REMARK INTRA:                  -0.945
REMARK UNBOUND:                -0.305
REMARK SMILES O=C([O-])CCCCCCCCCCCCCCC(=O)[O-]
REMARK SMILES IDX 10 1 9 2 8 3 7 4 6 5 5 6 4 7 2 8 1 9 3 10 11 11 12 12 13 13
REMARK SMILES IDX 14 14 15 15 16 16 17 17 18 18 19 19 20 20
REMARK H PARENT
REMARK Flexibility Score: inf
ROOT
ATOM      1  C   UNL     1       6.237   8.123   3.133  1.00  0.00     0.000 C 
ENDROOT
BRANCH   1   2
ATOM      2  C   UNL     1       5.567   7.479   4.363  1.00  0.00     0.000 C 
BRANCH   2   3
ATOM      3  C   UNL     1       4.074   7.836   4.522  1.00  0.00     0.000 C 
BRANCH   3   4
ATOM      4  C   UNL     1       3.339   7.890   3.174  1.00  0.00     0.000 C 
BRANCH   4   5
ATOM      5  C   UNL     1       2.948   6.485   2.703  1.00  0.00     0.000 C 
BRANCH   5   6
ATOM      6  C   UNL     1       4.187   5.665   2.326  1.00  0.00     0.006 C 
BRANCH   6   7
ATOM      7  C   UNL     1       4.041   5.058   0.928  1.00  0.00     0.053 C 
BRANCH   7   8
ATOM      8  C   UNL     1       5.361   4.564   0.429  1.00  0.00     0.041 C 
ATOM      9  O   UNL     1       5.632   4.606  -0.799  1.00  0.00    -0.550 OA
ATOM     10  O   UNL     1       6.312   4.096   1.328  1.00  0.00    -0.550 OA
ENDBRANCH   7   8
ENDBRANCH   6   7
ENDBRANCH   5   6
ENDBRANCH   4   5
ENDBRANCH   3   4
ENDBRANCH   2   3
ENDBRANCH   1   2
BRANCH   1  11
ATOM     11  C   UNL     1       7.632   7.574   2.785  1.00  0.00     0.000 C 
BRANCH  11  12
ATOM     12  C   UNL     1       7.897   7.534   1.269  1.00  0.00     0.000 C 
BRANCH  12  13
ATOM     13  C   UNL     1       6.662   7.926   0.438  1.00  0.00     0.000 C 
BRANCH  13  14
ATOM     14  C   UNL     1       6.894   7.997  -1.082  1.00  0.00     0.000 C 
BRANCH  14  15
ATOM     15  C   UNL     1       5.590   8.123  -1.883  1.00  0.00     0.000 C 
BRANCH  15  16
ATOM     16  C   UNL     1       5.733   7.486  -3.270  1.00  0.00     0.006 C 
BRANCH  16  17
ATOM     17  C   UNL     1       6.884   8.125  -4.054  1.00  0.00     0.053 C 
BRANCH  17  18
ATOM     18  C   UNL     1       6.975   7.533  -5.424  1.00  0.00     0.041 C 
ATOM     19  O   UNL     1       8.097   7.381  -5.975  1.00  0.00    -0.550 OA
ATOM     20  O   UNL     1       5.825   7.098  -6.072  1.00  0.00    -0.550 OA
ENDBRANCH  17  18
ENDBRANCH  16  17
ENDBRANCH  15  16
ENDBRANCH  14  15
ENDBRANCH  13  14
ENDBRANCH  12  13
ENDBRANCH  11  12
ENDBRANCH   1  11
TORSDOF 15
ENDMDL
MODEL 8
REMARK VINA RESULT:    -1.112      2.900      4.220
REMARK INTER + INTRA:          -2.393
REMARK INTER:                  -1.861
REMARK INTRA:                  -0.531
REMARK UNBOUND:                -0.305
REMARK SMILES O=C([O-])CCCCCCCCCCCCCCC(=O)[O-]
REMARK SMILES IDX 10 1 9 2 8 3 7 4 6 5 5 6 4 7 2 8 1 9 3 10 11 11 12 12 13 13
REMARK SMILES IDX 14 14 15 15 16 16 17 17 18 18 19 19 20 20
REMARK H PARENT
REMARK Flexibility Score: inf
ROOT
ATOM      1  C   UNL     1      -9.063 -11.570  -0.022  1.00  0.00     0.000 C 
ENDROOT
BRANCH   1   2
ATOM      2  C   UNL     1      -9.854 -10.385  -0.610  1.00  0.00     0.000 C 
BRANCH   2   3
ATOM      3  C   UNL     1     -11.310 -10.729  -0.989  1.00  0.00     0.000 C 
BRANCH   3   4
ATOM      4  C   UNL     1     -11.442 -11.181  -2.451  1.00  0.00     0.000 C 
BRANCH   4   5
ATOM      5  C   UNL     1     -10.338 -10.568  -3.319  1.00  0.00     0.000 C 
BRANCH   5   6
ATOM      6  C   UNL     1     -10.115 -11.393  -4.593  1.00  0.00     0.006 C 
BRANCH   6   7
ATOM      7  C   UNL     1      -9.716 -10.495  -5.766  1.00  0.00     0.053 C 
BRANCH   7   8
ATOM      8  C   UNL     1      -8.278 -10.098  -5.658  1.00  0.00     0.041 C 
ATOM      9  O   UNL     1      -7.964  -8.969  -5.199  1.00  0.00    -0.550 OA
ATOM     10  O   UNL     1      -7.281 -10.995  -6.023  1.00  0.00    -0.550 OA
ENDBRANCH   7   8
ENDBRANCH   6   7
ENDBRANCH   5   6
ENDBRANCH   4   5
ENDBRANCH   3   4
ENDBRANCH   2   3
ENDBRANCH   1   2
BRANCH   1  11
ATOM     11  C   UNL     1      -7.728 -11.199   0.647  1.00  0.00     0.000 C 
BRANCH  11  12
ATOM     12  C   UNL     1      -7.394 -12.097   1.852  1.00  0.00     0.000 C 
BRANCH  12  13
ATOM     13  C   UNL     1      -7.174 -11.297   3.148  1.00  0.00     0.000 C 
BRANCH  13  14
ATOM     14  C   UNL     1      -7.304 -12.112   4.448  1.00  0.00     0.000 C 
BRANCH  14  15
ATOM     15  C   UNL     1      -8.624 -11.855   5.188  1.00  0.00     0.000 C 
BRANCH  15  16
ATOM     16  C   UNL     1      -8.463 -12.086   6.695  1.00  0.00     0.006 C 
BRANCH  16  17
ATOM     17  C   UNL     1      -9.823 -12.086   7.401  1.00  0.00     0.053 C 
BRANCH  17  18
ATOM     18  C   UNL     1      -9.692 -11.539   8.787  1.00  0.00     0.041 C 
ATOM     19  O   UNL     1      -8.770 -11.944   9.543  1.00  0.00    -0.550 OA
ATOM     20  O   UNL     1     -10.553 -10.541   9.226  1.00  0.00    -0.550 OA
ENDBRANCH  17  18
ENDBRANCH  16  17
ENDBRANCH  15  16
ENDBRANCH  14  15
ENDBRANCH  13  14
ENDBRANCH  12  13
ENDBRANCH  11  12
ENDBRANCH   1  11
TORSDOF 15
ENDMDL
