MODEL 1
REMARK VINA RESULT:    -3.883      0.000      0.000
REMARK INTER + INTRA:          -7.970
REMARK INTER:                  -7.061
REMARK INTRA:                  -0.909
REMARK UNBOUND:                -0.909
REMARK SMILES CCCCCCCCCCCCCCCC(=O)[O-]
REMARK SMILES IDX 9 1 10 2 11 3 12 4 13 5 14 6 15 7 16 8 17 9 18 10 8 11 7 12
REMARK SMILES IDX 6 13 5 14 4 15 3 16 2 17 1 18
REMARK H PARENT
REMARK Flexibility Score: inf
ROOT
ATOM      1  C   UNL     1     -43.908 -27.114   0.142  1.00  0.00     0.000 C 
ENDROOT
BRANCH   1   2
ATOM      2  C   UNL     1     -43.615 -28.317  -0.771  1.00  0.00     0.000 C 
BRANCH   2   3
ATOM      3  C   UNL     1     -44.738 -29.367  -0.746  1.00  0.00     0.000 C 
BRANCH   3   4
ATOM      4  C   UNL     1     -45.352 -29.610  -2.136  1.00  0.00     0.000 C 
BRANCH   4   5
ATOM      5  C   UNL     1     -45.686 -28.302  -2.870  1.00  0.00     0.000 C 
BRANCH   5   6
ATOM      6  C   UNL     1     -45.746 -28.474  -4.395  1.00  0.00     0.006 C 
BRANCH   6   7
ATOM      7  C   UNL     1     -45.329 -27.184  -5.109  1.00  0.00     0.053 C 
BRANCH   7   8
ATOM      8  C   UNL     1     -45.066 -27.448  -6.558  1.00  0.00     0.041 C 
ATOM      9  O   UNL     1     -45.962 -27.227  -7.415  1.00  0.00    -0.550 OA
ATOM     10  O   UNL     1     -43.849 -27.985  -6.957  1.00  0.00    -0.550 OA
ENDBRANCH   7   8
ENDBRANCH   6   7
ENDBRANCH   5   6
ENDBRANCH   4   5
ENDBRANCH   3   4
ENDBRANCH   2   3
ENDBRANCH   1   2
BRANCH   1  11
ATOM     11  C   UNL     1     -45.319 -27.165   0.751  1.00  0.00     0.000 C 
BRANCH  11  12
ATOM     12  C   UNL     1     -45.580 -26.014   1.738  1.00  0.00    -0.000 C 
BRANCH  12  13
ATOM     13  C   UNL     1     -46.892 -26.187   2.523  1.00  0.00    -0.000 C 
BRANCH  13  14
ATOM     14  C   UNL     1     -47.093 -27.572   3.172  1.00  0.00    -0.000 C 
BRANCH  14  15
ATOM     15  C   UNL     1     -46.176 -27.872   4.372  1.00  0.00    -0.000 C 
BRANCH  15  16
ATOM     16  C   UNL     1     -46.077 -26.740   5.412  1.00  0.00    -0.000 C 
BRANCH  16  17
ATOM     17  C   UNL     1     -45.436 -27.178   6.747  1.00  0.00    -0.003 C 
ATOM     18  C   UNL     1     -45.109 -28.670   6.784  1.00  0.00     0.004 C 
ENDBRANCH  16  17
ENDBRANCH  15  16
ENDBRANCH  14  15
ENDBRANCH  13  14
ENDBRANCH  12  13
ENDBRANCH  11  12
ENDBRANCH   1  11
TORSDOF 14
ENDMDL
MODEL 2
REMARK VINA RESULT:    -3.864      1.206      1.503
REMARK INTER + INTRA:          -7.936
REMARK INTER:                  -6.526
REMARK INTRA:                  -1.410
REMARK UNBOUND:                -0.909
REMARK SMILES CCCCCCCCCCCCCCCC(=O)[O-]
REMARK SMILES IDX 9 1 10 2 11 3 12 4 13 5 14 6 15 7 16 8 17 9 18 10 8 11 7 12
REMARK SMILES IDX 6 13 5 14 4 15 3 16 2 17 1 18
REMARK H PARENT
REMARK Flexibility Score: inf
ROOT
ATOM      1  C   UNL     1     -44.531 -26.891  -0.069  1.00  0.00     0.000 C 
ENDROOT
BRANCH   1   2
ATOM      2  C   UNL     1     -43.432 -27.967  -0.006  1.00  0.00     0.000 C 
BRANCH   2   3
ATOM      3  C   UNL     1     -44.002 -29.395  -0.004  1.00  0.00     0.000 C 
BRANCH   3   4
ATOM      4  C   UNL     1     -45.441 -29.458  -0.546  1.00  0.00     0.000 C 
BRANCH   4   5
ATOM      5  C   UNL     1     -45.489 -29.638  -2.071  1.00  0.00     0.000 C 
BRANCH   5   6
ATOM      6  C   UNL     1     -46.463 -28.666  -2.755  1.00  0.00     0.006 C 
BRANCH   6   7
ATOM      7  C   UNL     1     -46.250 -28.654  -4.271  1.00  0.00     0.053 C 
BRANCH   7   8
ATOM      8  C   UNL     1     -45.411 -27.482  -4.674  1.00  0.00     0.041 C 
ATOM      9  O   UNL     1     -45.146 -27.280  -5.888  1.00  0.00    -0.550 OA
ATOM     10  O   UNL     1     -44.879 -26.642  -3.704  1.00  0.00    -0.550 OA
ENDBRANCH   7   8
ENDBRANCH   6   7
ENDBRANCH   5   6
ENDBRANCH   4   5
ENDBRANCH   3   4
ENDBRANCH   2   3
ENDBRANCH   1   2
BRANCH   1  11
ATOM     11  C   UNL     1     -44.874 -26.317   1.315  1.00  0.00     0.000 C 
BRANCH  11  12
ATOM     12  C   UNL     1     -46.385 -26.093   1.505  1.00  0.00    -0.000 C 
BRANCH  12  13
ATOM     13  C   UNL     1     -47.108 -27.336   2.054  1.00  0.00    -0.000 C 
BRANCH  13  14
ATOM     14  C   UNL     1     -46.243 -28.268   2.927  1.00  0.00    -0.000 C 
BRANCH  14  15
ATOM     15  C   UNL     1     -46.474 -28.144   4.444  1.00  0.00    -0.000 C 
BRANCH  15  16
ATOM     16  C   UNL     1     -46.385 -26.710   4.999  1.00  0.00    -0.000 C 
BRANCH  16  17
ATOM     17  C   UNL     1     -45.641 -26.611   6.348  1.00  0.00    -0.003 C 
ATOM     18  C   UNL     1     -45.237 -27.976   6.902  1.00  0.00     0.004 C 
ENDBRANCH  16  17
ENDBRANCH  15  16
ENDBRANCH  14  15
ENDBRANCH  13  14
ENDBRANCH  12  13
ENDBRANCH  11  12
ENDBRANCH   1  11
TORSDOF 14
ENDMDL
MODEL 3
REMARK VINA RESULT:    -3.750      1.438      2.474
REMARK INTER + INTRA:          -7.729
REMARK INTER:                  -7.064
REMARK INTRA:                  -0.665
REMARK UNBOUND:                -0.909
REMARK SMILES CCCCCCCCCCCCCCCC(=O)[O-]
REMARK SMILES IDX 9 1 10 2 11 3 12 4 13 5 14 6 15 7 16 8 17 9 18 10 8 11 7 12
REMARK SMILES IDX 6 13 5 14 4 15 3 16 2 17 1 18
REMARK H PARENT
REMARK Flexibility Score: inf
ROOT
ATOM      1  C   UNL     1     -45.097 -27.896  -1.678  1.00  0.00     0.000 C 
ENDROOT
BRANCH   1   2
ATOM      2  C   UNL     1     -45.643 -29.147  -2.390  1.00  0.00     0.000 C 
BRANCH   2   3
ATOM      3  C   UNL     1     -46.369 -28.811  -3.703  1.00  0.00     0.000 C 
BRANCH   3   4
ATOM      4  C   UNL     1     -45.600 -27.786  -4.557  1.00  0.00     0.000 C 
BRANCH   4   5
ATOM      5  C   UNL     1     -45.237 -28.330  -5.948  1.00  0.00     0.000 C 
BRANCH   5   6
ATOM      6  C   UNL     1     -44.608 -27.265  -6.858  1.00  0.00     0.006 C 
BRANCH   6   7
ATOM      7  C   UNL     1     -44.228 -27.861  -8.217  1.00  0.00     0.053 C 
BRANCH   7   8
ATOM      8  C   UNL     1     -43.113 -28.847  -8.063  1.00  0.00     0.041 C 
ATOM      9  O   UNL     1     -43.295 -30.059  -8.350  1.00  0.00    -0.550 OA
ATOM     10  O   UNL     1     -41.887 -28.436  -7.556  1.00  0.00    -0.550 OA
ENDBRANCH   7   8
ENDBRANCH   6   7
ENDBRANCH   5   6
ENDBRANCH   4   5
ENDBRANCH   3   4
ENDBRANCH   2   3
ENDBRANCH   1   2
BRANCH   1  11
ATOM     11  C   UNL     1     -45.859 -27.576  -0.382  1.00  0.00     0.000 C 
BRANCH  11  12
ATOM     12  C   UNL     1     -44.927 -27.121   0.755  1.00  0.00    -0.000 C 
BRANCH  12  13
ATOM     13  C   UNL     1     -45.590 -26.104   1.700  1.00  0.00    -0.000 C 
BRANCH  13  14
ATOM     14  C   UNL     1     -46.671 -26.684   2.636  1.00  0.00    -0.000 C 
BRANCH  14  15
ATOM     15  C   UNL     1     -46.339 -28.059   3.245  1.00  0.00    -0.000 C 
BRANCH  15  16
ATOM     16  C   UNL     1     -46.164 -28.067   4.775  1.00  0.00    -0.000 C 
BRANCH  16  17
ATOM     17  C   UNL     1     -45.919 -26.668   5.379  1.00  0.00    -0.003 C 
ATOM     18  C   UNL     1     -45.741 -26.702   6.897  1.00  0.00     0.004 C 
ENDBRANCH  16  17
ENDBRANCH  15  16
ENDBRANCH  14  15
ENDBRANCH  13  14
ENDBRANCH  12  13
ENDBRANCH  11  12
ENDBRANCH   1  11
TORSDOF 14
ENDMDL
MODEL 4
REMARK VINA RESULT:    -3.712      4.839      9.302
REMARK INTER + INTRA:          -7.660
REMARK INTER:                  -6.646
REMARK INTRA:                  -1.015
REMARK UNBOUND:                -0.909
REMARK SMILES CCCCCCCCCCCCCCCC(=O)[O-]
REMARK SMILES IDX 9 1 10 2 11 3 12 4 13 5 14 6 15 7 16 8 17 9 18 10 8 11 7 12
REMARK SMILES IDX 6 13 5 14 4 15 3 16 2 17 1 18
REMARK H PARENT
REMARK Flexibility Score: inf
ROOT
ATOM      1  C   UNL     1     -44.015 -27.161  -0.011  1.00  0.00     0.000 C 
ENDROOT
BRANCH   1   2
ATOM      2  C   UNL     1     -44.734 -26.443   1.146  1.00  0.00     0.000 C 
BRANCH   2   3
ATOM      3  C   UNL     1     -46.265 -26.549   1.048  1.00  0.00     0.000 C 
BRANCH   3   4
ATOM      4  C   UNL     1     -46.921 -26.893   2.397  1.00  0.00     0.000 C 
BRANCH   4   5
ATOM      5  C   UNL     1     -46.294 -28.130   3.059  1.00  0.00     0.000 C 
BRANCH   5   6
ATOM      6  C   UNL     1     -46.426 -28.116   4.590  1.00  0.00     0.006 C 
BRANCH   6   7
ATOM      7  C   UNL     1     -46.100 -26.731   5.155  1.00  0.00     0.053 C 
BRANCH   7   8
ATOM      8  C   UNL     1     -45.626 -26.840   6.570  1.00  0.00     0.041 C 
ATOM      9  O   UNL     1     -45.799 -25.885   7.372  1.00  0.00    -0.550 OA
ATOM     10  O   UNL     1     -44.948 -27.978   6.990  1.00  0.00    -0.550 OA
ENDBRANCH   7   8
ENDBRANCH   6   7
ENDBRANCH   5   6
ENDBRANCH   4   5
ENDBRANCH   3   4
ENDBRANCH   2   3
ENDBRANCH   1   2
BRANCH   1  11
ATOM     11  C   UNL     1     -44.219 -28.684   0.024  1.00  0.00     0.000 C 
BRANCH  11  12
ATOM     12  C   UNL     1     -44.818 -29.230  -1.284  1.00  0.00    -0.000 C 
BRANCH  12  13
ATOM     13  C   UNL     1     -45.274 -28.116  -2.243  1.00  0.00    -0.000 C 
BRANCH  13  14
ATOM     14  C   UNL     1     -46.374 -28.521  -3.247  1.00  0.00    -0.000 C 
BRANCH  14  15
ATOM     15  C   UNL     1     -46.299 -27.822  -4.617  1.00  0.00    -0.000 C 
BRANCH  15  16
ATOM     16  C   UNL     1     -45.182 -28.332  -5.546  1.00  0.00    -0.000 C 
BRANCH  16  17
ATOM     17  C   UNL     1     -45.049 -27.527  -6.857  1.00  0.00    -0.003 C 
ATOM     18  C   UNL     1     -43.680 -27.694  -7.515  1.00  0.00     0.004 C 
ENDBRANCH  16  17
ENDBRANCH  15  16
ENDBRANCH  14  15
ENDBRANCH  13  14
ENDBRANCH  12  13
ENDBRANCH  11  12
ENDBRANCH   1  11
TORSDOF 14
ENDMDL
MODEL 5
REMARK VINA RESULT:    -3.706      4.653      9.441
REMARK INTER + INTRA:          -7.648
REMARK INTER:                  -6.854
REMARK INTRA:                  -0.794
REMARK UNBOUND:                -0.909
REMARK SMILES CCCCCCCCCCCCCCCC(=O)[O-]
REMARK SMILES IDX 9 1 10 2 11 3 12 4 13 5 14 6 15 7 16 8 17 9 18 10 8 11 7 12
REMARK SMILES IDX 6 13 5 14 4 15 3 16 2 17 1 18
REMARK H PARENT
REMARK Flexibility Score: inf
ROOT
ATOM      1  C   UNL     1     -44.006 -28.993  -0.527  1.00  0.00     0.000 C 
ENDROOT
BRANCH   1   2
ATOM      2  C   UNL     1     -44.034 -27.456  -0.602  1.00  0.00     0.000 C 
BRANCH   2   3
ATOM      3  C   UNL     1     -44.428 -26.806   0.734  1.00  0.00     0.000 C 
BRANCH   3   4
ATOM      4  C   UNL     1     -45.888 -27.097   1.125  1.00  0.00     0.000 C 
BRANCH   4   5
ATOM      5  C   UNL     1     -46.279 -26.455   2.465  1.00  0.00     0.000 C 
BRANCH   5   6
ATOM      6  C   UNL     1     -46.390 -27.478   3.606  1.00  0.00     0.006 C 
BRANCH   6   7
ATOM      7  C   UNL     1     -46.730 -26.788   4.930  1.00  0.00     0.053 C 
BRANCH   7   8
ATOM      8  C   UNL     1     -45.719 -27.136   5.977  1.00  0.00     0.041 C 
ATOM      9  O   UNL     1     -45.315 -28.321   6.099  1.00  0.00    -0.550 OA
ATOM     10  O   UNL     1     -45.261 -26.159   6.852  1.00  0.00    -0.550 OA
ENDBRANCH   7   8
ENDBRANCH   6   7
ENDBRANCH   5   6
ENDBRANCH   4   5
ENDBRANCH   3   4
ENDBRANCH   2   3
ENDBRANCH   1   2
BRANCH   1  11
ATOM     11  C   UNL     1     -45.062 -29.647  -1.434  1.00  0.00     0.000 C 
BRANCH  11  12
ATOM     12  C   UNL     1     -45.852 -28.617  -2.260  1.00  0.00    -0.000 C 
BRANCH  12  13
ATOM     13  C   UNL     1     -45.661 -28.795  -3.777  1.00  0.00    -0.000 C 
BRANCH  13  14
ATOM     14  C   UNL     1     -45.371 -27.498  -4.560  1.00  0.00    -0.000 C 
BRANCH  14  15
ATOM     15  C   UNL     1     -45.821 -27.509  -6.033  1.00  0.00    -0.000 C 
BRANCH  15  16
ATOM     16  C   UNL     1     -44.679 -27.407  -7.061  1.00  0.00    -0.000 C 
BRANCH  16  17
ATOM     17  C   UNL     1     -43.980 -28.752  -7.350  1.00  0.00    -0.003 C 
ATOM     18  C   UNL     1     -42.545 -28.578  -7.846  1.00  0.00     0.004 C 
ENDBRANCH  16  17
ENDBRANCH  15  16
ENDBRANCH  14  15
ENDBRANCH  13  14
ENDBRANCH  12  13
ENDBRANCH  11  12
ENDBRANCH   1  11
TORSDOF 14
ENDMDL
MODEL 6
REMARK VINA RESULT:    -3.672      3.630      5.871
REMARK INTER + INTRA:          -7.586
REMARK INTER:                  -6.283
REMARK INTRA:                  -1.302
REMARK UNBOUND:                -0.909
REMARK SMILES CCCCCCCCCCCCCCCC(=O)[O-]
REMARK SMILES IDX 9 1 10 2 11 3 12 4 13 5 14 6 15 7 16 8 17 9 18 10 8 11 7 12
REMARK SMILES IDX 6 13 5 14 4 15 3 16 2 17 1 18
REMARK H PARENT
REMARK Flexibility Score: inf
ROOT
ATOM      1  C   UNL     1     -45.197 -27.435  -5.171  1.00  0.00     0.000 C 
ENDROOT
BRANCH   1   2
ATOM      2  C   UNL     1     -45.554 -27.127  -6.636  1.00  0.00     0.000 C 
BRANCH   2   3
ATOM      3  C   UNL     1     -46.654 -28.051  -7.184  1.00  0.00     0.000 C 
BRANCH   3   4
ATOM      4  C   UNL     1     -46.519 -28.297  -8.698  1.00  0.00     0.000 C 
BRANCH   4   5
ATOM      5  C   UNL     1     -45.054 -28.356  -9.157  1.00  0.00     0.000 C 
BRANCH   5   6
ATOM      6  C   UNL     1     -44.481 -29.782  -9.137  1.00  0.00     0.006 C 
BRANCH   6   7
ATOM      7  C   UNL     1     -43.562 -29.985  -7.929  1.00  0.00     0.053 C 
BRANCH   7   8
ATOM      8  C   UNL     1     -42.238 -29.328  -8.161  1.00  0.00     0.041 C 
ATOM      9  O   UNL     1     -41.432 -29.806  -9.002  1.00  0.00    -0.550 OA
ATOM     10  O   UNL     1     -41.873 -28.217  -7.412  1.00  0.00    -0.550 OA
ENDBRANCH   7   8
ENDBRANCH   6   7
ENDBRANCH   5   6
ENDBRANCH   4   5
ENDBRANCH   3   4
ENDBRANCH   2   3
ENDBRANCH   1   2
BRANCH   1  11
ATOM     11  C   UNL     1     -46.264 -28.293  -4.472  1.00  0.00     0.000 C 
BRANCH  11  12
ATOM     12  C   UNL     1     -45.668 -29.534  -3.784  1.00  0.00    -0.000 C 
BRANCH  12  13
ATOM     13  C   UNL     1     -45.846 -29.512  -2.255  1.00  0.00    -0.000 C 
BRANCH  13  14
ATOM     14  C   UNL     1     -46.080 -28.116  -1.640  1.00  0.00    -0.000 C 
BRANCH  14  15
ATOM     15  C   UNL     1     -45.154 -27.756  -0.463  1.00  0.00    -0.000 C 
BRANCH  15  16
ATOM     16  C   UNL     1     -43.676 -27.548  -0.840  1.00  0.00    -0.000 C 
BRANCH  16  17
ATOM     17  C   UNL     1     -42.729 -28.616  -0.253  1.00  0.00    -0.003 C 
ATOM     18  C   UNL     1     -41.262 -28.188  -0.286  1.00  0.00     0.004 C 
ENDBRANCH  16  17
ENDBRANCH  15  16
ENDBRANCH  14  15
ENDBRANCH  13  14
ENDBRANCH  12  13
ENDBRANCH  11  12
ENDBRANCH   1  11
TORSDOF 14
ENDMDL
MODEL 7
REMARK VINA RESULT:    -3.625      1.818      3.441
REMARK INTER + INTRA:          -7.501
REMARK INTER:                  -6.065
REMARK INTRA:                  -1.436
REMARK UNBOUND:                -0.909
REMARK SMILES CCCCCCCCCCCCCCCC(=O)[O-]
REMARK SMILES IDX 9 1 10 2 11 3 12 4 13 5 14 6 15 7 16 8 17 9 18 10 8 11 7 12
REMARK SMILES IDX 6 13 5 14 4 15 3 16 2 17 1 18
REMARK H PARENT
REMARK Flexibility Score: inf
ROOT
ATOM      1  C   UNL     1     -45.715 -29.982  -1.291  1.00  0.00     0.000 C 
ENDROOT
BRANCH   1   2
ATOM      2  C   UNL     1     -46.156 -29.666  -2.731  1.00  0.00     0.000 C 
BRANCH   2   3
ATOM      3  C   UNL     1     -45.876 -28.207  -3.129  1.00  0.00     0.000 C 
BRANCH   3   4
ATOM      4  C   UNL     1     -45.650 -28.042  -4.643  1.00  0.00     0.000 C 
BRANCH   4   5
ATOM      5  C   UNL     1     -45.641 -29.385  -5.389  1.00  0.00     0.000 C 
BRANCH   5   6
ATOM      6  C   UNL     1     -45.109 -29.265  -6.825  1.00  0.00     0.006 C 
BRANCH   6   7
ATOM      7  C   UNL     1     -44.306 -27.973  -7.005  1.00  0.00     0.053 C 
BRANCH   7   8
ATOM      8  C   UNL     1     -43.207 -28.173  -8.000  1.00  0.00     0.041 C 
ATOM      9  O   UNL     1     -43.451 -28.121  -9.234  1.00  0.00    -0.550 OA
ATOM     10  O   UNL     1     -41.921 -28.468  -7.565  1.00  0.00    -0.550 OA
ENDBRANCH   7   8
ENDBRANCH   6   7
ENDBRANCH   5   6
ENDBRANCH   4   5
ENDBRANCH   3   4
ENDBRANCH   2   3
ENDBRANCH   1   2
BRANCH   1  11
ATOM     11  C   UNL     1     -44.189 -30.125  -1.160  1.00  0.00     0.000 C 
BRANCH  11  12
ATOM     12  C   UNL     1     -43.611 -29.269  -0.020  1.00  0.00    -0.000 C 
BRANCH  12  13
ATOM     13  C   UNL     1     -43.350 -27.811  -0.441  1.00  0.00    -0.000 C 
BRANCH  13  14
ATOM     14  C   UNL     1     -44.048 -26.742   0.425  1.00  0.00    -0.000 C 
BRANCH  14  15
ATOM     15  C   UNL     1     -45.520 -27.038   0.770  1.00  0.00    -0.000 C 
BRANCH  15  16
ATOM     16  C   UNL     1     -46.018 -26.407   2.083  1.00  0.00    -0.000 C 
BRANCH  16  17
ATOM     17  C   UNL     1     -46.409 -27.442   3.160  1.00  0.00    -0.003 C 
ATOM     18  C   UNL     1     -46.181 -28.883   2.705  1.00  0.00     0.004 C 
ENDBRANCH  16  17
ENDBRANCH  15  16
ENDBRANCH  14  15
ENDBRANCH  13  14
ENDBRANCH  12  13
ENDBRANCH  11  12
ENDBRANCH   1  11
TORSDOF 14
ENDMDL
MODEL 8
REMARK VINA RESULT:    -3.403      4.020      9.124
REMARK INTER + INTRA:          -7.098
REMARK INTER:                  -5.702
REMARK INTRA:                  -1.395
REMARK UNBOUND:                -0.909
REMARK SMILES CCCCCCCCCCCCCCCC(=O)[O-]
REMARK SMILES IDX 9 1 10 2 11 3 12 4 13 5 14 6 15 7 16 8 17 9 18 10 8 11 7 12
REMARK SMILES IDX 6 13 5 14 4 15 3 16 2 17 1 18
REMARK H PARENT
REMARK Flexibility Score: inf
ROOT
ATOM      1  C   UNL     1     -45.598 -28.927  -4.907  1.00  0.00     0.000 C 
ENDROOT
BRANCH   1   2
ATOM      2  C   UNL     1     -46.478 -28.952  -3.644  1.00  0.00     0.000 C 
BRANCH   2   3
ATOM      3  C   UNL     1     -46.076 -30.067  -2.665  1.00  0.00     0.000 C 
BRANCH   3   4
ATOM      4  C   UNL     1     -46.646 -29.846  -1.252  1.00  0.00     0.000 C 
BRANCH   4   5
ATOM      5  C   UNL     1     -45.553 -29.541  -0.216  1.00  0.00     0.000 C 
BRANCH   5   6
ATOM      6  C   UNL     1     -44.135 -29.675  -0.791  1.00  0.00     0.006 C 
BRANCH   6   7
ATOM      7  C   UNL     1     -43.227 -28.553  -0.279  1.00  0.00     0.053 C 
BRANCH   7   8
ATOM      8  C   UNL     1     -43.845 -27.216  -0.545  1.00  0.00     0.041 C 
ATOM      9  O   UNL     1     -43.913 -26.773  -1.721  1.00  0.00    -0.550 OA
ATOM     10  O   UNL     1     -44.300 -26.438   0.511  1.00  0.00    -0.550 OA
ENDBRANCH   7   8
ENDBRANCH   6   7
ENDBRANCH   5   6
ENDBRANCH   4   5
ENDBRANCH   3   4
ENDBRANCH   2   3
ENDBRANCH   1   2
BRANCH   1  11
ATOM     11  C   UNL     1     -45.392 -27.506  -5.455  1.00  0.00     0.000 C 
BRANCH  11  12
ATOM     12  C   UNL     1     -46.356 -27.171  -6.607  1.00  0.00    -0.000 C 
BRANCH  12  13
ATOM     13  C   UNL     1     -46.683 -28.391  -7.485  1.00  0.00    -0.000 C 
BRANCH  13  14
ATOM     14  C   UNL     1     -46.318 -28.245  -8.977  1.00  0.00    -0.000 C 
BRANCH  14  15
ATOM     15  C   UNL     1     -44.860 -27.834  -9.257  1.00  0.00    -0.000 C 
BRANCH  15  16
ATOM     16  C   UNL     1     -43.938 -28.980  -9.711  1.00  0.00    -0.000 C 
BRANCH  16  17
ATOM     17  C   UNL     1     -42.904 -29.405  -8.646  1.00  0.00    -0.003 C 
ATOM     18  C   UNL     1     -42.576 -28.284  -7.660  1.00  0.00     0.004 C 
ENDBRANCH  16  17
ENDBRANCH  15  16
ENDBRANCH  14  15
ENDBRANCH  13  14
ENDBRANCH  12  13
ENDBRANCH  11  12
ENDBRANCH   1  11
TORSDOF 14
ENDMDL
MODEL 9
REMARK VINA RESULT:    -3.376      3.776      9.430
REMARK INTER + INTRA:          -7.047
REMARK INTER:                  -5.730
REMARK INTRA:                  -1.318
REMARK UNBOUND:                -0.909
REMARK SMILES CCCCCCCCCCCCCCCC(=O)[O-]
REMARK SMILES IDX 9 1 10 2 11 3 12 4 13 5 14 6 15 7 16 8 17 9 18 10 8 11 7 12
REMARK SMILES IDX 6 13 5 14 4 15 3 16 2 17 1 18
REMARK H PARENT
REMARK Flexibility Score: inf
ROOT
ATOM      1  C   UNL     1     -45.649 -27.668  -5.042  1.00  0.00     0.000 C 
ENDROOT
BRANCH   1   2
ATOM      2  C   UNL     1     -45.529 -28.766  -3.970  1.00  0.00     0.000 C 
BRANCH   2   3
ATOM      3  C   UNL     1     -46.765 -28.840  -3.058  1.00  0.00     0.000 C 
BRANCH   3   4
ATOM      4  C   UNL     1     -46.429 -28.556  -1.583  1.00  0.00     0.000 C 
BRANCH   4   5
ATOM      5  C   UNL     1     -45.079 -27.843  -1.413  1.00  0.00     0.000 C 
BRANCH   5   6
ATOM      6  C   UNL     1     -44.662 -27.701   0.059  1.00  0.00     0.006 C 
BRANCH   6   7
ATOM      7  C   UNL     1     -45.890 -27.599   0.968  1.00  0.00     0.053 C 
BRANCH   7   8
ATOM      8  C   UNL     1     -45.781 -26.408   1.866  1.00  0.00     0.041 C 
ATOM      9  O   UNL     1     -46.054 -26.510   3.091  1.00  0.00    -0.550 OA
ATOM     10  O   UNL     1     -45.426 -25.172   1.341  1.00  0.00    -0.550 OA
ENDBRANCH   7   8
ENDBRANCH   6   7
ENDBRANCH   5   6
ENDBRANCH   4   5
ENDBRANCH   3   4
ENDBRANCH   2   3
ENDBRANCH   1   2
BRANCH   1  11
ATOM     11  C   UNL     1     -47.071 -27.555  -5.614  1.00  0.00     0.000 C 
BRANCH  11  12
ATOM     12  C   UNL     1     -47.083 -27.448  -7.149  1.00  0.00    -0.000 C 
BRANCH  12  13
ATOM     13  C   UNL     1     -46.542 -28.712  -7.840  1.00  0.00    -0.000 C 
BRANCH  13  14
ATOM     14  C   UNL     1     -46.033 -28.507  -9.282  1.00  0.00    -0.000 C 
BRANCH  14  15
ATOM     15  C   UNL     1     -44.507 -28.623  -9.460  1.00  0.00    -0.000 C 
BRANCH  15  16
ATOM     16  C   UNL     1     -43.673 -27.767  -8.489  1.00  0.00    -0.000 C 
BRANCH  16  17
ATOM     17  C   UNL     1     -42.569 -28.558  -7.755  1.00  0.00    -0.003 C 
ATOM     18  C   UNL     1     -43.013 -29.967  -7.362  1.00  0.00     0.004 C 
ENDBRANCH  16  17
ENDBRANCH  15  16
ENDBRANCH  14  15
ENDBRANCH  13  14
ENDBRANCH  12  13
ENDBRANCH  11  12
ENDBRANCH   1  11
TORSDOF 14
ENDMDL
