MODEL 1
REMARK VINA RESULT:    -4.857      0.000      0.000
REMARK INTER + INTRA:          -5.979
REMARK INTER:                  -5.851
REMARK INTRA:                  -0.128
REMARK UNBOUND:                -0.128
REMARK SMILES CC[C@@H](C)[C@H]([NH3+])C(=O)[O-]
REMARK SMILES IDX 3 1 4 2 5 3 6 4 7 8 8 9 9 10 2 11 1 12
REMARK H PARENT 6 5 6 6 6 7
REMARK Flexibility Score: inf
ROOT
ATOM      1  C   UNL     1     -19.487  22.824 -19.566  1.00  0.00     0.050 C 
ATOM      2  C   UNL     1     -18.350  21.806 -19.771  1.00  0.00     0.014 C 
ENDROOT
BRANCH   1   3
ATOM      3  C   UNL     1     -19.745  23.675 -20.851  1.00  0.00     0.230 C 
BRANCH   3   4
ATOM      4  N   UNL     1     -18.752  23.388 -21.897  1.00  0.00    -0.350 N 
ATOM      5  H   UNL     1     -18.970  22.473 -22.357  1.00  0.00     0.345 HD
ATOM      6  H   UNL     1     -18.751  24.141 -22.624  1.00  0.00     0.345 HD
ATOM      7  H   UNL     1     -17.798  23.304 -21.479  1.00  0.00     0.345 HD
ENDBRANCH   3   4
BRANCH   3   8
ATOM      8  C   UNL     1     -19.723  25.149 -20.534  1.00  0.00     0.099 C 
ATOM      9  O   UNL     1     -20.407  25.954 -21.219  1.00  0.00    -0.544 OA
ATOM     10  O   UNL     1     -18.947  25.628 -19.486  1.00  0.00    -0.544 OA
ENDBRANCH   3   8
ENDBRANCH   1   3
BRANCH   1  11
ATOM     11  C   UNL     1     -20.762  22.121 -19.026  1.00  0.00     0.006 C 
ATOM     12  C   UNL     1     -21.963  22.165 -19.975  1.00  0.00     0.004 C 
ENDBRANCH   1  11
TORSDOF 4
ENDMDL
MODEL 2
REMARK VINA RESULT:    -4.323      1.551      2.503
REMARK INTER + INTRA:          -5.335
REMARK INTER:                  -5.218
REMARK INTRA:                  -0.118
REMARK UNBOUND:                -0.128
REMARK SMILES CC[C@@H](C)[C@H]([NH3+])C(=O)[O-]
REMARK SMILES IDX 3 1 4 2 5 3 6 4 7 8 8 9 9 10 2 11 1 12
REMARK H PARENT 6 5 6 6 6 7
REMARK Flexibility Score: inf
ROOT
ATOM      1  C   UNL     1     -19.599  22.731 -20.992  1.00  0.00     0.050 C 
ATOM      2  C   UNL     1     -20.764  21.756 -20.738  1.00  0.00     0.014 C 
ENDROOT
BRANCH   1   3
ATOM      3  C   UNL     1     -19.358  23.680 -19.774  1.00  0.00     0.230 C 
BRANCH   3   4
ATOM      4  N   UNL     1     -20.288  23.391 -18.672  1.00  0.00    -0.350 N 
ATOM      5  H   UNL     1     -20.637  24.284 -18.253  1.00  0.00     0.345 HD
ATOM      6  H   UNL     1     -21.106  22.834 -19.013  1.00  0.00     0.345 HD
ATOM      7  H   UNL     1     -19.800  22.864 -17.913  1.00  0.00     0.345 HD
ENDBRANCH   3   4
BRANCH   3   8
ATOM      8  C   UNL     1     -19.504  25.125 -20.180  1.00  0.00     0.099 C 
ATOM      9  O   UNL     1     -20.300  25.447 -21.101  1.00  0.00    -0.544 OA
ATOM     10  O   UNL     1     -18.760  26.109 -19.542  1.00  0.00    -0.544 OA
ENDBRANCH   3   8
ENDBRANCH   1   3
BRANCH   1  11
ATOM     11  C   UNL     1     -18.325  21.960 -21.433  1.00  0.00     0.006 C 
ATOM     12  C   UNL     1     -17.443  21.474 -20.278  1.00  0.00     0.004 C 
ENDBRANCH   1  11
TORSDOF 4
ENDMDL
MODEL 3
REMARK VINA RESULT:    -4.220      2.900      3.836
REMARK INTER + INTRA:          -5.212
REMARK INTER:                  -5.122
REMARK INTRA:                  -0.090
REMARK UNBOUND:                -0.128
REMARK SMILES CC[C@@H](C)[C@H]([NH3+])C(=O)[O-]
REMARK SMILES IDX 3 1 4 2 5 3 6 4 7 8 8 9 9 10 2 11 1 12
REMARK H PARENT 6 5 6 6 6 7
REMARK Flexibility Score: inf
ROOT
ATOM      1  C   UNL     1     -19.696  22.744 -19.415  1.00  0.00     0.050 C 
ATOM      2  C   UNL     1     -19.690  24.233 -19.810  1.00  0.00     0.014 C 
ENDROOT
BRANCH   1   3
ATOM      3  C   UNL     1     -21.060  22.059 -19.748  1.00  0.00     0.230 C 
BRANCH   3   4
ATOM      4  N   UNL     1     -21.838  22.846 -20.717  1.00  0.00    -0.350 N 
ATOM      5  H   UNL     1     -22.781  23.071 -20.322  1.00  0.00     0.345 HD
ATOM      6  H   UNL     1     -21.346  23.741 -20.948  1.00  0.00     0.345 HD
ATOM      7  H   UNL     1     -21.992  22.297 -21.592  1.00  0.00     0.345 HD
ENDBRANCH   3   4
BRANCH   3   8
ATOM      8  C   UNL     1     -21.881  21.856 -18.500  1.00  0.00     0.099 C 
ATOM      9  O   UNL     1     -21.349  21.382 -17.461  1.00  0.00    -0.544 OA
ATOM     10  O   UNL     1     -23.229  22.191 -18.486  1.00  0.00    -0.544 OA
ENDBRANCH   3   8
ENDBRANCH   1   3
BRANCH   1  11
ATOM     11  C   UNL     1     -18.472  22.009 -20.026  1.00  0.00     0.006 C 
ATOM     12  C   UNL     1     -18.436  21.996 -21.557  1.00  0.00     0.004 C 
ENDBRANCH   1  11
TORSDOF 4
ENDMDL
MODEL 4
REMARK VINA RESULT:    -4.167      2.564      3.636
REMARK INTER + INTRA:          -5.147
REMARK INTER:                  -5.019
REMARK INTRA:                  -0.129
REMARK UNBOUND:                -0.128
REMARK SMILES CC[C@@H](C)[C@H]([NH3+])C(=O)[O-]
REMARK SMILES IDX 3 1 4 2 5 3 6 4 7 8 8 9 9 10 2 11 1 12
REMARK H PARENT 6 5 6 6 6 7
REMARK Flexibility Score: inf
ROOT
ATOM      1  C   UNL     1     -19.902  23.305 -20.850  1.00  0.00     0.050 C 
ATOM      2  C   UNL     1     -18.778  22.709 -21.718  1.00  0.00     0.014 C 
ENDROOT
BRANCH   1   3
ATOM      3  C   UNL     1     -19.902  22.708 -19.406  1.00  0.00     0.230 C 
BRANCH   3   4
ATOM      4  N   UNL     1     -18.858  21.684 -19.246  1.00  0.00    -0.350 N 
ATOM      5  H   UNL     1     -19.281  20.729 -19.309  1.00  0.00     0.345 HD
ATOM      6  H   UNL     1     -18.127  21.780 -19.988  1.00  0.00     0.345 HD
ATOM      7  H   UNL     1     -18.413  21.763 -18.304  1.00  0.00     0.345 HD
ENDBRANCH   3   4
BRANCH   3   8
ATOM      8  C   UNL     1     -21.243  22.108 -19.071  1.00  0.00     0.099 C 
ATOM      9  O   UNL     1     -21.448  21.609 -17.933  1.00  0.00    -0.544 OA
ATOM     10  O   UNL     1     -22.263  22.100 -20.015  1.00  0.00    -0.544 OA
ENDBRANCH   3   8
ENDBRANCH   1   3
BRANCH   1  11
ATOM     11  C   UNL     1     -19.850  24.857 -20.875  1.00  0.00     0.006 C 
ATOM     12  C   UNL     1     -19.112  25.488 -19.691  1.00  0.00     0.004 C 
ENDBRANCH   1  11
TORSDOF 4
ENDMDL
MODEL 5
REMARK VINA RESULT:    -4.158      2.217      3.698
REMARK INTER + INTRA:          -5.137
REMARK INTER:                  -5.048
REMARK INTRA:                  -0.089
REMARK UNBOUND:                -0.128
REMARK SMILES CC[C@@H](C)[C@H]([NH3+])C(=O)[O-]
REMARK SMILES IDX 3 1 4 2 5 3 6 4 7 8 8 9 9 10 2 11 1 12
REMARK H PARENT 6 5 6 6 6 7
REMARK Flexibility Score: inf
ROOT
ATOM      1  C   UNL     1     -19.796  24.943 -20.115  1.00  0.00     0.050 C 
ATOM      2  C   UNL     1     -20.374  25.526 -21.417  1.00  0.00     0.014 C 
ENDROOT
BRANCH   1   3
ATOM      3  C   UNL     1     -19.202  23.513 -20.330  1.00  0.00     0.230 C 
BRANCH   3   4
ATOM      4  N   UNL     1     -18.828  23.290 -21.735  1.00  0.00    -0.350 N 
ATOM      5  H   UNL     1     -19.532  23.737 -22.369  1.00  0.00     0.345 HD
ATOM      6  H   UNL     1     -17.885  23.695 -21.937  1.00  0.00     0.345 HD
ATOM      7  H   UNL     1     -18.823  22.268 -21.952  1.00  0.00     0.345 HD
ENDBRANCH   3   4
BRANCH   3   8
ATOM      8  C   UNL     1     -20.183  22.452 -19.902  1.00  0.00     0.099 C 
ATOM      9  O   UNL     1     -20.656  21.648 -20.748  1.00  0.00    -0.544 OA
ATOM     10  O   UNL     1     -20.572  22.354 -18.572  1.00  0.00    -0.544 OA
ENDBRANCH   3   8
ENDBRANCH   1   3
BRANCH   1  11
ATOM     11  C   UNL     1     -18.792  25.935 -19.466  1.00  0.00     0.006 C 
ATOM     12  C   UNL     1     -18.122  26.897 -20.452  1.00  0.00     0.004 C 
ENDBRANCH   1  11
TORSDOF 4
ENDMDL
MODEL 6
REMARK VINA RESULT:    -4.062      2.287      2.859
REMARK INTER + INTRA:          -5.022
REMARK INTER:                  -4.961
REMARK INTRA:                  -0.061
REMARK UNBOUND:                -0.128
REMARK SMILES CC[C@@H](C)[C@H]([NH3+])C(=O)[O-]
REMARK SMILES IDX 3 1 4 2 5 3 6 4 7 8 8 9 9 10 2 11 1 12
REMARK H PARENT 6 5 6 6 6 7
REMARK Flexibility Score: inf
ROOT
ATOM      1  C   UNL     1     -20.941  22.034 -19.726  1.00  0.00     0.050 C 
ATOM      2  C   UNL     1     -22.245  22.412 -20.453  1.00  0.00     0.014 C 
ENDROOT
BRANCH   1   3
ATOM      3  C   UNL     1     -19.784  23.034 -20.048  1.00  0.00     0.230 C 
BRANCH   3   4
ATOM      4  N   UNL     1     -20.252  24.149 -20.885  1.00  0.00    -0.350 N 
ATOM      5  H   UNL     1     -20.959  23.806 -21.577  1.00  0.00     0.345 HD
ATOM      6  H   UNL     1     -20.687  24.897 -20.298  1.00  0.00     0.345 HD
ATOM      7  H   UNL     1     -19.457  24.552 -21.431  1.00  0.00     0.345 HD
ENDBRANCH   3   4
BRANCH   3   8
ATOM      8  C   UNL     1     -18.645  22.333 -20.744  1.00  0.00     0.099 C 
ATOM      9  O   UNL     1     -18.607  22.281 -22.002  1.00  0.00    -0.544 OA
ATOM     10  O   UNL     1     -17.631  21.740 -20.003  1.00  0.00    -0.544 OA
ENDBRANCH   3   8
ENDBRANCH   1   3
BRANCH   1  11
ATOM     11  C   UNL     1     -21.194  21.854 -18.204  1.00  0.00     0.006 C 
ATOM     12  C   UNL     1     -22.672  21.769 -17.810  1.00  0.00     0.004 C 
ENDBRANCH   1  11
TORSDOF 4
ENDMDL
MODEL 7
REMARK VINA RESULT:    -3.769     13.681     15.420
REMARK INTER + INTRA:          -4.669
REMARK INTER:                  -4.606
REMARK INTRA:                  -0.063
REMARK UNBOUND:                -0.128
REMARK SMILES CC[C@@H](C)[C@H]([NH3+])C(=O)[O-]
REMARK SMILES IDX 3 1 4 2 5 3 6 4 7 8 8 9 9 10 2 11 1 12
REMARK H PARENT 6 5 6 6 6 7
REMARK Flexibility Score: inf
ROOT
ATOM      1  C   UNL     1     -18.561  37.169 -27.866  1.00  0.00     0.050 C 
ATOM      2  C   UNL     1     -18.730  36.900 -29.373  1.00  0.00     0.014 C 
ENDROOT
BRANCH   1   3
ATOM      3  C   UNL     1     -17.255  36.523 -27.302  1.00  0.00     0.230 C 
BRANCH   3   4
ATOM      4  N   UNL     1     -16.593  35.679 -28.307  1.00  0.00    -0.350 N 
ATOM      5  H   UNL     1     -17.127  34.788 -28.435  1.00  0.00     0.345 HD
ATOM      6  H   UNL     1     -16.534  36.174 -29.227  1.00  0.00     0.345 HD
ATOM      7  H   UNL     1     -15.632  35.419 -27.988  1.00  0.00     0.345 HD
ENDBRANCH   3   4
BRANCH   3   8
ATOM      8  C   UNL     1     -17.548  35.698 -26.075  1.00  0.00     0.099 C 
ATOM      9  O   UNL     1     -18.454  34.824 -26.100  1.00  0.00    -0.544 OA
ATOM     10  O   UNL     1     -16.822  35.897 -24.907  1.00  0.00    -0.544 OA
ENDBRANCH   3   8
ENDBRANCH   1   3
BRANCH   1  11
ATOM     11  C   UNL     1     -18.678  38.688 -27.563  1.00  0.00     0.006 C 
ATOM     12  C   UNL     1     -18.872  39.571 -28.799  1.00  0.00     0.004 C 
ENDBRANCH   1  11
TORSDOF 4
ENDMDL
MODEL 8
REMARK VINA RESULT:    -3.696      1.144      2.074
REMARK INTER + INTRA:          -4.581
REMARK INTER:                  -4.690
REMARK INTRA:                   0.109
REMARK UNBOUND:                -0.128
REMARK SMILES CC[C@@H](C)[C@H]([NH3+])C(=O)[O-]
REMARK SMILES IDX 3 1 4 2 5 3 6 4 7 8 8 9 9 10 2 11 1 12
REMARK H PARENT 6 5 6 6 6 7
REMARK Flexibility Score: inf
ROOT
ATOM      1  C   UNL     1     -20.682  22.073 -20.088  1.00  0.00     0.050 C 
ATOM      2  C   UNL     1     -22.086  22.475 -20.576  1.00  0.00     0.014 C 
ENDROOT
BRANCH   1   3
ATOM      3  C   UNL     1     -19.562  22.920 -20.774  1.00  0.00     0.230 C 
BRANCH   3   4
ATOM      4  N   UNL     1     -18.221  22.459 -20.384  1.00  0.00    -0.350 N 
ATOM      5  H   UNL     1     -17.606  22.390 -21.228  1.00  0.00     0.345 HD
ATOM      6  H   UNL     1     -17.785  23.122 -19.701  1.00  0.00     0.345 HD
ATOM      7  H   UNL     1     -18.273  21.506 -19.961  1.00  0.00     0.345 HD
ENDBRANCH   3   4
BRANCH   3   8
ATOM      8  C   UNL     1     -19.705  24.381 -20.432  1.00  0.00     0.099 C 
ATOM      9  O   UNL     1     -19.180  24.841 -19.383  1.00  0.00    -0.544 OA
ATOM     10  O   UNL     1     -20.417  25.230 -21.270  1.00  0.00    -0.544 OA
ENDBRANCH   3   8
ENDBRANCH   1   3
BRANCH   1  11
ATOM     11  C   UNL     1     -20.611  22.100 -18.537  1.00  0.00     0.006 C 
ATOM     12  C   UNL     1     -21.886  21.626 -17.833  1.00  0.00     0.004 C 
ENDBRANCH   1  11
TORSDOF 4
ENDMDL
MODEL 9
REMARK VINA RESULT:    -3.574     14.391     15.685
REMARK INTER + INTRA:          -4.433
REMARK INTER:                  -4.351
REMARK INTRA:                  -0.082
REMARK UNBOUND:                -0.128
REMARK SMILES CC[C@@H](C)[C@H]([NH3+])C(=O)[O-]
REMARK SMILES IDX 3 1 4 2 5 3 6 4 7 8 8 9 9 10 2 11 1 12
REMARK H PARENT 6 5 6 6 6 7
REMARK Flexibility Score: inf
ROOT
ATOM      1  C   UNL     1     -18.235  37.062 -27.885  1.00  0.00     0.050 C 
ATOM      2  C   UNL     1     -19.108  36.085 -27.076  1.00  0.00     0.014 C 
ENDROOT
BRANCH   1   3
ATOM      3  C   UNL     1     -16.717  36.702 -27.790  1.00  0.00     0.230 C 
BRANCH   3   4
ATOM      4  N   UNL     1     -16.500  35.250 -27.875  1.00  0.00    -0.350 N 
ATOM      5  H   UNL     1     -16.864  34.886 -28.787  1.00  0.00     0.345 HD
ATOM      6  H   UNL     1     -15.481  35.022 -27.802  1.00  0.00     0.345 HD
ATOM      7  H   UNL     1     -17.023  34.759 -27.116  1.00  0.00     0.345 HD
ENDBRANCH   3   4
BRANCH   3   8
ATOM      8  C   UNL     1     -16.121  37.219 -26.505  1.00  0.00     0.099 C 
ATOM      9  O   UNL     1     -16.310  38.414 -26.154  1.00  0.00    -0.544 OA
ATOM     10  O   UNL     1     -15.358  36.382 -25.701  1.00  0.00    -0.544 OA
ENDBRANCH   3   8
ENDBRANCH   1   3
BRANCH   1  11
ATOM     11  C   UNL     1     -18.750  37.176 -29.346  1.00  0.00     0.006 C 
ATOM     12  C   UNL     1     -18.750  38.600 -29.911  1.00  0.00     0.004 C 
ENDBRANCH   1  11
TORSDOF 4
ENDMDL
