MODEL 1
REMARK VINA RESULT:    -5.995      0.000      0.000
REMARK INTER + INTRA:          -6.170
REMARK INTER:                  -6.170
REMARK INTRA:                   0.000
REMARK UNBOUND:                 0.000
REMARK SMILES Cc1cccc(O)c1C
REMARK SMILES IDX 1 1 2 2 8 3 6 4 5 5 4 6 3 7 9 8 7 9
REMARK H PARENT 7 10
REMARK Flexibility Score: inf
ROOT
ATOM      1  C   UNL     1     375.019 240.219 276.723  1.00  0.00     0.045 C 
ATOM      2  C   UNL     1     374.132 241.394 276.407  1.00  0.00    -0.045 A 
ATOM      3  C   UNL     1     372.896 241.244 275.717  1.00  0.00    -0.006 A 
ATOM      4  C   UNL     1     372.111 242.395 275.453  1.00  0.00     0.118 A 
ATOM      5  C   UNL     1     372.551 243.653 275.868  1.00  0.00     0.046 A 
ATOM      6  C   UNL     1     373.761 243.794 276.542  1.00  0.00     0.004 A 
ATOM      7  C   UNL     1     374.546 242.675 276.811  1.00  0.00     0.004 A 
ATOM      8  C   UNL     1     372.400 239.891 275.258  1.00  0.00     0.048 C 
ENDROOT
BRANCH   4   9
ATOM      9  O   UNL     1     370.888 242.322 274.780  1.00  0.00    -0.508 OA
ATOM     10  H   UNL     1     370.015 242.650 275.172  1.00  0.00     0.293 HD
ENDBRANCH   4   9
TORSDOF 1
ENDMDL
MODEL 2
REMARK VINA RESULT:    -5.460      1.124      2.585
REMARK INTER + INTRA:          -5.620
REMARK INTER:                  -5.620
REMARK INTRA:                   0.000
REMARK UNBOUND:                 0.000
REMARK SMILES Cc1cccc(O)c1C
REMARK SMILES IDX 1 1 2 2 8 3 6 4 5 5 4 6 3 7 9 8 7 9
REMARK H PARENT 7 10
REMARK Flexibility Score: inf
ROOT
ATOM      1  C   UNL     1     375.056 240.497 276.644  1.00  0.00     0.045 C 
ATOM      2  C   UNL     1     373.715 241.036 276.219  1.00  0.00    -0.045 A 
ATOM      3  C   UNL     1     373.397 242.421 276.299  1.00  0.00    -0.006 A 
ATOM      4  C   UNL     1     372.115 242.858 275.881  1.00  0.00     0.118 A 
ATOM      5  C   UNL     1     371.183 241.936 275.399  1.00  0.00     0.046 A 
ATOM      6  C   UNL     1     371.499 240.582 275.324  1.00  0.00     0.004 A 
ATOM      7  C   UNL     1     372.754 240.134 275.729  1.00  0.00     0.004 A 
ATOM      8  C   UNL     1     374.391 243.437 276.817  1.00  0.00     0.048 C 
ENDROOT
BRANCH   4   9
ATOM      9  O   UNL     1     371.734 244.202 275.931  1.00  0.00    -0.508 OA
ATOM     10  H   UNL     1     371.949 244.814 276.707  1.00  0.00     0.293 HD
ENDBRANCH   4   9
TORSDOF 1
ENDMDL
MODEL 3
REMARK VINA RESULT:    -5.273      1.009      2.713
REMARK INTER + INTRA:          -5.427
REMARK INTER:                  -5.427
REMARK INTRA:                   0.000
REMARK UNBOUND:                 0.000
REMARK SMILES Cc1cccc(O)c1C
REMARK SMILES IDX 1 1 2 2 8 3 6 4 5 5 4 6 3 7 9 8 7 9
REMARK H PARENT 7 10
REMARK Flexibility Score: inf
ROOT
ATOM      1  C   UNL     1     374.407 244.253 276.901  1.00  0.00     0.045 C 
ATOM      2  C   UNL     1     373.825 242.900 276.585  1.00  0.00    -0.045 A 
ATOM      3  C   UNL     1     372.443 242.720 276.296  1.00  0.00    -0.006 A 
ATOM      4  C   UNL     1     371.963 241.417 276.007  1.00  0.00     0.118 A 
ATOM      5  C   UNL     1     372.842 240.332 276.006  1.00  0.00     0.046 A 
ATOM      6  C   UNL     1     374.193 240.514 276.289  1.00  0.00     0.004 A 
ATOM      7  C   UNL     1     374.683 241.786 276.575  1.00  0.00     0.004 A 
ATOM      8  C   UNL     1     371.474 243.881 276.291  1.00  0.00     0.048 C 
ENDROOT
BRANCH   4   9
ATOM      9  O   UNL     1     370.619 241.167 275.715  1.00  0.00    -0.508 OA
ATOM     10  H   UNL     1     370.269 240.262 275.433  1.00  0.00     0.293 HD
ENDBRANCH   4   9
TORSDOF 1
ENDMDL
MODEL 4
REMARK VINA RESULT:    -5.051      1.450      2.641
REMARK INTER + INTRA:          -5.199
REMARK INTER:                  -5.199
REMARK INTRA:                   0.000
REMARK UNBOUND:                 0.000
REMARK SMILES Cc1cccc(O)c1C
REMARK SMILES IDX 1 1 2 2 8 3 6 4 5 5 4 6 3 7 9 8 7 9
REMARK H PARENT 7 10
REMARK Flexibility Score: inf
ROOT
ATOM      1  C   UNL     1     374.273 244.060 276.818  1.00  0.00     0.045 C 
ATOM      2  C   UNL     1     372.999 243.307 276.536  1.00  0.00    -0.045 A 
ATOM      3  C   UNL     1     372.990 241.907 276.280  1.00  0.00    -0.006 A 
ATOM      4  C   UNL     1     371.753 241.263 276.023  1.00  0.00     0.118 A 
ATOM      5  C   UNL     1     370.566 241.999 276.022  1.00  0.00     0.046 A 
ATOM      6  C   UNL     1     370.582 243.369 276.272  1.00  0.00     0.004 A 
ATOM      7  C   UNL     1     371.787 244.019 276.528  1.00  0.00     0.004 A 
ATOM      8  C   UNL     1     374.263 241.090 276.276  1.00  0.00     0.048 C 
ENDROOT
BRANCH   4   9
ATOM      9  O   UNL     1     371.668 239.891 275.763  1.00  0.00    -0.508 OA
ATOM     10  H   UNL     1     371.055 239.265 276.268  1.00  0.00     0.293 HD
ENDBRANCH   4   9
TORSDOF 1
ENDMDL
MODEL 5
REMARK VINA RESULT:    -4.884      1.711      2.893
REMARK INTER + INTRA:          -5.027
REMARK INTER:                  -5.027
REMARK INTRA:                   0.000
REMARK UNBOUND:                 0.000
REMARK SMILES Cc1cccc(O)c1C
REMARK SMILES IDX 1 1 2 2 8 3 6 4 5 5 4 6 3 7 9 8 7 9
REMARK H PARENT 7 10
REMARK Flexibility Score: inf
ROOT
ATOM      1  C   UNL     1     370.107 242.376 275.553  1.00  0.00     0.045 C 
ATOM      2  C   UNL     1     371.561 242.498 275.930  1.00  0.00    -0.045 A 
ATOM      3  C   UNL     1     372.436 241.376 275.939  1.00  0.00    -0.006 A 
ATOM      4  C   UNL     1     373.793 241.564 276.303  1.00  0.00     0.118 A 
ATOM      5  C   UNL     1     374.256 242.837 276.646  1.00  0.00     0.046 A 
ATOM      6  C   UNL     1     373.395 243.931 276.636  1.00  0.00     0.004 A 
ATOM      7  C   UNL     1     372.059 243.765 276.280  1.00  0.00     0.004 A 
ATOM      8  C   UNL     1     371.956 239.990 275.571  1.00  0.00     0.048 C 
ENDROOT
BRANCH   4   9
ATOM      9  O   UNL     1     374.708 240.508 276.335  1.00  0.00    -0.508 OA
ATOM     10  H   UNL     1     375.497 240.472 276.966  1.00  0.00     0.293 HD
ENDBRANCH   4   9
TORSDOF 1
ENDMDL
MODEL 6
REMARK VINA RESULT:    -4.867      1.909      3.272
REMARK INTER + INTRA:          -5.009
REMARK INTER:                  -5.009
REMARK INTRA:                   0.000
REMARK UNBOUND:                 0.000
REMARK SMILES Cc1cccc(O)c1C
REMARK SMILES IDX 1 1 2 2 8 3 6 4 5 5 4 6 3 7 9 8 7 9
REMARK H PARENT 7 10
REMARK Flexibility Score: inf
ROOT
ATOM      1  C   UNL     1     369.740 244.364 277.716  1.00  0.00     0.045 C 
ATOM      2  C   UNL     1     370.875 243.720 276.964  1.00  0.00    -0.045 A 
ATOM      3  C   UNL     1     370.681 242.583 276.131  1.00  0.00    -0.006 A 
ATOM      4  C   UNL     1     371.796 242.028 275.453  1.00  0.00     0.118 A 
ATOM      5  C   UNL     1     373.063 242.597 275.605  1.00  0.00     0.046 A 
ATOM      6  C   UNL     1     373.246 243.710 276.421  1.00  0.00     0.004 A 
ATOM      7  C   UNL     1     372.163 244.269 277.095  1.00  0.00     0.004 A 
ATOM      8  C   UNL     1     369.319 241.951 275.952  1.00  0.00     0.048 C 
ENDROOT
BRANCH   4   9
ATOM      9  O   UNL     1     371.680 240.912 274.619  1.00  0.00    -0.508 OA
ATOM     10  H   UNL     1     370.803 240.444 274.432  1.00  0.00     0.293 HD
ENDBRANCH   4   9
TORSDOF 1
ENDMDL
MODEL 7
REMARK VINA RESULT:    -4.858      2.286      3.231
REMARK INTER + INTRA:          -5.000
REMARK INTER:                  -5.000
REMARK INTRA:                   0.000
REMARK UNBOUND:                 0.000
REMARK SMILES Cc1cccc(O)c1C
REMARK SMILES IDX 1 1 2 2 8 3 6 4 5 5 4 6 3 7 9 8 7 9
REMARK H PARENT 7 10
REMARK Flexibility Score: inf
ROOT
ATOM      1  C   UNL     1     373.130 244.002 275.875  1.00  0.00     0.045 C 
ATOM      2  C   UNL     1     371.844 243.548 276.515  1.00  0.00    -0.045 A 
ATOM      3  C   UNL     1     371.222 242.316 276.170  1.00  0.00    -0.006 A 
ATOM      4  C   UNL     1     370.013 241.951 276.814  1.00  0.00     0.118 A 
ATOM      5  C   UNL     1     369.447 242.796 277.772  1.00  0.00     0.046 A 
ATOM      6  C   UNL     1     370.060 244.000 278.105  1.00  0.00     0.004 A 
ATOM      7  C   UNL     1     371.249 244.375 277.484  1.00  0.00     0.004 A 
ATOM      8  C   UNL     1     371.817 241.386 275.136  1.00  0.00     0.048 C 
ENDROOT
BRANCH   4   9
ATOM      9  O   UNL     1     369.346 240.756 276.525  1.00  0.00    -0.508 OA
ATOM     10  H   UNL     1     368.357 240.704 276.323  1.00  0.00     0.293 HD
ENDBRANCH   4   9
TORSDOF 1
ENDMDL
MODEL 8
REMARK VINA RESULT:    -4.828      4.708      6.060
REMARK INTER + INTRA:          -4.970
REMARK INTER:                  -4.970
REMARK INTRA:                   0.000
REMARK UNBOUND:                 0.000
REMARK SMILES Cc1cccc(O)c1C
REMARK SMILES IDX 1 1 2 2 8 3 6 4 5 5 4 6 3 7 9 8 7 9
REMARK H PARENT 7 10
REMARK Flexibility Score: inf
ROOT
ATOM      1  C   UNL     1     366.771 245.487 276.358  1.00  0.00     0.045 C 
ATOM      2  C   UNL     1     367.784 244.572 276.994  1.00  0.00    -0.045 A 
ATOM      3  C   UNL     1     367.563 243.172 277.121  1.00  0.00    -0.006 A 
ATOM      4  C   UNL     1     368.561 242.370 277.731  1.00  0.00     0.118 A 
ATOM      5  C   UNL     1     369.742 242.953 278.196  1.00  0.00     0.046 A 
ATOM      6  C   UNL     1     369.952 244.324 278.068  1.00  0.00     0.004 A 
ATOM      7  C   UNL     1     368.984 245.128 277.472  1.00  0.00     0.004 A 
ATOM      8  C   UNL     1     366.292 242.519 276.625  1.00  0.00     0.048 C 
ENDROOT
BRANCH   4   9
ATOM      9  O   UNL     1     368.411 240.989 277.890  1.00  0.00    -0.508 OA
ATOM     10  H   UNL     1     369.185 240.339 277.882  1.00  0.00     0.293 HD
ENDBRANCH   4   9
TORSDOF 1
ENDMDL
