MODEL 1
REMARK VINA RESULT:    -5.689      0.000      0.000
REMARK INTER + INTRA:         -13.295
REMARK INTER:                 -11.011
REMARK INTRA:                  -2.284
REMARK UNBOUND:                -2.284
REMARK SMILES CCCCCCCCCCCCCCCCCC(=O)[O-]
REMARK SMILES IDX 10 1 11 2 12 3 13 4 14 5 15 6 16 7 17 8 18 9 19 10 20 11
REMARK SMILES IDX 9 12 8 13 7 14 6 15 5 16 4 17 3 18 2 19 1 20
REMARK H PARENT
REMARK Flexibility Score: inf
ROOT
ATOM      1  C   UNL     1      50.377  52.210   4.668  1.00  0.00     0.000 C 
ENDROOT
BRANCH   1   2
ATOM      2  C   UNL     1      51.042  53.063   5.769  1.00  0.00     0.000 C 
BRANCH   2   3
ATOM      3  C   UNL     1      51.300  52.294   7.076  1.00  0.00     0.000 C 
BRANCH   3   4
ATOM      4  C   UNL     1      51.686  50.826   6.835  1.00  0.00     0.000 C 
BRANCH   4   5
ATOM      5  C   UNL     1      53.135  50.512   7.249  1.00  0.00     0.000 C 
BRANCH   5   6
ATOM      6  C   UNL     1      54.005  51.740   7.586  1.00  0.00     0.000 C 
BRANCH   6   7
ATOM      7  C   UNL     1      55.087  52.084   6.542  1.00  0.00     0.006 C 
BRANCH   7   8
ATOM      8  C   UNL     1      54.568  52.175   5.099  1.00  0.00     0.053 C 
BRANCH   8   9
ATOM      9  C   UNL     1      55.094  51.064   4.243  1.00  0.00     0.041 C 
ATOM     10  O   UNL     1      54.376  50.060   3.996  1.00  0.00    -0.550 OA
ATOM     11  O   UNL     1      56.390  51.122   3.747  1.00  0.00    -0.550 OA
ENDBRANCH   8   9
ENDBRANCH   7   8
ENDBRANCH   6   7
ENDBRANCH   5   6
ENDBRANCH   4   5
ENDBRANCH   3   4
ENDBRANCH   2   3
ENDBRANCH   1   2
BRANCH   1  12
ATOM     12  C   UNL     1      48.845  52.359   4.663  1.00  0.00     0.000 C 
BRANCH  12  13
ATOM     13  C   UNL     1      48.310  52.872   3.309  1.00  0.00    -0.000 C 
BRANCH  13  14
ATOM     14  C   UNL     1      47.068  52.115   2.809  1.00  0.00    -0.000 C 
BRANCH  14  15
ATOM     15  C   UNL     1      46.975  50.686   3.361  1.00  0.00    -0.000 C 
BRANCH  15  16
ATOM     16  C   UNL     1      46.946  49.658   2.220  1.00  0.00    -0.000 C 
BRANCH  16  17
ATOM     17  C   UNL     1      48.147  48.698   2.254  1.00  0.00    -0.000 C 
BRANCH  17  18
ATOM     18  C   UNL     1      49.526  49.385   2.271  1.00  0.00    -0.000 C 
BRANCH  18  19
ATOM     19  C   UNL     1      50.467  48.870   3.379  1.00  0.00    -0.003 C 
ATOM     20  C   UNL     1      49.717  48.498   4.659  1.00  0.00     0.004 C 
ENDBRANCH  18  19
ENDBRANCH  17  18
ENDBRANCH  16  17
ENDBRANCH  15  16
ENDBRANCH  14  15
ENDBRANCH  13  14
ENDBRANCH  12  13
ENDBRANCH   1  12
TORSDOF 16
ENDMDL
MODEL 2
REMARK VINA RESULT:    -5.654      1.180      2.003
REMARK INTER + INTRA:         -13.226
REMARK INTER:                 -10.793
REMARK INTRA:                  -2.433
REMARK UNBOUND:                -2.284
REMARK SMILES CCCCCCCCCCCCCCCCCC(=O)[O-]
REMARK SMILES IDX 10 1 11 2 12 3 13 4 14 5 15 6 16 7 17 8 18 9 19 10 20 11
REMARK SMILES IDX 9 12 8 13 7 14 6 15 5 16 4 17 3 18 2 19 1 20
REMARK H PARENT
REMARK Flexibility Score: inf
ROOT
ATOM      1  C   UNL     1      50.868  50.516   6.218  1.00  0.00     0.000 C 
ENDROOT
BRANCH   1   2
ATOM      2  C   UNL     1      50.689  51.736   5.289  1.00  0.00     0.000 C 
BRANCH   2   3
ATOM      3  C   UNL     1      51.394  53.007   5.795  1.00  0.00     0.000 C 
BRANCH   3   4
ATOM      4  C   UNL     1      51.732  52.941   7.293  1.00  0.00     0.000 C 
BRANCH   4   5
ATOM      5  C   UNL     1      53.245  52.992   7.569  1.00  0.00     0.000 C 
BRANCH   5   6
ATOM      6  C   UNL     1      54.045  51.764   7.086  1.00  0.00     0.000 C 
BRANCH   6   7
ATOM      7  C   UNL     1      55.126  52.061   6.027  1.00  0.00     0.006 C 
BRANCH   7   8
ATOM      8  C   UNL     1      54.655  51.889   4.575  1.00  0.00     0.053 C 
BRANCH   8   9
ATOM      9  C   UNL     1      54.740  50.463   4.123  1.00  0.00     0.041 C 
ATOM     10  O   UNL     1      55.736  50.066   3.462  1.00  0.00    -0.550 OA
ATOM     11  O   UNL     1      53.704  49.582   4.401  1.00  0.00    -0.550 OA
ENDBRANCH   8   9
ENDBRANCH   7   8
ENDBRANCH   6   7
ENDBRANCH   5   6
ENDBRANCH   4   5
ENDBRANCH   3   4
ENDBRANCH   2   3
ENDBRANCH   1   2
BRANCH   1  12
ATOM     12  C   UNL     1      49.555  49.737   6.412  1.00  0.00     0.000 C 
BRANCH  12  13
ATOM     13  C   UNL     1      48.317  50.659   6.386  1.00  0.00    -0.000 C 
BRANCH  13  14
ATOM     14  C   UNL     1      47.261  50.245   5.347  1.00  0.00    -0.000 C 
BRANCH  14  15
ATOM     15  C   UNL     1      47.007  51.327   4.289  1.00  0.00    -0.000 C 
BRANCH  15  16
ATOM     16  C   UNL     1      47.902  51.113   3.059  1.00  0.00    -0.000 C 
BRANCH  16  17
ATOM     17  C   UNL     1      47.472  49.903   2.214  1.00  0.00    -0.000 C 
BRANCH  17  18
ATOM     18  C   UNL     1      48.502  48.758   2.151  1.00  0.00    -0.000 C 
BRANCH  18  19
ATOM     19  C   UNL     1      49.864  49.110   2.782  1.00  0.00    -0.003 C 
ATOM     20  C   UNL     1      50.465  47.945   3.569  1.00  0.00     0.004 C 
ENDBRANCH  18  19
ENDBRANCH  17  18
ENDBRANCH  16  17
ENDBRANCH  15  16
ENDBRANCH  14  15
ENDBRANCH  13  14
ENDBRANCH  12  13
ENDBRANCH   1  12
TORSDOF 16
ENDMDL
MODEL 3
REMARK VINA RESULT:    -5.622      2.549      6.360
REMARK INTER + INTRA:         -13.164
REMARK INTER:                 -11.404
REMARK INTRA:                  -1.760
REMARK UNBOUND:                -2.284
REMARK SMILES CCCCCCCCCCCCCCCCCC(=O)[O-]
REMARK SMILES IDX 10 1 11 2 12 3 13 4 14 5 15 6 16 7 17 8 18 9 19 10 20 11
REMARK SMILES IDX 9 12 8 13 7 14 6 15 5 16 4 17 3 18 2 19 1 20
REMARK H PARENT
REMARK Flexibility Score: inf
ROOT
ATOM      1  C   UNL     1      50.697  50.955   6.975  1.00  0.00     0.000 C 
ENDROOT
BRANCH   1   2
ATOM      2  C   UNL     1      49.873  49.949   6.143  1.00  0.00     0.000 C 
BRANCH   2   3
ATOM      3  C   UNL     1      48.352  50.100   6.321  1.00  0.00     0.000 C 
BRANCH   3   4
ATOM      4  C   UNL     1      47.618  50.324   4.989  1.00  0.00     0.000 C 
BRANCH   4   5
ATOM      5  C   UNL     1      48.119  51.565   4.230  1.00  0.00     0.000 C 
BRANCH   5   6
ATOM      6  C   UNL     1      48.722  51.288   2.837  1.00  0.00     0.000 C 
BRANCH   6   7
ATOM      7  C   UNL     1      49.272  49.862   2.632  1.00  0.00     0.006 C 
BRANCH   7   8
ATOM      8  C   UNL     1      48.268  48.879   2.011  1.00  0.00     0.053 C 
BRANCH   8   9
ATOM      9  C   UNL     1      48.514  47.470   2.457  1.00  0.00     0.041 C 
ATOM     10  O   UNL     1      49.449  47.213   3.259  1.00  0.00    -0.550 OA
ATOM     11  O   UNL     1      47.732  46.436   1.958  1.00  0.00    -0.550 OA
ENDBRANCH   8   9
ENDBRANCH   7   8
ENDBRANCH   6   7
ENDBRANCH   5   6
ENDBRANCH   4   5
ENDBRANCH   3   4
ENDBRANCH   2   3
ENDBRANCH   1   2
BRANCH   1  12
ATOM     12  C   UNL     1      51.116  52.186   6.150  1.00  0.00     0.000 C 
BRANCH  12  13
ATOM     13  C   UNL     1      52.173  53.045   6.874  1.00  0.00    -0.000 C 
BRANCH  13  14
ATOM     14  C   UNL     1      53.434  52.263   7.280  1.00  0.00    -0.000 C 
BRANCH  14  15
ATOM     15  C   UNL     1      54.690  52.718   6.526  1.00  0.00    -0.000 C 
BRANCH  15  16
ATOM     16  C   UNL     1      54.484  52.622   5.006  1.00  0.00    -0.000 C 
BRANCH  16  17
ATOM     17  C   UNL     1      55.474  51.659   4.331  1.00  0.00    -0.000 C 
BRANCH  17  18
ATOM     18  C   UNL     1      54.881  50.295   3.928  1.00  0.00    -0.000 C 
BRANCH  18  19
ATOM     19  C   UNL     1      53.663  49.871   4.774  1.00  0.00    -0.003 C 
ATOM     20  C   UNL     1      52.474  49.440   3.915  1.00  0.00     0.004 C 
ENDBRANCH  18  19
ENDBRANCH  17  18
ENDBRANCH  16  17
ENDBRANCH  15  16
ENDBRANCH  14  15
ENDBRANCH  13  14
ENDBRANCH  12  13
ENDBRANCH   1  12
TORSDOF 16
ENDMDL
MODEL 4
REMARK VINA RESULT:    -5.540      2.417      6.603
REMARK INTER + INTRA:         -13.006
REMARK INTER:                 -10.816
REMARK INTRA:                  -2.189
REMARK UNBOUND:                -2.284
REMARK SMILES CCCCCCCCCCCCCCCCCC(=O)[O-]
REMARK SMILES IDX 10 1 11 2 12 3 13 4 14 5 15 6 16 7 17 8 18 9 19 10 20 11
REMARK SMILES IDX 9 12 8 13 7 14 6 15 5 16 4 17 3 18 2 19 1 20
REMARK H PARENT
REMARK Flexibility Score: inf
ROOT
ATOM      1  C   UNL     1      51.089  50.510   6.478  1.00  0.00     0.000 C 
ENDROOT
BRANCH   1   2
ATOM      2  C   UNL     1      49.583  50.583   6.808  1.00  0.00     0.000 C 
BRANCH   2   3
ATOM      3  C   UNL     1      48.729  49.574   6.021  1.00  0.00     0.000 C 
BRANCH   3   4
ATOM      4  C   UNL     1      47.533  50.232   5.314  1.00  0.00     0.000 C 
BRANCH   4   5
ATOM      5  C   UNL     1      47.934  51.455   4.471  1.00  0.00     0.000 C 
BRANCH   5   6
ATOM      6  C   UNL     1      47.629  51.345   2.962  1.00  0.00     0.000 C 
BRANCH   6   7
ATOM      7  C   UNL     1      47.649  49.912   2.392  1.00  0.00     0.006 C 
BRANCH   7   8
ATOM      8  C   UNL     1      49.042  49.264   2.356  1.00  0.00     0.053 C 
BRANCH   8   9
ATOM      9  C   UNL     1      49.000  47.823   2.762  1.00  0.00     0.041 C 
ATOM     10  O   UNL     1      48.048  47.087   2.392  1.00  0.00    -0.550 OA
ATOM     11  O   UNL     1      49.994  47.301   3.580  1.00  0.00    -0.550 OA
ENDBRANCH   8   9
ENDBRANCH   7   8
ENDBRANCH   6   7
ENDBRANCH   5   6
ENDBRANCH   4   5
ENDBRANCH   3   4
ENDBRANCH   2   3
ENDBRANCH   1   2
BRANCH   1  12
ATOM     12  C   UNL     1      51.371  50.772   4.988  1.00  0.00     0.000 C 
BRANCH  12  13
ATOM     13  C   UNL     1      52.205  49.645   4.342  1.00  0.00    -0.000 C 
BRANCH  13  14
ATOM     14  C   UNL     1      53.720  49.910   4.359  1.00  0.00    -0.000 C 
BRANCH  14  15
ATOM     15  C   UNL     1      54.066  51.405   4.360  1.00  0.00    -0.000 C 
BRANCH  15  16
ATOM     16  C   UNL     1      55.470  51.644   4.936  1.00  0.00    -0.000 C 
BRANCH  16  17
ATOM     17  C   UNL     1      55.453  52.508   6.208  1.00  0.00    -0.000 C 
BRANCH  17  18
ATOM     18  C   UNL     1      54.055  52.748   6.809  1.00  0.00    -0.000 C 
BRANCH  18  19
ATOM     19  C   UNL     1      53.865  52.134   8.211  1.00  0.00    -0.003 C 
ATOM     20  C   UNL     1      54.230  50.650   8.256  1.00  0.00     0.004 C 
ENDBRANCH  18  19
ENDBRANCH  17  18
ENDBRANCH  16  17
ENDBRANCH  15  16
ENDBRANCH  14  15
ENDBRANCH  13  14
ENDBRANCH  12  13
ENDBRANCH   1  12
TORSDOF 16
ENDMDL
MODEL 5
REMARK VINA RESULT:    -5.340      3.325      7.098
REMARK INTER + INTRA:         -12.619
REMARK INTER:                 -11.079
REMARK INTRA:                  -1.540
REMARK UNBOUND:                -2.284
REMARK SMILES CCCCCCCCCCCCCCCCCC(=O)[O-]
REMARK SMILES IDX 10 1 11 2 12 3 13 4 14 5 15 6 16 7 17 8 18 9 19 10 20 11
REMARK SMILES IDX 9 12 8 13 7 14 6 15 5 16 4 17 3 18 2 19 1 20
REMARK H PARENT
REMARK Flexibility Score: inf
ROOT
ATOM      1  C   UNL     1      54.573  50.212   4.012  1.00  0.00     0.000 C 
ENDROOT
BRANCH   1   2
ATOM      2  C   UNL     1      53.060  50.368   4.280  1.00  0.00     0.000 C 
BRANCH   2   3
ATOM      3  C   UNL     1      52.229  49.142   3.865  1.00  0.00     0.000 C 
BRANCH   3   4
ATOM      4  C   UNL     1      50.767  49.495   3.549  1.00  0.00     0.000 C 
BRANCH   4   5
ATOM      5  C   UNL     1      49.890  48.254   3.307  1.00  0.00     0.000 C 
BRANCH   5   6
ATOM      6  C   UNL     1      48.724  48.453   2.317  1.00  0.00     0.000 C 
BRANCH   6   7
ATOM      7  C   UNL     1      47.484  47.574   2.578  1.00  0.00     0.006 C 
BRANCH   7   8
ATOM      8  C   UNL     1      47.105  46.651   1.410  1.00  0.00     0.053 C 
BRANCH   8   9
ATOM      9  C   UNL     1      47.955  45.418   1.370  1.00  0.00     0.041 C 
ATOM     10  O   UNL     1      48.655  45.099   2.367  1.00  0.00    -0.550 OA
ATOM     11  O   UNL     1      48.002  44.642   0.219  1.00  0.00    -0.550 OA
ENDBRANCH   8   9
ENDBRANCH   7   8
ENDBRANCH   6   7
ENDBRANCH   5   6
ENDBRANCH   4   5
ENDBRANCH   3   4
ENDBRANCH   2   3
ENDBRANCH   1   2
BRANCH   1  12
ATOM     12  C   UNL     1      55.385  51.396   4.567  1.00  0.00     0.000 C 
BRANCH  12  13
ATOM     13  C   UNL     1      54.487  52.582   4.979  1.00  0.00    -0.000 C 
BRANCH  13  14
ATOM     14  C   UNL     1      54.680  53.026   6.439  1.00  0.00    -0.000 C 
BRANCH  14  15
ATOM     15  C   UNL     1      53.844  52.204   7.429  1.00  0.00    -0.000 C 
BRANCH  15  16
ATOM     16  C   UNL     1      52.346  52.497   7.259  1.00  0.00    -0.000 C 
BRANCH  16  17
ATOM     17  C   UNL     1      51.484  51.224   7.288  1.00  0.00    -0.000 C 
BRANCH  17  18
ATOM     18  C   UNL     1      50.271  51.240   6.337  1.00  0.00    -0.000 C 
BRANCH  18  19
ATOM     19  C   UNL     1      49.239  50.130   6.625  1.00  0.00    -0.003 C 
ATOM     20  C   UNL     1      47.943  50.314   5.835  1.00  0.00     0.004 C 
ENDBRANCH  18  19
ENDBRANCH  17  18
ENDBRANCH  16  17
ENDBRANCH  15  16
ENDBRANCH  14  15
ENDBRANCH  13  14
ENDBRANCH  12  13
ENDBRANCH   1  12
TORSDOF 16
ENDMDL
MODEL 6
REMARK VINA RESULT:    -5.336      1.956      2.473
REMARK INTER + INTRA:         -12.611
REMARK INTER:                 -10.312
REMARK INTRA:                  -2.299
REMARK UNBOUND:                -2.284
REMARK SMILES CCCCCCCCCCCCCCCCCC(=O)[O-]
REMARK SMILES IDX 10 1 11 2 12 3 13 4 14 5 15 6 16 7 17 8 18 9 19 10 20 11
REMARK SMILES IDX 9 12 8 13 7 14 6 15 5 16 4 17 3 18 2 19 1 20
REMARK H PARENT
REMARK Flexibility Score: inf
ROOT
ATOM      1  C   UNL     1      50.473  52.431   4.968  1.00  0.00     0.000 C 
ENDROOT
BRANCH   1   2
ATOM      2  C   UNL     1      50.243  51.149   5.798  1.00  0.00     0.000 C 
BRANCH   2   3
ATOM      3  C   UNL     1      51.442  50.186   5.791  1.00  0.00     0.000 C 
BRANCH   3   4
ATOM      4  C   UNL     1      52.201  50.191   4.454  1.00  0.00     0.000 C 
BRANCH   4   5
ATOM      5  C   UNL     1      53.689  49.831   4.608  1.00  0.00     0.000 C 
BRANCH   5   6
ATOM      6  C   UNL     1      54.676  50.993   4.370  1.00  0.00     0.000 C 
BRANCH   6   7
ATOM      7  C   UNL     1      54.174  52.382   4.814  1.00  0.00     0.006 C 
BRANCH   7   8
ATOM      8  C   UNL     1      54.776  52.880   6.137  1.00  0.00     0.053 C 
BRANCH   8   9
ATOM      9  C   UNL     1      54.078  52.295   7.326  1.00  0.00     0.041 C 
ATOM     10  O   UNL     1      54.411  51.162   7.763  1.00  0.00    -0.550 OA
ATOM     11  O   UNL     1      53.035  52.985   7.930  1.00  0.00    -0.550 OA
ENDBRANCH   8   9
ENDBRANCH   7   8
ENDBRANCH   6   7
ENDBRANCH   5   6
ENDBRANCH   4   5
ENDBRANCH   3   4
ENDBRANCH   2   3
ENDBRANCH   1   2
BRANCH   1  12
ATOM     12  C   UNL     1      49.151  53.125   4.593  1.00  0.00     0.000 C 
BRANCH  12  13
ATOM     13  C   UNL     1      48.713  52.809   3.147  1.00  0.00    -0.000 C 
BRANCH  13  14
ATOM     14  C   UNL     1      47.243  52.373   3.028  1.00  0.00    -0.000 C 
BRANCH  14  15
ATOM     15  C   UNL     1      47.015  50.916   3.455  1.00  0.00    -0.000 C 
BRANCH  15  16
ATOM     16  C   UNL     1      47.945  49.966   2.686  1.00  0.00    -0.000 C 
BRANCH  16  17
ATOM     17  C   UNL     1      48.617  48.925   3.597  1.00  0.00    -0.000 C 
BRANCH  17  18
ATOM     18  C   UNL     1      49.722  48.090   2.923  1.00  0.00    -0.000 C 
BRANCH  18  19
ATOM     19  C   UNL     1      50.257  46.939   3.800  1.00  0.00    -0.003 C 
ATOM     20  C   UNL     1      49.864  45.562   3.266  1.00  0.00     0.004 C 
ENDBRANCH  18  19
ENDBRANCH  17  18
ENDBRANCH  16  17
ENDBRANCH  15  16
ENDBRANCH  14  15
ENDBRANCH  13  14
ENDBRANCH  12  13
ENDBRANCH   1  12
TORSDOF 16
ENDMDL
MODEL 7
REMARK VINA RESULT:    -5.335      2.354      6.349
REMARK INTER + INTRA:         -12.610
REMARK INTER:                 -10.316
REMARK INTRA:                  -2.294
REMARK UNBOUND:                -2.284
REMARK SMILES CCCCCCCCCCCCCCCCCC(=O)[O-]
REMARK SMILES IDX 10 1 11 2 12 3 13 4 14 5 15 6 16 7 17 8 18 9 19 10 20 11
REMARK SMILES IDX 9 12 8 13 7 14 6 15 5 16 4 17 3 18 2 19 1 20
REMARK H PARENT
REMARK Flexibility Score: inf
ROOT
ATOM      1  C   UNL     1      50.439  52.810   4.257  1.00  0.00     0.000 C 
ENDROOT
BRANCH   1   2
ATOM      2  C   UNL     1      48.919  53.079   4.243  1.00  0.00     0.000 C 
BRANCH   2   3
ATOM      3  C   UNL     1      48.150  52.228   3.218  1.00  0.00     0.000 C 
BRANCH   3   4
ATOM      4  C   UNL     1      47.451  51.017   3.858  1.00  0.00     0.000 C 
BRANCH   4   5
ATOM      5  C   UNL     1      47.835  49.683   3.192  1.00  0.00     0.000 C 
BRANCH   5   6
ATOM      6  C   UNL     1      49.125  49.716   2.346  1.00  0.00     0.000 C 
BRANCH   6   7
ATOM      7  C   UNL     1      50.339  49.002   2.973  1.00  0.00     0.006 C 
BRANCH   7   8
ATOM      8  C   UNL     1      49.978  47.957   4.040  1.00  0.00     0.053 C 
BRANCH   8   9
ATOM      9  C   UNL     1      49.776  46.597   3.447  1.00  0.00     0.041 C 
ATOM     10  O   UNL     1      50.595  45.672   3.688  1.00  0.00    -0.550 OA
ATOM     11  O   UNL     1      48.701  46.360   2.599  1.00  0.00    -0.550 OA
ENDBRANCH   8   9
ENDBRANCH   7   8
ENDBRANCH   6   7
ENDBRANCH   5   6
ENDBRANCH   4   5
ENDBRANCH   3   4
ENDBRANCH   2   3
ENDBRANCH   1   2
BRANCH   1  12
ATOM     12  C   UNL     1      50.945  52.419   5.657  1.00  0.00     0.000 C 
BRANCH  12  13
ATOM     13  C   UNL     1      51.480  50.972   5.705  1.00  0.00    -0.000 C 
BRANCH  13  14
ATOM     14  C   UNL     1      52.260  50.643   6.989  1.00  0.00    -0.000 C 
BRANCH  14  15
ATOM     15  C   UNL     1      53.015  51.852   7.557  1.00  0.00    -0.000 C 
BRANCH  15  16
ATOM     16  C   UNL     1      54.517  51.758   7.246  1.00  0.00    -0.000 C 
BRANCH  16  17
ATOM     17  C   UNL     1      54.992  52.850   6.273  1.00  0.00    -0.000 C 
BRANCH  17  18
ATOM     18  C   UNL     1      54.686  52.573   4.788  1.00  0.00    -0.000 C 
BRANCH  18  19
ATOM     19  C   UNL     1      55.474  51.385   4.200  1.00  0.00    -0.003 C 
ATOM     20  C   UNL     1      54.606  50.142   4.008  1.00  0.00     0.004 C 
ENDBRANCH  18  19
ENDBRANCH  17  18
ENDBRANCH  16  17
ENDBRANCH  15  16
ENDBRANCH  14  15
ENDBRANCH  13  14
ENDBRANCH  12  13
ENDBRANCH   1  12
TORSDOF 16
ENDMDL
MODEL 8
REMARK VINA RESULT:    -5.278      2.975      7.076
REMARK INTER + INTRA:         -12.499
REMARK INTER:                 -10.915
REMARK INTRA:                  -1.585
REMARK UNBOUND:                -2.284
REMARK SMILES CCCCCCCCCCCCCCCCCC(=O)[O-]
REMARK SMILES IDX 10 1 11 2 12 3 13 4 14 5 15 6 16 7 17 8 18 9 19 10 20 11
REMARK SMILES IDX 9 12 8 13 7 14 6 15 5 16 4 17 3 18 2 19 1 20
REMARK H PARENT
REMARK Flexibility Score: inf
ROOT
ATOM      1  C   UNL     1      49.840  48.429   4.688  1.00  0.00     0.000 C 
ENDROOT
BRANCH   1   2
ATOM      2  C   UNL     1      50.590  49.190   3.573  1.00  0.00     0.000 C 
BRANCH   2   3
ATOM      3  C   UNL     1      49.701  49.566   2.375  1.00  0.00     0.000 C 
BRANCH   3   4
ATOM      4  C   UNL     1      48.552  50.511   2.762  1.00  0.00     0.000 C 
BRANCH   4   5
ATOM      5  C   UNL     1      47.166  49.858   2.623  1.00  0.00     0.000 C 
BRANCH   5   6
ATOM      6  C   UNL     1      47.089  48.680   1.629  1.00  0.00     0.000 C 
BRANCH   6   7
ATOM      7  C   UNL     1      47.018  47.281   2.275  1.00  0.00     0.006 C 
BRANCH   7   8
ATOM      8  C   UNL     1      47.021  46.119   1.270  1.00  0.00     0.053 C 
BRANCH   8   9
ATOM      9  C   UNL     1      48.203  45.218   1.460  1.00  0.00     0.041 C 
ATOM     10  O   UNL     1      48.445  44.307   0.625  1.00  0.00    -0.550 OA
ATOM     11  O   UNL     1      49.016  45.363   2.576  1.00  0.00    -0.550 OA
ENDBRANCH   8   9
ENDBRANCH   7   8
ENDBRANCH   6   7
ENDBRANCH   5   6
ENDBRANCH   4   5
ENDBRANCH   3   4
ENDBRANCH   2   3
ENDBRANCH   1   2
BRANCH   1  12
ATOM     12  C   UNL     1      49.283  49.378   5.764  1.00  0.00     0.000 C 
BRANCH  12  13
ATOM     13  C   UNL     1      50.369  50.307   6.346  1.00  0.00    -0.000 C 
BRANCH  13  14
ATOM     14  C   UNL     1      50.294  51.751   5.821  1.00  0.00    -0.000 C 
BRANCH  14  15
ATOM     15  C   UNL     1      51.674  52.406   5.671  1.00  0.00    -0.000 C 
BRANCH  15  16
ATOM     16  C   UNL     1      52.668  51.833   6.693  1.00  0.00    -0.000 C 
BRANCH  16  17
ATOM     17  C   UNL     1      53.933  51.259   6.035  1.00  0.00    -0.000 C 
BRANCH  17  18
ATOM     18  C   UNL     1      53.678  50.376   4.798  1.00  0.00    -0.000 C 
BRANCH  18  19
ATOM     19  C   UNL     1      54.894  50.252   3.859  1.00  0.00    -0.003 C 
ATOM     20  C   UNL     1      55.914  51.372   4.068  1.00  0.00     0.004 C 
ENDBRANCH  18  19
ENDBRANCH  17  18
ENDBRANCH  16  17
ENDBRANCH  15  16
ENDBRANCH  14  15
ENDBRANCH  13  14
ENDBRANCH  12  13
ENDBRANCH   1  12
TORSDOF 16
ENDMDL
MODEL 9
REMARK VINA RESULT:    -5.259      2.362      4.045
REMARK INTER + INTRA:         -12.463
REMARK INTER:                 -10.992
REMARK INTRA:                  -1.471
REMARK UNBOUND:                -2.284
REMARK SMILES CCCCCCCCCCCCCCCCCC(=O)[O-]
REMARK SMILES IDX 10 1 11 2 12 3 13 4 14 5 15 6 16 7 17 8 18 9 19 10 20 11
REMARK SMILES IDX 9 12 8 13 7 14 6 15 5 16 4 17 3 18 2 19 1 20
REMARK H PARENT
REMARK Flexibility Score: inf
ROOT
ATOM      1  C   UNL     1      53.576  49.467   4.257  1.00  0.00     0.000 C 
ENDROOT
BRANCH   1   2
ATOM      2  C   UNL     1      54.655  50.572   4.271  1.00  0.00     0.000 C 
BRANCH   2   3
ATOM      3  C   UNL     1      54.112  51.961   4.647  1.00  0.00     0.000 C 
BRANCH   3   4
ATOM      4  C   UNL     1      54.878  52.602   5.815  1.00  0.00     0.000 C 
BRANCH   4   5
ATOM      5  C   UNL     1      54.434  52.069   7.188  1.00  0.00     0.000 C 
BRANCH   5   6
ATOM      6  C   UNL     1      53.469  52.985   7.971  1.00  0.00     0.000 C 
BRANCH   6   7
ATOM      7  C   UNL     1      52.009  52.975   7.477  1.00  0.00     0.006 C 
BRANCH   7   8
ATOM      8  C   UNL     1      51.434  51.572   7.226  1.00  0.00     0.053 C 
BRANCH   8   9
ATOM      9  C   UNL     1      50.223  51.612   6.346  1.00  0.00     0.041 C 
ATOM     10  O   UNL     1      50.115  52.495   5.456  1.00  0.00    -0.550 OA
ATOM     11  O   UNL     1      49.197  50.694   6.533  1.00  0.00    -0.550 OA
ENDBRANCH   8   9
ENDBRANCH   7   8
ENDBRANCH   6   7
ENDBRANCH   5   6
ENDBRANCH   4   5
ENDBRANCH   3   4
ENDBRANCH   2   3
ENDBRANCH   1   2
BRANCH   1  12
ATOM     12  C   UNL     1      52.152  50.048   4.181  1.00  0.00     0.000 C 
BRANCH  12  13
ATOM     13  C   UNL     1      51.079  48.950   4.021  1.00  0.00    -0.000 C 
BRANCH  13  14
ATOM     14  C   UNL     1      50.234  49.093   2.744  1.00  0.00    -0.000 C 
BRANCH  14  15
ATOM     15  C   UNL     1      49.199  50.222   2.835  1.00  0.00    -0.000 C 
BRANCH  15  16
ATOM     16  C   UNL     1      47.771  49.658   2.869  1.00  0.00    -0.000 C 
BRANCH  16  17
ATOM     17  C   UNL     1      47.521  48.605   1.776  1.00  0.00    -0.000 C 
BRANCH  17  18
ATOM     18  C   UNL     1      47.020  47.242   2.291  1.00  0.00    -0.000 C 
BRANCH  18  19
ATOM     19  C   UNL     1      47.624  46.034   1.547  1.00  0.00    -0.003 C 
ATOM     20  C   UNL     1      48.709  45.326   2.359  1.00  0.00     0.004 C 
ENDBRANCH  18  19
ENDBRANCH  17  18
ENDBRANCH  16  17
ENDBRANCH  15  16
ENDBRANCH  14  15
ENDBRANCH  13  14
ENDBRANCH  12  13
ENDBRANCH   1  12
TORSDOF 16
ENDMDL
