MODEL 1
REMARK VINA RESULT:    -7.020      0.000      0.000
REMARK INTER + INTRA:          -8.544
REMARK INTER:                  -8.251
REMARK INTRA:                  -0.294
REMARK UNBOUND:                -0.294
REMARK SMILES O=c1cc(-c2ccc(O)c(O)c2)oc2cc(O)cc(O)c12
REMARK SMILES IDX 4 1 3 2 2 3 1 4 21 5 19 6 18 7 16 8 15 9 14 10 13 11 5 12
REMARK SMILES IDX 6 13 7 14 8 15 12 16 10 17 9 18 11 20 20 22 17 24
REMARK H PARENT 9 19 11 21 20 23 17 25
REMARK Flexibility Score: inf
ROOT
ATOM      1  C   UNL     1     107.170 121.513 120.754  1.00  0.00     0.138 A 
ATOM      2  C   UNL     1     106.311 121.478 121.860  1.00  0.00     0.100 A 
ATOM      3  C   UNL     1     105.049 122.068 121.773  1.00  0.00     0.197 A 
ATOM      4  O   UNL     1     104.276 121.966 122.761  1.00  0.00    -0.289 OA
ATOM      5  C   UNL     1     104.660 122.725 120.581  1.00  0.00     0.107 A 
ATOM      6  C   UNL     1     103.416 123.398 120.393  1.00  0.00     0.134 A 
ATOM      7  C   UNL     1     103.093 123.912 119.131  1.00  0.00     0.093 A 
ATOM      8  C   UNL     1     103.997 123.831 118.067  1.00  0.00     0.123 A 
ATOM      9  C   UNL     1     105.236 123.224 118.257  1.00  0.00     0.094 A 
ATOM     10  C   UNL     1     105.573 122.672 119.494  1.00  0.00     0.146 A 
ATOM     11  O   UNL     1     106.760 122.089 119.628  1.00  0.00    -0.456 OA
ENDROOT
BRANCH   1  12
ATOM     12  C   UNL     1     108.523 120.902 120.792  1.00  0.00     0.021 A 
ATOM     13  C   UNL     1     109.396 121.105 121.878  1.00  0.00     0.016 A 
ATOM     14  C   UNL     1     110.667 120.526 121.883  1.00  0.00     0.051 A 
ATOM     15  C   UNL     1     111.091 119.741 120.803  1.00  0.00     0.157 A 
ATOM     16  C   UNL     1     108.963 120.124 119.706  1.00  0.00     0.062 A 
ATOM     17  C   UNL     1     110.238 119.542 119.711  1.00  0.00     0.158 A 
BRANCH  15  18
ATOM     18  O   UNL     1     112.359 119.161 120.806  1.00  0.00    -0.504 OA
ATOM     19  H   UNL     1     113.121 119.552 120.267  1.00  0.00     0.293 HD
ENDBRANCH  15  18
BRANCH  17  20
ATOM     20  O   UNL     1     110.664 118.764 118.636  1.00  0.00    -0.504 OA
ATOM     21  H   UNL     1     111.633 118.487 118.533  1.00  0.00     0.293 HD
ENDBRANCH  17  20
ENDBRANCH   1  12
BRANCH   6  22
ATOM     22  O   UNL     1     102.479 123.608 121.409  1.00  0.00    -0.507 OA
ATOM     23  H   UNL     1     101.907 124.434 121.504  1.00  0.00     0.293 HD
ENDBRANCH   6  22
BRANCH   8  24
ATOM     24  O   UNL     1     103.674 124.359 116.819  1.00  0.00    -0.508 OA
ATOM     25  H   UNL     1     104.151 124.060 115.977  1.00  0.00     0.293 HD
ENDBRANCH   8  24
TORSDOF 5
ENDMDL
MODEL 2
REMARK VINA RESULT:    -6.922      1.166      2.689
REMARK INTER + INTRA:          -8.429
REMARK INTER:                  -8.151
REMARK INTRA:                  -0.278
REMARK UNBOUND:                -0.294
REMARK SMILES O=c1cc(-c2ccc(O)c(O)c2)oc2cc(O)cc(O)c12
REMARK SMILES IDX 4 1 3 2 2 3 1 4 21 5 19 6 18 7 16 8 15 9 14 10 13 11 5 12
REMARK SMILES IDX 6 13 7 14 8 15 12 16 10 17 9 18 11 20 20 22 17 24
REMARK H PARENT 9 19 11 21 20 23 17 25
REMARK Flexibility Score: inf
ROOT
ATOM      1  C   UNL     1     107.319 121.644 120.245  1.00  0.00     0.138 A 
ATOM      2  C   UNL     1     106.897 122.140 119.004  1.00  0.00     0.100 A 
ATOM      3  C   UNL     1     105.638 122.731 118.888  1.00  0.00     0.197 A 
ATOM      4  O   UNL     1     105.312 123.223 117.777  1.00  0.00    -0.289 OA
ATOM      5  C   UNL     1     104.785 122.795 120.017  1.00  0.00     0.107 A 
ATOM      6  C   UNL     1     103.465 123.337 120.007  1.00  0.00     0.134 A 
ATOM      7  C   UNL     1     102.759 123.454 121.210  1.00  0.00     0.093 A 
ATOM      8  C   UNL     1     103.302 122.993 122.413  1.00  0.00     0.123 A 
ATOM      9  C   UNL     1     104.567 122.412 122.422  1.00  0.00     0.094 A 
ATOM     10  C   UNL     1     105.311 122.313 121.245  1.00  0.00     0.146 A 
ATOM     11  O   UNL     1     106.521 121.766 121.301  1.00  0.00    -0.456 OA
ENDROOT
BRANCH   1  12
ATOM     12  C   UNL     1     108.648 121.006 120.424  1.00  0.00     0.021 A 
ATOM     13  C   UNL     1     109.459 121.286 121.540  1.00  0.00     0.016 A 
ATOM     14  C   UNL     1     110.710 120.678 121.677  1.00  0.00     0.051 A 
ATOM     15  C   UNL     1     111.175 119.788 120.701  1.00  0.00     0.157 A 
ATOM     16  C   UNL     1     109.129 120.121 119.442  1.00  0.00     0.062 A 
ATOM     17  C   UNL     1     110.384 119.511 119.580  1.00  0.00     0.158 A 
BRANCH  15  18
ATOM     18  O   UNL     1     112.421 119.180 120.836  1.00  0.00    -0.504 OA
ATOM     19  H   UNL     1     112.661 118.343 120.319  1.00  0.00     0.293 HD
ENDBRANCH  15  18
BRANCH  17  20
ATOM     20  O   UNL     1     110.850 118.627 118.608  1.00  0.00    -0.504 OA
ATOM     21  H   UNL     1     111.446 117.844 118.846  1.00  0.00     0.293 HD
ENDBRANCH  17  20
ENDBRANCH   1  12
BRANCH   6  22
ATOM     22  O   UNL     1     102.798 123.749 118.849  1.00  0.00    -0.507 OA
ATOM     23  H   UNL     1     102.067 123.228 118.389  1.00  0.00     0.293 HD
ENDBRANCH   6  22
BRANCH   8  24
ATOM     24  O   UNL     1     102.585 123.099 123.603  1.00  0.00    -0.508 OA
ATOM     25  H   UNL     1     102.034 123.922 123.819  1.00  0.00     0.293 HD
ENDBRANCH   8  24
TORSDOF 5
ENDMDL
MODEL 3
REMARK VINA RESULT:    -6.579      2.115      3.060
REMARK INTER + INTRA:          -8.027
REMARK INTER:                  -7.761
REMARK INTRA:                  -0.266
REMARK UNBOUND:                -0.294
REMARK SMILES O=c1cc(-c2ccc(O)c(O)c2)oc2cc(O)cc(O)c12
REMARK SMILES IDX 4 1 3 2 2 3 1 4 21 5 19 6 18 7 16 8 15 9 14 10 13 11 5 12
REMARK SMILES IDX 6 13 7 14 8 15 12 16 10 17 9 18 11 20 20 22 17 24
REMARK H PARENT 9 19 11 21 20 23 17 25
REMARK Flexibility Score: inf
ROOT
ATOM      1  C   UNL     1     107.463 121.544 119.112  1.00  0.00     0.138 A 
ATOM      2  C   UNL     1     107.419 122.895 118.740  1.00  0.00     0.100 A 
ATOM      3  C   UNL     1     106.215 123.455 118.312  1.00  0.00     0.197 A 
ATOM      4  O   UNL     1     106.193 124.685 118.045  1.00  0.00    -0.289 OA
ATOM      5  C   UNL     1     105.055 122.647 118.225  1.00  0.00     0.107 A 
ATOM      6  C   UNL     1     103.784 123.100 117.762  1.00  0.00     0.134 A 
ATOM      7  C   UNL     1     102.680 122.241 117.830  1.00  0.00     0.093 A 
ATOM      8  C   UNL     1     102.816 120.927 118.287  1.00  0.00     0.123 A 
ATOM      9  C   UNL     1     104.064 120.460 118.689  1.00  0.00     0.094 A 
ATOM     10  C   UNL     1     105.177 121.303 118.666  1.00  0.00     0.146 A 
ATOM     11  O   UNL     1     106.348 120.822 119.073  1.00  0.00    -0.456 OA
ENDROOT
BRANCH   1  12
ATOM     12  C   UNL     1     108.717 120.899 119.574  1.00  0.00     0.021 A 
ATOM     13  C   UNL     1     109.239 119.756 118.937  1.00  0.00     0.016 A 
ATOM     14  C   UNL     1     110.416 119.162 119.400  1.00  0.00     0.051 A 
ATOM     15  C   UNL     1     111.088 119.693 120.508  1.00  0.00     0.157 A 
ATOM     16  C   UNL     1     109.391 121.416 120.695  1.00  0.00     0.062 A 
ATOM     17  C   UNL     1     110.573 120.821 121.158  1.00  0.00     0.158 A 
BRANCH  15  18
ATOM     18  O   UNL     1     112.263 119.104 120.971  1.00  0.00    -0.504 OA
ATOM     19  H   UNL     1     112.306 118.119 121.201  1.00  0.00     0.293 HD
ENDBRANCH  15  18
BRANCH  17  20
ATOM     20  O   UNL     1     111.241 121.345 122.264  1.00  0.00    -0.504 OA
ATOM     21  H   UNL     1     110.984 121.088 123.209  1.00  0.00     0.293 HD
ENDBRANCH  17  20
ENDBRANCH   1  12
BRANCH   6  22
ATOM     22  O   UNL     1     103.557 124.364 117.209  1.00  0.00    -0.507 OA
ATOM     23  H   UNL     1     104.076 124.757 116.438  1.00  0.00     0.293 HD
ENDBRANCH   6  22
BRANCH   8  24
ATOM     24  O   UNL     1     101.714 120.074 118.336  1.00  0.00    -0.508 OA
ATOM     25  H   UNL     1     101.042 120.120 119.093  1.00  0.00     0.293 HD
ENDBRANCH   8  24
TORSDOF 5
ENDMDL
MODEL 4
REMARK VINA RESULT:    -6.408      1.921      6.727
REMARK INTER + INTRA:          -7.825
REMARK INTER:                  -7.549
REMARK INTRA:                  -0.276
REMARK UNBOUND:                -0.294
REMARK SMILES O=c1cc(-c2ccc(O)c(O)c2)oc2cc(O)cc(O)c12
REMARK SMILES IDX 4 1 3 2 2 3 1 4 21 5 19 6 18 7 16 8 15 9 14 10 13 11 5 12
REMARK SMILES IDX 6 13 7 14 8 15 12 16 10 17 9 18 11 20 20 22 17 24
REMARK H PARENT 9 19 11 21 20 23 17 25
REMARK Flexibility Score: inf
ROOT
ATOM      1  C   UNL     1     106.286 121.553 120.053  1.00  0.00     0.138 A 
ATOM      2  C   UNL     1     105.777 120.865 121.163  1.00  0.00     0.100 A 
ATOM      3  C   UNL     1     106.654 120.251 122.058  1.00  0.00     0.197 A 
ATOM      4  O   UNL     1     106.171 119.696 123.078  1.00  0.00    -0.289 OA
ATOM      5  C   UNL     1     108.049 120.299 121.820  1.00  0.00     0.107 A 
ATOM      6  C   UNL     1     109.035 119.674 122.640  1.00  0.00     0.134 A 
ATOM      7  C   UNL     1     110.392 119.887 122.371  1.00  0.00     0.093 A 
ATOM      8  C   UNL     1     110.798 120.654 121.275  1.00  0.00     0.123 A 
ATOM      9  C   UNL     1     109.843 121.222 120.437  1.00  0.00     0.094 A 
ATOM     10  C   UNL     1     108.481 121.056 120.699  1.00  0.00     0.146 A 
ATOM     11  O   UNL     1     107.602 121.629 119.882  1.00  0.00    -0.456 OA
ENDROOT
BRANCH   1  12
ATOM     12  C   UNL     1     105.398 122.223 119.071  1.00  0.00     0.021 A 
ATOM     13  C   UNL     1     104.488 121.495 118.279  1.00  0.00     0.016 A 
ATOM     14  C   UNL     1     103.671 122.151 117.355  1.00  0.00     0.051 A 
ATOM     15  C   UNL     1     103.753 123.541 117.199  1.00  0.00     0.157 A 
ATOM     16  C   UNL     1     105.483 123.616 118.897  1.00  0.00     0.062 A 
ATOM     17  C   UNL     1     104.662 124.274 117.970  1.00  0.00     0.158 A 
BRANCH  15  18
ATOM     18  O   UNL     1     102.938 124.197 116.278  1.00  0.00    -0.504 OA
ATOM     19  H   UNL     1     102.508 123.704 115.505  1.00  0.00     0.293 HD
ENDBRANCH  15  18
BRANCH  17  20
ATOM     20  O   UNL     1     104.744 125.656 117.810  1.00  0.00    -0.504 OA
ATOM     21  H   UNL     1     104.718 126.284 118.605  1.00  0.00     0.293 HD
ENDBRANCH  17  20
ENDBRANCH   1  12
BRANCH   6  22
ATOM     22  O   UNL     1     108.738 118.822 123.708  1.00  0.00    -0.507 OA
ATOM     23  H   UNL     1     107.846 118.776 124.178  1.00  0.00     0.293 HD
ENDBRANCH   6  22
BRANCH   8  24
ATOM     24  O   UNL     1     112.152 120.848 121.005  1.00  0.00    -0.508 OA
ATOM     25  H   UNL     1     112.505 121.740 120.680  1.00  0.00     0.293 HD
ENDBRANCH   8  24
TORSDOF 5
ENDMDL
MODEL 5
REMARK VINA RESULT:    -6.338      1.407      3.035
REMARK INTER + INTRA:          -7.743
REMARK INTER:                  -7.468
REMARK INTRA:                  -0.275
REMARK UNBOUND:                -0.294
REMARK SMILES O=c1cc(-c2ccc(O)c(O)c2)oc2cc(O)cc(O)c12
REMARK SMILES IDX 4 1 3 2 2 3 1 4 21 5 19 6 18 7 16 8 15 9 14 10 13 11 5 12
REMARK SMILES IDX 6 13 7 14 8 15 12 16 10 17 9 18 11 20 20 22 17 24
REMARK H PARENT 9 19 11 21 20 23 17 25
REMARK Flexibility Score: inf
ROOT
ATOM      1  C   UNL     1     107.211 121.308 120.916  1.00  0.00     0.138 A 
ATOM      2  C   UNL     1     106.609 121.872 119.782  1.00  0.00     0.100 A 
ATOM      3  C   UNL     1     105.291 122.323 119.852  1.00  0.00     0.197 A 
ATOM      4  O   UNL     1     104.799 122.882 118.838  1.00  0.00    -0.289 OA
ATOM      5  C   UNL     1     104.561 122.178 121.057  1.00  0.00     0.107 A 
ATOM      6  C   UNL     1     103.198 122.564 121.232  1.00  0.00     0.134 A 
ATOM      7  C   UNL     1     102.615 122.480 122.502  1.00  0.00     0.093 A 
ATOM      8  C   UNL     1     103.329 121.967 123.590  1.00  0.00     0.123 A 
ATOM      9  C   UNL     1     104.642 121.537 123.416  1.00  0.00     0.094 A 
ATOM     10  C   UNL     1     105.261 121.641 122.169  1.00  0.00     0.146 A 
ATOM     11  O   UNL     1     106.521 121.233 122.049  1.00  0.00    -0.456 OA
ENDROOT
BRANCH   1  12
ATOM     12  C   UNL     1     108.609 120.811 120.896  1.00  0.00     0.021 A 
ATOM     13  C   UNL     1     109.526 121.141 121.913  1.00  0.00     0.016 A 
ATOM     14  C   UNL     1     110.840 120.668 121.864  1.00  0.00     0.051 A 
ATOM     15  C   UNL     1     111.263 119.865 120.797  1.00  0.00     0.157 A 
ATOM     16  C   UNL     1     109.048 120.016 119.821  1.00  0.00     0.062 A 
ATOM     17  C   UNL     1     110.366 119.541 119.772  1.00  0.00     0.158 A 
BRANCH  15  18
ATOM     18  O   UNL     1     112.573 119.391 120.746  1.00  0.00    -0.504 OA
ATOM     19  H   UNL     1     113.049 119.062 121.576  1.00  0.00     0.293 HD
ENDBRANCH  15  18
BRANCH  17  20
ATOM     20  O   UNL     1     110.790 118.745 118.710  1.00  0.00    -0.504 OA
ATOM     21  H   UNL     1     111.342 119.126 117.950  1.00  0.00     0.293 HD
ENDBRANCH  17  20
ENDBRANCH   1  12
BRANCH   6  22
ATOM     22  O   UNL     1     102.372 123.009 120.196  1.00  0.00    -0.507 OA
ATOM     23  H   UNL     1     101.604 123.653 120.308  1.00  0.00     0.293 HD
ENDBRANCH   6  22
BRANCH   8  24
ATOM     24  O   UNL     1     102.735 121.872 124.847  1.00  0.00    -0.508 OA
ATOM     25  H   UNL     1     103.204 121.417 125.622  1.00  0.00     0.293 HD
ENDBRANCH   8  24
TORSDOF 5
ENDMDL
MODEL 6
REMARK VINA RESULT:    -6.180      1.929      7.194
REMARK INTER + INTRA:          -7.557
REMARK INTER:                  -7.276
REMARK INTRA:                  -0.282
REMARK UNBOUND:                -0.294
REMARK SMILES O=c1cc(-c2ccc(O)c(O)c2)oc2cc(O)cc(O)c12
REMARK SMILES IDX 4 1 3 2 2 3 1 4 21 5 19 6 18 7 16 8 15 9 14 10 13 11 5 12
REMARK SMILES IDX 6 13 7 14 8 15 12 16 10 17 9 18 11 20 20 22 17 24
REMARK H PARENT 9 19 11 21 20 23 17 25
REMARK Flexibility Score: inf
ROOT
ATOM      1  C   UNL     1     107.185 121.063 119.327  1.00  0.00     0.138 A 
ATOM      2  C   UNL     1     107.840 119.988 118.708  1.00  0.00     0.100 A 
ATOM      3  C   UNL     1     109.086 119.575 119.180  1.00  0.00     0.197 A 
ATOM      4  O   UNL     1     109.620 118.568 118.646  1.00  0.00    -0.289 OA
ATOM      5  C   UNL     1     109.694 120.263 120.258  1.00  0.00     0.107 A 
ATOM      6  C   UNL     1     110.980 119.957 120.795  1.00  0.00     0.134 A 
ATOM      7  C   UNL     1     111.429 120.631 121.937  1.00  0.00     0.093 A 
ATOM      8  C   UNL     1     110.664 121.643 122.524  1.00  0.00     0.123 A 
ATOM      9  C   UNL     1     109.432 121.986 121.973  1.00  0.00     0.094 A 
ATOM     10  C   UNL     1     108.941 121.308 120.856  1.00  0.00     0.146 A 
ATOM     11  O   UNL     1     107.753 121.657 120.371  1.00  0.00    -0.456 OA
ENDROOT
BRANCH   1  12
ATOM     12  C   UNL     1     105.859 121.544 118.865  1.00  0.00     0.021 A 
ATOM     13  C   UNL     1     104.754 120.677 118.755  1.00  0.00     0.016 A 
ATOM     14  C   UNL     1     103.520 121.155 118.308  1.00  0.00     0.051 A 
ATOM     15  C   UNL     1     103.369 122.503 117.955  1.00  0.00     0.157 A 
ATOM     16  C   UNL     1     105.701 122.892 118.495  1.00  0.00     0.062 A 
ATOM     17  C   UNL     1     104.462 123.372 118.047  1.00  0.00     0.158 A 
BRANCH  15  18
ATOM     18  O   UNL     1     102.139 122.982 117.510  1.00  0.00    -0.504 OA
ATOM     19  H   UNL     1     102.048 123.900 117.091  1.00  0.00     0.293 HD
ENDBRANCH  15  18
BRANCH  17  20
ATOM     20  O   UNL     1     104.310 124.711 117.692  1.00  0.00    -0.504 OA
ATOM     21  H   UNL     1     104.356 125.012 116.726  1.00  0.00     0.293 HD
ENDBRANCH  17  20
ENDBRANCH   1  12
BRANCH   6  22
ATOM     22  O   UNL     1     111.859 119.024 120.236  1.00  0.00    -0.507 OA
ATOM     23  H   UNL     1     112.747 118.759 120.633  1.00  0.00     0.293 HD
ENDBRANCH   6  22
BRANCH   8  24
ATOM     24  O   UNL     1     111.126 122.320 123.651  1.00  0.00    -0.508 OA
ATOM     25  H   UNL     1     111.640 121.842 124.382  1.00  0.00     0.293 HD
ENDBRANCH   8  24
TORSDOF 5
ENDMDL
MODEL 7
REMARK VINA RESULT:    -6.133      2.599      4.064
REMARK INTER + INTRA:          -7.502
REMARK INTER:                  -7.227
REMARK INTRA:                  -0.275
REMARK UNBOUND:                -0.294
REMARK SMILES O=c1cc(-c2ccc(O)c(O)c2)oc2cc(O)cc(O)c12
REMARK SMILES IDX 4 1 3 2 2 3 1 4 21 5 19 6 18 7 16 8 15 9 14 10 13 11 5 12
REMARK SMILES IDX 6 13 7 14 8 15 12 16 10 17 9 18 11 20 20 22 17 24
REMARK H PARENT 9 19 11 21 20 23 17 25
REMARK Flexibility Score: inf
ROOT
ATOM      1  C   UNL     1     107.300 120.578 122.065  1.00  0.00     0.138 A 
ATOM      2  C   UNL     1     106.528 121.743 121.954  1.00  0.00     0.100 A 
ATOM      3  C   UNL     1     105.164 121.697 122.244  1.00  0.00     0.197 A 
ATOM      4  O   UNL     1     104.509 122.771 122.198  1.00  0.00    -0.289 OA
ATOM      5  C   UNL     1     104.564 120.469 122.615  1.00  0.00     0.107 A 
ATOM      6  C   UNL     1     103.176 120.294 122.893  1.00  0.00     0.134 A 
ATOM      7  C   UNL     1     102.716 119.058 123.364  1.00  0.00     0.093 A 
ATOM      8  C   UNL     1     103.587 117.973 123.509  1.00  0.00     0.123 A 
ATOM      9  C   UNL     1     104.934 118.120 123.188  1.00  0.00     0.094 A 
ATOM     10  C   UNL     1     105.428 119.350 122.749  1.00  0.00     0.146 A 
ATOM     11  O   UNL     1     106.724 119.450 122.467  1.00  0.00    -0.456 OA
ENDROOT
BRANCH   1  12
ATOM     12  C   UNL     1     108.754 120.571 121.768  1.00  0.00     0.021 A 
ATOM     13  C   UNL     1     109.663 121.360 122.500  1.00  0.00     0.016 A 
ATOM     14  C   UNL     1     111.026 121.341 122.192  1.00  0.00     0.051 A 
ATOM     15  C   UNL     1     111.504 120.542 121.146  1.00  0.00     0.157 A 
ATOM     16  C   UNL     1     109.242 119.782 120.710  1.00  0.00     0.062 A 
ATOM     17  C   UNL     1     110.610 119.763 120.402  1.00  0.00     0.158 A 
BRANCH  15  18
ATOM     18  O   UNL     1     112.863 120.521 120.837  1.00  0.00    -0.504 OA
ATOM     19  H   UNL     1     113.509 121.185 121.245  1.00  0.00     0.293 HD
ENDBRANCH  15  18
BRANCH  17  20
ATOM     20  O   UNL     1     111.087 118.971 119.359  1.00  0.00    -0.504 OA
ATOM     21  H   UNL     1     110.638 118.099 119.107  1.00  0.00     0.293 HD
ENDBRANCH  17  20
ENDBRANCH   1  12
BRANCH   6  22
ATOM     22  O   UNL     1     102.209 121.286 122.702  1.00  0.00    -0.507 OA
ATOM     23  H   UNL     1     102.162 121.899 121.901  1.00  0.00     0.293 HD
ENDBRANCH   6  22
BRANCH   8  24
ATOM     24  O   UNL     1     103.118 116.742 123.963  1.00  0.00    -0.508 OA
ATOM     25  H   UNL     1     103.660 116.170 124.599  1.00  0.00     0.293 HD
ENDBRANCH   8  24
TORSDOF 5
ENDMDL
MODEL 8
REMARK VINA RESULT:    -6.048      3.223      6.503
REMARK INTER + INTRA:          -7.403
REMARK INTER:                  -7.140
REMARK INTRA:                  -0.262
REMARK UNBOUND:                -0.294
REMARK SMILES O=c1cc(-c2ccc(O)c(O)c2)oc2cc(O)cc(O)c12
REMARK SMILES IDX 4 1 3 2 2 3 1 4 21 5 19 6 18 7 16 8 15 9 14 10 13 11 5 12
REMARK SMILES IDX 6 13 7 14 8 15 12 16 10 17 9 18 11 20 20 22 17 24
REMARK H PARENT 9 19 11 21 20 23 17 25
REMARK Flexibility Score: inf
ROOT
ATOM      1  C   UNL     1     106.463 119.527 122.550  1.00  0.00     0.138 A 
ATOM      2  C   UNL     1     107.743 119.294 123.073  1.00  0.00     0.100 A 
ATOM      3  C   UNL     1     108.855 119.871 122.460  1.00  0.00     0.197 A 
ATOM      4  O   UNL     1     109.983 119.696 122.989  1.00  0.00    -0.289 OA
ATOM      5  C   UNL     1     108.687 120.659 121.296  1.00  0.00     0.107 A 
ATOM      6  C   UNL     1     109.752 121.262 120.563  1.00  0.00     0.134 A 
ATOM      7  C   UNL     1     109.456 122.117 119.494  1.00  0.00     0.093 A 
ATOM      8  C   UNL     1     108.135 122.341 119.094  1.00  0.00     0.123 A 
ATOM      9  C   UNL     1     107.092 121.713 119.770  1.00  0.00     0.094 A 
ATOM     10  C   UNL     1     107.353 120.883 120.861  1.00  0.00     0.146 A 
ATOM     11  O   UNL     1     106.327 120.315 121.488  1.00  0.00    -0.456 OA
ENDROOT
BRANCH   1  12
ATOM     12  C   UNL     1     105.246 118.937 123.162  1.00  0.00     0.021 A 
ATOM     13  C   UNL     1     104.701 117.722 122.703  1.00  0.00     0.016 A 
ATOM     14  C   UNL     1     103.548 117.196 123.291  1.00  0.00     0.051 A 
ATOM     15  C   UNL     1     102.917 117.874 124.341  1.00  0.00     0.157 A 
ATOM     16  C   UNL     1     104.597 119.618 124.208  1.00  0.00     0.062 A 
ATOM     17  C   UNL     1     103.441 119.089 124.799  1.00  0.00     0.158 A 
BRANCH  15  18
ATOM     18  O   UNL     1     101.768 117.350 124.931  1.00  0.00    -0.504 OA
ATOM     19  H   UNL     1     101.617 117.398 125.931  1.00  0.00     0.293 HD
ENDBRANCH  15  18
BRANCH  17  20
ATOM     20  O   UNL     1     102.809 119.764 125.841  1.00  0.00    -0.504 OA
ATOM     21  H   UNL     1     101.800 119.840 125.889  1.00  0.00     0.293 HD
ENDBRANCH  17  20
ENDBRANCH   1  12
BRANCH   6  22
ATOM     22  O   UNL     1     111.107 121.038 120.825  1.00  0.00    -0.507 OA
ATOM     23  H   UNL     1     111.771 120.675 120.157  1.00  0.00     0.293 HD
ENDBRANCH   6  22
BRANCH   8  24
ATOM     24  O   UNL     1     107.851 123.181 118.019  1.00  0.00    -0.508 OA
ATOM     25  H   UNL     1     108.529 123.349 117.284  1.00  0.00     0.293 HD
ENDBRANCH   8  24
TORSDOF 5
ENDMDL
