MODEL 1
REMARK VINA RESULT:    -6.340      0.000      0.000
REMARK INTER + INTRA:          -6.877
REMARK INTER:                  -6.710
REMARK INTRA:                  -0.167
REMARK UNBOUND:                -0.167
REMARK SMILES C=C(C)[C@H]1CC[C@@]2(C)CCCC(=C)[C@H]2C1
REMARK SMILES IDX 4 1 5 2 6 3 7 4 9 5 10 6 11 7 12 8 13 9 14 10 15 11 8 12
REMARK SMILES IDX 2 13 3 14 1 15
REMARK H PARENT
REMARK Flexibility Score: inf
ROOT
ATOM      1  C   UNL     1       4.710   8.029  15.086  1.00  0.00     0.015 C 
ATOM      2  C   UNL     1       6.027   8.509  15.714  1.00  0.00     0.008 C 
ATOM      3  C   UNL     1       7.029   8.933  14.629  1.00  0.00     0.008 C 
ATOM      4  C   UNL     1       7.312   7.827  13.566  1.00  0.00    -0.026 C 
ATOM      5  C   UNL     1       8.230   6.706  14.173  1.00  0.00     0.008 C 
ATOM      6  C   UNL     1       7.955   5.271  13.680  1.00  0.00     0.005 C 
ATOM      7  C   UNL     1       7.403   5.196  12.256  1.00  0.00     0.031 C 
ATOM      8  C   UNL     1       6.194   6.084  12.078  1.00  0.00    -0.074 C 
ATOM      9  C   UNL     1       5.340   5.843  11.071  1.00  0.00     0.008 C 
ATOM     10  C   UNL     1       5.961   7.260  13.011  1.00  0.00     0.021 C 
ATOM     11  C   UNL     1       4.971   6.858  14.126  1.00  0.00     0.016 C 
ATOM     12  C   UNL     1       8.078   8.515  12.403  1.00  0.00     0.012 C 
ENDROOT
BRANCH   1  13
ATOM     13  C   UNL     1       3.687   7.657  16.153  1.00  0.00    -0.077 C 
ATOM     14  C   UNL     1       2.564   8.605  16.485  1.00  0.00     0.039 C 
ATOM     15  C   UNL     1       3.761   6.490  16.816  1.00  0.00     0.008 C 
ENDBRANCH   1  13
TORSDOF 1
ENDMDL
MODEL 2
REMARK VINA RESULT:    -6.053     13.517     15.521
REMARK INTER + INTRA:          -6.574
REMARK INTER:                  -6.406
REMARK INTRA:                  -0.168
REMARK UNBOUND:                -0.167
REMARK SMILES C=C(C)[C@H]1CC[C@@]2(C)CCCC(=C)[C@H]2C1
REMARK SMILES IDX 4 1 5 2 6 3 7 4 9 5 10 6 11 7 12 8 13 9 14 10 15 11 8 12
REMARK SMILES IDX 2 13 3 14 1 15
REMARK H PARENT
REMARK Flexibility Score: inf
ROOT
ATOM      1  C   UNL     1      12.456   6.851  26.918  1.00  0.00     0.015 C 
ATOM      2  C   UNL     1      11.131   7.310  26.291  1.00  0.00     0.008 C 
ATOM      3  C   UNL     1      10.086   7.608  27.376  1.00  0.00     0.008 C 
ATOM      4  C   UNL     1       9.834   6.419  28.354  1.00  0.00    -0.026 C 
ATOM      5  C   UNL     1       8.987   5.300  27.649  1.00  0.00     0.008 C 
ATOM      6  C   UNL     1       9.323   3.849  28.050  1.00  0.00     0.005 C 
ATOM      7  C   UNL     1       9.846   3.703  29.479  1.00  0.00     0.031 C 
ATOM      8  C   UNL     1      11.005   4.633  29.748  1.00  0.00    -0.074 C 
ATOM      9  C   UNL     1      11.847   4.365  30.758  1.00  0.00     0.008 C 
ATOM     10  C   UNL     1      11.200   5.881  28.903  1.00  0.00     0.021 C 
ATOM     11  C   UNL     1      12.232   5.605  27.789  1.00  0.00     0.016 C 
ATOM     12  C   UNL     1       9.010   6.987  29.541  1.00  0.00     0.012 C 
ENDROOT
BRANCH   1  13
ATOM     13  C   UNL     1      13.519   6.604  25.855  1.00  0.00    -0.077 C 
ATOM     14  C   UNL     1      14.323   7.755  25.309  1.00  0.00     0.039 C 
ATOM     15  C   UNL     1      13.764   5.369  25.384  1.00  0.00     0.008 C 
ENDBRANCH   1  13
TORSDOF 1
ENDMDL
MODEL 3
REMARK VINA RESULT:    -5.521      1.223      5.216
REMARK INTER + INTRA:          -6.010
REMARK INTER:                  -5.844
REMARK INTRA:                  -0.166
REMARK UNBOUND:                -0.167
REMARK SMILES C=C(C)[C@H]1CC[C@@]2(C)CCCC(=C)[C@H]2C1
REMARK SMILES IDX 4 1 5 2 6 3 7 4 9 5 10 6 11 7 12 8 13 9 14 10 15 11 8 12
REMARK SMILES IDX 2 13 3 14 1 15
REMARK H PARENT
REMARK Flexibility Score: inf
ROOT
ATOM      1  C   UNL     1       6.188   7.361  13.506  1.00  0.00     0.015 C 
ATOM      2  C   UNL     1       5.014   6.387  13.327  1.00  0.00     0.008 C 
ATOM      3  C   UNL     1       3.691   7.038  13.759  1.00  0.00     0.008 C 
ATOM      4  C   UNL     1       3.709   7.596  15.216  1.00  0.00    -0.026 C 
ATOM      5  C   UNL     1       3.631   6.420  16.253  1.00  0.00     0.008 C 
ATOM      6  C   UNL     1       4.422   6.624  17.561  1.00  0.00     0.005 C 
ATOM      7  C   UNL     1       4.555   8.086  17.989  1.00  0.00     0.031 C 
ATOM      8  C   UNL     1       5.099   8.946  16.874  1.00  0.00    -0.074 C 
ATOM      9  C   UNL     1       5.673  10.124  17.167  1.00  0.00     0.008 C 
ATOM     10  C   UNL     1       4.973   8.499  15.426  1.00  0.00     0.021 C 
ATOM     11  C   UNL     1       6.282   7.821  14.969  1.00  0.00     0.016 C 
ATOM     12  C   UNL     1       2.438   8.475  15.369  1.00  0.00     0.012 C 
ENDROOT
BRANCH   1  13
ATOM     13  C   UNL     1       7.499   6.746  13.030  1.00  0.00    -0.077 C 
ATOM     14  C   UNL     1       7.923   5.391  13.531  1.00  0.00     0.039 C 
ATOM     15  C   UNL     1       8.299   7.391  12.162  1.00  0.00     0.008 C 
ENDBRANCH   1  13
TORSDOF 1
ENDMDL
MODEL 4
REMARK VINA RESULT:    -5.382     12.212     13.703
REMARK INTER + INTRA:          -5.863
REMARK INTER:                  -5.693
REMARK INTRA:                  -0.171
REMARK UNBOUND:                -0.167
REMARK SMILES C=C(C)[C@H]1CC[C@@]2(C)CCCC(=C)[C@H]2C1
REMARK SMILES IDX 4 1 5 2 6 3 7 4 9 5 10 6 11 7 12 8 13 9 14 10 15 11 8 12
REMARK SMILES IDX 2 13 3 14 1 15
REMARK H PARENT
REMARK Flexibility Score: inf
ROOT
ATOM      1  C   UNL     1      12.843   6.257  25.538  1.00  0.00     0.015 C 
ATOM      2  C   UNL     1      11.806   7.247  24.987  1.00  0.00     0.008 C 
ATOM      3  C   UNL     1      12.170   7.685  23.560  1.00  0.00     0.008 C 
ATOM      4  C   UNL     1      13.605   8.284  23.431  1.00  0.00    -0.026 C 
ATOM      5  C   UNL     1      13.651   9.731  24.038  1.00  0.00     0.008 C 
ATOM      6  C   UNL     1      14.967  10.125  24.740  1.00  0.00     0.005 C 
ATOM      7  C   UNL     1      16.208   9.435  24.171  1.00  0.00     0.031 C 
ATOM      8  C   UNL     1      16.037   7.936  24.116  1.00  0.00    -0.074 C 
ATOM      9  C   UNL     1      17.123   7.149  24.057  1.00  0.00     0.008 C 
ATOM     10  C   UNL     1      14.647   7.321  24.097  1.00  0.00     0.021 C 
ATOM     11  C   UNL     1      14.245   6.888  25.523  1.00  0.00     0.016 C 
ATOM     12  C   UNL     1      13.912   8.376  21.912  1.00  0.00     0.012 C 
ENDROOT
BRANCH   1  13
ATOM     13  C   UNL     1      12.465   5.772  26.932  1.00  0.00    -0.077 C 
ATOM     14  C   UNL     1      11.024   5.489  27.268  1.00  0.00     0.039 C 
ATOM     15  C   UNL     1      13.396   5.586  27.884  1.00  0.00     0.008 C 
ENDBRANCH   1  13
TORSDOF 1
ENDMDL
MODEL 5
REMARK VINA RESULT:    -5.374      1.256      2.770
REMARK INTER + INTRA:          -5.855
REMARK INTER:                  -5.690
REMARK INTRA:                  -0.165
REMARK UNBOUND:                -0.167
REMARK SMILES C=C(C)[C@H]1CC[C@@]2(C)CCCC(=C)[C@H]2C1
REMARK SMILES IDX 4 1 5 2 6 3 7 4 9 5 10 6 11 7 12 8 13 9 14 10 15 11 8 12
REMARK SMILES IDX 2 13 3 14 1 15
REMARK H PARENT
REMARK Flexibility Score: inf
ROOT
ATOM      1  C   UNL     1       5.886   8.025  15.689  1.00  0.00     0.015 C 
ATOM      2  C   UNL     1       5.351   6.586  15.679  1.00  0.00     0.008 C 
ATOM      3  C   UNL     1       6.369   5.627  15.043  1.00  0.00     0.008 C 
ATOM      4  C   UNL     1       6.817   6.043  13.608  1.00  0.00    -0.026 C 
ATOM      5  C   UNL     1       5.677   5.744  12.570  1.00  0.00     0.008 C 
ATOM      6  C   UNL     1       5.549   6.746  11.404  1.00  0.00     0.005 C 
ATOM      7  C   UNL     1       6.868   7.409  11.005  1.00  0.00     0.031 C 
ATOM      8  C   UNL     1       7.563   8.029  12.193  1.00  0.00    -0.074 C 
ATOM      9  C   UNL     1       8.478   8.991  11.995  1.00  0.00     0.008 C 
ATOM     10  C   UNL     1       7.254   7.548  13.601  1.00  0.00     0.021 C 
ATOM     11  C   UNL     1       6.217   8.482  14.260  1.00  0.00     0.016 C 
ATOM     12  C   UNL     1       8.047   5.165  13.255  1.00  0.00     0.012 C 
ENDROOT
BRANCH   1  13
ATOM     13  C   UNL     1       4.909   8.978  16.367  1.00  0.00    -0.077 C 
ATOM     14  C   UNL     1       3.440   8.645  16.416  1.00  0.00     0.039 C 
ATOM     15  C   UNL     1       5.327  10.125  16.930  1.00  0.00     0.008 C 
ENDBRANCH   1  13
TORSDOF 1
ENDMDL
MODEL 6
REMARK VINA RESULT:    -5.266     12.293     13.813
REMARK INTER + INTRA:          -5.741
REMARK INTER:                  -5.575
REMARK INTRA:                  -0.166
REMARK UNBOUND:                -0.167
REMARK SMILES C=C(C)[C@H]1CC[C@@]2(C)CCCC(=C)[C@H]2C1
REMARK SMILES IDX 4 1 5 2 6 3 7 4 9 5 10 6 11 7 12 8 13 9 14 10 15 11 8 12
REMARK SMILES IDX 2 13 3 14 1 15
REMARK H PARENT
REMARK Flexibility Score: inf
ROOT
ATOM      1  C   UNL     1      11.063   6.259  27.879  1.00  0.00     0.015 C 
ATOM      2  C   UNL     1      12.160   5.255  27.496  1.00  0.00     0.008 C 
ATOM      3  C   UNL     1      13.448   5.981  27.083  1.00  0.00     0.008 C 
ATOM      4  C   UNL     1      13.247   7.019  25.936  1.00  0.00    -0.026 C 
ATOM      5  C   UNL     1      13.053   6.286  24.561  1.00  0.00     0.008 C 
ATOM      6  C   UNL     1      12.084   6.960  23.569  1.00  0.00     0.005 C 
ATOM      7  C   UNL     1      12.014   8.482  23.703  1.00  0.00     0.031 C 
ATOM      8  C   UNL     1      11.734   8.905  25.125  1.00  0.00    -0.074 C 
ATOM      9  C   UNL     1      11.227  10.125  25.364  1.00  0.00     0.008 C 
ATOM     10  C   UNL     1      12.051   7.971  26.281  1.00  0.00     0.021 C 
ATOM     11  C   UNL     1      10.776   7.210  26.707  1.00  0.00     0.016 C 
ATOM     12  C   UNL     1      14.549   7.862  25.866  1.00  0.00     0.012 C 
ENDROOT
BRANCH   1  13
ATOM     13  C   UNL     1       9.796   5.551  28.344  1.00  0.00    -0.077 C 
ATOM     14  C   UNL     1       9.411   4.222  27.746  1.00  0.00     0.039 C 
ATOM     15  C   UNL     1       9.001   6.086  29.286  1.00  0.00     0.008 C 
ENDBRANCH   1  13
TORSDOF 1
ENDMDL
MODEL 7
REMARK VINA RESULT:    -5.216     12.140     14.009
REMARK INTER + INTRA:          -5.688
REMARK INTER:                  -5.522
REMARK INTRA:                  -0.166
REMARK UNBOUND:                -0.167
REMARK SMILES C=C(C)[C@H]1CC[C@@]2(C)CCCC(=C)[C@H]2C1
REMARK SMILES IDX 4 1 5 2 6 3 7 4 9 5 10 6 11 7 12 8 13 9 14 10 15 11 8 12
REMARK SMILES IDX 2 13 3 14 1 15
REMARK H PARENT
REMARK Flexibility Score: inf
ROOT
ATOM      1  C   UNL     1      16.077   8.423  24.622  1.00  0.00     0.015 C 
ATOM      2  C   UNL     1      15.356   7.754  25.802  1.00  0.00     0.008 C 
ATOM      3  C   UNL     1      14.136   6.956  25.318  1.00  0.00     0.008 C 
ATOM      4  C   UNL     1      13.125   7.796  24.478  1.00  0.00    -0.026 C 
ATOM      5  C   UNL     1      12.303   8.755  25.410  1.00  0.00     0.008 C 
ATOM      6  C   UNL     1      11.932  10.125  24.806  1.00  0.00     0.005 C 
ATOM      7  C   UNL     1      11.757  10.110  23.287  1.00  0.00     0.031 C 
ATOM      8  C   UNL     1      12.954   9.505  22.593  1.00  0.00    -0.074 C 
ATOM      9  C   UNL     1      13.177   9.781  21.298  1.00  0.00     0.008 C 
ATOM     10  C   UNL     1      13.885   8.566  23.344  1.00  0.00     0.021 C 
ATOM     11  C   UNL     1      15.113   9.346  23.861  1.00  0.00     0.016 C 
ATOM     12  C   UNL     1      12.146   6.785  23.823  1.00  0.00     0.012 C 
ENDROOT
BRANCH   1  13
ATOM     13  C   UNL     1      17.321   9.174  25.082  1.00  0.00    -0.077 C 
ATOM     14  C   UNL     1      17.241  10.124  26.248  1.00  0.00     0.039 C 
ATOM     15  C   UNL     1      18.504   9.009  24.467  1.00  0.00     0.008 C 
ENDBRANCH   1  13
TORSDOF 1
ENDMDL
MODEL 8
REMARK VINA RESULT:    -5.183     11.883     13.813
REMARK INTER + INTRA:          -5.653
REMARK INTER:                  -5.486
REMARK INTRA:                  -0.167
REMARK UNBOUND:                -0.167
REMARK SMILES C=C(C)[C@H]1CC[C@@]2(C)CCCC(=C)[C@H]2C1
REMARK SMILES IDX 4 1 5 2 6 3 7 4 9 5 10 6 11 7 12 8 13 9 14 10 15 11 8 12
REMARK SMILES IDX 2 13 3 14 1 15
REMARK H PARENT
REMARK Flexibility Score: inf
ROOT
ATOM      1  C   UNL     1      15.079   7.484  24.815  1.00  0.00     0.015 C 
ATOM      2  C   UNL     1      14.791   7.680  26.311  1.00  0.00     0.008 C 
ATOM      3  C   UNL     1      13.556   6.874  26.742  1.00  0.00     0.008 C 
ATOM      4  C   UNL     1      12.277   7.183  25.904  1.00  0.00    -0.026 C 
ATOM      5  C   UNL     1      11.681   8.578  26.308  1.00  0.00     0.008 C 
ATOM      6  C   UNL     1      11.036   9.390  25.167  1.00  0.00     0.005 C 
ATOM      7  C   UNL     1      10.430   8.531  24.056  1.00  0.00     0.031 C 
ATOM      8  C   UNL     1      11.422   7.524  23.526  1.00  0.00    -0.074 C 
ATOM      9  C   UNL     1      11.236   6.990  22.308  1.00  0.00     0.008 C 
ATOM     10  C   UNL     1      12.607   7.092  24.374  1.00  0.00     0.021 C 
ATOM     11  C   UNL     1      13.860   7.900  23.977  1.00  0.00     0.016 C 
ATOM     12  C   UNL     1      11.240   6.083  26.256  1.00  0.00     0.012 C 
ENDROOT
BRANCH   1  13
ATOM     13  C   UNL     1      16.334   8.234  24.386  1.00  0.00    -0.077 C 
ATOM     14  C   UNL     1      17.663   7.525  24.351  1.00  0.00     0.039 C 
ATOM     15  C   UNL     1      16.287   9.530  24.032  1.00  0.00     0.008 C 
ENDBRANCH   1  13
TORSDOF 1
ENDMDL
MODEL 9
REMARK VINA RESULT:    -5.167     10.216     11.812
REMARK INTER + INTRA:          -5.637
REMARK INTER:                  -5.465
REMARK INTRA:                  -0.172
REMARK UNBOUND:                -0.167
REMARK SMILES C=C(C)[C@H]1CC[C@@]2(C)CCCC(=C)[C@H]2C1
REMARK SMILES IDX 4 1 5 2 6 3 7 4 9 5 10 6 11 7 12 8 13 9 14 10 15 11 8 12
REMARK SMILES IDX 2 13 3 14 1 15
REMARK H PARENT
REMARK Flexibility Score: inf
ROOT
ATOM      1  C   UNL     1      13.914   8.641  24.357  1.00  0.00     0.015 C 
ATOM      2  C   UNL     1      14.792   8.521  23.102  1.00  0.00     0.008 C 
ATOM      3  C   UNL     1      14.182   9.304  21.930  1.00  0.00     0.008 C 
ATOM      4  C   UNL     1      12.712   8.899  21.597  1.00  0.00    -0.026 C 
ATOM      5  C   UNL     1      12.680   7.508  20.868  1.00  0.00     0.008 C 
ATOM      6  C   UNL     1      11.471   6.607  21.194  1.00  0.00     0.005 C 
ATOM      7  C   UNL     1      10.198   7.376  21.550  1.00  0.00     0.031 C 
ATOM      8  C   UNL     1      10.444   8.387  22.644  1.00  0.00    -0.074 C 
ATOM      9  C   UNL     1       9.410   8.841  23.370  1.00  0.00     0.008 C 
ATOM     10  C   UNL     1      11.847   8.912  22.903  1.00  0.00     0.021 C 
ATOM     11  C   UNL     1      12.494   8.130  24.066  1.00  0.00     0.016 C 
ATOM     12  C   UNL     1      12.164   9.978  20.625  1.00  0.00     0.012 C 
ENDROOT
BRANCH   1  13
ATOM     13  C   UNL     1      14.536   7.914  25.543  1.00  0.00    -0.077 C 
ATOM     14  C   UNL     1      15.950   8.222  25.961  1.00  0.00     0.039 C 
ATOM     15  C   UNL     1      13.846   6.992  26.238  1.00  0.00     0.008 C 
ENDBRANCH   1  13
TORSDOF 1
ENDMDL
