MODEL 1
REMARK VINA RESULT:    -5.022      0.000      0.000
REMARK INTER + INTRA:          -8.154
REMARK INTER:                  -7.665
REMARK INTRA:                  -0.489
REMARK UNBOUND:                -0.489
REMARK SMILES O=C([O-])CCCCCCCCC(=O)[O-]
REMARK SMILES IDX 7 1 6 2 5 3 4 4 2 5 1 6 3 7 8 8 9 9 10 10 11 11 12 12 13 13
REMARK SMILES IDX 14 14
REMARK H PARENT
REMARK Flexibility Score: inf
ROOT
ATOM      1  C   UNL     1      17.052  -2.792  18.300  1.00  0.00     0.000 C 
ENDROOT
BRANCH   1   2
ATOM      2  C   UNL     1      17.812  -3.768  17.394  1.00  0.00     0.000 C 
BRANCH   2   3
ATOM      3  C   UNL     1      18.750  -3.014  16.439  1.00  0.00     0.006 C 
BRANCH   3   4
ATOM      4  C   UNL     1      19.147  -3.863  15.225  1.00  0.00     0.053 C 
BRANCH   4   5
ATOM      5  C   UNL     1      18.523  -3.354  13.961  1.00  0.00     0.041 C 
ATOM      6  O   UNL     1      19.093  -3.541  12.853  1.00  0.00    -0.550 OA
ATOM      7  O   UNL     1      17.331  -2.644  14.011  1.00  0.00    -0.550 OA
ENDBRANCH   4   5
ENDBRANCH   3   4
ENDBRANCH   2   3
ENDBRANCH   1   2
BRANCH   1   8
ATOM      8  C   UNL     1      15.617  -2.584  17.803  1.00  0.00     0.000 C 
BRANCH   8   9
ATOM      9  C   UNL     1      15.232  -3.649  16.770  1.00  0.00     0.000 C 
BRANCH   9  10
ATOM     10  C   UNL     1      13.748  -3.537  16.389  1.00  0.00     0.006 C 
BRANCH  10  11
ATOM     11  C   UNL     1      13.542  -3.453  14.871  1.00  0.00     0.053 C 
BRANCH  11  12
ATOM     12  C   UNL     1      12.270  -2.741  14.521  1.00  0.00     0.041 C 
ATOM     13  O   UNL     1      11.162  -3.205  14.899  1.00  0.00    -0.550 OA
ATOM     14  O   UNL     1      12.312  -1.551  13.807  1.00  0.00    -0.550 OA
ENDBRANCH  11  12
ENDBRANCH  10  11
ENDBRANCH   9  10
ENDBRANCH   8   9
ENDBRANCH   1   8
TORSDOF 9
ENDMDL
MODEL 2
REMARK VINA RESULT:    -5.005      3.242      5.053
REMARK INTER + INTRA:          -8.127
REMARK INTER:                  -7.407
REMARK INTRA:                  -0.720
REMARK UNBOUND:                -0.489
REMARK SMILES O=C([O-])CCCCCCCCC(=O)[O-]
REMARK SMILES IDX 7 1 6 2 5 3 4 4 2 5 1 6 3 7 8 8 9 9 10 10 11 11 12 12 13 13
REMARK SMILES IDX 14 14
REMARK H PARENT
REMARK Flexibility Score: inf
ROOT
ATOM      1  C   UNL     1      15.459  -5.719  14.402  1.00  0.00     0.000 C 
ENDROOT
BRANCH   1   2
ATOM      2  C   UNL     1      15.542  -6.455  13.060  1.00  0.00     0.000 C 
BRANCH   2   3
ATOM      3  C   UNL     1      16.277  -5.606  12.012  1.00  0.00     0.006 C 
BRANCH   3   4
ATOM      4  C   UNL     1      17.758  -5.986  11.891  1.00  0.00     0.053 C 
BRANCH   4   5
ATOM      5  C   UNL     1      18.646  -4.993  12.577  1.00  0.00     0.041 C 
ATOM      6  O   UNL     1      18.178  -3.892  12.971  1.00  0.00    -0.550 OA
ATOM      7  O   UNL     1      19.996  -5.269  12.750  1.00  0.00    -0.550 OA
ENDBRANCH   4   5
ENDBRANCH   3   4
ENDBRANCH   2   3
ENDBRANCH   1   2
BRANCH   1   8
ATOM      8  C   UNL     1      15.976  -6.600  15.546  1.00  0.00     0.000 C 
BRANCH   8   9
ATOM      9  C   UNL     1      17.098  -5.898  16.318  1.00  0.00     0.000 C 
BRANCH   9  10
ATOM     10  C   UNL     1      16.931  -4.372  16.267  1.00  0.00     0.006 C 
BRANCH  10  11
ATOM     11  C   UNL     1      18.135  -3.634  16.866  1.00  0.00     0.053 C 
BRANCH  11  12
ATOM     12  C   UNL     1      17.836  -3.095  18.231  1.00  0.00     0.041 C 
ATOM     13  O   UNL     1      16.694  -2.632  18.492  1.00  0.00    -0.550 OA
ATOM     14  O   UNL     1      18.806  -3.135  19.224  1.00  0.00    -0.550 OA
ENDBRANCH  11  12
ENDBRANCH  10  11
ENDBRANCH   9  10
ENDBRANCH   8   9
ENDBRANCH   1   8
TORSDOF 9
ENDMDL
MODEL 3
REMARK VINA RESULT:    -4.990      2.989      4.267
REMARK INTER + INTRA:          -8.104
REMARK INTER:                  -7.354
REMARK INTRA:                  -0.750
REMARK UNBOUND:                -0.489
REMARK SMILES O=C([O-])CCCCCCCCC(=O)[O-]
REMARK SMILES IDX 7 1 6 2 5 3 4 4 2 5 1 6 3 7 8 8 9 9 10 10 11 11 12 12 13 13
REMARK SMILES IDX 14 14
REMARK H PARENT
REMARK Flexibility Score: inf
ROOT
ATOM      1  C   UNL     1      14.235  -6.740  13.438  1.00  0.00     0.000 C 
ENDROOT
BRANCH   1   2
ATOM      2  C   UNL     1      15.180  -6.005  12.479  1.00  0.00     0.000 C 
BRANCH   2   3
ATOM      3  C   UNL     1      16.588  -6.616  12.519  1.00  0.00     0.006 C 
BRANCH   3   4
ATOM      4  C   UNL     1      17.597  -5.806  11.694  1.00  0.00     0.053 C 
BRANCH   4   5
ATOM      5  C   UNL     1      18.403  -4.880  12.552  1.00  0.00     0.041 C 
ATOM      6  O   UNL     1      17.875  -3.844  13.036  1.00  0.00    -0.550 OA
ATOM      7  O   UNL     1      19.746  -5.143  12.790  1.00  0.00    -0.550 OA
ENDBRANCH   4   5
ENDBRANCH   3   4
ENDBRANCH   2   3
ENDBRANCH   1   2
BRANCH   1   8
ATOM      8  C   UNL     1      15.005  -7.328  14.626  1.00  0.00     0.000 C 
BRANCH   8   9
ATOM      9  C   UNL     1      14.799  -6.483  15.888  1.00  0.00     0.000 C 
BRANCH   9  10
ATOM     10  C   UNL     1      15.931  -5.458  16.056  1.00  0.00     0.006 C 
BRANCH  10  11
ATOM     11  C   UNL     1      15.492  -4.039  15.675  1.00  0.00     0.053 C 
BRANCH  11  12
ATOM     12  C   UNL     1      14.638  -3.416  16.737  1.00  0.00     0.041 C 
ATOM     13  O   UNL     1      13.383  -3.512  16.677  1.00  0.00    -0.550 OA
ATOM     14  O   UNL     1      15.228  -2.761  17.809  1.00  0.00    -0.550 OA
ENDBRANCH  11  12
ENDBRANCH  10  11
ENDBRANCH   9  10
ENDBRANCH   8   9
ENDBRANCH   1   8
TORSDOF 9
ENDMDL
MODEL 4
REMARK VINA RESULT:    -4.965      3.503      7.299
REMARK INTER + INTRA:          -8.066
REMARK INTER:                  -7.550
REMARK INTRA:                  -0.516
REMARK UNBOUND:                -0.489
REMARK SMILES O=C([O-])CCCCCCCCC(=O)[O-]
REMARK SMILES IDX 7 1 6 2 5 3 4 4 2 5 1 6 3 7 8 8 9 9 10 10 11 11 12 12 13 13
REMARK SMILES IDX 14 14
REMARK H PARENT
REMARK Flexibility Score: inf
ROOT
ATOM      1  C   UNL     1      13.322  -5.443  10.641  1.00  0.00     0.000 C 
ENDROOT
BRANCH   1   2
ATOM      2  C   UNL     1      12.202  -4.420  10.413  1.00  0.00     0.000 C 
BRANCH   2   3
ATOM      3  C   UNL     1      12.216  -3.337  11.502  1.00  0.00     0.006 C 
BRANCH   3   4
ATOM      4  C   UNL     1      12.296  -3.933  12.913  1.00  0.00     0.053 C 
BRANCH   4   5
ATOM      5  C   UNL     1      12.463  -2.872  13.958  1.00  0.00     0.041 C 
ATOM      6  O   UNL     1      12.564  -3.189  15.173  1.00  0.00    -0.550 OA
ATOM      7  O   UNL     1      12.472  -1.532  13.593  1.00  0.00    -0.550 OA
ENDBRANCH   4   5
ENDBRANCH   3   4
ENDBRANCH   2   3
ENDBRANCH   1   2
BRANCH   1   8
ATOM      8  C   UNL     1      14.099  -5.706   9.346  1.00  0.00     0.000 C 
BRANCH   8   9
ATOM      9  C   UNL     1      15.609  -5.568   9.572  1.00  0.00     0.000 C 
BRANCH   9  10
ATOM     10  C   UNL     1      15.931  -5.430  11.067  1.00  0.00     0.006 C 
BRANCH  10  11
ATOM     11  C   UNL     1      17.351  -5.905  11.401  1.00  0.00     0.053 C 
BRANCH  11  12
ATOM     12  C   UNL     1      17.945  -5.129  12.538  1.00  0.00     0.041 C 
ATOM     13  O   UNL     1      19.160  -4.800  12.512  1.00  0.00    -0.550 OA
ATOM     14  O   UNL     1      17.148  -4.742  13.607  1.00  0.00    -0.550 OA
ENDBRANCH  11  12
ENDBRANCH  10  11
ENDBRANCH   9  10
ENDBRANCH   8   9
ENDBRANCH   1   8
TORSDOF 9
ENDMDL
MODEL 5
REMARK VINA RESULT:    -4.950      3.103      5.246
REMARK INTER + INTRA:          -8.044
REMARK INTER:                  -7.297
REMARK INTRA:                  -0.747
REMARK UNBOUND:                -0.489
REMARK SMILES O=C([O-])CCCCCCCCC(=O)[O-]
REMARK SMILES IDX 7 1 6 2 5 3 4 4 2 5 1 6 3 7 8 8 9 9 10 10 11 11 12 12 13 13
REMARK SMILES IDX 14 14
REMARK H PARENT
REMARK Flexibility Score: inf
ROOT
ATOM      1  C   UNL     1      15.821  -6.610  15.753  1.00  0.00     0.000 C 
ENDROOT
BRANCH   1   2
ATOM      2  C   UNL     1      16.202  -5.129  15.868  1.00  0.00     0.000 C 
BRANCH   2   3
ATOM      3  C   UNL     1      17.683  -4.969  16.242  1.00  0.00     0.006 C 
BRANCH   3   4
ATOM      4  C   UNL     1      18.064  -3.504  16.491  1.00  0.00     0.053 C 
BRANCH   4   5
ATOM      5  C   UNL     1      17.539  -3.007  17.804  1.00  0.00     0.041 C 
ATOM      6  O   UNL     1      18.133  -3.300  18.875  1.00  0.00    -0.550 OA
ATOM      7  O   UNL     1      16.376  -2.250  17.847  1.00  0.00    -0.550 OA
ENDBRANCH   4   5
ENDBRANCH   3   4
ENDBRANCH   2   3
ENDBRANCH   1   2
BRANCH   1   8
ATOM      8  C   UNL     1      15.047  -6.881  14.458  1.00  0.00     0.000 C 
BRANCH   8   9
ATOM      9  C   UNL     1      16.000  -7.230  13.309  1.00  0.00     0.000 C 
BRANCH   9  10
ATOM     10  C   UNL     1      16.116  -6.064  12.316  1.00  0.00     0.006 C 
BRANCH  10  11
ATOM     11  C   UNL     1      17.533  -5.924  11.745  1.00  0.00     0.053 C 
BRANCH  11  12
ATOM     12  C   UNL     1      18.351  -4.940  12.523  1.00  0.00     0.041 C 
ATOM     13  O   UNL     1      17.847  -3.844  12.887  1.00  0.00    -0.550 OA
ATOM     14  O   UNL     1      19.659  -5.246  12.875  1.00  0.00    -0.550 OA
ENDBRANCH  11  12
ENDBRANCH  10  11
ENDBRANCH   9  10
ENDBRANCH   8   9
ENDBRANCH   1   8
TORSDOF 9
ENDMDL
MODEL 6
REMARK VINA RESULT:    -4.918      2.791      5.171
REMARK INTER + INTRA:          -7.994
REMARK INTER:                  -7.095
REMARK INTRA:                  -0.899
REMARK UNBOUND:                -0.489
REMARK SMILES O=C([O-])CCCCCCCCC(=O)[O-]
REMARK SMILES IDX 7 1 6 2 5 3 4 4 2 5 1 6 3 7 8 8 9 9 10 10 11 11 12 12 13 13
REMARK SMILES IDX 14 14
REMARK H PARENT
REMARK Flexibility Score: inf
ROOT
ATOM      1  C   UNL     1      14.772  -5.985  15.794  1.00  0.00     0.000 C 
ENDROOT
BRANCH   1   2
ATOM      2  C   UNL     1      15.693  -4.826  16.193  1.00  0.00     0.000 C 
BRANCH   2   3
ATOM      3  C   UNL     1      14.897  -3.523  16.358  1.00  0.00     0.006 C 
BRANCH   3   4
ATOM      4  C   UNL     1      13.383  -3.754  16.283  1.00  0.00     0.053 C 
BRANCH   4   5
ATOM      5  C   UNL     1      12.782  -3.113  15.068  1.00  0.00     0.041 C 
ATOM      6  O   UNL     1      11.532  -2.984  14.972  1.00  0.00    -0.550 OA
ATOM      7  O   UNL     1      13.599  -2.690  14.028  1.00  0.00    -0.550 OA
ENDBRANCH   4   5
ENDBRANCH   3   4
ENDBRANCH   2   3
ENDBRANCH   1   2
BRANCH   1   8
ATOM      8  C   UNL     1      15.576  -7.150  15.204  1.00  0.00     0.000 C 
BRANCH   8   9
ATOM      9  C   UNL     1      15.167  -7.421  13.752  1.00  0.00     0.000 C 
BRANCH   9  10
ATOM     10  C   UNL     1      14.069  -6.448  13.298  1.00  0.00     0.006 C 
BRANCH  10  11
ATOM     11  C   UNL     1      14.407  -5.772  11.963  1.00  0.00     0.053 C 
BRANCH  11  12
ATOM     12  C   UNL     1      15.838  -5.329  11.910  1.00  0.00     0.041 C 
ATOM     13  O   UNL     1      16.628  -5.841  11.074  1.00  0.00    -0.550 OA
ATOM     14  O   UNL     1      16.288  -4.328  12.760  1.00  0.00    -0.550 OA
ENDBRANCH  11  12
ENDBRANCH  10  11
ENDBRANCH   9  10
ENDBRANCH   8   9
ENDBRANCH   1   8
TORSDOF 9
ENDMDL
MODEL 7
REMARK VINA RESULT:    -4.908      3.598      5.554
REMARK INTER + INTRA:          -7.979
REMARK INTER:                  -7.277
REMARK INTRA:                  -0.702
REMARK UNBOUND:                -0.489
REMARK SMILES O=C([O-])CCCCCCCCC(=O)[O-]
REMARK SMILES IDX 7 1 6 2 5 3 4 4 2 5 1 6 3 7 8 8 9 9 10 10 11 11 12 12 13 13
REMARK SMILES IDX 14 14
REMARK H PARENT
REMARK Flexibility Score: inf
ROOT
ATOM      1  C   UNL     1      15.528  -6.034  14.553  1.00  0.00     0.000 C 
ENDROOT
BRANCH   1   2
ATOM      2  C   UNL     1      14.851  -5.682  15.883  1.00  0.00     0.000 C 
BRANCH   2   3
ATOM      3  C   UNL     1      14.710  -4.161  16.042  1.00  0.00     0.006 C 
BRANCH   3   4
ATOM      4  C   UNL     1      13.255  -3.732  16.270  1.00  0.00     0.053 C 
BRANCH   4   5
ATOM      5  C   UNL     1      12.665  -3.095  15.049  1.00  0.00     0.041 C 
ATOM      6  O   UNL     1      11.420  -3.131  14.855  1.00  0.00    -0.550 OA
ATOM      7  O   UNL     1      13.491  -2.491  14.111  1.00  0.00    -0.550 OA
ENDBRANCH   4   5
ENDBRANCH   3   4
ENDBRANCH   2   3
ENDBRANCH   1   2
BRANCH   1   8
ATOM      8  C   UNL     1      14.799  -7.188  13.853  1.00  0.00     0.000 C 
BRANCH   8   9
ATOM      9  C   UNL     1      13.769  -6.660  12.848  1.00  0.00     0.000 C 
BRANCH   9  10
ATOM     10  C   UNL     1      14.185  -5.285  12.305  1.00  0.00     0.006 C 
BRANCH  10  11
ATOM     11  C   UNL     1      13.307  -4.834  11.130  1.00  0.00     0.053 C 
BRANCH  11  12
ATOM     12  C   UNL     1      13.801  -5.379   9.824  1.00  0.00     0.041 C 
ATOM     13  O   UNL     1      15.021  -5.291   9.524  1.00  0.00    -0.550 OA
ATOM     14  O   UNL     1      12.922  -6.012   8.956  1.00  0.00    -0.550 OA
ENDBRANCH  11  12
ENDBRANCH  10  11
ENDBRANCH   9  10
ENDBRANCH   8   9
ENDBRANCH   1   8
TORSDOF 9
ENDMDL
MODEL 8
REMARK VINA RESULT:    -4.861      2.322      3.230
REMARK INTER + INTRA:          -7.907
REMARK INTER:                  -7.130
REMARK INTRA:                  -0.777
REMARK UNBOUND:                -0.489
REMARK SMILES O=C([O-])CCCCCCCCC(=O)[O-]
REMARK SMILES IDX 7 1 6 2 5 3 4 4 2 5 1 6 3 7 8 8 9 9 10 10 11 11 12 12 13 13
REMARK SMILES IDX 14 14
REMARK H PARENT
REMARK Flexibility Score: inf
ROOT
ATOM      1  C   UNL     1      15.458  -4.996  15.362  1.00  0.00     0.000 C 
ENDROOT
BRANCH   1   2
ATOM      2  C   UNL     1      16.562  -5.675  16.181  1.00  0.00     0.000 C 
BRANCH   2   3
ATOM      3  C   UNL     1      17.859  -4.852  16.145  1.00  0.00     0.006 C 
BRANCH   3   4
ATOM      4  C   UNL     1      17.598  -3.349  16.308  1.00  0.00     0.053 C 
BRANCH   4   5
ATOM      5  C   UNL     1      17.367  -2.976  17.741  1.00  0.00     0.041 C 
ATOM      6  O   UNL     1      16.345  -2.316  18.067  1.00  0.00    -0.550 OA
ATOM      7  O   UNL     1      18.297  -3.329  18.710  1.00  0.00    -0.550 OA
ENDBRANCH   4   5
ENDBRANCH   3   4
ENDBRANCH   2   3
ENDBRANCH   1   2
BRANCH   1   8
ATOM      8  C   UNL     1      14.197  -4.783  16.207  1.00  0.00     0.000 C 
BRANCH   8   9
ATOM      9  C   UNL     1      13.677  -3.348  16.070  1.00  0.00     0.000 C 
BRANCH   9  10
ATOM     10  C   UNL     1      12.397  -3.304  15.224  1.00  0.00     0.006 C 
BRANCH  10  11
ATOM     11  C   UNL     1      12.453  -2.219  14.140  1.00  0.00     0.053 C 
BRANCH  11  12
ATOM     12  C   UNL     1      13.544  -2.481  13.146  1.00  0.00     0.041 C 
ATOM     13  O   UNL     1      13.579  -3.573  12.519  1.00  0.00    -0.550 OA
ATOM     14  O   UNL     1      14.501  -1.508  12.890  1.00  0.00    -0.550 OA
ENDBRANCH  11  12
ENDBRANCH  10  11
ENDBRANCH   9  10
ENDBRANCH   8   9
ENDBRANCH   1   8
TORSDOF 9
ENDMDL
MODEL 9
REMARK VINA RESULT:    -4.834      3.147      4.941
REMARK INTER + INTRA:          -7.867
REMARK INTER:                  -7.233
REMARK INTRA:                  -0.634
REMARK UNBOUND:                -0.489
REMARK SMILES O=C([O-])CCCCCCCCC(=O)[O-]
REMARK SMILES IDX 7 1 6 2 5 3 4 4 2 5 1 6 3 7 8 8 9 9 10 10 11 11 12 12 13 13
REMARK SMILES IDX 14 14
REMARK H PARENT
REMARK Flexibility Score: inf
ROOT
ATOM      1  C   UNL     1      14.002  -3.045  14.199  1.00  0.00     0.000 C 
ENDROOT
BRANCH   1   2
ATOM      2  C   UNL     1      13.577  -3.800  12.933  1.00  0.00     0.000 C 
BRANCH   2   3
ATOM      3  C   UNL     1      14.326  -5.136  12.812  1.00  0.00     0.006 C 
BRANCH   3   4
ATOM      4  C   UNL     1      15.847  -4.960  12.916  1.00  0.00     0.053 C 
BRANCH   4   5
ATOM      5  C   UNL     1      16.557  -5.548  11.734  1.00  0.00     0.041 C 
ATOM      6  O   UNL     1      17.751  -5.936  11.840  1.00  0.00    -0.550 OA
ATOM      7  O   UNL     1      15.911  -5.637  10.508  1.00  0.00    -0.550 OA
ENDBRANCH   4   5
ENDBRANCH   3   4
ENDBRANCH   2   3
ENDBRANCH   1   2
BRANCH   1   8
ATOM      8  C   UNL     1      13.063  -3.361  15.369  1.00  0.00     0.000 C 
BRANCH   8   9
ATOM      9  C   UNL     1      13.857  -3.738  16.625  1.00  0.00     0.000 C 
BRANCH   9  10
ATOM     10  C   UNL     1      15.336  -3.350  16.479  1.00  0.00     0.006 C 
BRANCH  10  11
ATOM     11  C   UNL     1      15.857  -2.578  17.698  1.00  0.00     0.053 C 
BRANCH  11  12
ATOM     12  C   UNL     1      17.280  -2.929  18.012  1.00  0.00     0.041 C 
ATOM     13  O   UNL     1      17.702  -2.859  19.197  1.00  0.00    -0.550 OA
ATOM     14  O   UNL     1      18.129  -3.365  17.003  1.00  0.00    -0.550 OA
ENDBRANCH  11  12
ENDBRANCH  10  11
ENDBRANCH   9  10
ENDBRANCH   8   9
ENDBRANCH   1   8
TORSDOF 9
ENDMDL
