MODEL 1
REMARK VINA RESULT:    -4.026      0.000      0.000
REMARK INTER + INTRA:          -4.692
REMARK INTER:                  -4.615
REMARK INTRA:                  -0.077
REMARK UNBOUND:                -0.077
REMARK SMILES CC(C)[C@H]([NH3+])C(=O)[O-]
REMARK SMILES IDX 4 1 5 2 6 6 7 7 8 8 2 9 1 10 3 11
REMARK H PARENT 5 3 5 4 5 5
REMARK Flexibility Score: inf
ROOT
ATOM      1  C   UNL     1      65.905  26.387  36.166  1.00  0.00     0.230 C 
ENDROOT
BRANCH   1   2
ATOM      2  N   UNL     1      65.375  25.360  37.076  1.00  0.00    -0.350 N 
ATOM      3  H   UNL     1      65.607  24.405  36.724  1.00  0.00     0.345 HD
ATOM      4  H   UNL     1      65.821  25.467  38.017  1.00  0.00     0.345 HD
ATOM      5  H   UNL     1      64.340  25.446  37.191  1.00  0.00     0.345 HD
ENDBRANCH   1   2
BRANCH   1   6
ATOM      6  C   UNL     1      67.413  26.357  36.149  1.00  0.00     0.099 C 
ATOM      7  O   UNL     1      68.021  26.012  35.101  1.00  0.00    -0.544 OA
ATOM      8  O   UNL     1      68.145  26.753  37.262  1.00  0.00    -0.544 OA
ENDBRANCH   1   6
BRANCH   1   9
ATOM      9  C   UNL     1      65.381  27.818  36.491  1.00  0.00     0.047 C 
ATOM     10  C   UNL     1      63.872  27.871  36.782  1.00  0.00     0.014 C 
ATOM     11  C   UNL     1      65.744  28.825  35.389  1.00  0.00     0.014 C 
ENDBRANCH   1   9
TORSDOF 3
ENDMDL
MODEL 2
REMARK VINA RESULT:    -3.994     14.899     15.490
REMARK INTER + INTRA:          -4.655
REMARK INTER:                  -4.593
REMARK INTRA:                  -0.062
REMARK UNBOUND:                -0.077
REMARK SMILES CC(C)[C@H]([NH3+])C(=O)[O-]
REMARK SMILES IDX 4 1 5 2 6 6 7 7 8 8 2 9 1 10 3 11
REMARK H PARENT 5 3 5 4 5 5
REMARK Flexibility Score: inf
ROOT
ATOM      1  C   UNL     1      61.351  13.820  31.499  1.00  0.00     0.230 C 
ENDROOT
BRANCH   1   2
ATOM      2  N   UNL     1      61.225  15.281  31.614  1.00  0.00    -0.350 N 
ATOM      3  H   UNL     1      60.219  15.560  31.643  1.00  0.00     0.345 HD
ATOM      4  H   UNL     1      61.666  15.598  32.510  1.00  0.00     0.345 HD
ATOM      5  H   UNL     1      61.700  15.770  30.823  1.00  0.00     0.345 HD
ENDBRANCH   1   2
BRANCH   1   6
ATOM      6  C   UNL     1      61.249  13.388  30.057  1.00  0.00     0.099 C 
ATOM      7  O   UNL     1      60.808  12.242  29.775  1.00  0.00    -0.544 OA
ATOM      8  O   UNL     1      61.590  14.258  29.028  1.00  0.00    -0.544 OA
ENDBRANCH   1   6
BRANCH   1   9
ATOM      9  C   UNL     1      60.325  13.050  32.383  1.00  0.00     0.047 C 
ATOM     10  C   UNL     1      59.185  13.933  32.917  1.00  0.00     0.014 C 
ATOM     11  C   UNL     1      61.009  12.311  33.544  1.00  0.00     0.014 C 
ENDBRANCH   1   9
TORSDOF 3
ENDMDL
MODEL 3
REMARK VINA RESULT:    -3.825     15.196     15.737
REMARK INTER + INTRA:          -4.462
REMARK INTER:                  -4.435
REMARK INTRA:                  -0.027
REMARK UNBOUND:                -0.077
REMARK SMILES CC(C)[C@H]([NH3+])C(=O)[O-]
REMARK SMILES IDX 4 1 5 2 6 6 7 7 8 8 2 9 1 10 3 11
REMARK H PARENT 5 3 5 4 5 5
REMARK Flexibility Score: inf
ROOT
ATOM      1  C   UNL     1      59.424  14.337  32.097  1.00  0.00     0.230 C 
ENDROOT
BRANCH   1   2
ATOM      2  N   UNL     1      60.038  15.251  33.072  1.00  0.00    -0.350 N 
ATOM      3  H   UNL     1      60.726  15.880  32.600  1.00  0.00     0.345 HD
ATOM      4  H   UNL     1      59.297  15.856  33.496  1.00  0.00     0.345 HD
ATOM      5  H   UNL     1      60.516  14.728  33.840  1.00  0.00     0.345 HD
ENDBRANCH   1   2
BRANCH   1   6
ATOM      6  C   UNL     1      58.182  13.701  32.672  1.00  0.00     0.099 C 
ATOM      7  O   UNL     1      58.159  13.349  33.881  1.00  0.00    -0.544 OA
ATOM      8  O   UNL     1      57.040  13.541  31.895  1.00  0.00    -0.544 OA
ENDBRANCH   1   6
BRANCH   1   9
ATOM      9  C   UNL     1      60.411  13.251  31.574  1.00  0.00     0.047 C 
ATOM     10  C   UNL     1      61.330  12.676  32.664  1.00  0.00     0.014 C 
ATOM     11  C   UNL     1      61.249  13.761  30.391  1.00  0.00     0.014 C 
ENDBRANCH   1   9
TORSDOF 3
ENDMDL
MODEL 4
REMARK VINA RESULT:    -3.784      2.838      3.760
REMARK INTER + INTRA:          -4.414
REMARK INTER:                  -4.367
REMARK INTRA:                  -0.047
REMARK UNBOUND:                -0.077
REMARK SMILES CC(C)[C@H]([NH3+])C(=O)[O-]
REMARK SMILES IDX 4 1 5 2 6 6 7 7 8 8 2 9 1 10 3 11
REMARK H PARENT 5 3 5 4 5 5
REMARK Flexibility Score: inf
ROOT
ATOM      1  C   UNL     1      65.322  28.011  35.975  1.00  0.00     0.230 C 
ENDROOT
BRANCH   1   2
ATOM      2  N   UNL     1      66.131  28.640  34.919  1.00  0.00    -0.350 N 
ATOM      3  H   UNL     1      66.871  27.983  34.586  1.00  0.00     0.345 HD
ATOM      4  H   UNL     1      65.518  28.865  34.100  1.00  0.00     0.345 HD
ATOM      5  H   UNL     1      66.575  29.525  35.251  1.00  0.00     0.345 HD
ENDBRANCH   1   2
BRANCH   1   6
ATOM      6  C   UNL     1      64.752  29.056  36.903  1.00  0.00     0.099 C 
ATOM      7  O   UNL     1      63.518  29.311  36.876  1.00  0.00    -0.544 OA
ATOM      8  O   UNL     1      65.563  29.708  37.824  1.00  0.00    -0.544 OA
ENDBRANCH   1   6
BRANCH   1   9
ATOM      9  C   UNL     1      66.103  26.925  36.774  1.00  0.00     0.047 C 
ATOM     10  C   UNL     1      67.540  26.704  36.273  1.00  0.00     0.014 C 
ATOM     11  C   UNL     1      65.346  25.589  36.816  1.00  0.00     0.014 C 
ENDBRANCH   1   9
TORSDOF 3
ENDMDL
MODEL 5
REMARK VINA RESULT:    -3.636     17.326     18.147
REMARK INTER + INTRA:          -4.245
REMARK INTER:                  -4.189
REMARK INTRA:                  -0.056
REMARK UNBOUND:                -0.077
REMARK SMILES CC(C)[C@H]([NH3+])C(=O)[O-]
REMARK SMILES IDX 4 1 5 2 6 6 7 7 8 8 2 9 1 10 3 11
REMARK H PARENT 5 3 5 4 5 5
REMARK Flexibility Score: inf
ROOT
ATOM      1  C   UNL     1      61.015  12.179  27.701  1.00  0.00     0.230 C 
ENDROOT
BRANCH   1   2
ATOM      2  N   UNL     1      61.999  12.605  26.693  1.00  0.00    -0.350 N 
ATOM      3  H   UNL     1      61.659  13.453  26.186  1.00  0.00     0.345 HD
ATOM      4  H   UNL     1      62.895  12.861  27.169  1.00  0.00     0.345 HD
ATOM      5  H   UNL     1      62.197  11.844  26.005  1.00  0.00     0.345 HD
ENDBRANCH   1   2
BRANCH   1   6
ATOM      6  C   UNL     1      61.268  12.871  29.018  1.00  0.00     0.099 C 
ATOM      7  O   UNL     1      61.696  14.055  29.032  1.00  0.00    -0.544 OA
ATOM      8  O   UNL     1      60.989  12.233  30.221  1.00  0.00    -0.544 OA
ENDBRANCH   1   6
BRANCH   1   9
ATOM      9  C   UNL     1      60.964  10.633  27.886  1.00  0.00     0.047 C 
ATOM     10  C   UNL     1      62.343   9.957  27.813  1.00  0.00     0.014 C 
ATOM     11  C   UNL     1      59.996   9.969  26.895  1.00  0.00     0.014 C 
ENDBRANCH   1   9
TORSDOF 3
ENDMDL
MODEL 6
REMARK VINA RESULT:    -3.585     15.685     16.494
REMARK INTER + INTRA:          -4.186
REMARK INTER:                  -4.123
REMARK INTRA:                  -0.063
REMARK UNBOUND:                -0.077
REMARK SMILES CC(C)[C@H]([NH3+])C(=O)[O-]
REMARK SMILES IDX 4 1 5 2 6 6 7 7 8 8 2 9 1 10 3 11
REMARK H PARENT 5 3 5 4 5 5
REMARK Flexibility Score: inf
ROOT
ATOM      1  C   UNL     1      60.885  13.361  29.907  1.00  0.00     0.230 C 
ENDROOT
BRANCH   1   2
ATOM      2  N   UNL     1      61.216  14.788  29.766  1.00  0.00    -0.350 N 
ATOM      3  H   UNL     1      61.862  14.935  28.959  1.00  0.00     0.345 HD
ATOM      4  H   UNL     1      60.341  15.329  29.571  1.00  0.00     0.345 HD
ATOM      5  H   UNL     1      61.652  15.168  30.635  1.00  0.00     0.345 HD
ENDBRANCH   1   2
BRANCH   1   6
ATOM      6  C   UNL     1      61.057  12.913  31.338  1.00  0.00     0.099 C 
ATOM      7  O   UNL     1      62.177  13.033  31.902  1.00  0.00    -0.544 OA
ATOM      8  O   UNL     1      59.981  12.412  32.060  1.00  0.00    -0.544 OA
ENDBRANCH   1   6
BRANCH   1   9
ATOM      9  C   UNL     1      61.697  12.449  28.939  1.00  0.00     0.047 C 
ATOM     10  C   UNL     1      61.489  12.788  27.453  1.00  0.00     0.014 C 
ATOM     11  C   UNL     1      61.418  10.959  29.186  1.00  0.00     0.014 C 
ENDBRANCH   1   9
TORSDOF 3
ENDMDL
MODEL 7
REMARK VINA RESULT:    -3.485     14.673     15.495
REMARK INTER + INTRA:          -4.072
REMARK INTER:                  -4.230
REMARK INTRA:                   0.158
REMARK UNBOUND:                -0.077
REMARK SMILES CC(C)[C@H]([NH3+])C(=O)[O-]
REMARK SMILES IDX 4 1 5 2 6 6 7 7 8 8 2 9 1 10 3 11
REMARK H PARENT 5 3 5 4 5 5
REMARK Flexibility Score: inf
ROOT
ATOM      1  C   UNL     1      60.582  14.189  31.517  1.00  0.00     0.230 C 
ENDROOT
BRANCH   1   2
ATOM      2  N   UNL     1      61.286  15.468  31.700  1.00  0.00    -0.350 N 
ATOM      3  H   UNL     1      62.239  15.307  32.095  1.00  0.00     0.345 HD
ATOM      4  H   UNL     1      61.404  15.935  30.771  1.00  0.00     0.345 HD
ATOM      5  H   UNL     1      60.754  16.113  32.327  1.00  0.00     0.345 HD
ENDBRANCH   1   2
BRANCH   1   6
ATOM      6  C   UNL     1      59.279  14.184  32.279  1.00  0.00     0.099 C 
ATOM      7  O   UNL     1      58.305  13.510  31.851  1.00  0.00    -0.544 OA
ATOM      8  O   UNL     1      59.153  14.878  33.477  1.00  0.00    -0.544 OA
ENDBRANCH   1   6
BRANCH   1   9
ATOM      9  C   UNL     1      61.452  12.955  31.899  1.00  0.00     0.047 C 
ATOM     10  C   UNL     1      61.413  11.827  30.855  1.00  0.00     0.014 C 
ATOM     11  C   UNL     1      61.090  12.405  33.287  1.00  0.00     0.014 C 
ENDBRANCH   1   9
TORSDOF 3
ENDMDL
MODEL 8
REMARK VINA RESULT:    -3.414     14.554     15.001
REMARK INTER + INTRA:          -3.991
REMARK INTER:                  -4.051
REMARK INTRA:                   0.061
REMARK UNBOUND:                -0.077
REMARK SMILES CC(C)[C@H]([NH3+])C(=O)[O-]
REMARK SMILES IDX 4 1 5 2 6 6 7 7 8 8 2 9 1 10 3 11
REMARK H PARENT 5 3 5 4 5 5
REMARK Flexibility Score: inf
ROOT
ATOM      1  C   UNL     1      57.988  21.887  23.953  1.00  0.00     0.230 C 
ENDROOT
BRANCH   1   2
ATOM      2  N   UNL     1      57.468  20.654  24.565  1.00  0.00    -0.350 N 
ATOM      3  H   UNL     1      57.842  20.541  25.534  1.00  0.00     0.345 HD
ATOM      4  H   UNL     1      56.425  20.715  24.635  1.00  0.00     0.345 HD
ATOM      5  H   UNL     1      57.712  19.812  23.997  1.00  0.00     0.345 HD
ENDBRANCH   1   2
BRANCH   1   6
ATOM      6  C   UNL     1      59.487  21.968  24.108  1.00  0.00     0.099 C 
ATOM      7  O   UNL     1      60.159  22.693  23.327  1.00  0.00    -0.544 OA
ATOM      8  O   UNL     1      60.133  21.290  25.134  1.00  0.00    -0.544 OA
ENDBRANCH   1   6
BRANCH   1   9
ATOM      9  C   UNL     1      57.303  23.175  24.502  1.00  0.00     0.047 C 
ATOM     10  C   UNL     1      58.058  23.824  25.673  1.00  0.00     0.014 C 
ATOM     11  C   UNL     1      55.838  22.923  24.892  1.00  0.00     0.014 C 
ENDBRANCH   1   9
TORSDOF 3
ENDMDL
MODEL 9
REMARK VINA RESULT:    -3.396     14.625     15.076
REMARK INTER + INTRA:          -3.969
REMARK INTER:                  -3.912
REMARK INTRA:                  -0.057
REMARK UNBOUND:                -0.077
REMARK SMILES CC(C)[C@H]([NH3+])C(=O)[O-]
REMARK SMILES IDX 4 1 5 2 6 6 7 7 8 8 2 9 1 10 3 11
REMARK H PARENT 5 3 5 4 5 5
REMARK Flexibility Score: inf
ROOT
ATOM      1  C   UNL     1      58.140  22.855  24.946  1.00  0.00     0.230 C 
ENDROOT
BRANCH   1   2
ATOM      2  N   UNL     1      58.200  24.106  25.719  1.00  0.00    -0.350 N 
ATOM      3  H   UNL     1      59.073  24.633  25.494  1.00  0.00     0.345 HD
ATOM      4  H   UNL     1      57.389  24.715  25.458  1.00  0.00     0.345 HD
ATOM      5  H   UNL     1      58.158  23.924  26.747  1.00  0.00     0.345 HD
ENDBRANCH   1   2
BRANCH   1   6
ATOM      6  C   UNL     1      59.528  22.382  24.589  1.00  0.00     0.099 C 
ATOM      7  O   UNL     1      60.140  21.597  25.360  1.00  0.00    -0.544 OA
ATOM      8  O   UNL     1      60.123  22.764  23.393  1.00  0.00    -0.544 OA
ENDBRANCH   1   6
BRANCH   1   9
ATOM      9  C   UNL     1      57.247  22.968  23.675  1.00  0.00     0.047 C 
ATOM     10  C   UNL     1      56.317  24.192  23.680  1.00  0.00     0.014 C 
ATOM     11  C   UNL     1      56.434  21.687  23.430  1.00  0.00     0.014 C 
ENDBRANCH   1   9
TORSDOF 3
ENDMDL
