MODEL 1
REMARK VINA RESULT:    -4.631      0.000      0.000
REMARK INTER + INTRA:         -14.605
REMARK INTER:                 -10.586
REMARK INTRA:                  -4.019
REMARK UNBOUND:                -4.019
REMARK SMILES CCCCCCCCCCCCCCCCCCCCCCCC(=O)[O-]
REMARK SMILES IDX 13 1 14 2 15 3 16 4 17 5 18 6 19 7 20 8 21 9 22 10 23 11
REMARK SMILES IDX 24 12 25 13 26 14 12 15 11 16 10 17 9 18 8 19 7 20 6 21 5 22
REMARK SMILES IDX 4 23 3 24 2 25 1 26
REMARK H PARENT
REMARK Flexibility Score: inf
ROOT
ATOM      1  C   UNL     1     -15.987  20.174 -17.134  1.00  0.00     0.000 C 
ENDROOT
BRANCH   1   2
ATOM      2  C   UNL     1     -17.349  19.644 -17.631  1.00  0.00     0.000 C 
BRANCH   2   3
ATOM      3  C   UNL     1     -17.423  19.483 -19.159  1.00  0.00     0.000 C 
BRANCH   3   4
ATOM      4  C   UNL     1     -18.553  18.539 -19.600  1.00  0.00     0.000 C 
BRANCH   4   5
ATOM      5  C   UNL     1     -18.059  17.111 -19.878  1.00  0.00     0.000 C 
BRANCH   5   6
ATOM      6  C   UNL     1     -18.477  16.108 -18.789  1.00  0.00     0.000 C 
BRANCH   6   7
ATOM      7  C   UNL     1     -17.342  15.891 -17.781  1.00  0.00     0.000 C 
BRANCH   7   8
ATOM      8  C   UNL     1     -15.992  15.716 -18.492  1.00  0.00     0.000 C 
BRANCH   8   9
ATOM      9  C   UNL     1     -14.953  16.759 -18.029  1.00  0.00     0.000 C 
BRANCH   9  10
ATOM     10  C   UNL     1     -14.395  17.622 -19.172  1.00  0.00     0.006 C 
BRANCH  10  11
ATOM     11  C   UNL     1     -12.863  17.587 -19.255  1.00  0.00     0.053 C 
BRANCH  11  12
ATOM     12  C   UNL     1     -12.411  16.425 -20.084  1.00  0.00     0.041 C 
ATOM     13  O   UNL     1     -11.834  15.447 -19.542  1.00  0.00    -0.550 OA
ATOM     14  O   UNL     1     -12.602  16.437 -21.461  1.00  0.00    -0.550 OA
ENDBRANCH  11  12
ENDBRANCH  10  11
ENDBRANCH   9  10
ENDBRANCH   8   9
ENDBRANCH   7   8
ENDBRANCH   6   7
ENDBRANCH   5   6
ENDBRANCH   4   5
ENDBRANCH   3   4
ENDBRANCH   2   3
ENDBRANCH   1   2
BRANCH   1  15
ATOM     15  C   UNL     1     -15.693  21.596 -17.648  1.00  0.00     0.000 C 
BRANCH  15  16
ATOM     16  C   UNL     1     -14.252  22.042 -17.351  1.00  0.00     0.000 C 
BRANCH  16  17
ATOM     17  C   UNL     1     -13.246  20.881 -17.427  1.00  0.00     0.000 C 
BRANCH  17  18
ATOM     18  C   UNL     1     -12.653  20.526 -16.055  1.00  0.00    -0.000 C 
BRANCH  18  19
ATOM     19  C   UNL     1     -12.702  19.015 -15.766  1.00  0.00    -0.000 C 
BRANCH  19  20
ATOM     20  C   UNL     1     -12.861  18.696 -14.268  1.00  0.00    -0.000 C 
BRANCH  20  21
ATOM     21  C   UNL     1     -13.920  17.629 -13.939  1.00  0.00    -0.000 C 
BRANCH  21  22
ATOM     22  C   UNL     1     -15.348  18.076 -14.288  1.00  0.00    -0.000 C 
BRANCH  22  23
ATOM     23  C   UNL     1     -16.411  17.427 -13.386  1.00  0.00    -0.000 C 
BRANCH  23  24
ATOM     24  C   UNL     1     -17.567  16.765 -14.169  1.00  0.00    -0.000 C 
BRANCH  24  25
ATOM     25  C   UNL     1     -18.871  17.569 -14.062  1.00  0.00    -0.003 C 
ATOM     26  C   UNL     1     -19.570  17.672 -15.414  1.00  0.00     0.004 C 
ENDBRANCH  24  25
ENDBRANCH  23  24
ENDBRANCH  22  23
ENDBRANCH  21  22
ENDBRANCH  20  21
ENDBRANCH  19  20
ENDBRANCH  18  19
ENDBRANCH  17  18
ENDBRANCH  16  17
ENDBRANCH  15  16
ENDBRANCH   1  15
TORSDOF 22
ENDMDL
MODEL 2
REMARK VINA RESULT:    -4.578      3.159      6.306
REMARK INTER + INTRA:         -14.486
REMARK INTER:                 -10.332
REMARK INTRA:                  -4.154
REMARK UNBOUND:                -4.019
REMARK SMILES CCCCCCCCCCCCCCCCCCCCCCCC(=O)[O-]
REMARK SMILES IDX 13 1 14 2 15 3 16 4 17 5 18 6 19 7 20 8 21 9 22 10 23 11
REMARK SMILES IDX 24 12 25 13 26 14 12 15 11 16 10 17 9 18 8 19 7 20 6 21 5 22
REMARK SMILES IDX 4 23 3 24 2 25 1 26
REMARK H PARENT
REMARK Flexibility Score: inf
ROOT
ATOM      1  C   UNL     1     -15.262  11.824 -15.541  1.00  0.00     0.000 C 
ENDROOT
BRANCH   1   2
ATOM      2  C   UNL     1     -14.073  11.490 -16.467  1.00  0.00     0.000 C 
BRANCH   2   3
ATOM      3  C   UNL     1     -12.866  12.426 -16.278  1.00  0.00     0.000 C 
BRANCH   3   4
ATOM      4  C   UNL     1     -13.176  13.877 -16.676  1.00  0.00     0.000 C 
BRANCH   4   5
ATOM      5  C   UNL     1     -13.646  14.008 -18.133  1.00  0.00     0.000 C 
BRANCH   5   6
ATOM      6  C   UNL     1     -13.001  15.194 -18.868  1.00  0.00     0.000 C 
BRANCH   6   7
ATOM      7  C   UNL     1     -14.013  15.876 -19.797  1.00  0.00     0.000 C 
BRANCH   7   8
ATOM      8  C   UNL     1     -14.296  17.317 -19.350  1.00  0.00     0.000 C 
BRANCH   8   9
ATOM      9  C   UNL     1     -15.805  17.576 -19.151  1.00  0.00     0.000 C 
BRANCH   9  10
ATOM     10  C   UNL     1     -16.704  16.517 -19.807  1.00  0.00     0.006 C 
BRANCH  10  11
ATOM     11  C   UNL     1     -18.199  16.787 -19.595  1.00  0.00     0.053 C 
BRANCH  11  12
ATOM     12  C   UNL     1     -18.700  17.775 -20.603  1.00  0.00     0.041 C 
ATOM     13  O   UNL     1     -18.882  17.424 -21.798  1.00  0.00    -0.550 OA
ATOM     14  O   UNL     1     -18.937  19.093 -20.227  1.00  0.00    -0.550 OA
ENDBRANCH  11  12
ENDBRANCH  10  11
ENDBRANCH   9  10
ENDBRANCH   8   9
ENDBRANCH   7   8
ENDBRANCH   6   7
ENDBRANCH   5   6
ENDBRANCH   4   5
ENDBRANCH   3   4
ENDBRANCH   2   3
ENDBRANCH   1   2
BRANCH   1  15
ATOM     15  C   UNL     1     -16.618  11.512 -16.198  1.00  0.00     0.000 C 
BRANCH  15  16
ATOM     16  C   UNL     1     -17.555  12.731 -16.220  1.00  0.00     0.000 C 
BRANCH  16  17
ATOM     17  C   UNL     1     -17.033  13.861 -17.124  1.00  0.00     0.000 C 
BRANCH  17  18
ATOM     18  C   UNL     1     -16.641  15.116 -16.328  1.00  0.00    -0.000 C 
BRANCH  18  19
ATOM     19  C   UNL     1     -17.867  15.889 -15.808  1.00  0.00    -0.000 C 
BRANCH  19  20
ATOM     20  C   UNL     1     -17.830  16.114 -14.286  1.00  0.00    -0.000 C 
BRANCH  20  21
ATOM     21  C   UNL     1     -16.890  15.173 -13.512  1.00  0.00    -0.000 C 
BRANCH  21  22
ATOM     22  C   UNL     1     -15.898  15.925 -12.610  1.00  0.00    -0.000 C 
BRANCH  22  23
ATOM     23  C   UNL     1     -14.701  16.495 -13.388  1.00  0.00    -0.000 C 
BRANCH  23  24
ATOM     24  C   UNL     1     -14.852  17.990 -13.748  1.00  0.00    -0.000 C 
BRANCH  24  25
ATOM     25  C   UNL     1     -14.645  18.247 -15.247  1.00  0.00    -0.003 C 
ATOM     26  C   UNL     1     -13.528  17.373 -15.810  1.00  0.00     0.004 C 
ENDBRANCH  24  25
ENDBRANCH  23  24
ENDBRANCH  22  23
ENDBRANCH  21  22
ENDBRANCH  20  21
ENDBRANCH  19  20
ENDBRANCH  18  19
ENDBRANCH  17  18
ENDBRANCH  16  17
ENDBRANCH  15  16
ENDBRANCH   1  15
TORSDOF 22
ENDMDL
MODEL 3
REMARK VINA RESULT:    -4.552      2.578      5.562
REMARK INTER + INTRA:         -14.425
REMARK INTER:                 -10.267
REMARK INTRA:                  -4.158
REMARK UNBOUND:                -4.019
REMARK SMILES CCCCCCCCCCCCCCCCCCCCCCCC(=O)[O-]
REMARK SMILES IDX 13 1 14 2 15 3 16 4 17 5 18 6 19 7 20 8 21 9 22 10 23 11
REMARK SMILES IDX 24 12 25 13 26 14 12 15 11 16 10 17 9 18 8 19 7 20 6 21 5 22
REMARK SMILES IDX 4 23 3 24 2 25 1 26
REMARK H PARENT
REMARK Flexibility Score: inf
ROOT
ATOM      1  C   UNL     1     -18.289  16.237 -17.624  1.00  0.00     0.000 C 
ENDROOT
BRANCH   1   2
ATOM      2  C   UNL     1     -16.973  15.435 -17.712  1.00  0.00     0.000 C 
BRANCH   2   3
ATOM      3  C   UNL     1     -15.732  16.316 -17.937  1.00  0.00     0.000 C 
BRANCH   3   4
ATOM      4  C   UNL     1     -15.020  16.679 -16.624  1.00  0.00     0.000 C 
BRANCH   4   5
ATOM      5  C   UNL     1     -13.579  16.149 -16.563  1.00  0.00     0.000 C 
BRANCH   5   6
ATOM      6  C   UNL     1     -13.036  16.047 -15.128  1.00  0.00     0.000 C 
BRANCH   6   7
ATOM      7  C   UNL     1     -13.122  17.401 -14.414  1.00  0.00     0.000 C 
BRANCH   7   8
ATOM      8  C   UNL     1     -11.733  17.890 -13.979  1.00  0.00     0.000 C 
BRANCH   8   9
ATOM      9  C   UNL     1     -11.521  19.387 -14.293  1.00  0.00     0.000 C 
BRANCH   9  10
ATOM     10  C   UNL     1     -12.558  19.965 -15.269  1.00  0.00     0.006 C 
BRANCH  10  11
ATOM     11  C   UNL     1     -12.010  20.133 -16.693  1.00  0.00     0.053 C 
BRANCH  11  12
ATOM     12  C   UNL     1     -13.016  19.663 -17.698  1.00  0.00     0.041 C 
ATOM     13  O   UNL     1     -14.225  19.990 -17.585  1.00  0.00    -0.550 OA
ATOM     14  O   UNL     1     -12.619  18.839 -18.745  1.00  0.00    -0.550 OA
ENDBRANCH  11  12
ENDBRANCH  10  11
ENDBRANCH   9  10
ENDBRANCH   8   9
ENDBRANCH   7   8
ENDBRANCH   6   7
ENDBRANCH   5   6
ENDBRANCH   4   5
ENDBRANCH   3   4
ENDBRANCH   2   3
ENDBRANCH   1   2
BRANCH   1  15
ATOM     15  C   UNL     1     -19.239  15.681 -16.548  1.00  0.00     0.000 C 
BRANCH  15  16
ATOM     16  C   UNL     1     -19.740  16.770 -15.585  1.00  0.00     0.000 C 
BRANCH  16  17
ATOM     17  C   UNL     1     -18.599  17.641 -15.033  1.00  0.00     0.000 C 
BRANCH  17  18
ATOM     18  C   UNL     1     -18.193  17.242 -13.606  1.00  0.00    -0.000 C 
BRANCH  18  19
ATOM     19  C   UNL     1     -16.677  17.370 -13.368  1.00  0.00    -0.000 C 
BRANCH  19  20
ATOM     20  C   UNL     1     -16.039  16.065 -12.858  1.00  0.00    -0.000 C 
BRANCH  20  21
ATOM     21  C   UNL     1     -16.858  14.791 -13.131  1.00  0.00    -0.000 C 
BRANCH  21  22
ATOM     22  C   UNL     1     -16.397  14.041 -14.391  1.00  0.00    -0.000 C 
BRANCH  22  23
ATOM     23  C   UNL     1     -16.524  12.515 -14.253  1.00  0.00    -0.000 C 
BRANCH  23  24
ATOM     24  C   UNL     1     -15.693  11.729 -15.292  1.00  0.00    -0.000 C 
BRANCH  24  25
ATOM     25  C   UNL     1     -14.952  12.661 -16.262  1.00  0.00    -0.003 C 
ATOM     26  C   UNL     1     -13.465  12.323 -16.326  1.00  0.00     0.004 C 
ENDBRANCH  24  25
ENDBRANCH  23  24
ENDBRANCH  22  23
ENDBRANCH  21  22
ENDBRANCH  20  21
ENDBRANCH  19  20
ENDBRANCH  18  19
ENDBRANCH  17  18
ENDBRANCH  16  17
ENDBRANCH  15  16
ENDBRANCH   1  15
TORSDOF 22
ENDMDL
MODEL 4
REMARK VINA RESULT:    -4.532      2.821      6.614
REMARK INTER + INTRA:         -14.380
REMARK INTER:                 -10.670
REMARK INTRA:                  -3.710
REMARK UNBOUND:                -4.019
REMARK SMILES CCCCCCCCCCCCCCCCCCCCCCCC(=O)[O-]
REMARK SMILES IDX 13 1 14 2 15 3 16 4 17 5 18 6 19 7 20 8 21 9 22 10 23 11
REMARK SMILES IDX 24 12 25 13 26 14 12 15 11 16 10 17 9 18 8 19 7 20 6 21 5 22
REMARK SMILES IDX 4 23 3 24 2 25 1 26
REMARK H PARENT
REMARK Flexibility Score: inf
ROOT
ATOM      1  C   UNL     1     -15.582  19.977 -17.130  1.00  0.00     0.000 C 
ENDROOT
BRANCH   1   2
ATOM      2  C   UNL     1     -15.163  21.440 -17.390  1.00  0.00     0.000 C 
BRANCH   2   3
ATOM      3  C   UNL     1     -13.638  21.645 -17.419  1.00  0.00     0.000 C 
BRANCH   3   4
ATOM      4  C   UNL     1     -12.993  21.478 -16.035  1.00  0.00     0.000 C 
BRANCH   4   5
ATOM      5  C   UNL     1     -12.131  20.211 -15.930  1.00  0.00     0.000 C 
BRANCH   5   6
ATOM      6  C   UNL     1     -11.918  19.747 -14.479  1.00  0.00     0.000 C 
BRANCH   6   7
ATOM      7  C   UNL     1     -12.308  18.273 -14.315  1.00  0.00     0.000 C 
BRANCH   7   8
ATOM      8  C   UNL     1     -13.800  18.125 -13.982  1.00  0.00     0.000 C 
BRANCH   8   9
ATOM      9  C   UNL     1     -14.559  17.329 -15.064  1.00  0.00     0.000 C 
BRANCH   9  10
ATOM     10  C   UNL     1     -14.731  15.840 -14.727  1.00  0.00     0.006 C 
BRANCH  10  11
ATOM     11  C   UNL     1     -16.185  15.364 -14.843  1.00  0.00     0.053 C 
BRANCH  11  12
ATOM     12  C   UNL     1     -16.622  14.703 -13.573  1.00  0.00     0.041 C 
ATOM     13  O   UNL     1     -16.668  15.360 -12.500  1.00  0.00    -0.550 OA
ATOM     14  O   UNL     1     -16.950  13.352 -13.569  1.00  0.00    -0.550 OA
ENDBRANCH  11  12
ENDBRANCH  10  11
ENDBRANCH   9  10
ENDBRANCH   8   9
ENDBRANCH   7   8
ENDBRANCH   6   7
ENDBRANCH   5   6
ENDBRANCH   4   5
ENDBRANCH   3   4
ENDBRANCH   2   3
ENDBRANCH   1   2
BRANCH   1  15
ATOM     15  C   UNL     1     -17.027  19.697 -17.579  1.00  0.00     0.000 C 
BRANCH  15  16
ATOM     16  C   UNL     1     -17.656  18.511 -16.830  1.00  0.00     0.000 C 
BRANCH  16  17
ATOM     17  C   UNL     1     -19.145  18.322 -17.166  1.00  0.00     0.000 C 
BRANCH  17  18
ATOM     18  C   UNL     1     -19.465  18.662 -18.630  1.00  0.00    -0.000 C 
BRANCH  18  19
ATOM     19  C   UNL     1     -19.682  17.405 -19.492  1.00  0.00    -0.000 C 
BRANCH  19  20
ATOM     20  C   UNL     1     -18.876  17.433 -20.803  1.00  0.00    -0.000 C 
BRANCH  20  21
ATOM     21  C   UNL     1     -17.473  18.056 -20.691  1.00  0.00    -0.000 C 
BRANCH  21  22
ATOM     22  C   UNL     1     -16.349  17.007 -20.705  1.00  0.00    -0.000 C 
BRANCH  22  23
ATOM     23  C   UNL     1     -16.213  16.264 -19.366  1.00  0.00    -0.000 C 
BRANCH  23  24
ATOM     24  C   UNL     1     -14.912  16.597 -18.604  1.00  0.00    -0.000 C 
BRANCH  24  25
ATOM     25  C   UNL     1     -13.796  17.072 -19.546  1.00  0.00    -0.003 C 
ATOM     26  C   UNL     1     -12.978  18.193 -18.914  1.00  0.00     0.004 C 
ENDBRANCH  24  25
ENDBRANCH  23  24
ENDBRANCH  22  23
ENDBRANCH  21  22
ENDBRANCH  20  21
ENDBRANCH  19  20
ENDBRANCH  18  19
ENDBRANCH  17  18
ENDBRANCH  16  17
ENDBRANCH  15  16
ENDBRANCH   1  15
TORSDOF 22
ENDMDL
MODEL 5
REMARK VINA RESULT:    -4.515      1.364      3.935
REMARK INTER + INTRA:         -14.341
REMARK INTER:                  -9.827
REMARK INTRA:                  -4.515
REMARK UNBOUND:                -4.019
REMARK SMILES CCCCCCCCCCCCCCCCCCCCCCCC(=O)[O-]
REMARK SMILES IDX 13 1 14 2 15 3 16 4 17 5 18 6 19 7 20 8 21 9 22 10 23 11
REMARK SMILES IDX 24 12 25 13 26 14 12 15 11 16 10 17 9 18 8 19 7 20 6 21 5 22
REMARK SMILES IDX 4 23 3 24 2 25 1 26
REMARK H PARENT
REMARK Flexibility Score: inf
ROOT
ATOM      1  C   UNL     1     -19.061  18.917 -19.928  1.00  0.00     0.000 C 
ENDROOT
BRANCH   1   2
ATOM      2  C   UNL     1     -19.180  17.513 -19.295  1.00  0.00     0.000 C 
BRANCH   2   3
ATOM      3  C   UNL     1     -20.119  17.468 -18.077  1.00  0.00     0.000 C 
BRANCH   3   4
ATOM      4  C   UNL     1     -19.574  18.265 -16.881  1.00  0.00     0.000 C 
BRANCH   4   5
ATOM      5  C   UNL     1     -19.148  17.364 -15.712  1.00  0.00     0.000 C 
BRANCH   5   6
ATOM      6  C   UNL     1     -17.691  17.593 -15.276  1.00  0.00     0.000 C 
BRANCH   6   7
ATOM      7  C   UNL     1     -16.884  16.292 -15.363  1.00  0.00     0.000 C 
BRANCH   7   8
ATOM      8  C   UNL     1     -16.834  15.762 -16.803  1.00  0.00     0.000 C 
BRANCH   8   9
ATOM      9  C   UNL     1     -15.455  15.164 -17.154  1.00  0.00     0.000 C 
BRANCH   9  10
ATOM     10  C   UNL     1     -15.255  14.917 -18.657  1.00  0.00     0.006 C 
BRANCH  10  11
ATOM     11  C   UNL     1     -13.813  15.169 -19.118  1.00  0.00     0.053 C 
BRANCH  11  12
ATOM     12  C   UNL     1     -13.778  16.245 -20.159  1.00  0.00     0.041 C 
ATOM     13  O   UNL     1     -13.265  17.364 -19.896  1.00  0.00    -0.550 OA
ATOM     14  O   UNL     1     -14.338  16.020 -21.412  1.00  0.00    -0.550 OA
ENDBRANCH  11  12
ENDBRANCH  10  11
ENDBRANCH   9  10
ENDBRANCH   8   9
ENDBRANCH   7   8
ENDBRANCH   6   7
ENDBRANCH   5   6
ENDBRANCH   4   5
ENDBRANCH   3   4
ENDBRANCH   2   3
ENDBRANCH   1   2
BRANCH   1  15
ATOM     15  C   UNL     1     -17.614  19.443 -19.908  1.00  0.00     0.000 C 
BRANCH  15  16
ATOM     16  C   UNL     1     -16.636  18.452 -19.258  1.00  0.00     0.000 C 
BRANCH  16  17
ATOM     17  C   UNL     1     -15.861  19.070 -18.082  1.00  0.00     0.000 C 
BRANCH  17  18
ATOM     18  C   UNL     1     -16.525  20.348 -17.546  1.00  0.00    -0.000 C 
BRANCH  18  19
ATOM     19  C   UNL     1     -15.651  21.597 -17.755  1.00  0.00    -0.000 C 
BRANCH  19  20
ATOM     20  C   UNL     1     -14.323  21.534 -16.978  1.00  0.00    -0.000 C 
BRANCH  20  21
ATOM     21  C   UNL     1     -13.061  21.449 -17.854  1.00  0.00    -0.000 C 
BRANCH  21  22
ATOM     22  C   UNL     1     -12.240  20.175 -17.600  1.00  0.00    -0.000 C 
BRANCH  22  23
ATOM     23  C   UNL     1     -12.595  19.495 -16.267  1.00  0.00    -0.000 C 
BRANCH  23  24
ATOM     24  C   UNL     1     -13.013  18.016 -16.419  1.00  0.00    -0.000 C 
BRANCH  24  25
ATOM     25  C   UNL     1     -13.392  17.381 -15.074  1.00  0.00    -0.003 C 
ATOM     26  C   UNL     1     -13.661  18.447 -14.015  1.00  0.00     0.004 C 
ENDBRANCH  24  25
ENDBRANCH  23  24
ENDBRANCH  22  23
ENDBRANCH  21  22
ENDBRANCH  20  21
ENDBRANCH  19  20
ENDBRANCH  18  19
ENDBRANCH  17  18
ENDBRANCH  16  17
ENDBRANCH  15  16
ENDBRANCH   1  15
TORSDOF 22
ENDMDL
MODEL 6
REMARK VINA RESULT:    -4.500      3.094      5.288
REMARK INTER + INTRA:         -14.307
REMARK INTER:                  -9.643
REMARK INTRA:                  -4.664
REMARK UNBOUND:                -4.019
REMARK SMILES CCCCCCCCCCCCCCCCCCCCCCCC(=O)[O-]
REMARK SMILES IDX 13 1 14 2 15 3 16 4 17 5 18 6 19 7 20 8 21 9 22 10 23 11
REMARK SMILES IDX 24 12 25 13 26 14 12 15 11 16 10 17 9 18 8 19 7 20 6 21 5 22
REMARK SMILES IDX 4 23 3 24 2 25 1 26
REMARK H PARENT
REMARK Flexibility Score: inf
ROOT
ATOM      1  C   UNL     1     -15.497  19.470 -17.133  1.00  0.00     0.000 C 
ENDROOT
BRANCH   1   2
ATOM      2  C   UNL     1     -14.142  20.179 -17.346  1.00  0.00     0.000 C 
BRANCH   2   3
ATOM      3  C   UNL     1     -12.992  19.215 -17.682  1.00  0.00     0.000 C 
BRANCH   3   4
ATOM      4  C   UNL     1     -13.482  17.788 -17.972  1.00  0.00     0.000 C 
BRANCH   4   5
ATOM      5  C   UNL     1     -13.013  17.264 -19.338  1.00  0.00     0.000 C 
BRANCH   5   6
ATOM      6  C   UNL     1     -12.650  15.770 -19.317  1.00  0.00     0.000 C 
BRANCH   6   7
ATOM      7  C   UNL     1     -13.320  15.062 -18.133  1.00  0.00     0.000 C 
BRANCH   7   8
ATOM      8  C   UNL     1     -12.284  14.340 -17.258  1.00  0.00     0.000 C 
BRANCH   8   9
ATOM      9  C   UNL     1     -12.911  13.180 -16.456  1.00  0.00     0.000 C 
BRANCH   9  10
ATOM     10  C   UNL     1     -14.126  12.539 -17.146  1.00  0.00     0.006 C 
BRANCH  10  11
ATOM     11  C   UNL     1     -14.536  11.202 -16.515  1.00  0.00     0.053 C 
BRANCH  11  12
ATOM     12  C   UNL     1     -15.883  11.319 -15.872  1.00  0.00     0.041 C 
ATOM     13  O   UNL     1     -15.980  11.665 -14.666  1.00  0.00    -0.550 OA
ATOM     14  O   UNL     1     -17.029  11.017 -16.598  1.00  0.00    -0.550 OA
ENDBRANCH  11  12
ENDBRANCH  10  11
ENDBRANCH   9  10
ENDBRANCH   8   9
ENDBRANCH   7   8
ENDBRANCH   6   7
ENDBRANCH   5   6
ENDBRANCH   4   5
ENDBRANCH   3   4
ENDBRANCH   2   3
ENDBRANCH   1   2
BRANCH   1  15
ATOM     15  C   UNL     1     -16.583  19.989 -18.091  1.00  0.00     0.000 C 
BRANCH  15  16
ATOM     16  C   UNL     1     -17.483  18.864 -18.626  1.00  0.00     0.000 C 
BRANCH  16  17
ATOM     17  C   UNL     1     -16.761  17.962 -19.642  1.00  0.00     0.000 C 
BRANCH  17  18
ATOM     18  C   UNL     1     -16.686  16.499 -19.180  1.00  0.00    -0.000 C 
BRANCH  18  19
ATOM     19  C   UNL     1     -17.399  16.269 -17.836  1.00  0.00    -0.000 C 
BRANCH  19  20
ATOM     20  C   UNL     1     -16.754  15.149 -17.000  1.00  0.00    -0.000 C 
BRANCH  20  21
ATOM     21  C   UNL     1     -16.942  15.283 -15.478  1.00  0.00    -0.000 C 
BRANCH  21  22
ATOM     22  C   UNL     1     -15.629  15.115 -14.696  1.00  0.00    -0.000 C 
BRANCH  22  23
ATOM     23  C   UNL     1     -14.619  16.239 -14.982  1.00  0.00    -0.000 C 
BRANCH  23  24
ATOM     24  C   UNL     1     -14.844  17.505 -14.127  1.00  0.00    -0.000 C 
BRANCH  24  25
ATOM     25  C   UNL     1     -13.582  18.377 -14.044  1.00  0.00    -0.003 C 
ATOM     26  C   UNL     1     -12.329  17.571 -14.370  1.00  0.00     0.004 C 
ENDBRANCH  24  25
ENDBRANCH  23  24
ENDBRANCH  22  23
ENDBRANCH  21  22
ENDBRANCH  20  21
ENDBRANCH  19  20
ENDBRANCH  18  19
ENDBRANCH  17  18
ENDBRANCH  16  17
ENDBRANCH  15  16
ENDBRANCH   1  15
TORSDOF 22
ENDMDL
MODEL 7
REMARK VINA RESULT:    -4.498      2.384      4.044
REMARK INTER + INTRA:         -14.303
REMARK INTER:                  -9.450
REMARK INTRA:                  -4.852
REMARK UNBOUND:                -4.019
REMARK SMILES CCCCCCCCCCCCCCCCCCCCCCCC(=O)[O-]
REMARK SMILES IDX 13 1 14 2 15 3 16 4 17 5 18 6 19 7 20 8 21 9 22 10 23 11
REMARK SMILES IDX 24 12 25 13 26 14 12 15 11 16 10 17 9 18 8 19 7 20 6 21 5 22
REMARK SMILES IDX 4 23 3 24 2 25 1 26
REMARK H PARENT
REMARK Flexibility Score: inf
ROOT
ATOM      1  C   UNL     1     -16.283  17.513 -20.587  1.00  0.00     0.000 C 
ENDROOT
BRANCH   1   2
ATOM      2  C   UNL     1     -17.803  17.334 -20.389  1.00  0.00     0.000 C 
BRANCH   2   3
ATOM      3  C   UNL     1     -18.529  18.636 -20.007  1.00  0.00     0.000 C 
BRANCH   3   4
ATOM      4  C   UNL     1     -19.897  18.381 -19.356  1.00  0.00     0.000 C 
BRANCH   4   5
ATOM      5  C   UNL     1     -19.782  17.806 -17.936  1.00  0.00     0.000 C 
BRANCH   5   6
ATOM      6  C   UNL     1     -19.005  18.723 -16.977  1.00  0.00     0.000 C 
BRANCH   6   7
ATOM      7  C   UNL     1     -17.847  17.966 -16.316  1.00  0.00     0.000 C 
BRANCH   7   8
ATOM      8  C   UNL     1     -16.528  18.741 -16.448  1.00  0.00     0.000 C 
BRANCH   8   9
ATOM      9  C   UNL     1     -16.715  20.084 -17.185  1.00  0.00     0.000 C 
BRANCH   9  10
ATOM     10  C   UNL     1     -15.412  20.655 -17.766  1.00  0.00     0.006 C 
BRANCH  10  11
ATOM     11  C   UNL     1     -14.186  19.789 -17.450  1.00  0.00     0.053 C 
BRANCH  11  12
ATOM     12  C   UNL     1     -13.094  20.625 -16.858  1.00  0.00     0.041 C 
ATOM     13  O   UNL     1     -11.914  20.188 -16.816  1.00  0.00    -0.550 OA
ATOM     14  O   UNL     1     -13.386  21.876 -16.326  1.00  0.00    -0.550 OA
ENDBRANCH  11  12
ENDBRANCH  10  11
ENDBRANCH   9  10
ENDBRANCH   8   9
ENDBRANCH   7   8
ENDBRANCH   6   7
ENDBRANCH   5   6
ENDBRANCH   4   5
ENDBRANCH   3   4
ENDBRANCH   2   3
ENDBRANCH   1   2
BRANCH   1  15
ATOM     15  C   UNL     1     -15.462  16.696 -19.573  1.00  0.00     0.000 C 
BRANCH  15  16
ATOM     16  C   UNL     1     -16.342  15.783 -18.704  1.00  0.00     0.000 C 
BRANCH  16  17
ATOM     17  C   UNL     1     -15.600  15.250 -17.467  1.00  0.00     0.000 C 
BRANCH  17  18
ATOM     18  C   UNL     1     -14.222  15.903 -17.280  1.00  0.00    -0.000 C 
BRANCH  18  19
ATOM     19  C   UNL     1     -13.709  15.788 -15.833  1.00  0.00    -0.000 C 
BRANCH  19  20
ATOM     20  C   UNL     1     -13.049  17.084 -15.328  1.00  0.00    -0.000 C 
BRANCH  20  21
ATOM     21  C   UNL     1     -13.811  17.806 -14.203  1.00  0.00    -0.000 C 
BRANCH  21  22
ATOM     22  C   UNL     1     -14.454  16.836 -13.198  1.00  0.00    -0.000 C 
BRANCH  22  23
ATOM     23  C   UNL     1     -15.991  16.860 -13.250  1.00  0.00    -0.000 C 
BRANCH  23  24
ATOM     24  C   UNL     1     -16.642  15.501 -12.912  1.00  0.00    -0.000 C 
BRANCH  24  25
ATOM     25  C   UNL     1     -17.157  14.780 -14.165  1.00  0.00    -0.003 C 
ATOM     26  C   UNL     1     -16.451  13.442 -14.363  1.00  0.00     0.004 C 
ENDBRANCH  24  25
ENDBRANCH  23  24
ENDBRANCH  22  23
ENDBRANCH  21  22
ENDBRANCH  20  21
ENDBRANCH  19  20
ENDBRANCH  18  19
ENDBRANCH  17  18
ENDBRANCH  16  17
ENDBRANCH  15  16
ENDBRANCH   1  15
TORSDOF 22
ENDMDL
MODEL 8
REMARK VINA RESULT:    -4.496     12.148     15.639
REMARK INTER + INTRA:         -14.298
REMARK INTER:                  -9.681
REMARK INTRA:                  -4.617
REMARK UNBOUND:                -4.019
REMARK SMILES CCCCCCCCCCCCCCCCCCCCCCCC(=O)[O-]
REMARK SMILES IDX 13 1 14 2 15 3 16 4 17 5 18 6 19 7 20 8 21 9 22 10 23 11
REMARK SMILES IDX 24 12 25 13 26 14 12 15 11 16 10 17 9 18 8 19 7 20 6 21 5 22
REMARK SMILES IDX 4 23 3 24 2 25 1 26
REMARK H PARENT
REMARK Flexibility Score: inf
ROOT
ATOM      1  C   UNL     1      -0.677  13.954 -12.313  1.00  0.00     0.000 C 
ENDROOT
BRANCH   1   2
ATOM      2  C   UNL     1      -0.325  13.162 -11.035  1.00  0.00     0.000 C 
BRANCH   2   3
ATOM      3  C   UNL     1       0.103  11.711 -11.311  1.00  0.00     0.000 C 
BRANCH   3   4
ATOM      4  C   UNL     1      -0.809  10.684 -10.623  1.00  0.00     0.000 C 
BRANCH   4   5
ATOM      5  C   UNL     1      -0.676  10.701  -9.093  1.00  0.00     0.000 C 
BRANCH   5   6
ATOM      6  C   UNL     1      -2.017  10.922  -8.374  1.00  0.00     0.000 C 
BRANCH   6   7
ATOM      7  C   UNL     1      -3.175  10.323  -9.182  1.00  0.00     0.000 C 
BRANCH   7   8
ATOM      8  C   UNL     1      -4.294  11.351  -9.397  1.00  0.00     0.000 C 
BRANCH   8   9
ATOM      9  C   UNL     1      -3.741  12.739  -9.787  1.00  0.00     0.000 C 
BRANCH   9  10
ATOM     10  C   UNL     1      -4.380  13.899  -9.007  1.00  0.00     0.006 C 
BRANCH  10  11
ATOM     11  C   UNL     1      -4.079  13.847  -7.503  1.00  0.00     0.053 C 
BRANCH  11  12
ATOM     12  C   UNL     1      -5.277  14.279  -6.715  1.00  0.00     0.041 C 
ATOM     13  O   UNL     1      -5.412  13.914  -5.519  1.00  0.00    -0.550 OA
ATOM     14  O   UNL     1      -6.257  15.062  -7.313  1.00  0.00    -0.550 OA
ENDBRANCH  11  12
ENDBRANCH  10  11
ENDBRANCH   9  10
ENDBRANCH   8   9
ENDBRANCH   7   8
ENDBRANCH   6   7
ENDBRANCH   5   6
ENDBRANCH   4   5
ENDBRANCH   3   4
ENDBRANCH   2   3
ENDBRANCH   1   2
BRANCH   1  15
ATOM     15  C   UNL     1      -2.053  14.637 -12.214  1.00  0.00     0.000 C 
BRANCH  15  16
ATOM     16  C   UNL     1      -2.674  14.911 -13.593  1.00  0.00     0.000 C 
BRANCH  16  17
ATOM     17  C   UNL     1      -3.908  15.825 -13.515  1.00  0.00     0.000 C 
BRANCH  17  18
ATOM     18  C   UNL     1      -4.317  16.140 -12.068  1.00  0.00    -0.000 C 
BRANCH  18  19
ATOM     19  C   UNL     1      -5.794  15.808 -11.788  1.00  0.00    -0.000 C 
BRANCH  19  20
ATOM     20  C   UNL     1      -6.326  14.662 -12.667  1.00  0.00    -0.000 C 
BRANCH  20  21
ATOM     21  C   UNL     1      -6.982  13.503 -11.896  1.00  0.00    -0.000 C 
BRANCH  21  22
ATOM     22  C   UNL     1      -6.441  12.125 -12.312  1.00  0.00    -0.000 C 
BRANCH  22  23
ATOM     23  C   UNL     1      -5.156  12.220 -13.151  1.00  0.00    -0.000 C 
BRANCH  23  24
ATOM     24  C   UNL     1      -4.271  10.957 -13.072  1.00  0.00    -0.000 C 
BRANCH  24  25
ATOM     25  C   UNL     1      -2.856  11.208 -13.614  1.00  0.00    -0.003 C 
ATOM     26  C   UNL     1      -2.670  10.577 -14.990  1.00  0.00     0.004 C 
ENDBRANCH  24  25
ENDBRANCH  23  24
ENDBRANCH  22  23
ENDBRANCH  21  22
ENDBRANCH  20  21
ENDBRANCH  19  20
ENDBRANCH  18  19
ENDBRANCH  17  18
ENDBRANCH  16  17
ENDBRANCH  15  16
ENDBRANCH   1  15
TORSDOF 22
ENDMDL
MODEL 9
REMARK VINA RESULT:    -4.456      2.401      5.788
REMARK INTER + INTRA:         -14.206
REMARK INTER:                  -9.739
REMARK INTRA:                  -4.467
REMARK UNBOUND:                -4.019
REMARK SMILES CCCCCCCCCCCCCCCCCCCCCCCC(=O)[O-]
REMARK SMILES IDX 13 1 14 2 15 3 16 4 17 5 18 6 19 7 20 8 21 9 22 10 23 11
REMARK SMILES IDX 24 12 25 13 26 14 12 15 11 16 10 17 9 18 8 19 7 20 6 21 5 22
REMARK SMILES IDX 4 23 3 24 2 25 1 26
REMARK H PARENT
REMARK Flexibility Score: inf
ROOT
ATOM      1  C   UNL     1     -17.706  16.672 -16.795  1.00  0.00     0.000 C 
ENDROOT
BRANCH   1   2
ATOM      2  C   UNL     1     -18.427  17.700 -15.898  1.00  0.00     0.000 C 
BRANCH   2   3
ATOM      3  C   UNL     1     -19.221  17.058 -14.747  1.00  0.00     0.000 C 
BRANCH   3   4
ATOM      4  C   UNL     1     -18.814  17.606 -13.370  1.00  0.00     0.000 C 
BRANCH   4   5
ATOM      5  C   UNL     1     -17.291  17.689 -13.190  1.00  0.00     0.000 C 
BRANCH   5   6
ATOM      6  C   UNL     1     -16.613  16.309 -13.161  1.00  0.00     0.000 C 
BRANCH   6   7
ATOM      7  C   UNL     1     -15.123  16.425 -13.502  1.00  0.00     0.000 C 
BRANCH   7   8
ATOM      8  C   UNL     1     -14.807  17.772 -14.167  1.00  0.00     0.000 C 
BRANCH   8   9
ATOM      9  C   UNL     1     -14.237  17.597 -15.590  1.00  0.00     0.000 C 
BRANCH   9  10
ATOM     10  C   UNL     1     -14.681  18.694 -16.571  1.00  0.00     0.006 C 
BRANCH  10  11
ATOM     11  C   UNL     1     -13.509  19.331 -17.327  1.00  0.00     0.053 C 
BRANCH  11  12
ATOM     12  C   UNL     1     -12.781  20.297 -16.445  1.00  0.00     0.041 C 
ATOM     13  O   UNL     1     -11.750  19.933 -15.822  1.00  0.00    -0.550 OA
ATOM     14  O   UNL     1     -13.260  21.593 -16.289  1.00  0.00    -0.550 OA
ENDBRANCH  11  12
ENDBRANCH  10  11
ENDBRANCH   9  10
ENDBRANCH   8   9
ENDBRANCH   7   8
ENDBRANCH   6   7
ENDBRANCH   5   6
ENDBRANCH   4   5
ENDBRANCH   3   4
ENDBRANCH   2   3
ENDBRANCH   1   2
BRANCH   1  15
ATOM     15  C   UNL     1     -18.358  15.279 -16.726  1.00  0.00     0.000 C 
BRANCH  15  16
ATOM     16  C   UNL     1     -17.344  14.144 -16.939  1.00  0.00     0.000 C 
BRANCH  16  17
ATOM     17  C   UNL     1     -15.912  14.548 -16.547  1.00  0.00     0.000 C 
BRANCH  17  18
ATOM     18  C   UNL     1     -14.908  13.398 -16.723  1.00  0.00    -0.000 C 
BRANCH  18  19
ATOM     19  C   UNL     1     -13.724  13.786 -17.627  1.00  0.00    -0.000 C 
BRANCH  19  20
ATOM     20  C   UNL     1     -14.161  14.540 -18.895  1.00  0.00    -0.000 C 
BRANCH  20  21
ATOM     21  C   UNL     1     -13.542  15.939 -19.066  1.00  0.00    -0.000 C 
BRANCH  21  22
ATOM     22  C   UNL     1     -14.400  16.871 -19.936  1.00  0.00    -0.000 C 
BRANCH  22  23
ATOM     23  C   UNL     1     -15.893  16.505 -19.907  1.00  0.00    -0.000 C 
BRANCH  23  24
ATOM     24  C   UNL     1     -16.760  17.367 -20.850  1.00  0.00    -0.000 C 
BRANCH  24  25
ATOM     25  C   UNL     1     -17.934  18.028 -20.113  1.00  0.00    -0.003 C 
ATOM     26  C   UNL     1     -17.587  19.449 -19.681  1.00  0.00     0.004 C 
ENDBRANCH  24  25
ENDBRANCH  23  24
ENDBRANCH  22  23
ENDBRANCH  21  22
ENDBRANCH  20  21
ENDBRANCH  19  20
ENDBRANCH  18  19
ENDBRANCH  17  18
ENDBRANCH  16  17
ENDBRANCH  15  16
ENDBRANCH   1  15
TORSDOF 22
ENDMDL
