MODEL 1
REMARK VINA RESULT:    -3.505      0.000      0.000
REMARK INTER + INTRA:          -8.689
REMARK INTER:                  -6.578
REMARK INTRA:                  -2.111
REMARK UNBOUND:                -2.111
REMARK SMILES CCCCCCCCC=CCCCCCCCC(=O)[O-]
REMARK SMILES IDX 10 1 9 2 11 3 12 4 13 5 14 6 15 7 16 8 17 9 18 10 19 11
REMARK SMILES IDX 20 12 8 13 7 14 6 15 5 16 4 17 3 18 2 19 1 20
REMARK H PARENT
REMARK Flexibility Score: inf
ROOT
ATOM      1  C   UNL     1     113.448  53.525 226.912  1.00  0.00    -0.031 C 
ATOM      2  C   UNL     1     112.689  53.509 225.800  1.00  0.00    -0.031 C 
ENDROOT
BRANCH   1   3
ATOM      3  C   UNL     1     112.907  53.543 228.318  1.00  0.00     0.027 C 
BRANCH   3   4
ATOM      4  C   UNL     1     113.262  54.860 229.019  1.00  0.00     0.004 C 
BRANCH   4   5
ATOM      5  C   UNL     1     113.600  54.623 230.495  1.00  0.00     0.000 C 
BRANCH   5   6
ATOM      6  C   UNL     1     112.717  53.520 231.092  1.00  0.00     0.000 C 
BRANCH   6   7
ATOM      7  C   UNL     1     112.985  53.353 232.595  1.00  0.00     0.000 C 
BRANCH   7   8
ATOM      8  C   UNL     1     111.689  53.145 233.408  1.00  0.00     0.006 C 
BRANCH   8   9
ATOM      9  C   UNL     1     110.417  53.153 232.545  1.00  0.00     0.053 C 
BRANCH   9  10
ATOM     10  C   UNL     1     109.403  52.157 233.013  1.00  0.00     0.041 C 
ATOM     11  O   UNL     1     108.518  52.495 233.842  1.00  0.00    -0.550 OA
ATOM     12  O   UNL     1     109.420  50.859 232.514  1.00  0.00    -0.550 OA
ENDBRANCH   9  10
ENDBRANCH   8   9
ENDBRANCH   7   8
ENDBRANCH   6   7
ENDBRANCH   5   6
ENDBRANCH   4   5
ENDBRANCH   3   4
ENDBRANCH   1   3
BRANCH   2  13
ATOM     13  C   UNL     1     111.183  53.410 225.788  1.00  0.00     0.027 C 
BRANCH  13  14
ATOM     14  C   UNL     1     110.529  54.701 225.274  1.00  0.00     0.004 C 
BRANCH  14  15
ATOM     15  C   UNL     1     109.655  55.374 226.346  1.00  0.00     0.000 C 
BRANCH  15  16
ATOM     16  C   UNL     1     110.477  56.208 227.341  1.00  0.00     0.000 C 
BRANCH  16  17
ATOM     17  C   UNL     1     109.684  57.398 227.912  1.00  0.00    -0.000 C 
BRANCH  17  18
ATOM     18  C   UNL     1     109.106  57.107 229.307  1.00  0.00    -0.000 C 
BRANCH  18  19
ATOM     19  C   UNL     1     109.949  56.097 230.097  1.00  0.00    -0.003 C 
ATOM     20  C   UNL     1     110.804  56.799 231.147  1.00  0.00     0.004 C 
ENDBRANCH  18  19
ENDBRANCH  17  18
ENDBRANCH  16  17
ENDBRANCH  15  16
ENDBRANCH  14  15
ENDBRANCH  13  14
ENDBRANCH   2  13
TORSDOF 15
ENDMDL
MODEL 2
REMARK VINA RESULT:    -3.382      1.241      2.954
REMARK INTER + INTRA:          -8.459
REMARK INTER:                  -6.364
REMARK INTRA:                  -2.095
REMARK UNBOUND:                -2.111
REMARK SMILES CCCCCCCCC=CCCCCCCCC(=O)[O-]
REMARK SMILES IDX 10 1 9 2 11 3 12 4 13 5 14 6 15 7 16 8 17 9 18 10 19 11
REMARK SMILES IDX 20 12 8 13 7 14 6 15 5 16 4 17 3 18 2 19 1 20
REMARK H PARENT
REMARK Flexibility Score: inf
ROOT
ATOM      1  C   UNL     1     111.754  56.083 228.565  1.00  0.00    -0.031 C 
ATOM      2  C   UNL     1     112.334  55.400 227.560  1.00  0.00    -0.031 C 
ENDROOT
BRANCH   1   3
ATOM      3  C   UNL     1     111.639  55.588 229.983  1.00  0.00     0.027 C 
BRANCH   3   4
ATOM      4  C   UNL     1     112.794  56.120 230.839  1.00  0.00     0.004 C 
BRANCH   4   5
ATOM      5  C   UNL     1     113.694  54.977 231.322  1.00  0.00     0.000 C 
BRANCH   5   6
ATOM      6  C   UNL     1     112.982  53.624 231.190  1.00  0.00     0.000 C 
BRANCH   6   7
ATOM      7  C   UNL     1     112.816  52.954 232.562  1.00  0.00     0.000 C 
BRANCH   7   8
ATOM      8  C   UNL     1     111.558  53.444 233.311  1.00  0.00     0.006 C 
BRANCH   8   9
ATOM      9  C   UNL     1     110.265  53.309 232.492  1.00  0.00     0.053 C 
BRANCH   9  10
ATOM     10  C   UNL     1     109.343  52.268 233.047  1.00  0.00     0.041 C 
ATOM     11  O   UNL     1     109.332  51.107 232.560  1.00  0.00    -0.550 OA
ATOM     12  O   UNL     1     108.513  52.574 234.120  1.00  0.00    -0.550 OA
ENDBRANCH   9  10
ENDBRANCH   8   9
ENDBRANCH   7   8
ENDBRANCH   6   7
ENDBRANCH   5   6
ENDBRANCH   4   5
ENDBRANCH   3   4
ENDBRANCH   1   3
BRANCH   2  13
ATOM     13  C   UNL     1     113.041  54.076 227.717  1.00  0.00     0.027 C 
BRANCH  13  14
ATOM     14  C   UNL     1     112.851  53.176 226.487  1.00  0.00     0.004 C 
BRANCH  14  15
ATOM     15  C   UNL     1     111.884  53.794 225.462  1.00  0.00     0.000 C 
BRANCH  15  16
ATOM     16  C   UNL     1     110.500  53.126 225.478  1.00  0.00     0.000 C 
BRANCH  16  17
ATOM     17  C   UNL     1     109.360  54.120 225.192  1.00  0.00    -0.000 C 
BRANCH  17  18
ATOM     18  C   UNL     1     109.871  55.463 224.646  1.00  0.00    -0.000 C 
BRANCH  18  19
ATOM     19  C   UNL     1     109.159  56.667 225.276  1.00  0.00    -0.003 C 
ATOM     20  C   UNL     1     108.684  56.347 226.689  1.00  0.00     0.004 C 
ENDBRANCH  18  19
ENDBRANCH  17  18
ENDBRANCH  16  17
ENDBRANCH  15  16
ENDBRANCH  14  15
ENDBRANCH  13  14
ENDBRANCH   2  13
TORSDOF 15
ENDMDL
MODEL 3
REMARK VINA RESULT:    -3.333      3.553      6.556
REMARK INTER + INTRA:          -8.366
REMARK INTER:                  -6.116
REMARK INTRA:                  -2.250
REMARK UNBOUND:                -2.111
REMARK SMILES CCCCCCCCC=CCCCCCCCC(=O)[O-]
REMARK SMILES IDX 10 1 9 2 11 3 12 4 13 5 14 6 15 7 16 8 17 9 18 10 19 11
REMARK SMILES IDX 20 12 8 13 7 14 6 15 5 16 4 17 3 18 2 19 1 20
REMARK H PARENT
REMARK Flexibility Score: inf
ROOT
ATOM      1  C   UNL     1     113.398  54.686 230.786  1.00  0.00    -0.031 C 
ATOM      2  C   UNL     1     113.702  54.215 232.010  1.00  0.00    -0.031 C 
ENDROOT
BRANCH   1   3
ATOM      3  C   UNL     1     112.729  53.882 229.701  1.00  0.00     0.027 C 
BRANCH   3   4
ATOM      4  C   UNL     1     112.936  54.540 228.332  1.00  0.00     0.004 C 
BRANCH   4   5
ATOM      5  C   UNL     1     113.002  53.488 227.220  1.00  0.00     0.000 C 
BRANCH   5   6
ATOM      6  C   UNL     1     111.894  53.714 226.182  1.00  0.00     0.000 C 
BRANCH   6   7
ATOM      7  C   UNL     1     111.048  54.945 226.539  1.00  0.00     0.000 C 
BRANCH   7   8
ATOM      8  C   UNL     1     109.700  54.974 225.788  1.00  0.00     0.006 C 
BRANCH   8   9
ATOM      9  C   UNL     1     109.621  53.967 224.629  1.00  0.00     0.053 C 
BRANCH   9  10
ATOM     10  C   UNL     1     109.086  54.581 223.374  1.00  0.00     0.041 C 
ATOM     11  O   UNL     1     108.846  55.816 223.325  1.00  0.00    -0.550 OA
ATOM     12  O   UNL     1     108.875  53.793 222.248  1.00  0.00    -0.550 OA
ENDBRANCH   9  10
ENDBRANCH   8   9
ENDBRANCH   7   8
ENDBRANCH   6   7
ENDBRANCH   5   6
ENDBRANCH   4   5
ENDBRANCH   3   4
ENDBRANCH   1   3
BRANCH   2  13
ATOM     13  C   UNL     1     113.335  52.842 232.519  1.00  0.00     0.027 C 
BRANCH  13  14
ATOM     14  C   UNL     1     112.061  52.871 233.377  1.00  0.00     0.004 C 
BRANCH  14  15
ATOM     15  C   UNL     1     110.792  52.653 232.536  1.00  0.00     0.000 C 
BRANCH  15  16
ATOM     16  C   UNL     1     109.710  53.708 232.813  1.00  0.00     0.000 C 
BRANCH  16  17
ATOM     17  C   UNL     1     110.294  55.024 233.359  1.00  0.00    -0.000 C 
BRANCH  17  18
ATOM     18  C   UNL     1     110.402  56.114 232.281  1.00  0.00    -0.000 C 
BRANCH  18  19
ATOM     19  C   UNL     1     109.639  55.755 230.999  1.00  0.00    -0.003 C 
ATOM     20  C   UNL     1     110.133  56.581 229.815  1.00  0.00     0.004 C 
ENDBRANCH  18  19
ENDBRANCH  17  18
ENDBRANCH  16  17
ENDBRANCH  15  16
ENDBRANCH  14  15
ENDBRANCH  13  14
ENDBRANCH   2  13
TORSDOF 15
ENDMDL
MODEL 4
REMARK VINA RESULT:    -3.331     15.112     18.361
REMARK INTER + INTRA:          -8.363
REMARK INTER:                  -5.670
REMARK INTRA:                  -2.693
REMARK UNBOUND:                -2.111
REMARK SMILES CCCCCCCCC=CCCCCCCCC(=O)[O-]
REMARK SMILES IDX 10 1 9 2 11 3 12 4 13 5 14 6 15 7 16 8 17 9 18 10 19 11
REMARK SMILES IDX 20 12 8 13 7 14 6 15 5 16 4 17 3 18 2 19 1 20
REMARK H PARENT
REMARK Flexibility Score: inf
ROOT
ATOM      1  C   UNL     1      95.917  64.723 224.151  1.00  0.00    -0.031 C 
ATOM      2  C   UNL     1      96.925  63.963 224.618  1.00  0.00    -0.031 C 
ENDROOT
BRANCH   1   3
ATOM      3  C   UNL     1      94.717  65.144 224.959  1.00  0.00     0.027 C 
BRANCH   3   4
ATOM      4  C   UNL     1      94.506  66.660 224.867  1.00  0.00     0.004 C 
BRANCH   4   5
ATOM      5  C   UNL     1      95.018  67.365 226.128  1.00  0.00     0.000 C 
BRANCH   5   6
ATOM      6  C   UNL     1      96.485  67.786 225.966  1.00  0.00     0.000 C 
BRANCH   6   7
ATOM      7  C   UNL     1      97.361  67.161 227.061  1.00  0.00     0.000 C 
BRANCH   7   8
ATOM      8  C   UNL     1      96.627  67.051 228.415  1.00  0.00     0.006 C 
BRANCH   8   9
ATOM      9  C   UNL     1      96.971  65.774 229.197  1.00  0.00     0.053 C 
BRANCH   9  10
ATOM     10  C   UNL     1      95.751  65.045 229.665  1.00  0.00     0.041 C 
ATOM     11  O   UNL     1      94.618  65.340 229.200  1.00  0.00    -0.550 OA
ATOM     12  O   UNL     1      95.866  64.020 230.599  1.00  0.00    -0.550 OA
ENDBRANCH   9  10
ENDBRANCH   8   9
ENDBRANCH   7   8
ENDBRANCH   6   7
ENDBRANCH   5   6
ENDBRANCH   4   5
ENDBRANCH   3   4
ENDBRANCH   1   3
BRANCH   2  13
ATOM     13  C   UNL     1      97.058  63.495 226.047  1.00  0.00     0.027 C 
BRANCH  13  14
ATOM     14  C   UNL     1      98.487  63.680 226.579  1.00  0.00     0.004 C 
BRANCH  14  15
ATOM     15  C   UNL     1      99.305  62.380 226.503  1.00  0.00     0.000 C 
BRANCH  15  16
ATOM     16  C   UNL     1     100.257  62.349 225.297  1.00  0.00     0.000 C 
BRANCH  16  17
ATOM     17  C   UNL     1     100.952  63.702 225.059  1.00  0.00    -0.000 C 
BRANCH  17  18
ATOM     18  C   UNL     1     100.512  64.369 223.745  1.00  0.00    -0.000 C 
BRANCH  18  19
ATOM     19  C   UNL     1     100.158  65.851 223.925  1.00  0.00    -0.003 C 
ATOM     20  C   UNL     1     100.583  66.355 225.301  1.00  0.00     0.004 C 
ENDBRANCH  18  19
ENDBRANCH  17  18
ENDBRANCH  16  17
ENDBRANCH  15  16
ENDBRANCH  14  15
ENDBRANCH  13  14
ENDBRANCH   2  13
TORSDOF 15
ENDMDL
MODEL 5
REMARK VINA RESULT:    -3.257     13.372     16.565
REMARK INTER + INTRA:          -8.223
REMARK INTER:                  -5.424
REMARK INTRA:                  -2.799
REMARK UNBOUND:                -2.111
REMARK SMILES CCCCCCCCC=CCCCCCCCC(=O)[O-]
REMARK SMILES IDX 10 1 9 2 11 3 12 4 13 5 14 6 15 7 16 8 17 9 18 10 19 11
REMARK SMILES IDX 20 12 8 13 7 14 6 15 5 16 4 17 3 18 2 19 1 20
REMARK H PARENT
REMARK Flexibility Score: inf
ROOT
ATOM      1  C   UNL     1      97.914  64.195 227.962  1.00  0.00    -0.031 C 
ATOM      2  C   UNL     1      97.308  65.394 227.893  1.00  0.00    -0.031 C 
ENDROOT
BRANCH   1   3
ATOM      3  C   UNL     1      97.211  62.870 227.817  1.00  0.00     0.027 C 
BRANCH   3   4
ATOM      4  C   UNL     1      97.736  62.108 226.594  1.00  0.00     0.004 C 
BRANCH   4   5
ATOM      5  C   UNL     1      98.382  60.781 227.008  1.00  0.00     0.000 C 
BRANCH   5   6
ATOM      6  C   UNL     1      99.769  60.623 226.372  1.00  0.00     0.000 C 
BRANCH   6   7
ATOM      7  C   UNL     1     100.264  61.956 225.792  1.00  0.00     0.000 C 
BRANCH   7   8
ATOM      8  C   UNL     1     101.371  61.765 224.733  1.00  0.00     0.006 C 
BRANCH   8   9
ATOM      9  C   UNL     1     102.766  61.538 225.338  1.00  0.00     0.053 C 
BRANCH   9  10
ATOM     10  C   UNL     1     103.699  62.676 225.066  1.00  0.00     0.041 C 
ATOM     11  O   UNL     1     103.259  63.854 225.001  1.00  0.00    -0.550 OA
ATOM     12  O   UNL     1     105.061  62.439 224.911  1.00  0.00    -0.550 OA
ENDBRANCH   9  10
ENDBRANCH   8   9
ENDBRANCH   7   8
ENDBRANCH   6   7
ENDBRANCH   5   6
ENDBRANCH   4   5
ENDBRANCH   3   4
ENDBRANCH   1   3
BRANCH   2  13
ATOM     13  C   UNL     1      95.849  65.603 227.564  1.00  0.00     0.027 C 
BRANCH  13  14
ATOM     14  C   UNL     1      95.643  65.981 226.091  1.00  0.00     0.004 C 
BRANCH  14  15
ATOM     15  C   UNL     1      95.226  64.772 225.235  1.00  0.00     0.000 C 
BRANCH  15  16
ATOM     16  C   UNL     1      96.249  64.446 224.135  1.00  0.00     0.000 C 
BRANCH  16  17
ATOM     17  C   UNL     1      97.419  65.446 224.101  1.00  0.00    -0.000 C 
BRANCH  17  18
ATOM     18  C   UNL     1      98.789  64.754 224.185  1.00  0.00    -0.000 C 
BRANCH  18  19
ATOM     19  C   UNL     1      99.794  65.535 225.042  1.00  0.00    -0.003 C 
ATOM     20  C   UNL     1      99.464  67.024 225.056  1.00  0.00     0.004 C 
ENDBRANCH  18  19
ENDBRANCH  17  18
ENDBRANCH  16  17
ENDBRANCH  15  16
ENDBRANCH  14  15
ENDBRANCH  13  14
ENDBRANCH   2  13
TORSDOF 15
ENDMDL
MODEL 6
REMARK VINA RESULT:    -3.244      2.839      6.401
REMARK INTER + INTRA:          -8.200
REMARK INTER:                  -6.229
REMARK INTRA:                  -1.971
REMARK UNBOUND:                -2.111
REMARK SMILES CCCCCCCCC=CCCCCCCCC(=O)[O-]
REMARK SMILES IDX 10 1 9 2 11 3 12 4 13 5 14 6 15 7 16 8 17 9 18 10 19 11
REMARK SMILES IDX 20 12 8 13 7 14 6 15 5 16 4 17 3 18 2 19 1 20
REMARK H PARENT
REMARK Flexibility Score: inf
ROOT
ATOM      1  C   UNL     1     113.014  53.552 231.434  1.00  0.00    -0.031 C 
ATOM      2  C   UNL     1     113.136  52.780 232.531  1.00  0.00    -0.031 C 
ENDROOT
BRANCH   1   3
ATOM      3  C   UNL     1     113.666  54.899 231.258  1.00  0.00     0.027 C 
BRANCH   3   4
ATOM      4  C   UNL     1     113.667  55.312 229.782  1.00  0.00     0.004 C 
BRANCH   4   5
ATOM      5  C   UNL     1     113.033  54.226 228.906  1.00  0.00     0.000 C 
BRANCH   5   6
ATOM      6  C   UNL     1     113.474  54.372 227.443  1.00  0.00     0.000 C 
BRANCH   6   7
ATOM      7  C   UNL     1     113.079  53.134 226.623  1.00  0.00     0.000 C 
BRANCH   7   8
ATOM      8  C   UNL     1     112.192  53.487 225.411  1.00  0.00     0.006 C 
BRANCH   8   9
ATOM      9  C   UNL     1     110.686  53.379 225.700  1.00  0.00     0.053 C 
BRANCH   9  10
ATOM     10  C   UNL     1     110.025  54.718 225.795  1.00  0.00     0.041 C 
ATOM     11  O   UNL     1     110.105  55.391 226.857  1.00  0.00    -0.550 OA
ATOM     12  O   UNL     1     109.341  55.237 224.701  1.00  0.00    -0.550 OA
ENDBRANCH   9  10
ENDBRANCH   8   9
ENDBRANCH   7   8
ENDBRANCH   6   7
ENDBRANCH   5   6
ENDBRANCH   4   5
ENDBRANCH   3   4
ENDBRANCH   1   3
BRANCH   2  13
ATOM     13  C   UNL     1     114.019  53.099 233.712  1.00  0.00     0.027 C 
BRANCH  13  14
ATOM     14  C   UNL     1     113.210  53.622 234.908  1.00  0.00     0.004 C 
BRANCH  14  15
ATOM     15  C   UNL     1     111.704  53.344 234.753  1.00  0.00     0.000 C 
BRANCH  15  16
ATOM     16  C   UNL     1     110.868  54.632 234.703  1.00  0.00     0.000 C 
BRANCH  16  17
ATOM     17  C   UNL     1     109.509  54.428 234.009  1.00  0.00    -0.000 C 
BRANCH  17  18
ATOM     18  C   UNL     1     109.622  54.429 232.476  1.00  0.00    -0.000 C 
BRANCH  18  19
ATOM     19  C   UNL     1     110.258  55.715 231.931  1.00  0.00    -0.003 C 
ATOM     20  C   UNL     1     109.687  56.072 230.562  1.00  0.00     0.004 C 
ENDBRANCH  18  19
ENDBRANCH  17  18
ENDBRANCH  16  17
ENDBRANCH  15  16
ENDBRANCH  14  15
ENDBRANCH  13  14
ENDBRANCH   2  13
TORSDOF 15
ENDMDL
MODEL 7
REMARK VINA RESULT:    -3.242      2.366      5.061
REMARK INTER + INTRA:          -8.195
REMARK INTER:                  -6.173
REMARK INTRA:                  -2.022
REMARK UNBOUND:                -2.111
REMARK SMILES CCCCCCCCC=CCCCCCCCC(=O)[O-]
REMARK SMILES IDX 10 1 9 2 11 3 12 4 13 5 14 6 15 7 16 8 17 9 18 10 19 11
REMARK SMILES IDX 20 12 8 13 7 14 6 15 5 16 4 17 3 18 2 19 1 20
REMARK H PARENT
REMARK Flexibility Score: inf
ROOT
ATOM      1  C   UNL     1     112.928  52.778 232.354  1.00  0.00    -0.031 C 
ATOM      2  C   UNL     1     112.574  53.533 231.298  1.00  0.00    -0.031 C 
ENDROOT
BRANCH   1   3
ATOM      3  C   UNL     1     114.101  53.064 233.256  1.00  0.00     0.027 C 
BRANCH   3   4
ATOM      4  C   UNL     1     113.667  53.911 234.458  1.00  0.00     0.004 C 
BRANCH   4   5
ATOM      5  C   UNL     1     112.239  53.561 234.892  1.00  0.00     0.000 C 
BRANCH   5   6
ATOM      6  C   UNL     1     111.353  54.813 234.929  1.00  0.00     0.000 C 
BRANCH   6   7
ATOM      7  C   UNL     1     110.227  54.722 233.889  1.00  0.00     0.000 C 
BRANCH   7   8
ATOM      8  C   UNL     1     110.170  55.960 232.970  1.00  0.00     0.006 C 
BRANCH   8   9
ATOM      9  C   UNL     1     109.420  55.712 231.651  1.00  0.00     0.053 C 
BRANCH   9  10
ATOM     10  C   UNL     1     110.014  56.466 230.504  1.00  0.00     0.041 C 
ATOM     11  O   UNL     1     109.741  56.138 229.320  1.00  0.00    -0.550 OA
ATOM     12  O   UNL     1     110.852  57.551 230.743  1.00  0.00    -0.550 OA
ENDBRANCH   9  10
ENDBRANCH   8   9
ENDBRANCH   7   8
ENDBRANCH   6   7
ENDBRANCH   5   6
ENDBRANCH   4   5
ENDBRANCH   3   4
ENDBRANCH   1   3
BRANCH   2  13
ATOM     13  C   UNL     1     113.235  54.833 230.908  1.00  0.00     0.027 C 
BRANCH  13  14
ATOM     14  C   UNL     1     113.678  54.831 229.438  1.00  0.00     0.004 C 
BRANCH  14  15
ATOM     15  C   UNL     1     112.596  54.258 228.508  1.00  0.00     0.000 C 
BRANCH  15  16
ATOM     16  C   UNL     1     113.172  53.311 227.443  1.00  0.00     0.000 C 
BRANCH  16  17
ATOM     17  C   UNL     1     112.420  53.402 226.103  1.00  0.00    -0.000 C 
BRANCH  17  18
ATOM     18  C   UNL     1     111.482  54.618 226.032  1.00  0.00    -0.000 C 
BRANCH  18  19
ATOM     19  C   UNL     1     110.043  54.234 225.665  1.00  0.00    -0.003 C 
ATOM     20  C   UNL     1     109.952  52.766 225.261  1.00  0.00     0.004 C 
ENDBRANCH  18  19
ENDBRANCH  17  18
ENDBRANCH  16  17
ENDBRANCH  15  16
ENDBRANCH  14  15
ENDBRANCH  13  14
ENDBRANCH   2  13
TORSDOF 15
ENDMDL
MODEL 8
REMARK VINA RESULT:    -3.225      1.691      3.822
REMARK INTER + INTRA:          -8.164
REMARK INTER:                  -6.575
REMARK INTRA:                  -1.589
REMARK UNBOUND:                -2.111
REMARK SMILES CCCCCCCCC=CCCCCCCCC(=O)[O-]
REMARK SMILES IDX 10 1 9 2 11 3 12 4 13 5 14 6 15 7 16 8 17 9 18 10 19 11
REMARK SMILES IDX 20 12 8 13 7 14 6 15 5 16 4 17 3 18 2 19 1 20
REMARK H PARENT
REMARK Flexibility Score: inf
ROOT
ATOM      1  C   UNL     1     112.153  55.475 230.254  1.00  0.00    -0.031 C 
ATOM      2  C   UNL     1     112.304  55.449 228.916  1.00  0.00    -0.031 C 
ENDROOT
BRANCH   1   3
ATOM      3  C   UNL     1     113.062  54.777 231.232  1.00  0.00     0.027 C 
BRANCH   3   4
ATOM      4  C   UNL     1     112.627  53.321 231.433  1.00  0.00     0.004 C 
BRANCH   4   5
ATOM      5  C   UNL     1     113.251  52.730 232.702  1.00  0.00     0.000 C 
BRANCH   5   6
ATOM      6  C   UNL     1     113.629  53.836 233.696  1.00  0.00     0.000 C 
BRANCH   6   7
ATOM      7  C   UNL     1     112.763  53.758 234.962  1.00  0.00     0.000 C 
BRANCH   7   8
ATOM      8  C   UNL     1     111.364  54.378 234.760  1.00  0.00     0.006 C 
BRANCH   8   9
ATOM      9  C   UNL     1     110.220  53.355 234.853  1.00  0.00     0.053 C 
BRANCH   9  10
ATOM     10  C   UNL     1     109.585  53.086 233.525  1.00  0.00     0.041 C 
ATOM     11  O   UNL     1     109.460  54.013 232.682  1.00  0.00    -0.550 OA
ATOM     12  O   UNL     1     109.153  51.802 233.206  1.00  0.00    -0.550 OA
ENDBRANCH   9  10
ENDBRANCH   8   9
ENDBRANCH   7   8
ENDBRANCH   6   7
ENDBRANCH   5   6
ENDBRANCH   4   5
ENDBRANCH   3   4
ENDBRANCH   1   3
BRANCH   2  13
ATOM     13  C   UNL     1     113.459  54.799 228.194  1.00  0.00     0.027 C 
BRANCH  13  14
ATOM     14  C   UNL     1     113.081  53.418 227.638  1.00  0.00     0.004 C 
BRANCH  14  15
ATOM     15  C   UNL     1     113.136  53.378 226.101  1.00  0.00     0.000 C 
BRANCH  15  16
ATOM     16  C   UNL     1     112.229  54.434 225.449  1.00  0.00     0.000 C 
BRANCH  16  17
ATOM     17  C   UNL     1     110.737  54.191 225.741  1.00  0.00    -0.000 C 
BRANCH  17  18
ATOM     18  C   UNL     1     109.860  54.325 224.485  1.00  0.00    -0.000 C 
BRANCH  18  19
ATOM     19  C   UNL     1     108.915  53.132 224.294  1.00  0.00    -0.003 C 
ATOM     20  C   UNL     1     109.331  51.955 225.171  1.00  0.00     0.004 C 
ENDBRANCH  18  19
ENDBRANCH  17  18
ENDBRANCH  16  17
ENDBRANCH  15  16
ENDBRANCH  14  15
ENDBRANCH  13  14
ENDBRANCH   2  13
TORSDOF 15
ENDMDL
MODEL 9
REMARK VINA RESULT:    -3.219     14.500     17.543
REMARK INTER + INTRA:          -8.153
REMARK INTER:                  -5.146
REMARK INTRA:                  -3.007
REMARK UNBOUND:                -2.111
REMARK SMILES CCCCCCCCC=CCCCCCCCC(=O)[O-]
REMARK SMILES IDX 10 1 9 2 11 3 12 4 13 5 14 6 15 7 16 8 17 9 18 10 19 11
REMARK SMILES IDX 20 12 8 13 7 14 6 15 5 16 4 17 3 18 2 19 1 20
REMARK H PARENT
REMARK Flexibility Score: inf
ROOT
ATOM      1  C   UNL     1      97.220  62.934 226.848  1.00  0.00    -0.031 C 
ATOM      2  C   UNL     1      96.476  63.651 225.986  1.00  0.00    -0.031 C 
ENDROOT
BRANCH   1   3
ATOM      3  C   UNL     1      98.481  62.194 226.481  1.00  0.00     0.027 C 
BRANCH   3   4
ATOM      4  C   UNL     1      99.674  62.724 227.285  1.00  0.00     0.004 C 
BRANCH   4   5
ATOM      5  C   UNL     1      99.420  64.156 227.767  1.00  0.00     0.000 C 
BRANCH   5   6
ATOM      6  C   UNL     1     100.328  65.152 227.035  1.00  0.00     0.000 C 
BRANCH   6   7
ATOM      7  C   UNL     1      99.677  65.634 225.730  1.00  0.00     0.000 C 
BRANCH   7   8
ATOM      8  C   UNL     1     100.593  65.436 224.503  1.00  0.00     0.006 C 
BRANCH   8   9
ATOM      9  C   UNL     1     100.421  64.068 223.823  1.00  0.00     0.053 C 
BRANCH   9  10
ATOM     10  C   UNL     1     101.521  63.115 224.169  1.00  0.00     0.041 C 
ATOM     11  O   UNL     1     102.670  63.548 224.451  1.00  0.00    -0.550 OA
ATOM     12  O   UNL     1     101.272  61.747 224.205  1.00  0.00    -0.550 OA
ENDBRANCH   9  10
ENDBRANCH   8   9
ENDBRANCH   7   8
ENDBRANCH   6   7
ENDBRANCH   5   6
ENDBRANCH   4   5
ENDBRANCH   3   4
ENDBRANCH   1   3
BRANCH   2  13
ATOM     13  C   UNL     1      96.838  63.905 224.542  1.00  0.00     0.027 C 
BRANCH  13  14
ATOM     14  C   UNL     1      95.832  64.842 223.857  1.00  0.00     0.004 C 
BRANCH  14  15
ATOM     15  C   UNL     1      94.713  65.290 224.813  1.00  0.00     0.000 C 
BRANCH  15  16
ATOM     16  C   UNL     1      94.661  66.816 224.987  1.00  0.00     0.000 C 
BRANCH  16  17
ATOM     17  C   UNL     1      95.925  67.378 225.662  1.00  0.00    -0.000 C 
BRANCH  17  18
ATOM     18  C   UNL     1      95.755  67.556 227.179  1.00  0.00    -0.000 C 
BRANCH  18  19
ATOM     19  C   UNL     1      96.707  66.665 227.989  1.00  0.00    -0.003 C 
ATOM     20  C   UNL     1      95.937  65.785 228.968  1.00  0.00     0.004 C 
ENDBRANCH  18  19
ENDBRANCH  17  18
ENDBRANCH  16  17
ENDBRANCH  15  16
ENDBRANCH  14  15
ENDBRANCH  13  14
ENDBRANCH   2  13
TORSDOF 15
ENDMDL
