MODEL 1
REMARK VINA RESULT:    -4.649      0.000      0.000
REMARK INTER + INTRA:         -10.474
REMARK INTER:                  -8.726
REMARK INTRA:                  -1.748
REMARK UNBOUND:                -1.748
REMARK SMILES CCCCCC=CCC=CCCCCCCCC(=O)OC
REMARK SMILES IDX 11 1 10 2 9 3 8 4 7 5 6 6 5 7 4 8 3 9 2 10 1 11 12 12 13 13
REMARK SMILES IDX 14 14 15 15 16 16 17 17 18 18 19 19 20 20 21 21
REMARK H PARENT
REMARK Flexibility Score: inf
ROOT
ATOM      1  C   UNL     1      -7.525  25.631  24.202  1.00  0.00     0.027 C 
ENDROOT
BRANCH   1   2
ATOM      2  C   UNL     1      -7.368  25.655  22.701  1.00  0.00    -0.031 C 
ATOM      3  C   UNL     1      -8.179  25.020  21.834  1.00  0.00    -0.027 C 
BRANCH   3   4
ATOM      4  C   UNL     1      -9.325  24.120  22.225  1.00  0.00     0.054 C 
BRANCH   4   5
ATOM      5  C   UNL     1      -8.920  22.668  22.244  1.00  0.00    -0.027 C 
ATOM      6  C   UNL     1      -9.626  21.659  21.697  1.00  0.00    -0.031 C 
BRANCH   6   7
ATOM      7  C   UNL     1     -10.945  21.810  20.976  1.00  0.00     0.027 C 
BRANCH   7   8
ATOM      8  C   UNL     1     -10.750  21.833  19.454  1.00  0.00     0.004 C 
BRANCH   8   9
ATOM      9  C   UNL     1     -11.058  23.214  18.850  1.00  0.00     0.000 C 
BRANCH   9  10
ATOM     10  C   UNL     1      -9.796  23.934  18.352  1.00  0.00    -0.003 C 
ATOM     11  C   UNL     1      -9.915  25.456  18.425  1.00  0.00     0.004 C 
ENDBRANCH   9  10
ENDBRANCH   8   9
ENDBRANCH   7   8
ENDBRANCH   6   7
ENDBRANCH   4   5
ENDBRANCH   3   4
ENDBRANCH   1   2
BRANCH   1  12
ATOM     12  C   UNL     1      -8.422  26.773  24.702  1.00  0.00     0.004 C 
BRANCH  12  13
ATOM     13  C   UNL     1      -9.532  26.271  25.637  1.00  0.00     0.000 C 
BRANCH  13  14
ATOM     14  C   UNL     1     -10.839  27.047  25.410  1.00  0.00     0.000 C 
BRANCH  14  15
ATOM     15  C   UNL     1     -10.795  28.459  26.034  1.00  0.00     0.001 C 
BRANCH  15  16
ATOM     16  C   UNL     1     -10.384  29.560  25.043  1.00  0.00     0.012 C 
BRANCH  16  17
ATOM     17  C   UNL     1     -11.125  29.468  23.705  1.00  0.00     0.123 C 
BRANCH  17  18
ATOM     18  C   UNL     1     -10.150  29.385  22.573  1.00  0.00     0.305 C 
ATOM     19  O   UNL     1      -8.912  29.468  22.805  1.00  0.00    -0.252 OA
BRANCH  18  20
ATOM     20  O   UNL     1     -10.621  29.179  21.273  1.00  0.00    -0.469 OA
ATOM     21  C   UNL     1     -10.905  27.883  20.760  1.00  0.00     0.282 C 
ENDBRANCH  18  20
ENDBRANCH  17  18
ENDBRANCH  16  17
ENDBRANCH  15  16
ENDBRANCH  14  15
ENDBRANCH  13  14
ENDBRANCH  12  13
ENDBRANCH   1  12
TORSDOF 15
ENDMDL
MODEL 2
REMARK VINA RESULT:    -4.074      1.907      2.845
REMARK INTER + INTRA:          -9.394
REMARK INTER:                  -8.084
REMARK INTRA:                  -1.310
REMARK UNBOUND:                -1.748
REMARK SMILES CCCCCC=CCC=CCCCCCCCC(=O)OC
REMARK SMILES IDX 11 1 10 2 9 3 8 4 7 5 6 6 5 7 4 8 3 9 2 10 1 11 12 12 13 13
REMARK SMILES IDX 14 14 15 15 16 16 17 17 18 18 19 19 20 20 21 21
REMARK H PARENT
REMARK Flexibility Score: inf
ROOT
ATOM      1  C   UNL     1      -7.588  26.338  23.545  1.00  0.00     0.027 C 
ENDROOT
BRANCH   1   2
ATOM      2  C   UNL     1      -7.060  25.601  22.338  1.00  0.00    -0.031 C 
ATOM      3  C   UNL     1      -7.691  24.583  21.724  1.00  0.00    -0.027 C 
BRANCH   3   4
ATOM      4  C   UNL     1      -8.986  23.965  22.189  1.00  0.00     0.054 C 
BRANCH   4   5
ATOM      5  C   UNL     1      -8.883  22.466  22.312  1.00  0.00    -0.027 C 
ATOM      6  C   UNL     1      -9.763  21.583  21.800  1.00  0.00    -0.031 C 
BRANCH   6   7
ATOM      7  C   UNL     1     -11.005  21.944  21.020  1.00  0.00     0.027 C 
BRANCH   7   8
ATOM      8  C   UNL     1     -10.905  21.474  19.562  1.00  0.00     0.004 C 
BRANCH   8   9
ATOM      9  C   UNL     1     -10.997  22.644  18.568  1.00  0.00     0.000 C 
BRANCH   9  10
ATOM     10  C   UNL     1     -10.992  24.012  19.266  1.00  0.00    -0.003 C 
ATOM     11  C   UNL     1     -10.000  24.992  18.640  1.00  0.00     0.004 C 
ENDBRANCH   9  10
ENDBRANCH   8   9
ENDBRANCH   7   8
ENDBRANCH   6   7
ENDBRANCH   4   5
ENDBRANCH   3   4
ENDBRANCH   1   2
BRANCH   1  12
ATOM     12  C   UNL     1      -9.012  26.866  23.316  1.00  0.00     0.004 C 
BRANCH  12  13
ATOM     13  C   UNL     1      -9.053  27.987  22.268  1.00  0.00     0.000 C 
BRANCH  13  14
ATOM     14  C   UNL     1     -10.082  29.063  22.649  1.00  0.00     0.000 C 
BRANCH  14  15
ATOM     15  C   UNL     1      -9.493  30.123  23.604  1.00  0.00     0.001 C 
BRANCH  15  16
ATOM     16  C   UNL     1     -10.032  30.028  25.042  1.00  0.00     0.012 C 
BRANCH  16  17
ATOM     17  C   UNL     1     -11.122  28.964  25.203  1.00  0.00     0.123 C 
BRANCH  17  18
ATOM     18  C   UNL     1     -10.893  28.165  26.447  1.00  0.00     0.305 C 
ATOM     19  O   UNL     1     -11.002  28.720  27.576  1.00  0.00    -0.252 OA
BRANCH  18  20
ATOM     20  O   UNL     1     -10.598  26.803  26.346  1.00  0.00    -0.469 OA
ATOM     21  C   UNL     1     -11.085  25.843  27.277  1.00  0.00     0.282 C 
ENDBRANCH  18  20
ENDBRANCH  17  18
ENDBRANCH  16  17
ENDBRANCH  15  16
ENDBRANCH  14  15
ENDBRANCH  13  14
ENDBRANCH  12  13
ENDBRANCH   1  12
TORSDOF 15
ENDMDL
MODEL 3
REMARK VINA RESULT:    -3.752      1.915      6.384
REMARK INTER + INTRA:          -8.789
REMARK INTER:                  -7.566
REMARK INTRA:                  -1.223
REMARK UNBOUND:                -1.748
REMARK SMILES CCCCCC=CCC=CCCCCCCCC(=O)OC
REMARK SMILES IDX 11 1 10 2 9 3 8 4 7 5 6 6 5 7 4 8 3 9 2 10 1 11 12 12 13 13
REMARK SMILES IDX 14 14 15 15 16 16 17 17 18 18 19 19 20 20 21 21
REMARK H PARENT
REMARK Flexibility Score: inf
ROOT
ATOM      1  C   UNL     1      -7.414  25.861  22.144  1.00  0.00     0.027 C 
ENDROOT
BRANCH   1   2
ATOM      2  C   UNL     1      -6.862  25.981  23.543  1.00  0.00    -0.031 C 
ATOM      3  C   UNL     1      -7.609  26.106  24.655  1.00  0.00    -0.027 C 
BRANCH   3   4
ATOM      4  C   UNL     1      -9.113  26.225  24.675  1.00  0.00     0.054 C 
BRANCH   4   5
ATOM      5  C   UNL     1      -9.701  25.738  25.975  1.00  0.00    -0.027 C 
ATOM      6  C   UNL     1     -10.116  26.529  26.983  1.00  0.00    -0.031 C 
BRANCH   6   7
ATOM      7  C   UNL     1     -10.061  28.039  26.985  1.00  0.00     0.027 C 
BRANCH   7   8
ATOM      8  C   UNL     1     -11.100  28.637  26.027  1.00  0.00     0.004 C 
BRANCH   8   9
ATOM      9  C   UNL     1     -10.521  29.792  25.192  1.00  0.00     0.000 C 
BRANCH   9  10
ATOM     10  C   UNL     1     -10.742  29.597  23.684  1.00  0.00    -0.003 C 
ATOM     11  C   UNL     1      -9.450  29.271  22.934  1.00  0.00     0.004 C 
ENDBRANCH   9  10
ENDBRANCH   8   9
ENDBRANCH   7   8
ENDBRANCH   6   7
ENDBRANCH   4   5
ENDBRANCH   3   4
ENDBRANCH   1   2
BRANCH   1  12
ATOM     12  C   UNL     1      -7.797  24.414  21.801  1.00  0.00     0.004 C 
BRANCH  12  13
ATOM     13  C   UNL     1      -9.182  24.036  22.346  1.00  0.00     0.000 C 
BRANCH  13  14
ATOM     14  C   UNL     1      -9.362  22.511  22.389  1.00  0.00     0.000 C 
BRANCH  14  15
ATOM     15  C   UNL     1      -9.665  21.919  20.995  1.00  0.00     0.001 C 
BRANCH  15  16
ATOM     16  C   UNL     1     -11.088  22.219  20.493  1.00  0.00     0.012 C 
BRANCH  16  17
ATOM     17  C   UNL     1     -11.124  22.660  19.026  1.00  0.00     0.123 C 
BRANCH  17  18
ATOM     18  C   UNL     1     -10.833  24.123  18.914  1.00  0.00     0.305 C 
ATOM     19  O   UNL     1     -11.103  24.892  19.878  1.00  0.00    -0.252 OA
BRANCH  18  20
ATOM     20  O   UNL     1     -10.230  24.617  17.753  1.00  0.00    -0.469 OA
ATOM     21  C   UNL     1     -10.982  25.068  16.633  1.00  0.00     0.282 C 
ENDBRANCH  18  20
ENDBRANCH  17  18
ENDBRANCH  16  17
ENDBRANCH  15  16
ENDBRANCH  14  15
ENDBRANCH  13  14
ENDBRANCH  12  13
ENDBRANCH   1  12
TORSDOF 15
ENDMDL
MODEL 4
REMARK VINA RESULT:    -3.719     14.814     17.324
REMARK INTER + INTRA:          -8.728
REMARK INTER:                  -7.365
REMARK INTRA:                  -1.362
REMARK UNBOUND:                -1.748
REMARK SMILES CCCCCC=CCC=CCCCCCCCC(=O)OC
REMARK SMILES IDX 11 1 10 2 9 3 8 4 7 5 6 6 5 7 4 8 3 9 2 10 1 11 12 12 13 13
REMARK SMILES IDX 14 14 15 15 16 16 17 17 18 18 19 19 20 20 21 21
REMARK H PARENT
REMARK Flexibility Score: inf
ROOT
ATOM      1  C   UNL     1       8.393  25.829  29.516  1.00  0.00     0.027 C 
ENDROOT
BRANCH   1   2
ATOM      2  C   UNL     1       8.285  25.179  28.158  1.00  0.00    -0.031 C 
ATOM      3  C   UNL     1       7.487  25.608  27.163  1.00  0.00    -0.027 C 
BRANCH   3   4
ATOM      4  C   UNL     1       6.515  26.757  27.271  1.00  0.00     0.054 C 
BRANCH   4   5
ATOM      5  C   UNL     1       5.085  26.282  27.330  1.00  0.00    -0.027 C 
ATOM      6  C   UNL     1       4.304  26.041  26.259  1.00  0.00    -0.031 C 
BRANCH   6   7
ATOM      7  C   UNL     1       4.725  26.208  24.818  1.00  0.00     0.027 C 
BRANCH   7   8
ATOM      8  C   UNL     1       4.430  24.944  24.000  1.00  0.00     0.004 C 
BRANCH   8   9
ATOM      9  C   UNL     1       5.659  24.466  23.206  1.00  0.00     0.000 C 
BRANCH   9  10
ATOM     10  C   UNL     1       6.974  25.033  23.760  1.00  0.00    -0.003 C 
ATOM     11  C   UNL     1       8.027  23.953  24.008  1.00  0.00     0.004 C 
ENDBRANCH   9  10
ENDBRANCH   8   9
ENDBRANCH   7   8
ENDBRANCH   6   7
ENDBRANCH   4   5
ENDBRANCH   3   4
ENDBRANCH   1   2
BRANCH   1  12
ATOM     12  C   UNL     1       8.486  24.789  30.643  1.00  0.00     0.004 C 
BRANCH  12  13
ATOM     13  C   UNL     1       7.529  25.105  31.801  1.00  0.00     0.000 C 
BRANCH  13  14
ATOM     14  C   UNL     1       6.522  23.963  32.014  1.00  0.00     0.000 C 
BRANCH  14  15
ATOM     15  C   UNL     1       5.901  23.988  33.427  1.00  0.00     0.001 C 
BRANCH  15  16
ATOM     16  C   UNL     1       4.840  22.898  33.655  1.00  0.00     0.012 C 
BRANCH  16  17
ATOM     17  C   UNL     1       3.410  23.395  33.420  1.00  0.00     0.123 C 
BRANCH  17  18
ATOM     18  C   UNL     1       2.833  22.765  32.192  1.00  0.00     0.305 C 
ATOM     19  O   UNL     1       2.426  21.571  32.233  1.00  0.00    -0.252 OA
BRANCH  18  20
ATOM     20  O   UNL     1       2.717  23.519  31.021  1.00  0.00    -0.469 OA
ATOM     21  C   UNL     1       1.667  23.318  30.082  1.00  0.00     0.282 C 
ENDBRANCH  18  20
ENDBRANCH  17  18
ENDBRANCH  16  17
ENDBRANCH  15  16
ENDBRANCH  14  15
ENDBRANCH  13  14
ENDBRANCH  12  13
ENDBRANCH   1  12
TORSDOF 15
ENDMDL
MODEL 5
REMARK VINA RESULT:    -3.622     15.923     18.435
REMARK INTER + INTRA:          -8.546
REMARK INTER:                  -7.268
REMARK INTRA:                  -1.278
REMARK UNBOUND:                -1.748
REMARK SMILES CCCCCC=CCC=CCCCCCCCC(=O)OC
REMARK SMILES IDX 11 1 10 2 9 3 8 4 7 5 6 6 5 7 4 8 3 9 2 10 1 11 12 12 13 13
REMARK SMILES IDX 14 14 15 15 16 16 17 17 18 18 19 19 20 20 21 21
REMARK H PARENT
REMARK Flexibility Score: inf
ROOT
ATOM      1  C   UNL     1       8.174  25.432  29.215  1.00  0.00     0.027 C 
ENDROOT
BRANCH   1   2
ATOM      2  C   UNL     1       9.105  26.611  29.069  1.00  0.00    -0.031 C 
ATOM      3  C   UNL     1       9.045  27.519  28.077  1.00  0.00    -0.027 C 
BRANCH   3   4
ATOM      4  C   UNL     1       8.090  27.459  26.910  1.00  0.00     0.054 C 
BRANCH   4   5
ATOM      5  C   UNL     1       8.816  27.350  25.593  1.00  0.00    -0.027 C 
ATOM      6  C   UNL     1       9.056  26.201  24.933  1.00  0.00    -0.031 C 
BRANCH   6   7
ATOM      7  C   UNL     1       8.644  24.825  25.401  1.00  0.00     0.027 C 
BRANCH   7   8
ATOM      8  C   UNL     1       7.871  24.072  24.310  1.00  0.00     0.004 C 
BRANCH   8   9
ATOM      9  C   UNL     1       7.139  25.029  23.353  1.00  0.00     0.000 C 
BRANCH   9  10
ATOM     10  C   UNL     1       5.672  24.630  23.130  1.00  0.00    -0.003 C 
ATOM     11  C   UNL     1       4.711  25.366  24.062  1.00  0.00     0.004 C 
ENDBRANCH   9  10
ENDBRANCH   8   9
ENDBRANCH   7   8
ENDBRANCH   6   7
ENDBRANCH   4   5
ENDBRANCH   3   4
ENDBRANCH   1   2
BRANCH   1  12
ATOM     12  C   UNL     1       8.544  24.556  30.421  1.00  0.00     0.004 C 
BRANCH  12  13
ATOM     13  C   UNL     1       8.416  25.316  31.749  1.00  0.00     0.000 C 
BRANCH  13  14
ATOM     14  C   UNL     1       7.161  24.877  32.519  1.00  0.00     0.000 C 
BRANCH  14  15
ATOM     15  C   UNL     1       7.010  23.341  32.561  1.00  0.00     0.001 C 
BRANCH  15  16
ATOM     16  C   UNL     1       5.857  22.858  33.458  1.00  0.00     0.012 C 
BRANCH  16  17
ATOM     17  C   UNL     1       4.531  23.568  33.162  1.00  0.00     0.123 C 
BRANCH  17  18
ATOM     18  C   UNL     1       3.441  22.567  32.944  1.00  0.00     0.305 C 
ATOM     19  O   UNL     1       3.556  21.402  33.416  1.00  0.00    -0.252 OA
BRANCH  18  20
ATOM     20  O   UNL     1       2.288  22.946  32.250  1.00  0.00    -0.469 OA
ATOM     21  C   UNL     1       2.243  23.033  30.831  1.00  0.00     0.282 C 
ENDBRANCH  18  20
ENDBRANCH  17  18
ENDBRANCH  16  17
ENDBRANCH  15  16
ENDBRANCH  14  15
ENDBRANCH  13  14
ENDBRANCH  12  13
ENDBRANCH   1  12
TORSDOF 15
ENDMDL
MODEL 6
REMARK VINA RESULT:    -3.483      1.448      2.942
REMARK INTER + INTRA:          -8.286
REMARK INTER:                  -6.268
REMARK INTRA:                  -2.017
REMARK UNBOUND:                -1.748
REMARK SMILES CCCCCC=CCC=CCCCCCCCC(=O)OC
REMARK SMILES IDX 11 1 10 2 9 3 8 4 7 5 6 6 5 7 4 8 3 9 2 10 1 11 12 12 13 13
REMARK SMILES IDX 14 14 15 15 16 16 17 17 18 18 19 19 20 20 21 21
REMARK H PARENT
REMARK Flexibility Score: inf
ROOT
ATOM      1  C   UNL     1      -7.255  25.751  22.123  1.00  0.00     0.027 C 
ENDROOT
BRANCH   1   2
ATOM      2  C   UNL     1      -7.851  26.052  23.477  1.00  0.00    -0.031 C 
ATOM      3  C   UNL     1      -8.658  25.221  24.162  1.00  0.00    -0.027 C 
BRANCH   3   4
ATOM      4  C   UNL     1      -9.159  23.891  23.654  1.00  0.00     0.054 C 
BRANCH   4   5
ATOM      5  C   UNL     1     -10.599  23.963  23.211  1.00  0.00    -0.027 C 
ATOM      6  C   UNL     1     -11.124  23.291  22.169  1.00  0.00    -0.031 C 
BRANCH   6   7
ATOM      7  C   UNL     1     -10.360  22.354  21.263  1.00  0.00     0.027 C 
BRANCH   7   8
ATOM      8  C   UNL     1     -11.125  22.091  19.959  1.00  0.00     0.004 C 
BRANCH   8   9
ATOM      9  C   UNL     1     -10.342  22.565  18.722  1.00  0.00     0.000 C 
BRANCH   9  10
ATOM     10  C   UNL     1      -9.991  24.059  18.783  1.00  0.00    -0.003 C 
ATOM     11  C   UNL     1     -10.613  24.860  17.639  1.00  0.00     0.004 C 
ENDBRANCH   9  10
ENDBRANCH   8   9
ENDBRANCH   7   8
ENDBRANCH   6   7
ENDBRANCH   4   5
ENDBRANCH   3   4
ENDBRANCH   1   2
BRANCH   1  12
ATOM     12  C   UNL     1      -7.927  26.564  21.007  1.00  0.00     0.004 C 
BRANCH  12  13
ATOM     13  C   UNL     1      -9.459  26.516  21.099  1.00  0.00     0.000 C 
BRANCH  13  14
ATOM     14  C   UNL     1     -10.103  27.496  20.106  1.00  0.00     0.000 C 
BRANCH  14  15
ATOM     15  C   UNL     1     -11.114  28.441  20.790  1.00  0.00     0.001 C 
BRANCH  15  16
ATOM     16  C   UNL     1     -11.051  28.406  22.326  1.00  0.00     0.012 C 
BRANCH  16  17
ATOM     17  C   UNL     1     -10.015  29.374  22.905  1.00  0.00     0.123 C 
BRANCH  17  18
ATOM     18  C   UNL     1      -9.755  29.062  24.344  1.00  0.00     0.305 C 
ATOM     19  O   UNL     1      -8.573  29.086  24.787  1.00  0.00    -0.252 OA
BRANCH  18  20
ATOM     20  O   UNL     1     -10.830  28.783  25.193  1.00  0.00    -0.469 OA
ATOM     21  C   UNL     1     -10.807  27.713  26.130  1.00  0.00     0.282 C 
ENDBRANCH  18  20
ENDBRANCH  17  18
ENDBRANCH  16  17
ENDBRANCH  15  16
ENDBRANCH  14  15
ENDBRANCH  13  14
ENDBRANCH  12  13
ENDBRANCH   1  12
TORSDOF 15
ENDMDL
MODEL 7
REMARK VINA RESULT:    -3.448     15.619     18.176
REMARK INTER + INTRA:          -8.220
REMARK INTER:                  -6.921
REMARK INTRA:                  -1.299
REMARK UNBOUND:                -1.748
REMARK SMILES CCCCCC=CCC=CCCCCCCCC(=O)OC
REMARK SMILES IDX 11 1 10 2 9 3 8 4 7 5 6 6 5 7 4 8 3 9 2 10 1 11 12 12 13 13
REMARK SMILES IDX 14 14 15 15 16 16 17 17 18 18 19 19 20 20 21 21
REMARK H PARENT
REMARK Flexibility Score: inf
ROOT
ATOM      1  C   UNL     1       8.515  25.430  28.049  1.00  0.00     0.027 C 
ENDROOT
BRANCH   1   2
ATOM      2  C   UNL     1       8.635  23.993  27.600  1.00  0.00    -0.031 C 
ATOM      3  C   UNL     1       8.881  23.602  26.336  1.00  0.00    -0.027 C 
BRANCH   3   4
ATOM      4  C   UNL     1       8.996  24.530  25.153  1.00  0.00     0.054 C 
BRANCH   4   5
ATOM      5  C   UNL     1       8.184  24.049  23.977  1.00  0.00    -0.027 C 
ATOM      6  C   UNL     1       6.951  24.484  23.656  1.00  0.00    -0.031 C 
BRANCH   6   7
ATOM      7  C   UNL     1       6.168  25.526  24.421  1.00  0.00     0.027 C 
BRANCH   7   8
ATOM      8  C   UNL     1       4.657  25.274  24.321  1.00  0.00     0.004 C 
BRANCH   8   9
ATOM      9  C   UNL     1       3.861  26.109  25.339  1.00  0.00     0.000 C 
BRANCH   9  10
ATOM     10  C   UNL     1       4.292  25.838  26.788  1.00  0.00    -0.003 C 
ATOM     11  C   UNL     1       5.003  27.030  27.427  1.00  0.00     0.004 C 
ENDBRANCH   9  10
ENDBRANCH   8   9
ENDBRANCH   7   8
ENDBRANCH   6   7
ENDBRANCH   4   5
ENDBRANCH   3   4
ENDBRANCH   1   2
BRANCH   1  12
ATOM     12  C   UNL     1       8.417  25.547  29.577  1.00  0.00     0.004 C 
BRANCH  12  13
ATOM     13  C   UNL     1       8.920  24.282  30.288  1.00  0.00     0.000 C 
BRANCH  13  14
ATOM     14  C   UNL     1       8.953  24.481  31.811  1.00  0.00     0.000 C 
BRANCH  14  15
ATOM     15  C   UNL     1       7.597  24.968  32.366  1.00  0.00     0.001 C 
BRANCH  15  16
ATOM     16  C   UNL     1       6.506  23.884  32.371  1.00  0.00     0.012 C 
BRANCH  16  17
ATOM     17  C   UNL     1       5.591  23.962  33.598  1.00  0.00     0.123 C 
BRANCH  17  18
ATOM     18  C   UNL     1       4.369  23.123  33.392  1.00  0.00     0.305 C 
ATOM     19  O   UNL     1       4.403  21.891  33.662  1.00  0.00    -0.252 OA
BRANCH  18  20
ATOM     20  O   UNL     1       3.191  23.723  32.938  1.00  0.00    -0.469 OA
ATOM     21  C   UNL     1       1.928  23.071  33.000  1.00  0.00     0.282 C 
ENDBRANCH  18  20
ENDBRANCH  17  18
ENDBRANCH  16  17
ENDBRANCH  15  16
ENDBRANCH  14  15
ENDBRANCH  13  14
ENDBRANCH  12  13
ENDBRANCH   1  12
TORSDOF 15
ENDMDL
MODEL 8
REMARK VINA RESULT:    -3.448     15.762     18.299
REMARK INTER + INTRA:          -8.220
REMARK INTER:                  -6.429
REMARK INTRA:                  -1.791
REMARK UNBOUND:                -1.748
REMARK SMILES CCCCCC=CCC=CCCCCCCCC(=O)OC
REMARK SMILES IDX 11 1 10 2 9 3 8 4 7 5 6 6 5 7 4 8 3 9 2 10 1 11 12 12 13 13
REMARK SMILES IDX 14 14 15 15 16 16 17 17 18 18 19 19 20 20 21 21
REMARK H PARENT
REMARK Flexibility Score: inf
ROOT
ATOM      1  C   UNL     1       8.209  27.441  26.819  1.00  0.00     0.027 C 
ENDROOT
BRANCH   1   2
ATOM      2  C   UNL     1       8.850  27.195  25.475  1.00  0.00    -0.031 C 
ATOM      3  C   UNL     1       8.617  26.120  24.699  1.00  0.00    -0.027 C 
BRANCH   3   4
ATOM      4  C   UNL     1       7.743  24.952  25.083  1.00  0.00     0.054 C 
BRANCH   4   5
ATOM      5  C   UNL     1       7.192  24.238  23.874  1.00  0.00    -0.027 C 
ATOM      6  C   UNL     1       6.018  24.519  23.276  1.00  0.00    -0.031 C 
BRANCH   6   7
ATOM      7  C   UNL     1       5.052  25.594  23.715  1.00  0.00     0.027 C 
BRANCH   7   8
ATOM      8  C   UNL     1       3.829  24.992  24.419  1.00  0.00     0.004 C 
BRANCH   8   9
ATOM      9  C   UNL     1       3.554  25.659  25.778  1.00  0.00     0.000 C 
BRANCH   9  10
ATOM     10  C   UNL     1       4.787  26.383  26.338  1.00  0.00    -0.003 C 
ATOM     11  C   UNL     1       4.756  26.512  27.861  1.00  0.00     0.004 C 
ENDBRANCH   9  10
ENDBRANCH   8   9
ENDBRANCH   7   8
ENDBRANCH   6   7
ENDBRANCH   4   5
ENDBRANCH   3   4
ENDBRANCH   1   2
BRANCH   1  12
ATOM     12  C   UNL     1       9.049  26.863  27.968  1.00  0.00     0.004 C 
BRANCH  12  13
ATOM     13  C   UNL     1       8.275  25.815  28.781  1.00  0.00     0.000 C 
BRANCH  13  14
ATOM     14  C   UNL     1       9.092  25.340  29.992  1.00  0.00     0.000 C 
BRANCH  14  15
ATOM     15  C   UNL     1       8.958  26.295  31.197  1.00  0.00     0.001 C 
BRANCH  15  16
ATOM     16  C   UNL     1       8.713  25.573  32.533  1.00  0.00     0.012 C 
BRANCH  16  17
ATOM     17  C   UNL     1       7.251  25.634  32.988  1.00  0.00     0.123 C 
BRANCH  17  18
ATOM     18  C   UNL     1       6.631  24.273  32.935  1.00  0.00     0.305 C 
ATOM     19  O   UNL     1       7.145  23.379  32.208  1.00  0.00    -0.252 OA
BRANCH  18  20
ATOM     20  O   UNL     1       5.509  23.998  33.721  1.00  0.00    -0.469 OA
ATOM     21  C   UNL     1       4.341  23.379  33.196  1.00  0.00     0.282 C 
ENDBRANCH  18  20
ENDBRANCH  17  18
ENDBRANCH  16  17
ENDBRANCH  15  16
ENDBRANCH  14  15
ENDBRANCH  13  14
ENDBRANCH  12  13
ENDBRANCH   1  12
TORSDOF 15
ENDMDL
MODEL 9
REMARK VINA RESULT:    -3.305      2.040      6.738
REMARK INTER + INTRA:          -7.952
REMARK INTER:                  -7.119
REMARK INTRA:                  -0.833
REMARK UNBOUND:                -1.748
REMARK SMILES CCCCCC=CCC=CCCCCCCCC(=O)OC
REMARK SMILES IDX 11 1 10 2 9 3 8 4 7 5 6 6 5 7 4 8 3 9 2 10 1 11 12 12 13 13
REMARK SMILES IDX 14 14 15 15 16 16 17 17 18 18 19 19 20 20 21 21
REMARK H PARENT
REMARK Flexibility Score: inf
ROOT
ATOM      1  C   UNL     1      -7.509  26.230  22.085  1.00  0.00     0.027 C 
ENDROOT
BRANCH   1   2
ATOM      2  C   UNL     1      -8.514  26.458  20.981  1.00  0.00    -0.031 C 
ATOM      3  C   UNL     1      -9.718  27.034  21.147  1.00  0.00    -0.027 C 
BRANCH   3   4
ATOM      4  C   UNL     1     -10.290  27.472  22.472  1.00  0.00     0.054 C 
BRANCH   4   5
ATOM      5  C   UNL     1     -11.016  28.789  22.367  1.00  0.00    -0.027 C 
ATOM      6  C   UNL     1     -10.973  29.774  23.285  1.00  0.00    -0.031 C 
BRANCH   6   7
ATOM      7  C   UNL     1     -10.194  29.725  24.578  1.00  0.00     0.027 C 
BRANCH   7   8
ATOM      8  C   UNL     1     -11.125  29.831  25.794  1.00  0.00     0.004 C 
BRANCH   8   9
ATOM      9  C   UNL     1     -11.062  28.577  26.683  1.00  0.00     0.000 C 
BRANCH   9  10
ATOM     10  C   UNL     1     -10.155  27.484  26.097  1.00  0.00    -0.003 C 
ATOM     11  C   UNL     1     -10.700  26.075  26.328  1.00  0.00     0.004 C 
ENDBRANCH   9  10
ENDBRANCH   8   9
ENDBRANCH   7   8
ENDBRANCH   6   7
ENDBRANCH   4   5
ENDBRANCH   3   4
ENDBRANCH   1   2
BRANCH   1  12
ATOM     12  C   UNL     1      -8.008  25.201  23.110  1.00  0.00     0.004 C 
BRANCH  12  13
ATOM     13  C   UNL     1      -9.062  24.256  22.515  1.00  0.00     0.000 C 
BRANCH  13  14
ATOM     14  C   UNL     1      -8.421  22.944  22.038  1.00  0.00     0.000 C 
BRANCH  14  15
ATOM     15  C   UNL     1      -9.401  21.753  22.116  1.00  0.00     0.001 C 
BRANCH  15  16
ATOM     16  C   UNL     1     -10.693  21.962  21.308  1.00  0.00     0.012 C 
BRANCH  16  17
ATOM     17  C   UNL     1     -10.442  22.093  19.802  1.00  0.00     0.123 C 
BRANCH  17  18
ATOM     18  C   UNL     1     -10.915  23.423  19.307  1.00  0.00     0.305 C 
ATOM     19  O   UNL     1     -11.119  24.360  20.128  1.00  0.00    -0.252 OA
BRANCH  18  20
ATOM     20  O   UNL     1     -11.089  23.625  17.935  1.00  0.00    -0.469 OA
ATOM     21  C   UNL     1     -10.768  24.855  17.296  1.00  0.00     0.282 C 
ENDBRANCH  18  20
ENDBRANCH  17  18
ENDBRANCH  16  17
ENDBRANCH  15  16
ENDBRANCH  14  15
ENDBRANCH  13  14
ENDBRANCH  12  13
ENDBRANCH   1  12
TORSDOF 15
ENDMDL
