MODEL 1
REMARK VINA RESULT:    -4.517      0.000      0.000
REMARK INTER + INTRA:          -6.952
REMARK INTER:                  -6.366
REMARK INTRA:                  -0.586
REMARK UNBOUND:                -0.586
REMARK SMILES CCCCCCCCC(=O)[O-]
REMARK SMILES IDX 6 1 7 2 8 3 9 4 10 5 11 6 5 7 4 8 3 9 2 10 1 11
REMARK H PARENT
REMARK Flexibility Score: inf
ROOT
ATOM      1  C   UNL     1      18.800  23.149   6.734  1.00  0.00     0.000 C 
ENDROOT
BRANCH   1   2
ATOM      2  C   UNL     1      20.268  22.771   6.984  1.00  0.00     0.006 C 
BRANCH   2   3
ATOM      3  C   UNL     1      20.926  23.662   8.046  1.00  0.00     0.053 C 
BRANCH   3   4
ATOM      4  C   UNL     1      21.436  22.862   9.205  1.00  0.00     0.041 C 
ATOM      5  O   UNL     1      20.997  23.078  10.366  1.00  0.00    -0.550 OA
ATOM      6  O   UNL     1      22.418  21.899   9.009  1.00  0.00    -0.550 OA
ENDBRANCH   3   4
ENDBRANCH   2   3
ENDBRANCH   1   2
BRANCH   1   7
ATOM      7  C   UNL     1      18.081  23.467   8.050  1.00  0.00     0.000 C 
BRANCH   7   8
ATOM      8  C   UNL     1      17.216  24.725   7.917  1.00  0.00    -0.000 C 
BRANCH   8   9
ATOM      9  C   UNL     1      17.205  25.526   9.227  1.00  0.00    -0.000 C 
BRANCH   9  10
ATOM     10  C   UNL     1      18.604  26.023   9.626  1.00  0.00    -0.003 C 
ATOM     11  C   UNL     1      19.059  27.229   8.805  1.00  0.00     0.004 C 
ENDBRANCH   9  10
ENDBRANCH   8   9
ENDBRANCH   7   8
ENDBRANCH   1   7
TORSDOF 7
ENDMDL
MODEL 2
REMARK VINA RESULT:    -4.505      0.897      1.395
REMARK INTER + INTRA:          -6.934
REMARK INTER:                  -6.423
REMARK INTRA:                  -0.511
REMARK UNBOUND:                -0.586
REMARK SMILES CCCCCCCCC(=O)[O-]
REMARK SMILES IDX 6 1 7 2 8 3 9 4 10 5 11 6 5 7 4 8 3 9 2 10 1 11
REMARK H PARENT
REMARK Flexibility Score: inf
ROOT
ATOM      1  C   UNL     1      18.455  23.546   6.908  1.00  0.00     0.000 C 
ENDROOT
BRANCH   1   2
ATOM      2  C   UNL     1      19.677  23.663   7.831  1.00  0.00     0.006 C 
BRANCH   2   3
ATOM      3  C   UNL     1      20.852  22.800   7.354  1.00  0.00     0.053 C 
BRANCH   3   4
ATOM      4  C   UNL     1      21.687  22.315   8.499  1.00  0.00     0.041 C 
ATOM      5  O   UNL     1      22.392  21.279   8.375  1.00  0.00    -0.550 OA
ATOM      6  O   UNL     1      21.662  22.988   9.714  1.00  0.00    -0.550 OA
ENDBRANCH   3   4
ENDBRANCH   2   3
ENDBRANCH   1   2
BRANCH   1   7
ATOM      7  C   UNL     1      17.287  24.389   7.432  1.00  0.00     0.000 C 
BRANCH   7   8
ATOM      8  C   UNL     1      17.158  24.268   8.955  1.00  0.00    -0.000 C 
BRANCH   8   9
ATOM      9  C   UNL     1      17.169  25.653   9.619  1.00  0.00    -0.000 C 
BRANCH   9  10
ATOM     10  C   UNL     1      17.670  26.757   8.673  1.00  0.00    -0.003 C 
ATOM     11  C   UNL     1      19.033  27.312   9.082  1.00  0.00     0.004 C 
ENDBRANCH   9  10
ENDBRANCH   8   9
ENDBRANCH   7   8
ENDBRANCH   1   7
TORSDOF 7
ENDMDL
MODEL 3
REMARK VINA RESULT:    -4.504      1.955      4.050
REMARK INTER + INTRA:          -6.933
REMARK INTER:                  -6.217
REMARK INTRA:                  -0.715
REMARK UNBOUND:                -0.586
REMARK SMILES CCCCCCCCC(=O)[O-]
REMARK SMILES IDX 6 1 7 2 8 3 9 4 10 5 11 6 5 7 4 8 3 9 2 10 1 11
REMARK H PARENT
REMARK Flexibility Score: inf
ROOT
ATOM      1  C   UNL     1      17.139  23.698   6.878  1.00  0.00     0.000 C 
ENDROOT
BRANCH   1   2
ATOM      2  C   UNL     1      17.549  24.323   8.221  1.00  0.00     0.006 C 
BRANCH   2   3
ATOM      3  C   UNL     1      17.991  25.785   8.071  1.00  0.00     0.053 C 
BRANCH   3   4
ATOM      4  C   UNL     1      18.734  26.266   9.279  1.00  0.00     0.041 C 
ATOM      5  O   UNL     1      18.978  25.477  10.230  1.00  0.00    -0.550 OA
ATOM      6  O   UNL     1      19.130  27.595   9.371  1.00  0.00    -0.550 OA
ENDBRANCH   3   4
ENDBRANCH   2   3
ENDBRANCH   1   2
BRANCH   1   7
ATOM      7  C   UNL     1      18.355  23.122   6.145  1.00  0.00     0.000 C 
BRANCH   7   8
ATOM      8  C   UNL     1      19.226  22.287   7.091  1.00  0.00    -0.000 C 
BRANCH   8   9
ATOM      9  C   UNL     1      20.708  22.663   6.950  1.00  0.00    -0.000 C 
BRANCH   9  10
ATOM     10  C   UNL     1      21.238  23.439   8.167  1.00  0.00    -0.003 C 
ATOM     11  C   UNL     1      21.020  22.694   9.483  1.00  0.00     0.004 C 
ENDBRANCH   9  10
ENDBRANCH   8   9
ENDBRANCH   7   8
ENDBRANCH   1   7
TORSDOF 7
ENDMDL
MODEL 4
REMARK VINA RESULT:    -4.494      3.159      4.674
REMARK INTER + INTRA:          -6.920
REMARK INTER:                  -6.153
REMARK INTRA:                  -0.767
REMARK UNBOUND:                -0.586
REMARK SMILES CCCCCCCCC(=O)[O-]
REMARK SMILES IDX 6 1 7 2 8 3 9 4 10 5 11 6 5 7 4 8 3 9 2 10 1 11
REMARK H PARENT
REMARK Flexibility Score: inf
ROOT
ATOM      1  C   UNL     1      19.132  24.210   8.065  1.00  0.00     0.000 C 
ENDROOT
BRANCH   1   2
ATOM      2  C   UNL     1      17.736  24.783   8.357  1.00  0.00     0.006 C 
BRANCH   2   3
ATOM      3  C   UNL     1      17.732  25.714   9.576  1.00  0.00     0.053 C 
BRANCH   3   4
ATOM      4  C   UNL     1      17.982  27.138   9.188  1.00  0.00     0.041 C 
ATOM      5  O   UNL     1      17.018  27.893   8.894  1.00  0.00    -0.550 OA
ATOM      6  O   UNL     1      19.282  27.625   9.121  1.00  0.00    -0.550 OA
ENDBRANCH   3   4
ENDBRANCH   2   3
ENDBRANCH   1   2
BRANCH   1   7
ATOM      7  C   UNL     1      19.896  23.935   9.365  1.00  0.00     0.000 C 
BRANCH   7   8
ATOM      8  C   UNL     1      20.228  22.445   9.506  1.00  0.00    -0.000 C 
BRANCH   8   9
ATOM      9  C   UNL     1      18.994  21.647   9.952  1.00  0.00    -0.000 C 
BRANCH   9  10
ATOM     10  C   UNL     1      18.552  21.996  11.383  1.00  0.00    -0.003 C 
ATOM     11  C   UNL     1      17.087  22.422  11.461  1.00  0.00     0.004 C 
ENDBRANCH   9  10
ENDBRANCH   8   9
ENDBRANCH   7   8
ENDBRANCH   1   7
TORSDOF 7
ENDMDL
MODEL 5
REMARK VINA RESULT:    -4.469      2.701      4.762
REMARK INTER + INTRA:          -6.883
REMARK INTER:                  -6.237
REMARK INTRA:                  -0.646
REMARK UNBOUND:                -0.586
REMARK SMILES CCCCCCCCC(=O)[O-]
REMARK SMILES IDX 6 1 7 2 8 3 9 4 10 5 11 6 5 7 4 8 3 9 2 10 1 11
REMARK H PARENT
REMARK Flexibility Score: inf
ROOT
ATOM      1  C   UNL     1      18.653  23.315  10.235  1.00  0.00     0.000 C 
ENDROOT
BRANCH   1   2
ATOM      2  C   UNL     1      17.820  24.575   9.953  1.00  0.00     0.006 C 
BRANCH   2   3
ATOM      3  C   UNL     1      18.382  25.394   8.783  1.00  0.00     0.053 C 
BRANCH   3   4
ATOM      4  C   UNL     1      18.254  26.866   9.024  1.00  0.00     0.041 C 
ATOM      5  O   UNL     1      17.116  27.389   9.166  1.00  0.00    -0.550 OA
ATOM      6  O   UNL     1      19.388  27.668   9.061  1.00  0.00    -0.550 OA
ENDBRANCH   3   4
ENDBRANCH   2   3
ENDBRANCH   1   2
BRANCH   1   7
ATOM      7  C   UNL     1      20.153  23.622  10.177  1.00  0.00     0.000 C 
BRANCH   7   8
ATOM      8  C   UNL     1      20.893  22.600   9.306  1.00  0.00    -0.000 C 
BRANCH   8   9
ATOM      9  C   UNL     1      21.313  23.221   7.967  1.00  0.00    -0.000 C 
BRANCH   9  10
ATOM     10  C   UNL     1      20.837  22.398   6.759  1.00  0.00    -0.003 C 
ATOM     11  C   UNL     1      19.403  22.727   6.348  1.00  0.00     0.004 C 
ENDBRANCH   9  10
ENDBRANCH   8   9
ENDBRANCH   7   8
ENDBRANCH   1   7
TORSDOF 7
ENDMDL
MODEL 6
REMARK VINA RESULT:    -4.412      2.093      4.071
REMARK INTER + INTRA:          -6.803
REMARK INTER:                  -5.955
REMARK INTRA:                  -0.848
REMARK UNBOUND:                -0.586
REMARK SMILES CCCCCCCCC(=O)[O-]
REMARK SMILES IDX 6 1 7 2 8 3 9 4 10 5 11 6 5 7 4 8 3 9 2 10 1 11
REMARK H PARENT
REMARK Flexibility Score: inf
ROOT
ATOM      1  C   UNL     1      17.740  23.121   7.139  1.00  0.00     0.000 C 
ENDROOT
BRANCH   1   2
ATOM      2  C   UNL     1      17.254  24.550   7.425  1.00  0.00     0.006 C 
BRANCH   2   3
ATOM      3  C   UNL     1      17.358  24.914   8.911  1.00  0.00     0.053 C 
BRANCH   3   4
ATOM      4  C   UNL     1      18.253  26.095   9.132  1.00  0.00     0.041 C 
ATOM      5  O   UNL     1      18.232  27.065   8.329  1.00  0.00    -0.550 OA
ATOM      6  O   UNL     1      19.132  26.113  10.208  1.00  0.00    -0.550 OA
ENDBRANCH   3   4
ENDBRANCH   2   3
ENDBRANCH   1   2
BRANCH   1   7
ATOM      7  C   UNL     1      19.153  23.129   6.545  1.00  0.00     0.000 C 
BRANCH   7   8
ATOM      8  C   UNL     1      20.156  22.464   7.495  1.00  0.00    -0.000 C 
BRANCH   8   9
ATOM      9  C   UNL     1      20.967  23.518   8.263  1.00  0.00    -0.000 C 
BRANCH   9  10
ATOM     10  C   UNL     1      21.022  23.235   9.773  1.00  0.00    -0.003 C 
ATOM     11  C   UNL     1      19.783  22.500  10.282  1.00  0.00     0.004 C 
ENDBRANCH   9  10
ENDBRANCH   8   9
ENDBRANCH   7   8
ENDBRANCH   1   7
TORSDOF 7
ENDMDL
MODEL 7
REMARK VINA RESULT:    -4.392      2.743      4.492
REMARK INTER + INTRA:          -6.775
REMARK INTER:                  -6.103
REMARK INTRA:                  -0.672
REMARK UNBOUND:                -0.586
REMARK SMILES CCCCCCCCC(=O)[O-]
REMARK SMILES IDX 6 1 7 2 8 3 9 4 10 5 11 6 5 7 4 8 3 9 2 10 1 11
REMARK H PARENT
REMARK Flexibility Score: inf
ROOT
ATOM      1  C   UNL     1      20.551  22.986   9.292  1.00  0.00     0.000 C 
ENDROOT
BRANCH   1   2
ATOM      2  C   UNL     1      19.591  24.089   9.765  1.00  0.00     0.006 C 
BRANCH   2   3
ATOM      3  C   UNL     1      19.388  25.178   8.704  1.00  0.00     0.053 C 
BRANCH   3   4
ATOM      4  C   UNL     1      18.493  26.273   9.197  1.00  0.00     0.041 C 
ATOM      5  O   UNL     1      18.950  27.433   9.376  1.00  0.00    -0.550 OA
ATOM      6  O   UNL     1      17.160  26.007   9.489  1.00  0.00    -0.550 OA
ENDBRANCH   3   4
ENDBRANCH   2   3
ENDBRANCH   1   2
BRANCH   1   7
ATOM      7  C   UNL     1      21.266  23.397   8.000  1.00  0.00     0.000 C 
BRANCH   7   8
ATOM      8  C   UNL     1      21.065  22.347   6.901  1.00  0.00    -0.000 C 
BRANCH   8   9
ATOM      9  C   UNL     1      19.597  21.904   6.825  1.00  0.00    -0.000 C 
BRANCH   9  10
ATOM     10  C   UNL     1      18.816  22.636   5.722  1.00  0.00    -0.003 C 
ATOM     11  C   UNL     1      17.500  23.229   6.223  1.00  0.00     0.004 C 
ENDBRANCH   9  10
ENDBRANCH   8   9
ENDBRANCH   7   8
ENDBRANCH   1   7
TORSDOF 7
ENDMDL
MODEL 8
REMARK VINA RESULT:    -4.363      2.346      4.486
REMARK INTER + INTRA:          -6.734
REMARK INTER:                  -6.002
REMARK INTRA:                  -0.731
REMARK UNBOUND:                -0.586
REMARK SMILES CCCCCCCCC(=O)[O-]
REMARK SMILES IDX 6 1 7 2 8 3 9 4 10 5 11 6 5 7 4 8 3 9 2 10 1 11
REMARK H PARENT
REMARK Flexibility Score: inf
ROOT
ATOM      1  C   UNL     1      18.768  22.403  10.804  1.00  0.00     0.000 C 
ENDROOT
BRANCH   1   2
ATOM      2  C   UNL     1      17.446  22.971  10.265  1.00  0.00     0.006 C 
BRANCH   2   3
ATOM      3  C   UNL     1      17.286  24.466  10.573  1.00  0.00     0.053 C 
BRANCH   3   4
ATOM      4  C   UNL     1      18.198  25.307   9.735  1.00  0.00     0.041 C 
ATOM      5  O   UNL     1      19.151  25.934  10.269  1.00  0.00    -0.550 OA
ATOM      6  O   UNL     1      17.979  25.424   8.368  1.00  0.00    -0.550 OA
ENDBRANCH   3   4
ENDBRANCH   2   3
ENDBRANCH   1   2
BRANCH   1   7
ATOM      7  C   UNL     1      19.684  21.958   9.658  1.00  0.00     0.000 C 
BRANCH   7   8
ATOM      8  C   UNL     1      20.985  22.769   9.644  1.00  0.00    -0.000 C 
BRANCH   8   9
ATOM      9  C   UNL     1      21.170  23.488   8.300  1.00  0.00    -0.000 C 
BRANCH   9  10
ATOM     10  C   UNL     1      20.233  22.946   7.208  1.00  0.00    -0.003 C 
ATOM     11  C   UNL     1      20.955  22.047   6.204  1.00  0.00     0.004 C 
ENDBRANCH   9  10
ENDBRANCH   8   9
ENDBRANCH   7   8
ENDBRANCH   1   7
TORSDOF 7
ENDMDL
MODEL 9
REMARK VINA RESULT:    -4.350      1.834      3.533
REMARK INTER + INTRA:          -6.717
REMARK INTER:                  -5.987
REMARK INTRA:                  -0.730
REMARK UNBOUND:                -0.586
REMARK SMILES CCCCCCCCC(=O)[O-]
REMARK SMILES IDX 6 1 7 2 8 3 9 4 10 5 11 6 5 7 4 8 3 9 2 10 1 11
REMARK H PARENT
REMARK Flexibility Score: inf
ROOT
ATOM      1  C   UNL     1      18.731  24.986   8.378  1.00  0.00     0.000 C 
ENDROOT
BRANCH   1   2
ATOM      2  C   UNL     1      18.999  24.688   9.862  1.00  0.00     0.006 C 
BRANCH   2   3
ATOM      3  C   UNL     1      20.024  23.563  10.053  1.00  0.00     0.053 C 
BRANCH   3   4
ATOM      4  C   UNL     1      19.362  22.255  10.361  1.00  0.00     0.041 C 
ATOM      5  O   UNL     1      19.437  21.299   9.544  1.00  0.00    -0.550 OA
ATOM      6  O   UNL     1      18.636  22.100  11.536  1.00  0.00    -0.550 OA
ENDBRANCH   3   4
ENDBRANCH   2   3
ENDBRANCH   1   2
BRANCH   1   7
ATOM      7  C   UNL     1      17.287  24.636   7.999  1.00  0.00     0.000 C 
BRANCH   7   8
ATOM      8  C   UNL     1      17.229  23.933   6.637  1.00  0.00    -0.000 C 
BRANCH   8   9
ATOM      9  C   UNL     1      17.937  22.572   6.691  1.00  0.00    -0.000 C 
BRANCH   9  10
ATOM     10  C   UNL     1      19.094  22.469   5.684  1.00  0.00    -0.003 C 
ATOM     11  C   UNL     1      20.461  22.380   6.362  1.00  0.00     0.004 C 
ENDBRANCH   9  10
ENDBRANCH   8   9
ENDBRANCH   7   8
ENDBRANCH   1   7
TORSDOF 7
ENDMDL
