MODEL 1
REMARK VINA RESULT:     7.096      0.000      0.000
REMARK INTER + INTRA:           7.803
REMARK INTER:                   7.719
REMARK INTRA:                   0.085
REMARK UNBOUND:                 0.085
REMARK SMILES Cc1ccc(C(C)C)c(O)c1
REMARK SMILES IDX 1 1 2 2 11 3 9 4 5 5 4 6 3 7 10 8 6 10 7 11 8 12
REMARK H PARENT 10 9
REMARK Flexibility Score: inf
ROOT
ATOM      1  C   UNL     1      10.022  41.535  23.484  1.00  0.00     0.044 C 
ATOM      2  C   UNL     1       8.588  41.800  23.836  1.00  0.00    -0.047 A 
ATOM      3  C   UNL     1       7.941  42.943  23.348  1.00  0.00     0.049 A 
ATOM      4  C   UNL     1       6.590  43.181  23.641  1.00  0.00     0.119 A 
ATOM      5  C   UNL     1       5.865  42.258  24.429  1.00  0.00    -0.004 A 
ATOM      6  C   UNL     1       6.521  41.103  24.897  1.00  0.00     0.008 A 
ATOM      7  C   UNL     1       7.866  40.875  24.599  1.00  0.00     0.004 A 
ENDROOT
BRANCH   4   8
ATOM      8  O   UNL     1       5.972  44.331  23.150  1.00  0.00    -0.508 OA
ATOM      9  H   UNL     1       5.930  44.530  22.157  1.00  0.00     0.293 HD
ENDBRANCH   4   8
BRANCH   5  10
ATOM     10  C   UNL     1       4.398  42.493  24.761  1.00  0.00     0.017 C 
ATOM     11  C   UNL     1       3.543  42.525  23.489  1.00  0.00     0.012 C 
ATOM     12  C   UNL     1       3.880  41.439  25.748  1.00  0.00     0.012 C 
ENDBRANCH   5  10
TORSDOF 2
ENDMDL
MODEL 2
REMARK VINA RESULT:     7.517      1.054      4.119
REMARK INTER + INTRA:           8.261
REMARK INTER:                   8.443
REMARK INTRA:                  -0.182
REMARK UNBOUND:                 0.085
REMARK SMILES Cc1ccc(C(C)C)c(O)c1
REMARK SMILES IDX 1 1 2 2 11 3 9 4 5 5 4 6 3 7 10 8 6 10 7 11 8 12
REMARK H PARENT 10 9
REMARK Flexibility Score: inf
ROOT
ATOM      1  C   UNL     1       3.269  42.222  24.957  1.00  0.00     0.044 C 
ATOM      2  C   UNL     1       4.733  42.097  24.649  1.00  0.00    -0.047 A 
ATOM      3  C   UNL     1       5.405  43.135  23.988  1.00  0.00     0.049 A 
ATOM      4  C   UNL     1       6.780  43.043  23.729  1.00  0.00     0.119 A 
ATOM      5  C   UNL     1       7.504  41.902  24.143  1.00  0.00    -0.004 A 
ATOM      6  C   UNL     1       6.820  40.875  24.824  1.00  0.00     0.008 A 
ATOM      7  C   UNL     1       5.451  40.976  25.078  1.00  0.00     0.004 A 
ENDROOT
BRANCH   4   8
ATOM      8  O   UNL     1       7.424  44.085  23.062  1.00  0.00    -0.508 OA
ATOM      9  H   UNL     1       8.426  44.080  22.908  1.00  0.00     0.293 HD
ENDBRANCH   4   8
BRANCH   5  10
ATOM     10  C   UNL     1       8.997  41.780  23.874  1.00  0.00     0.017 C 
ATOM     11  C   UNL     1       9.687  40.943  24.958  1.00  0.00     0.012 C 
ATOM     12  C   UNL     1       9.261  41.200  22.478  1.00  0.00     0.012 C 
ENDBRANCH   5  10
TORSDOF 2
ENDMDL
MODEL 3
REMARK VINA RESULT:     7.585      1.805      2.573
REMARK INTER + INTRA:           8.335
REMARK INTER:                   8.399
REMARK INTRA:                  -0.065
REMARK UNBOUND:                 0.085
REMARK SMILES Cc1ccc(C(C)C)c(O)c1
REMARK SMILES IDX 1 1 2 2 11 3 9 4 5 5 4 6 3 7 10 8 6 10 7 11 8 12
REMARK H PARENT 10 9
REMARK Flexibility Score: inf
ROOT
ATOM      1  C   UNL     1      11.264  40.875  23.153  1.00  0.00     0.044 C 
ATOM      2  C   UNL     1       9.885  41.363  23.488  1.00  0.00    -0.047 A 
ATOM      3  C   UNL     1       9.228  40.891  24.633  1.00  0.00     0.049 A 
ATOM      4  C   UNL     1       7.955  41.369  24.975  1.00  0.00     0.119 A 
ATOM      5  C   UNL     1       7.325  42.343  24.168  1.00  0.00    -0.004 A 
ATOM      6  C   UNL     1       8.004  42.824  23.031  1.00  0.00     0.008 A 
ATOM      7  C   UNL     1       9.272  42.343  22.699  1.00  0.00     0.004 A 
ENDROOT
BRANCH   4   8
ATOM      8  O   UNL     1       7.319  40.876  26.114  1.00  0.00    -0.508 OA
ATOM      9  H   UNL     1       7.844  40.517  26.904  1.00  0.00     0.293 HD
ENDBRANCH   4   8
BRANCH   5  10
ATOM     10  C   UNL     1       5.944  42.878  24.518  1.00  0.00     0.017 C 
ATOM     11  C   UNL     1       5.645  44.175  23.757  1.00  0.00     0.012 C 
ATOM     12  C   UNL     1       4.861  41.824  24.256  1.00  0.00     0.012 C 
ENDBRANCH   5  10
TORSDOF 2
ENDMDL
