MODEL 1
REMARK VINA RESULT:     0.000      0.000      0.000
REMARK INTER + INTRA:          -3.088
REMARK INTER:                   0.000
REMARK INTRA:                  -3.088
REMARK UNBOUND:                -3.088
REMARK SMILES CCCCCCCCCCCCCCCCO
REMARK SMILES IDX 9 1 8 2 7 3 6 4 5 5 4 6 3 7 2 8 1 9 10 10 11 11 12 12 13 13
REMARK SMILES IDX 14 14 15 15 16 16 17 17
REMARK H PARENT 17 18
REMARK Flexibility Score: inf
ROOT
ATOM      1  C   UNL     1     172.408 183.187 185.042  1.00  0.00     0.000 C 
ENDROOT
BRANCH   1   2
ATOM      2  C   UNL     1     173.178 182.635 186.249  1.00  0.00    -0.000 C 
BRANCH   2   3
ATOM      3  C   UNL     1     173.080 183.592 187.448  1.00  0.00    -0.000 C 
BRANCH   3   4
ATOM      4  C   UNL     1     174.459 184.024 187.975  1.00  0.00    -0.000 C 
BRANCH   4   5
ATOM      5  C   UNL     1     175.579 183.808 186.944  1.00  0.00    -0.000 C 
BRANCH   5   6
ATOM      6  C   UNL     1     176.058 185.120 186.295  1.00  0.00    -0.000 C 
BRANCH   6   7
ATOM      7  C   UNL     1     176.235 185.066 184.767  1.00  0.00    -0.000 C 
BRANCH   7   8
ATOM      8  C   UNL     1     176.079 183.649 184.195  1.00  0.00    -0.003 C 
ATOM      9  C   UNL     1     175.384 183.678 182.836  1.00  0.00     0.004 C 
ENDBRANCH   7   8
ENDBRANCH   6   7
ENDBRANCH   5   6
ENDBRANCH   4   5
ENDBRANCH   3   4
ENDBRANCH   2   3
ENDBRANCH   1   2
BRANCH   1  10
ATOM     10  C   UNL     1     171.960 184.636 185.292  1.00  0.00     0.000 C 
BRANCH  10  11
ATOM     11  C   UNL     1     172.555 185.625 184.276  1.00  0.00     0.000 C 
BRANCH  11  12
ATOM     12  C   UNL     1     173.053 186.922 184.937  1.00  0.00     0.000 C 
BRANCH  12  13
ATOM     13  C   UNL     1     172.518 187.098 186.367  1.00  0.00     0.000 C 
BRANCH  13  14
ATOM     14  C   UNL     1     173.578 187.644 187.337  1.00  0.00     0.002 C 
BRANCH  14  15
ATOM     15  C   UNL     1     173.159 187.409 188.794  1.00  0.00     0.028 C 
BRANCH  15  16
ATOM     16  C   UNL     1     171.757 186.801 188.897  1.00  0.00     0.156 C 
BRANCH  16  17
ATOM     17  O   UNL     1     171.716 185.816 189.896  1.00  0.00    -0.396 OA
ATOM     18  H   UNL     1     171.652 184.940 189.435  1.00  0.00     0.210 HD
ENDBRANCH  16  17
ENDBRANCH  15  16
ENDBRANCH  14  15
ENDBRANCH  13  14
ENDBRANCH  12  13
ENDBRANCH  11  12
ENDBRANCH  10  11
ENDBRANCH   1  10
TORSDOF 15
ENDMDL
MODEL 2
REMARK VINA RESULT:     0.005      6.073      8.104
REMARK INTER + INTRA:          -3.079
REMARK INTER:                   0.000
REMARK INTRA:                  -3.079
REMARK UNBOUND:                -3.088
REMARK SMILES CCCCCCCCCCCCCCCCO
REMARK SMILES IDX 9 1 8 2 7 3 6 4 5 5 4 6 3 7 2 8 1 9 10 10 11 11 12 12 13 13
REMARK SMILES IDX 14 14 15 15 16 16 17 17
REMARK H PARENT 17 18
REMARK Flexibility Score: inf
ROOT
ATOM      1  C   UNL     1     170.648 189.343 183.834  1.00  0.00     0.000 C 
ENDROOT
BRANCH   1   2
ATOM      2  C   UNL     1     170.185 187.892 183.651  1.00  0.00    -0.000 C 
BRANCH   2   3
ATOM      3  C   UNL     1     168.960 187.591 184.530  1.00  0.00    -0.000 C 
BRANCH   3   4
ATOM      4  C   UNL     1     167.784 187.010 183.728  1.00  0.00    -0.000 C 
BRANCH   4   5
ATOM      5  C   UNL     1     167.798 187.451 182.255  1.00  0.00    -0.000 C 
BRANCH   5   6
ATOM      6  C   UNL     1     166.842 188.624 181.971  1.00  0.00    -0.000 C 
BRANCH   6   7
ATOM      7  C   UNL     1     167.434 189.756 181.112  1.00  0.00    -0.000 C 
BRANCH   7   8
ATOM      8  C   UNL     1     168.819 189.414 180.542  1.00  0.00    -0.003 C 
ATOM      9  C   UNL     1     169.693 190.661 180.440  1.00  0.00     0.004 C 
ENDBRANCH   7   8
ENDBRANCH   6   7
ENDBRANCH   5   6
ENDBRANCH   4   5
ENDBRANCH   3   4
ENDBRANCH   2   3
ENDBRANCH   1   2
BRANCH   1  10
ATOM     10  C   UNL     1     169.658 190.131 184.705  1.00  0.00     0.000 C 
BRANCH  10  11
ATOM     11  C   UNL     1     169.152 191.411 184.021  1.00  0.00     0.000 C 
BRANCH  11  12
ATOM     12  C   UNL     1     167.648 191.647 184.250  1.00  0.00     0.000 C 
BRANCH  12  13
ATOM     13  C   UNL     1     167.052 190.688 185.293  1.00  0.00     0.000 C 
BRANCH  13  14
ATOM     14  C   UNL     1     165.604 190.285 184.972  1.00  0.00     0.002 C 
BRANCH  14  15
ATOM     15  C   UNL     1     165.253 188.941 185.624  1.00  0.00     0.028 C 
BRANCH  15  16
ATOM     16  C   UNL     1     166.144 188.640 186.832  1.00  0.00     0.156 C 
BRANCH  16  17
ATOM     17  O   UNL     1     166.304 187.256 186.998  1.00  0.00    -0.396 OA
ATOM     18  H   UNL     1     166.490 186.877 186.099  1.00  0.00     0.210 HD
ENDBRANCH  16  17
ENDBRANCH  15  16
ENDBRANCH  14  15
ENDBRANCH  13  14
ENDBRANCH  12  13
ENDBRANCH  11  12
ENDBRANCH  10  11
ENDBRANCH   1  10
TORSDOF 15
ENDMDL
MODEL 3
REMARK VINA RESULT:     0.024     10.948     13.155
REMARK INTER + INTRA:          -3.044
REMARK INTER:                   0.000
REMARK INTRA:                  -3.044
REMARK UNBOUND:                -3.088
REMARK SMILES CCCCCCCCCCCCCCCCO
REMARK SMILES IDX 9 1 8 2 7 3 6 4 5 5 4 6 3 7 2 8 1 9 10 10 11 11 12 12 13 13
REMARK SMILES IDX 14 14 15 15 16 16 17 17
REMARK H PARENT 17 18
REMARK Flexibility Score: inf
ROOT
ATOM      1  C   UNL     1     165.009 189.443 185.712  1.00  0.00     0.000 C 
ENDROOT
BRANCH   1   2
ATOM      2  C   UNL     1     163.517 189.101 185.807  1.00  0.00    -0.000 C 
BRANCH   2   3
ATOM      3  C   UNL     1     162.746 190.205 186.549  1.00  0.00    -0.000 C 
BRANCH   3   4
ATOM      4  C   UNL     1     161.493 190.666 185.788  1.00  0.00    -0.000 C 
BRANCH   4   5
ATOM      5  C   UNL     1     161.653 192.071 185.183  1.00  0.00    -0.000 C 
BRANCH   5   6
ATOM      6  C   UNL     1     162.807 192.869 185.816  1.00  0.00    -0.000 C 
BRANCH   6   7
ATOM      7  C   UNL     1     163.813 193.468 184.817  1.00  0.00    -0.000 C 
BRANCH   7   8
ATOM      8  C   UNL     1     165.237 193.563 185.385  1.00  0.00    -0.003 C 
ATOM      9  C   UNL     1     165.303 192.994 186.800  1.00  0.00     0.004 C 
ENDBRANCH   7   8
ENDBRANCH   6   7
ENDBRANCH   5   6
ENDBRANCH   4   5
ENDBRANCH   3   4
ENDBRANCH   2   3
ENDBRANCH   1   2
BRANCH   1  10
ATOM     10  C   UNL     1     165.349 190.042 184.338  1.00  0.00     0.000 C 
BRANCH  10  11
ATOM     11  C   UNL     1     164.419 189.538 183.223  1.00  0.00     0.000 C 
BRANCH  11  12
ATOM     12  C   UNL     1     163.800 190.686 182.407  1.00  0.00     0.000 C 
BRANCH  12  13
ATOM     13  C   UNL     1     162.354 190.391 181.976  1.00  0.00     0.000 C 
BRANCH  13  14
ATOM     14  C   UNL     1     161.871 189.003 182.424  1.00  0.00     0.002 C 
BRANCH  14  15
ATOM     15  C   UNL     1     160.358 189.006 182.680  1.00  0.00     0.028 C 
BRANCH  15  16
ATOM     16  C   UNL     1     159.722 190.357 182.342  1.00  0.00     0.156 C 
BRANCH  16  17
ATOM     17  O   UNL     1     158.844 190.761 183.359  1.00  0.00    -0.396 OA
ATOM     18  H   UNL     1     159.144 190.316 184.193  1.00  0.00     0.210 HD
ENDBRANCH  16  17
ENDBRANCH  15  16
ENDBRANCH  14  15
ENDBRANCH  13  14
ENDBRANCH  12  13
ENDBRANCH  11  12
ENDBRANCH  10  11
ENDBRANCH   1  10
TORSDOF 15
ENDMDL
MODEL 4
REMARK VINA RESULT:     0.025      7.302     10.677
REMARK INTER + INTRA:          -3.042
REMARK INTER:                   0.000
REMARK INTRA:                  -3.042
REMARK UNBOUND:                -3.088
REMARK SMILES CCCCCCCCCCCCCCCCO
REMARK SMILES IDX 9 1 8 2 7 3 6 4 5 5 4 6 3 7 2 8 1 9 10 10 11 11 12 12 13 13
REMARK SMILES IDX 14 14 15 15 16 16 17 17
REMARK H PARENT 17 18
REMARK Flexibility Score: inf
ROOT
ATOM      1  C   UNL     1     165.612 188.274 189.746  1.00  0.00     0.000 C 
ENDROOT
BRANCH   1   2
ATOM      2  C   UNL     1     166.760 188.359 188.732  1.00  0.00    -0.000 C 
BRANCH   2   3
ATOM      3  C   UNL     1     166.333 189.145 187.482  1.00  0.00    -0.000 C 
BRANCH   3   4
ATOM      4  C   UNL     1     165.103 190.032 187.732  1.00  0.00    -0.000 C 
BRANCH   4   5
ATOM      5  C   UNL     1     165.456 191.527 187.794  1.00  0.00    -0.000 C 
BRANCH   5   6
ATOM      6  C   UNL     1     164.714 192.273 188.919  1.00  0.00    -0.000 C 
BRANCH   6   7
ATOM      7  C   UNL     1     163.666 191.438 189.675  1.00  0.00    -0.000 C 
BRANCH   7   8
ATOM      8  C   UNL     1     163.654 191.717 191.186  1.00  0.00    -0.003 C 
ATOM      9  C   UNL     1     164.236 193.094 191.494  1.00  0.00     0.004 C 
ENDBRANCH   7   8
ENDBRANCH   6   7
ENDBRANCH   5   6
ENDBRANCH   4   5
ENDBRANCH   3   4
ENDBRANCH   2   3
ENDBRANCH   1   2
BRANCH   1  10
ATOM     10  C   UNL     1     166.044 188.823 191.114  1.00  0.00     0.000 C 
BRANCH  10  11
ATOM     11  C   UNL     1     167.410 189.526 191.068  1.00  0.00     0.000 C 
BRANCH  11  12
ATOM     12  C   UNL     1     167.311 191.030 191.376  1.00  0.00     0.000 C 
BRANCH  12  13
ATOM     13  C   UNL     1     168.100 191.890 190.375  1.00  0.00     0.000 C 
BRANCH  13  14
ATOM     14  C   UNL     1     169.100 191.070 189.544  1.00  0.00     0.002 C 
BRANCH  14  15
ATOM     15  C   UNL     1     169.167 191.587 188.101  1.00  0.00     0.028 C 
BRANCH  15  16
ATOM     16  C   UNL     1     169.756 190.546 187.146  1.00  0.00     0.156 C 
BRANCH  16  17
ATOM     17  O   UNL     1     170.093 189.372 187.837  1.00  0.00    -0.396 OA
ATOM     18  H   UNL     1     169.776 188.611 187.285  1.00  0.00     0.210 HD
ENDBRANCH  16  17
ENDBRANCH  15  16
ENDBRANCH  14  15
ENDBRANCH  13  14
ENDBRANCH  12  13
ENDBRANCH  11  12
ENDBRANCH  10  11
ENDBRANCH   1  10
TORSDOF 15
ENDMDL
MODEL 5
REMARK VINA RESULT:     0.025      8.085     10.902
REMARK INTER + INTRA:          -3.041
REMARK INTER:                   0.000
REMARK INTRA:                  -3.041
REMARK UNBOUND:                -3.088
REMARK SMILES CCCCCCCCCCCCCCCCO
REMARK SMILES IDX 9 1 8 2 7 3 6 4 5 5 4 6 3 7 2 8 1 9 10 10 11 11 12 12 13 13
REMARK SMILES IDX 14 14 15 15 16 16 17 17
REMARK H PARENT 17 18
REMARK Flexibility Score: inf
ROOT
ATOM      1  C   UNL     1     166.516 191.895 191.686  1.00  0.00     0.000 C 
ENDROOT
BRANCH   1   2
ATOM      2  C   UNL     1     165.915 191.347 190.386  1.00  0.00    -0.000 C 
BRANCH   2   3
ATOM      3  C   UNL     1     165.662 192.478 189.378  1.00  0.00    -0.000 C 
BRANCH   3   4
ATOM      4  C   UNL     1     166.300 193.809 189.808  1.00  0.00    -0.000 C 
BRANCH   4   5
ATOM      5  C   UNL     1     167.460 194.231 188.891  1.00  0.00    -0.000 C 
BRANCH   5   6
ATOM      6  C   UNL     1     168.698 194.709 189.671  1.00  0.00    -0.000 C 
BRANCH   6   7
ATOM      7  C   UNL     1     168.450 195.036 191.155  1.00  0.00    -0.000 C 
BRANCH   7   8
ATOM      8  C   UNL     1     169.532 194.464 192.083  1.00  0.00    -0.003 C 
ATOM      9  C   UNL     1     170.906 194.513 191.420  1.00  0.00     0.004 C 
ENDBRANCH   7   8
ENDBRANCH   6   7
ENDBRANCH   5   6
ENDBRANCH   4   5
ENDBRANCH   3   4
ENDBRANCH   2   3
ENDBRANCH   1   2
BRANCH   1  10
ATOM     10  C   UNL     1     167.832 191.179 192.029  1.00  0.00     0.000 C 
BRANCH  10  11
ATOM     11  C   UNL     1     168.451 190.462 190.819  1.00  0.00     0.000 C 
BRANCH  11  12
ATOM     12  C   UNL     1     169.722 191.161 190.305  1.00  0.00     0.000 C 
BRANCH  12  13
ATOM     13  C   UNL     1     169.748 191.287 188.773  1.00  0.00     0.000 C 
BRANCH  13  14
ATOM     14  C   UNL     1     168.681 190.421 188.087  1.00  0.00     0.002 C 
BRANCH  14  15
ATOM     15  C   UNL     1     168.085 191.146 186.873  1.00  0.00     0.028 C 
BRANCH  15  16
ATOM     16  C   UNL     1     166.787 190.491 186.394  1.00  0.00     0.156 C 
BRANCH  16  17
ATOM     17  O   UNL     1     166.342 189.535 187.319  1.00  0.00    -0.396 OA
ATOM     18  H   UNL     1     165.396 189.334 187.095  1.00  0.00     0.210 HD
ENDBRANCH  16  17
ENDBRANCH  15  16
ENDBRANCH  14  15
ENDBRANCH  13  14
ENDBRANCH  12  13
ENDBRANCH  11  12
ENDBRANCH  10  11
ENDBRANCH   1  10
TORSDOF 15
ENDMDL
MODEL 6
REMARK VINA RESULT:     0.027      6.872      9.114
REMARK INTER + INTRA:          -3.039
REMARK INTER:                   0.000
REMARK INTRA:                  -3.039
REMARK UNBOUND:                -3.088
REMARK SMILES CCCCCCCCCCCCCCCCO
REMARK SMILES IDX 9 1 8 2 7 3 6 4 5 5 4 6 3 7 2 8 1 9 10 10 11 11 12 12 13 13
REMARK SMILES IDX 14 14 15 15 16 16 17 17
REMARK H PARENT 17 18
REMARK Flexibility Score: inf
ROOT
ATOM      1  C   UNL     1     168.741 190.116 186.749  1.00  0.00     0.000 C 
ENDROOT
BRANCH   1   2
ATOM      2  C   UNL     1     167.292 190.170 187.247  1.00  0.00    -0.000 C 
BRANCH   2   3
ATOM      3  C   UNL     1     167.094 189.251 188.463  1.00  0.00    -0.000 C 
BRANCH   3   4
ATOM      4  C   UNL     1     166.560 190.002 189.693  1.00  0.00    -0.000 C 
BRANCH   4   5
ATOM      5  C   UNL     1     166.657 191.529 189.541  1.00  0.00    -0.000 C 
BRANCH   5   6
ATOM      6  C   UNL     1     167.693 192.162 190.488  1.00  0.00    -0.000 C 
BRANCH   6   7
ATOM      7  C   UNL     1     168.688 193.125 189.817  1.00  0.00    -0.000 C 
BRANCH   7   8
ATOM      8  C   UNL     1     168.269 193.526 188.395  1.00  0.00    -0.003 C 
ATOM      9  C   UNL     1     169.489 193.737 187.502  1.00  0.00     0.004 C 
ENDBRANCH   7   8
ENDBRANCH   6   7
ENDBRANCH   5   6
ENDBRANCH   4   5
ENDBRANCH   3   4
ENDBRANCH   2   3
ENDBRANCH   1   2
BRANCH   1  10
ATOM     10  C   UNL     1     169.655 189.443 187.785  1.00  0.00     0.000 C 
BRANCH  10  11
ATOM     11  C   UNL     1     170.775 190.372 188.282  1.00  0.00     0.000 C 
BRANCH  11  12
ATOM     12  C   UNL     1     171.009 190.257 189.798  1.00  0.00     0.000 C 
BRANCH  12  13
ATOM     13  C   UNL     1     170.187 189.126 190.438  1.00  0.00     0.000 C 
BRANCH  13  14
ATOM     14  C   UNL     1     169.723 189.460 191.864  1.00  0.00     0.002 C 
BRANCH  14  15
ATOM     15  C   UNL     1     170.528 190.632 192.441  1.00  0.00     0.028 C 
BRANCH  15  16
ATOM     16  C   UNL     1     169.745 191.392 193.515  1.00  0.00     0.156 C 
BRANCH  16  17
ATOM     17  O   UNL     1     169.824 192.776 193.301  1.00  0.00    -0.396 OA
ATOM     18  H   UNL     1     169.040 193.183 193.753  1.00  0.00     0.210 HD
ENDBRANCH  16  17
ENDBRANCH  15  16
ENDBRANCH  14  15
ENDBRANCH  13  14
ENDBRANCH  12  13
ENDBRANCH  11  12
ENDBRANCH  10  11
ENDBRANCH   1  10
TORSDOF 15
ENDMDL
MODEL 7
REMARK VINA RESULT:     0.027      9.138     12.232
REMARK INTER + INTRA:          -3.037
REMARK INTER:                   0.000
REMARK INTRA:                  -3.037
REMARK UNBOUND:                -3.088
REMARK SMILES CCCCCCCCCCCCCCCCO
REMARK SMILES IDX 9 1 8 2 7 3 6 4 5 5 4 6 3 7 2 8 1 9 10 10 11 11 12 12 13 13
REMARK SMILES IDX 14 14 15 15 16 16 17 17
REMARK H PARENT 17 18
REMARK Flexibility Score: inf
ROOT
ATOM      1  C   UNL     1     167.237 193.333 192.833  1.00  0.00     0.000 C 
ENDROOT
BRANCH   1   2
ATOM      2  C   UNL     1     166.635 192.784 191.533  1.00  0.00    -0.000 C 
BRANCH   2   3
ATOM      3  C   UNL     1     166.318 193.923 190.551  1.00  0.00    -0.000 C 
BRANCH   3   4
ATOM      4  C   UNL     1     166.881 195.277 191.012  1.00  0.00    -0.000 C 
BRANCH   4   5
ATOM      5  C   UNL     1     168.006 195.791 190.097  1.00  0.00    -0.000 C 
BRANCH   5   6
ATOM      6  C   UNL     1     169.183 196.401 190.880  1.00  0.00    -0.000 C 
BRANCH   6   7
ATOM      7  C   UNL     1     168.903 196.684 192.367  1.00  0.00    -0.000 C 
BRANCH   7   8
ATOM      8  C   UNL     1     169.975 196.100 193.299  1.00  0.00    -0.003 C 
ATOM      9  C   UNL     1     169.422 195.889 194.707  1.00  0.00     0.004 C 
ENDBRANCH   7   8
ENDBRANCH   6   7
ENDBRANCH   5   6
ENDBRANCH   4   5
ENDBRANCH   3   4
ENDBRANCH   2   3
ENDBRANCH   1   2
BRANCH   1  10
ATOM     10  C   UNL     1     168.552 192.616 193.176  1.00  0.00     0.000 C 
BRANCH  10  11
ATOM     11  C   UNL     1     169.255 192.039 191.937  1.00  0.00     0.000 C 
BRANCH  11  12
ATOM     12  C   UNL     1     170.419 192.922 191.453  1.00  0.00     0.000 C 
BRANCH  12  13
ATOM     13  C   UNL     1     170.479 193.031 189.920  1.00  0.00     0.000 C 
BRANCH  13  14
ATOM     14  C   UNL     1     169.488 192.090 189.217  1.00  0.00     0.002 C 
BRANCH  14  15
ATOM     15  C   UNL     1     168.821 192.788 188.025  1.00  0.00     0.028 C 
BRANCH  15  16
ATOM     16  C   UNL     1     167.572 192.042 187.549  1.00  0.00     0.156 C 
BRANCH  16  17
ATOM     17  O   UNL     1     167.216 191.036 188.460  1.00  0.00    -0.396 OA
ATOM     18  H   UNL     1     166.286 190.766 188.244  1.00  0.00     0.210 HD
ENDBRANCH  16  17
ENDBRANCH  15  16
ENDBRANCH  14  15
ENDBRANCH  13  14
ENDBRANCH  12  13
ENDBRANCH  11  12
ENDBRANCH  10  11
ENDBRANCH   1  10
TORSDOF 15
ENDMDL
MODEL 8
REMARK VINA RESULT:     0.028      7.562      9.680
REMARK INTER + INTRA:          -3.037
REMARK INTER:                   0.000
REMARK INTRA:                  -3.037
REMARK UNBOUND:                -3.088
REMARK SMILES CCCCCCCCCCCCCCCCO
REMARK SMILES IDX 9 1 8 2 7 3 6 4 5 5 4 6 3 7 2 8 1 9 10 10 11 11 12 12 13 13
REMARK SMILES IDX 14 14 15 15 16 16 17 17
REMARK H PARENT 17 18
REMARK Flexibility Score: inf
ROOT
ATOM      1  C   UNL     1     166.568 187.595 184.823  1.00  0.00     0.000 C 
ENDROOT
BRANCH   1   2
ATOM      2  C   UNL     1     167.951 188.246 184.956  1.00  0.00    -0.000 C 
BRANCH   2   3
ATOM      3  C   UNL     1     168.027 189.545 184.138  1.00  0.00    -0.000 C 
BRANCH   3   4
ATOM      4  C   UNL     1     168.476 190.750 184.980  1.00  0.00    -0.000 C 
BRANCH   4   5
ATOM      5  C   UNL     1     167.717 192.038 184.621  1.00  0.00    -0.000 C 
BRANCH   5   6
ATOM      6  C   UNL     1     166.857 191.893 183.352  1.00  0.00    -0.000 C 
BRANCH   6   7
ATOM      7  C   UNL     1     165.552 192.710 183.350  1.00  0.00    -0.000 C 
BRANCH   7   8
ATOM      8  C   UNL     1     164.440 192.060 182.513  1.00  0.00    -0.003 C 
ATOM      9  C   UNL     1     165.024 191.146 181.439  1.00  0.00     0.004 C 
ENDBRANCH   7   8
ENDBRANCH   6   7
ENDBRANCH   5   6
ENDBRANCH   4   5
ENDBRANCH   3   4
ENDBRANCH   2   3
ENDBRANCH   1   2
BRANCH   1  10
ATOM     10  C   UNL     1     165.716 188.323 183.772  1.00  0.00     0.000 C 
BRANCH  10  11
ATOM     11  C   UNL     1     164.368 188.806 184.331  1.00  0.00     0.000 C 
BRANCH  11  12
ATOM     12  C   UNL     1     164.426 189.099 185.840  1.00  0.00     0.000 C 
BRANCH  12  13
ATOM     13  C   UNL     1     164.528 190.602 186.146  1.00  0.00     0.000 C 
BRANCH  13  14
ATOM     14  C   UNL     1     165.490 190.910 187.304  1.00  0.00     0.002 C 
BRANCH  14  15
ATOM     15  C   UNL     1     166.078 189.617 187.886  1.00  0.00     0.028 C 
BRANCH  15  16
ATOM     16  C   UNL     1     167.478 189.835 188.467  1.00  0.00     0.156 C 
BRANCH  16  17
ATOM     17  O   UNL     1     167.809 191.199 188.467  1.00  0.00    -0.396 OA
ATOM     18  H   UNL     1     167.051 191.679 188.891  1.00  0.00     0.210 HD
ENDBRANCH  16  17
ENDBRANCH  15  16
ENDBRANCH  14  15
ENDBRANCH  13  14
ENDBRANCH  12  13
ENDBRANCH  11  12
ENDBRANCH  10  11
ENDBRANCH   1  10
TORSDOF 15
ENDMDL
MODEL 9
REMARK VINA RESULT:     0.032      5.548      8.166
REMARK INTER + INTRA:          -3.029
REMARK INTER:                   0.000
REMARK INTRA:                  -3.029
REMARK UNBOUND:                -3.088
REMARK SMILES CCCCCCCCCCCCCCCCO
REMARK SMILES IDX 9 1 8 2 7 3 6 4 5 5 4 6 3 7 2 8 1 9 10 10 11 11 12 12 13 13
REMARK SMILES IDX 14 14 15 15 16 16 17 17
REMARK H PARENT 17 18
REMARK Flexibility Score: inf
ROOT
ATOM      1  C   UNL     1     170.278 190.801 185.252  1.00  0.00     0.000 C 
ENDROOT
BRANCH   1   2
ATOM      2  C   UNL     1     169.096 190.936 186.220  1.00  0.00    -0.000 C 
BRANCH   2   3
ATOM      3  C   UNL     1     167.917 191.660 185.550  1.00  0.00    -0.000 C 
BRANCH   3   4
ATOM      4  C   UNL     1     166.737 190.721 185.252  1.00  0.00    -0.000 C 
BRANCH   4   5
ATOM      5  C   UNL     1     166.535 190.486 183.746  1.00  0.00    -0.000 C 
BRANCH   5   6
ATOM      6  C   UNL     1     167.226 191.550 182.874  1.00  0.00    -0.000 C 
BRANCH   6   7
ATOM      7  C   UNL     1     168.171 190.997 181.793  1.00  0.00    -0.000 C 
BRANCH   7   8
ATOM      8  C   UNL     1     169.502 191.759 181.712  1.00  0.00    -0.003 C 
ATOM      9  C   UNL     1     169.410 193.102 182.432  1.00  0.00     0.004 C 
ENDBRANCH   7   8
ENDBRANCH   6   7
ENDBRANCH   5   6
ENDBRANCH   4   5
ENDBRANCH   3   4
ENDBRANCH   2   3
ENDBRANCH   1   2
BRANCH   1  10
ATOM     10  C   UNL     1     170.708 189.333 185.108  1.00  0.00     0.000 C 
BRANCH  10  11
ATOM     11  C   UNL     1     170.396 188.756 183.718  1.00  0.00     0.000 C 
BRANCH  11  12
ATOM     12  C   UNL     1     169.122 187.893 183.708  1.00  0.00     0.000 C 
BRANCH  12  13
ATOM     13  C   UNL     1     168.975 187.044 184.982  1.00  0.00     0.000 C 
BRANCH  13  14
ATOM     14  C   UNL     1     167.606 187.216 185.657  1.00  0.00     0.002 C 
BRANCH  14  15
ATOM     15  C   UNL     1     167.767 187.605 187.132  1.00  0.00     0.028 C 
BRANCH  15  16
ATOM     16  C   UNL     1     169.107 187.134 187.705  1.00  0.00     0.156 C 
BRANCH  16  17
ATOM     17  O   UNL     1     169.755 188.182 188.378  1.00  0.00    -0.396 OA
ATOM     18  H   UNL     1     170.652 188.279 187.964  1.00  0.00     0.210 HD
ENDBRANCH  16  17
ENDBRANCH  15  16
ENDBRANCH  14  15
ENDBRANCH  13  14
ENDBRANCH  12  13
ENDBRANCH  11  12
ENDBRANCH  10  11
ENDBRANCH   1  10
TORSDOF 15
ENDMDL
