MODEL 1
REMARK VINA RESULT:    -4.121      0.000      0.000
REMARK INTER + INTRA:          -6.311
REMARK INTER:                  -6.048
REMARK INTRA:                  -0.263
REMARK UNBOUND:                -0.263
REMARK SMILES O=C([O-])CCCCCCCC(=O)[O-]
REMARK SMILES IDX 7 1 6 2 5 3 4 4 2 5 1 6 3 7 8 8 9 9 10 10 11 11 12 12 13 13
REMARK H PARENT
REMARK Flexibility Score: inf
ROOT
ATOM      1  C   UNL     1       1.366   2.572   8.310  1.00  0.00     0.000 C 
ENDROOT
BRANCH   1   2
ATOM      2  C   UNL     1       0.398   3.743   8.094  1.00  0.00     0.000 C 
BRANCH   2   3
ATOM      3  C   UNL     1       0.624   4.399   6.724  1.00  0.00     0.006 C 
BRANCH   3   4
ATOM      4  C   UNL     1      -0.174   5.700   6.565  1.00  0.00     0.053 C 
BRANCH   4   5
ATOM      5  C   UNL     1      -0.605   5.915   5.148  1.00  0.00     0.041 C 
ATOM      6  O   UNL     1      -1.502   6.756   4.878  1.00  0.00    -0.550 OA
ATOM      7  O   UNL     1       0.007   5.208   4.120  1.00  0.00    -0.550 OA
ENDBRANCH   4   5
ENDBRANCH   3   4
ENDBRANCH   2   3
ENDBRANCH   1   2
BRANCH   1   8
ATOM      8  C   UNL     1       1.554   1.769   7.014  1.00  0.00     0.000 C 
BRANCH   8   9
ATOM      9  C   UNL     1       1.838   0.281   7.276  1.00  0.00     0.006 C 
BRANCH   9  10
ATOM     10  C   UNL     1       1.589  -0.593   6.040  1.00  0.00     0.053 C 
BRANCH  10  11
ATOM     11  C   UNL     1       2.802  -1.413   5.730  1.00  0.00     0.041 C 
ATOM     12  O   UNL     1       3.823  -1.337   6.462  1.00  0.00    -0.550 OA
ATOM     13  O   UNL     1       2.822  -2.225   4.602  1.00  0.00    -0.550 OA
ENDBRANCH  10  11
ENDBRANCH   9  10
ENDBRANCH   8   9
ENDBRANCH   1   8
TORSDOF 8
ENDMDL
MODEL 2
REMARK VINA RESULT:    -4.112      0.577      6.711
REMARK INTER + INTRA:          -6.299
REMARK INTER:                  -6.023
REMARK INTRA:                  -0.276
REMARK UNBOUND:                -0.263
REMARK SMILES O=C([O-])CCCCCCCC(=O)[O-]
REMARK SMILES IDX 7 1 6 2 5 3 4 4 2 5 1 6 3 7 8 8 9 9 10 10 11 11 12 12 13 13
REMARK H PARENT
REMARK Flexibility Score: inf
ROOT
ATOM      1  C   UNL     1       0.911   2.749   8.392  1.00  0.00     0.000 C 
ENDROOT
BRANCH   1   2
ATOM      2  C   UNL     1       1.406   2.227   7.037  1.00  0.00     0.000 C 
BRANCH   2   3
ATOM      3  C   UNL     1       1.932   0.790   7.159  1.00  0.00     0.006 C 
BRANCH   3   4
ATOM      4  C   UNL     1       1.434  -0.109   6.020  1.00  0.00     0.053 C 
BRANCH   4   5
ATOM      5  C   UNL     1       2.218  -1.382   5.935  1.00  0.00     0.041 C 
ATOM      6  O   UNL     1       2.779  -1.851   6.960  1.00  0.00    -0.550 OA
ATOM      7  O   UNL     1       2.304  -2.067   4.730  1.00  0.00    -0.550 OA
ENDBRANCH   4   5
ENDBRANCH   3   4
ENDBRANCH   2   3
ENDBRANCH   1   2
BRANCH   1   8
ATOM      8  C   UNL     1       0.248   4.126   8.242  1.00  0.00     0.000 C 
BRANCH   8   9
ATOM      9  C   UNL     1       0.443   4.728   6.841  1.00  0.00     0.006 C 
BRANCH   9  10
ATOM     10  C   UNL     1      -0.633   5.764   6.489  1.00  0.00     0.053 C 
BRANCH  10  11
ATOM     11  C   UNL     1      -0.643   6.023   5.015  1.00  0.00     0.041 C 
ATOM     12  O   UNL     1      -0.087   5.215   4.225  1.00  0.00    -0.550 OA
ATOM     13  O   UNL     1      -1.224   7.183   4.517  1.00  0.00    -0.550 OA
ENDBRANCH  10  11
ENDBRANCH   9  10
ENDBRANCH   8   9
ENDBRANCH   1   8
TORSDOF 8
ENDMDL
MODEL 3
REMARK VINA RESULT:    -3.778      5.231      7.720
REMARK INTER + INTRA:          -5.808
REMARK INTER:                  -5.421
REMARK INTRA:                  -0.386
REMARK UNBOUND:                -0.263
REMARK SMILES O=C([O-])CCCCCCCC(=O)[O-]
REMARK SMILES IDX 7 1 6 2 5 3 4 4 2 5 1 6 3 7 8 8 9 9 10 10 11 11 12 12 13 13
REMARK H PARENT
REMARK Flexibility Score: inf
ROOT
ATOM      1  C   UNL     1      -1.684  -1.873   4.500  1.00  0.00     0.000 C 
ENDROOT
BRANCH   1   2
ATOM      2  C   UNL     1      -1.186  -2.815   5.602  1.00  0.00     0.000 C 
BRANCH   2   3
ATOM      3  C   UNL     1       0.107  -2.283   6.238  1.00  0.00     0.006 C 
BRANCH   3   4
ATOM      4  C   UNL     1       0.955  -1.479   5.245  1.00  0.00     0.053 C 
BRANCH   4   5
ATOM      5  C   UNL     1       2.420  -1.704   5.457  1.00  0.00     0.041 C 
ATOM      6  O   UNL     1       2.965  -1.364   6.539  1.00  0.00    -0.550 OA
ATOM      7  O   UNL     1       3.179  -2.318   4.468  1.00  0.00    -0.550 OA
ENDBRANCH   4   5
ENDBRANCH   3   4
ENDBRANCH   2   3
ENDBRANCH   1   2
BRANCH   1   8
ATOM      8  C   UNL     1      -2.624  -2.607   3.532  1.00  0.00     0.000 C 
BRANCH   8   9
ATOM      9  C   UNL     1      -4.108  -2.332   3.824  1.00  0.00     0.006 C 
BRANCH   9  10
ATOM     10  C   UNL     1      -4.341  -0.946   4.438  1.00  0.00     0.053 C 
BRANCH  10  11
ATOM     11  C   UNL     1      -4.943  -1.074   5.802  1.00  0.00     0.041 C 
ATOM     12  O   UNL     1      -5.036  -2.204   6.349  1.00  0.00    -0.550 OA
ATOM     13  O   UNL     1      -5.448   0.047   6.447  1.00  0.00    -0.550 OA
ENDBRANCH  10  11
ENDBRANCH   9  10
ENDBRANCH   8   9
ENDBRANCH   1   8
TORSDOF 8
ENDMDL
MODEL 4
REMARK VINA RESULT:    -3.765      5.065      6.292
REMARK INTER + INTRA:          -5.789
REMARK INTER:                  -5.407
REMARK INTRA:                  -0.382
REMARK UNBOUND:                -0.263
REMARK SMILES O=C([O-])CCCCCCCC(=O)[O-]
REMARK SMILES IDX 7 1 6 2 5 3 4 4 2 5 1 6 3 7 8 8 9 9 10 10 11 11 12 12 13 13
REMARK H PARENT
REMARK Flexibility Score: inf
ROOT
ATOM      1  C   UNL     1      -1.779  -2.856   5.309  1.00  0.00     0.000 C 
ENDROOT
BRANCH   1   2
ATOM      2  C   UNL     1      -2.059  -1.817   4.216  1.00  0.00     0.000 C 
BRANCH   2   3
ATOM      3  C   UNL     1      -3.532  -1.855   3.784  1.00  0.00     0.006 C 
BRANCH   3   4
ATOM      4  C   UNL     1      -4.376  -0.794   4.502  1.00  0.00     0.053 C 
BRANCH   4   5
ATOM      5  C   UNL     1      -5.245  -1.400   5.560  1.00  0.00     0.041 C 
ATOM      6  O   UNL     1      -4.899  -1.353   6.769  1.00  0.00    -0.550 OA
ATOM      7  O   UNL     1      -6.454  -1.990   5.212  1.00  0.00    -0.550 OA
ENDBRANCH   4   5
ENDBRANCH   3   4
ENDBRANCH   2   3
ENDBRANCH   1   2
BRANCH   1   8
ATOM      8  C   UNL     1      -0.410  -2.614   5.960  1.00  0.00     0.000 C 
BRANCH   8   9
ATOM      9  C   UNL     1       0.446  -1.602   5.182  1.00  0.00     0.006 C 
BRANCH   9  10
ATOM     10  C   UNL     1       1.564  -0.993   6.038  1.00  0.00     0.053 C 
BRANCH  10  11
ATOM     11  C   UNL     1       2.890  -1.567   5.649  1.00  0.00     0.041 C 
ATOM     12  O   UNL     1       3.912  -1.329   6.345  1.00  0.00    -0.550 OA
ATOM     13  O   UNL     1       3.007  -2.322   4.489  1.00  0.00    -0.550 OA
ENDBRANCH  10  11
ENDBRANCH   9  10
ENDBRANCH   8   9
ENDBRANCH   1   8
TORSDOF 8
ENDMDL
MODEL 5
REMARK VINA RESULT:    -3.736      5.311      6.369
REMARK INTER + INTRA:          -5.746
REMARK INTER:                  -5.378
REMARK INTRA:                  -0.368
REMARK UNBOUND:                -0.263
REMARK SMILES O=C([O-])CCCCCCCC(=O)[O-]
REMARK SMILES IDX 7 1 6 2 5 3 4 4 2 5 1 6 3 7 8 8 9 9 10 10 11 11 12 12 13 13
REMARK H PARENT
REMARK Flexibility Score: inf
ROOT
ATOM      1  C   UNL     1      -0.759  -2.588   6.022  1.00  0.00     0.000 C 
ENDROOT
BRANCH   1   2
ATOM      2  C   UNL     1      -2.208  -2.756   5.548  1.00  0.00     0.000 C 
BRANCH   2   3
ATOM      3  C   UNL     1      -2.386  -2.216   4.121  1.00  0.00     0.006 C 
BRANCH   3   4
ATOM      4  C   UNL     1      -3.600  -1.285   4.000  1.00  0.00     0.053 C 
BRANCH   4   5
ATOM      5  C   UNL     1      -4.889  -2.042   4.080  1.00  0.00     0.041 C 
ATOM      6  O   UNL     1      -5.768  -1.711   4.918  1.00  0.00    -0.550 OA
ATOM      7  O   UNL     1      -5.132  -3.096   3.208  1.00  0.00    -0.550 OA
ENDBRANCH   4   5
ENDBRANCH   3   4
ENDBRANCH   2   3
ENDBRANCH   1   2
BRANCH   1   8
ATOM      8  C   UNL     1       0.036  -1.695   5.058  1.00  0.00     0.000 C 
BRANCH   8   9
ATOM      9  C   UNL     1       1.325  -1.144   5.688  1.00  0.00     0.006 C 
BRANCH   9  10
ATOM     10  C   UNL     1       2.299  -2.253   6.105  1.00  0.00     0.053 C 
BRANCH  10  11
ATOM     11  C   UNL     1       3.612  -2.083   5.407  1.00  0.00     0.041 C 
ATOM     12  O   UNL     1       3.716  -2.347   4.180  1.00  0.00    -0.550 OA
ATOM     13  O   UNL     1       4.733  -1.681   6.122  1.00  0.00    -0.550 OA
ENDBRANCH  10  11
ENDBRANCH   9  10
ENDBRANCH   8   9
ENDBRANCH   1   8
TORSDOF 8
ENDMDL
MODEL 6
REMARK VINA RESULT:    -3.628      1.892      6.498
REMARK INTER + INTRA:          -5.589
REMARK INTER:                  -5.281
REMARK INTRA:                  -0.307
REMARK UNBOUND:                -0.263
REMARK SMILES O=C([O-])CCCCCCCC(=O)[O-]
REMARK SMILES IDX 7 1 6 2 5 3 4 4 2 5 1 6 3 7 8 8 9 9 10 10 11 11 12 12 13 13
REMARK H PARENT
REMARK Flexibility Score: inf
ROOT
ATOM      1  C   UNL     1       1.535   1.531   7.744  1.00  0.00     0.000 C 
ENDROOT
BRANCH   1   2
ATOM      2  C   UNL     1       1.489   0.996   6.307  1.00  0.00     0.000 C 
BRANCH   2   3
ATOM      3  C   UNL     1       1.645  -0.532   6.283  1.00  0.00     0.006 C 
BRANCH   3   4
ATOM      4  C   UNL     1       0.712  -1.194   5.261  1.00  0.00     0.053 C 
BRANCH   4   5
ATOM      5  C   UNL     1      -0.260  -2.124   5.919  1.00  0.00     0.041 C 
ATOM      6  O   UNL     1      -0.299  -2.217   7.174  1.00  0.00    -0.550 OA
ATOM      7  O   UNL     1      -1.144  -2.867   5.147  1.00  0.00    -0.550 OA
ENDBRANCH   4   5
ENDBRANCH   3   4
ENDBRANCH   2   3
ENDBRANCH   1   2
BRANCH   1   8
ATOM      8  C   UNL     1       1.090   3.000   7.798  1.00  0.00     0.000 C 
BRANCH   8   9
ATOM      9  C   UNL     1       1.099   3.673   6.416  1.00  0.00     0.006 C 
BRANCH   9  10
ATOM     10  C   UNL     1       0.251   4.951   6.376  1.00  0.00     0.053 C 
BRANCH  10  11
ATOM     11  C   UNL     1       0.023   5.381   4.962  1.00  0.00     0.041 C 
ATOM     12  O   UNL     1      -1.041   5.976   4.644  1.00  0.00    -0.550 OA
ATOM     13  O   UNL     1       0.962   5.080   3.983  1.00  0.00    -0.550 OA
ENDBRANCH  10  11
ENDBRANCH   9  10
ENDBRANCH   8   9
ENDBRANCH   1   8
TORSDOF 8
ENDMDL
MODEL 7
REMARK VINA RESULT:    -3.596      7.637      9.801
REMARK INTER + INTRA:          -5.542
REMARK INTER:                  -5.225
REMARK INTRA:                  -0.317
REMARK UNBOUND:                -0.263
REMARK SMILES O=C([O-])CCCCCCCC(=O)[O-]
REMARK SMILES IDX 7 1 6 2 5 3 4 4 2 5 1 6 3 7 8 8 9 9 10 10 11 11 12 12 13 13
REMARK H PARENT
REMARK Flexibility Score: inf
ROOT
ATOM      1  C   UNL     1      -3.673  -5.347   0.608  1.00  0.00     0.000 C 
ENDROOT
BRANCH   1   2
ATOM      2  C   UNL     1      -2.710  -4.870   1.702  1.00  0.00     0.000 C 
BRANCH   2   3
ATOM      3  C   UNL     1      -3.354  -3.774   2.563  1.00  0.00     0.006 C 
BRANCH   3   4
ATOM      4  C   UNL     1      -2.668  -3.629   3.928  1.00  0.00     0.053 C 
BRANCH   4   5
ATOM      5  C   UNL     1      -2.265  -2.212   4.198  1.00  0.00     0.041 C 
ATOM      6  O   UNL     1      -1.212  -1.963   4.840  1.00  0.00    -0.550 OA
ATOM      7  O   UNL     1      -3.038  -1.165   3.712  1.00  0.00    -0.550 OA
ENDBRANCH   4   5
ENDBRANCH   3   4
ENDBRANCH   2   3
ENDBRANCH   1   2
BRANCH   1   8
ATOM      8  C   UNL     1      -3.080  -5.108  -0.789  1.00  0.00     0.000 C 
BRANCH   8   9
ATOM      9  C   UNL     1      -1.584  -4.754  -0.745  1.00  0.00     0.006 C 
BRANCH   9  10
ATOM     10  C   UNL     1      -1.136  -3.933  -1.960  1.00  0.00     0.053 C 
BRANCH  10  11
ATOM     11  C   UNL     1       0.039  -4.581  -2.623  1.00  0.00     0.041 C 
ATOM     12  O   UNL     1       0.969  -5.067  -1.928  1.00  0.00    -0.550 OA
ATOM     13  O   UNL     1       0.130  -4.603  -4.009  1.00  0.00    -0.550 OA
ENDBRANCH  10  11
ENDBRANCH   9  10
ENDBRANCH   8   9
ENDBRANCH   1   8
TORSDOF 8
ENDMDL
MODEL 8
REMARK VINA RESULT:    -3.574      7.975     10.843
REMARK INTER + INTRA:          -5.509
REMARK INTER:                  -5.109
REMARK INTRA:                  -0.400
REMARK UNBOUND:                -0.263
REMARK SMILES O=C([O-])CCCCCCCC(=O)[O-]
REMARK SMILES IDX 7 1 6 2 5 3 4 4 2 5 1 6 3 7 8 8 9 9 10 10 11 11 12 12 13 13
REMARK H PARENT
REMARK Flexibility Score: inf
ROOT
ATOM      1  C   UNL     1      -3.236  -5.851   0.308  1.00  0.00     0.000 C 
ENDROOT
BRANCH   1   2
ATOM      2  C   UNL     1      -2.672  -5.353  -1.028  1.00  0.00     0.000 C 
BRANCH   2   3
ATOM      3  C   UNL     1      -1.404  -4.514  -0.812  1.00  0.00     0.006 C 
BRANCH   3   4
ATOM      4  C   UNL     1      -0.924  -3.843  -2.107  1.00  0.00     0.053 C 
BRANCH   4   5
ATOM      5  C   UNL     1       0.179  -4.619  -2.756  1.00  0.00     0.041 C 
ATOM      6  O   UNL     1       0.165  -4.826  -3.997  1.00  0.00    -0.550 OA
ATOM      7  O   UNL     1       1.242  -5.088  -1.993  1.00  0.00    -0.550 OA
ENDBRANCH   4   5
ENDBRANCH   3   4
ENDBRANCH   2   3
ENDBRANCH   1   2
BRANCH   1   8
ATOM      8  C   UNL     1      -3.637  -4.673   1.209  1.00  0.00     0.000 C 
BRANCH   8   9
ATOM      9  C   UNL     1      -2.971  -4.732   2.593  1.00  0.00     0.006 C 
BRANCH   9  10
ATOM     10  C   UNL     1      -2.320  -3.401   2.991  1.00  0.00     0.053 C 
BRANCH  10  11
ATOM     11  C   UNL     1      -3.268  -2.581   3.808  1.00  0.00     0.041 C 
ATOM     12  O   UNL     1      -4.049  -3.139   4.622  1.00  0.00    -0.550 OA
ATOM     13  O   UNL     1      -3.325  -1.204   3.633  1.00  0.00    -0.550 OA
ENDBRANCH  10  11
ENDBRANCH   9  10
ENDBRANCH   8   9
ENDBRANCH   1   8
TORSDOF 8
ENDMDL
MODEL 9
REMARK VINA RESULT:    -3.529      1.360      6.618
REMARK INTER + INTRA:          -5.443
REMARK INTER:                  -5.151
REMARK INTRA:                  -0.292
REMARK UNBOUND:                -0.263
REMARK SMILES O=C([O-])CCCCCCCC(=O)[O-]
REMARK SMILES IDX 7 1 6 2 5 3 4 4 2 5 1 6 3 7 8 8 9 9 10 10 11 11 12 12 13 13
REMARK H PARENT
REMARK Flexibility Score: inf
ROOT
ATOM      1  C   UNL     1       2.125   1.169   7.989  1.00  0.00     0.000 C 
ENDROOT
BRANCH   1   2
ATOM      2  C   UNL     1       2.392  -0.143   7.241  1.00  0.00     0.000 C 
BRANCH   2   3
ATOM      3  C   UNL     1       1.513  -0.250   5.986  1.00  0.00     0.006 C 
BRANCH   3   4
ATOM      4  C   UNL     1       1.337  -1.702   5.522  1.00  0.00     0.053 C 
BRANCH   4   5
ATOM      5  C   UNL     1       2.651  -2.410   5.407  1.00  0.00     0.041 C 
ATOM      6  O   UNL     1       2.968  -3.299   6.239  1.00  0.00    -0.550 OA
ATOM      7  O   UNL     1       3.514  -2.109   4.360  1.00  0.00    -0.550 OA
ENDBRANCH   4   5
ENDBRANCH   3   4
ENDBRANCH   2   3
ENDBRANCH   1   2
BRANCH   1   8
ATOM      8  C   UNL     1       1.144   2.057   7.209  1.00  0.00     0.000 C 
BRANCH   8   9
ATOM      9  C   UNL     1       1.818   3.306   6.617  1.00  0.00     0.006 C 
BRANCH   9  10
ATOM     10  C   UNL     1       0.821   4.436   6.334  1.00  0.00     0.053 C 
BRANCH  10  11
ATOM     11  C   UNL     1       1.003   4.956   4.943  1.00  0.00     0.041 C 
ATOM     12  O   UNL     1       0.000   5.185   4.216  1.00  0.00    -0.550 OA
ATOM     13  O   UNL     1       2.281   5.138   4.430  1.00  0.00    -0.550 OA
ENDBRANCH  10  11
ENDBRANCH   9  10
ENDBRANCH   8   9
ENDBRANCH   1   8
TORSDOF 8
ENDMDL
