MODEL 1
REMARK VINA RESULT:    -5.016      0.000      0.000
REMARK INTER + INTRA:          -5.736
REMARK INTER:                  -5.602
REMARK INTRA:                  -0.134
REMARK UNBOUND:                -0.134
REMARK SMILES O=C([O-])C=Cc1ccccc1
REMARK SMILES IDX 4 1 5 2 2 3 1 4 3 5 6 6 7 7 11 8 8 9 10 10 9 11
REMARK H PARENT
REMARK Flexibility Score: inf
ROOT
ATOM      1  C   UNL     1      18.418  30.448  30.031  1.00  0.00     0.025 C 
ATOM      2  C   UNL     1      18.048  29.355  30.713  1.00  0.00     0.010 C 
ENDROOT
BRANCH   1   3
ATOM      3  C   UNL     1      18.427  30.478  28.558  1.00  0.00     0.064 C 
ATOM      4  O   UNL     1      18.500  31.584  27.960  1.00  0.00    -0.545 OA
ATOM      5  O   UNL     1      18.357  29.305  27.816  1.00  0.00    -0.545 OA
ENDBRANCH   1   3
BRANCH   2   6
ATOM      6  C   UNL     1      18.014  29.251  32.198  1.00  0.00    -0.026 A 
ATOM      7  C   UNL     1      17.143  30.104  32.902  1.00  0.00     0.008 A 
ATOM      8  C   UNL     1      18.808  28.343  32.932  1.00  0.00     0.008 A 
ATOM      9  C   UNL     1      17.066  30.054  34.297  1.00  0.00     0.001 A 
ATOM     10  C   UNL     1      18.727  28.298  34.328  1.00  0.00     0.001 A 
ATOM     11  C   UNL     1      17.857  29.151  35.009  1.00  0.00     0.000 A 
ENDBRANCH   2   6
TORSDOF 2
ENDMDL
MODEL 2
REMARK VINA RESULT:    -4.983      0.205      1.472
REMARK INTER + INTRA:          -5.700
REMARK INTER:                  -5.571
REMARK INTRA:                  -0.129
REMARK UNBOUND:                -0.134
REMARK SMILES O=C([O-])C=Cc1ccccc1
REMARK SMILES IDX 4 1 5 2 2 3 1 4 3 5 6 6 7 7 11 8 8 9 10 10 9 11
REMARK H PARENT
REMARK Flexibility Score: inf
ROOT
ATOM      1  C   UNL     1      18.435  30.318  29.962  1.00  0.00     0.025 C 
ATOM      2  C   UNL     1      18.090  29.246  30.690  1.00  0.00     0.010 C 
ENDROOT
BRANCH   1   3
ATOM      3  C   UNL     1      18.450  30.283  28.490  1.00  0.00     0.064 C 
ATOM      4  O   UNL     1      18.723  31.330  27.846  1.00  0.00    -0.545 OA
ATOM      5  O   UNL     1      18.168  29.111  27.796  1.00  0.00    -0.545 OA
ENDBRANCH   1   3
BRANCH   2   6
ATOM      6  C   UNL     1      18.052  29.207  32.178  1.00  0.00    -0.026 A 
ATOM      7  C   UNL     1      18.867  28.269  32.838  1.00  0.00     0.008 A 
ATOM      8  C   UNL     1      17.241  30.062  32.957  1.00  0.00     0.008 A 
ATOM      9  C   UNL     1      18.875  28.184  34.233  1.00  0.00     0.001 A 
ATOM     10  C   UNL     1      17.253  29.972  34.353  1.00  0.00     0.001 A 
ATOM     11  C   UNL     1      18.068  29.035  34.990  1.00  0.00     0.000 A 
ENDBRANCH   2   6
TORSDOF 2
ENDMDL
MODEL 3
REMARK VINA RESULT:    -4.948      3.273      5.472
REMARK INTER + INTRA:          -5.661
REMARK INTER:                  -5.522
REMARK INTRA:                  -0.139
REMARK UNBOUND:                -0.134
REMARK SMILES O=C([O-])C=Cc1ccccc1
REMARK SMILES IDX 4 1 5 2 2 3 1 4 3 5 6 6 7 7 11 8 8 9 10 10 9 11
REMARK H PARENT
REMARK Flexibility Score: inf
ROOT
ATOM      1  C   UNL     1      18.715  28.453  32.935  1.00  0.00     0.025 C 
ATOM      2  C   UNL     1      18.075  29.330  32.149  1.00  0.00     0.010 C 
ENDROOT
BRANCH   1   3
ATOM      3  C   UNL     1      18.532  28.442  34.396  1.00  0.00     0.064 C 
ATOM      4  O   UNL     1      19.343  27.806  35.119  1.00  0.00    -0.545 OA
ATOM      5  O   UNL     1      17.477  29.124  34.993  1.00  0.00    -0.545 OA
ENDBRANCH   1   3
BRANCH   2   6
ATOM      6  C   UNL     1      18.209  29.401  30.668  1.00  0.00    -0.026 A 
ATOM      7  C   UNL     1      18.157  28.197  29.940  1.00  0.00     0.008 A 
ATOM      8  C   UNL     1      18.387  30.610  29.960  1.00  0.00     0.008 A 
ATOM      9  C   UNL     1      18.277  28.198  28.548  1.00  0.00     0.001 A 
ATOM     10  C   UNL     1      18.507  30.604  28.567  1.00  0.00     0.001 A 
ATOM     11  C   UNL     1      18.452  29.401  27.862  1.00  0.00     0.000 A 
ENDBRANCH   2   6
TORSDOF 2
ENDMDL
MODEL 4
REMARK VINA RESULT:    -4.923      1.070      1.648
REMARK INTER + INTRA:          -5.632
REMARK INTER:                  -5.503
REMARK INTRA:                  -0.130
REMARK UNBOUND:                -0.134
REMARK SMILES O=C([O-])C=Cc1ccccc1
REMARK SMILES IDX 4 1 5 2 2 3 1 4 3 5 6 6 7 7 11 8 8 9 10 10 9 11
REMARK H PARENT
REMARK Flexibility Score: inf
ROOT
ATOM      1  C   UNL     1      18.222  28.144  30.066  1.00  0.00     0.025 C 
ATOM      2  C   UNL     1      18.189  29.239  30.839  1.00  0.00     0.010 C 
ENDROOT
BRANCH   1   3
ATOM      3  C   UNL     1      18.373  28.230  28.604  1.00  0.00     0.064 C 
ATOM      4  O   UNL     1      18.787  27.230  27.962  1.00  0.00    -0.545 OA
ATOM      5  O   UNL     1      18.065  29.400  27.918  1.00  0.00    -0.545 OA
ENDBRANCH   1   3
BRANCH   2   6
ATOM      6  C   UNL     1      18.039  29.229  32.320  1.00  0.00    -0.026 A 
ATOM      7  C   UNL     1      17.139  30.141  32.902  1.00  0.00     0.008 A 
ATOM      8  C   UNL     1      18.753  28.353  33.168  1.00  0.00     0.008 A 
ATOM      9  C   UNL     1      16.955  30.179  34.287  1.00  0.00     0.001 A 
ATOM     10  C   UNL     1      18.565  28.396  34.553  1.00  0.00     0.001 A 
ATOM     11  C   UNL     1      17.668  29.308  35.111  1.00  0.00     0.000 A 
ENDBRANCH   2   6
TORSDOF 2
ENDMDL
MODEL 5
REMARK VINA RESULT:    -4.906      3.252      5.184
REMARK INTER + INTRA:          -5.614
REMARK INTER:                  -5.470
REMARK INTRA:                  -0.144
REMARK UNBOUND:                -0.134
REMARK SMILES O=C([O-])C=Cc1ccccc1
REMARK SMILES IDX 4 1 5 2 2 3 1 4 3 5 6 6 7 7 11 8 8 9 10 10 9 11
REMARK H PARENT
REMARK Flexibility Score: inf
ROOT
ATOM      1  C   UNL     1      17.390  30.236  32.923  1.00  0.00     0.025 C 
ATOM      2  C   UNL     1      17.840  29.257  32.126  1.00  0.00     0.010 C 
ENDROOT
BRANCH   1   3
ATOM      3  C   UNL     1      17.182  30.029  34.366  1.00  0.00     0.064 C 
ATOM      4  O   UNL     1      16.628  30.929  35.050  1.00  0.00    -0.545 OA
ATOM      5  O   UNL     1      17.586  28.852  34.988  1.00  0.00    -0.545 OA
ENDBRANCH   1   3
BRANCH   2   6
ATOM      6  C   UNL     1      18.075  29.393  30.662  1.00  0.00    -0.026 A 
ATOM      7  C   UNL     1      18.332  30.678  30.149  1.00  0.00     0.008 A 
ATOM      8  C   UNL     1      18.052  28.301  29.766  1.00  0.00     0.008 A 
ATOM      9  C   UNL     1      18.560  30.870  28.783  1.00  0.00     0.001 A 
ATOM     10  C   UNL     1      18.281  28.501  28.401  1.00  0.00     0.001 A 
ATOM     11  C   UNL     1      18.534  29.782  27.910  1.00  0.00     0.000 A 
ENDBRANCH   2   6
TORSDOF 2
ENDMDL
MODEL 6
REMARK VINA RESULT:    -4.802      5.485      7.122
REMARK INTER + INTRA:          -5.498
REMARK INTER:                  -5.355
REMARK INTRA:                  -0.142
REMARK UNBOUND:                -0.134
REMARK SMILES O=C([O-])C=Cc1ccccc1
REMARK SMILES IDX 4 1 5 2 2 3 1 4 3 5 6 6 7 7 11 8 8 9 10 10 9 11
REMARK H PARENT
REMARK Flexibility Score: inf
ROOT
ATOM      1  C   UNL     1      18.692  23.423  28.734  1.00  0.00     0.025 C 
ATOM      2  C   UNL     1      18.852  24.344  27.773  1.00  0.00     0.010 C 
ENDROOT
BRANCH   1   3
ATOM      3  C   UNL     1      18.917  21.990  28.481  1.00  0.00     0.064 C 
ATOM      4  O   UNL     1      18.733  21.159  29.409  1.00  0.00    -0.545 OA
ATOM      5  O   UNL     1      19.330  21.538  27.233  1.00  0.00    -0.545 OA
ENDBRANCH   1   3
BRANCH   2   6
ATOM      6  C   UNL     1      18.643  25.807  27.955  1.00  0.00    -0.026 A 
ATOM      7  C   UNL     1      18.932  26.366  29.214  1.00  0.00     0.008 A 
ATOM      8  C   UNL     1      18.172  26.658  26.931  1.00  0.00     0.008 A 
ATOM      9  C   UNL     1      18.756  27.733  29.446  1.00  0.00     0.001 A 
ATOM     10  C   UNL     1      17.998  28.025  27.170  1.00  0.00     0.001 A 
ATOM     11  C   UNL     1      18.290  28.562  28.424  1.00  0.00     0.000 A 
ENDBRANCH   2   6
TORSDOF 2
ENDMDL
MODEL 7
REMARK VINA RESULT:    -4.751      3.307      5.445
REMARK INTER + INTRA:          -5.441
REMARK INTER:                  -5.310
REMARK INTRA:                  -0.130
REMARK UNBOUND:                -0.134
REMARK SMILES O=C([O-])C=Cc1ccccc1
REMARK SMILES IDX 4 1 5 2 2 3 1 4 3 5 6 6 7 7 11 8 8 9 10 10 9 11
REMARK H PARENT
REMARK Flexibility Score: inf
ROOT
ATOM      1  C   UNL     1      19.171  27.857  32.323  1.00  0.00     0.025 C 
ATOM      2  C   UNL     1      18.311  28.587  31.598  1.00  0.00     0.010 C 
ENDROOT
BRANCH   1   3
ATOM      3  C   UNL     1      19.163  27.884  33.796  1.00  0.00     0.064 C 
ATOM      4  O   UNL     1      18.530  28.791  34.397  1.00  0.00    -0.545 OA
ATOM      5  O   UNL     1      19.844  26.923  34.535  1.00  0.00    -0.545 OA
ENDBRANCH   1   3
BRANCH   2   6
ATOM      6  C   UNL     1      18.260  28.610  30.111  1.00  0.00    -0.026 A 
ATOM      7  C   UNL     1      18.447  29.844  29.460  1.00  0.00     0.008 A 
ATOM      8  C   UNL     1      18.034  27.459  29.323  1.00  0.00     0.008 A 
ATOM      9  C   UNL     1      18.410  29.929  28.065  1.00  0.00     0.001 A 
ATOM     10  C   UNL     1      17.998  27.552  27.928  1.00  0.00     0.001 A 
ATOM     11  C   UNL     1      18.186  28.784  27.300  1.00  0.00     0.000 A 
ENDBRANCH   2   6
TORSDOF 2
ENDMDL
MODEL 8
REMARK VINA RESULT:    -4.681      3.842      5.286
REMARK INTER + INTRA:          -5.362
REMARK INTER:                  -5.216
REMARK INTRA:                  -0.146
REMARK UNBOUND:                -0.134
REMARK SMILES O=C([O-])C=Cc1ccccc1
REMARK SMILES IDX 4 1 5 2 2 3 1 4 3 5 6 6 7 7 11 8 8 9 10 10 9 11
REMARK H PARENT
REMARK Flexibility Score: inf
ROOT
ATOM      1  C   UNL     1      17.012  30.790  35.506  1.00  0.00     0.025 C 
ATOM      2  C   UNL     1      17.227  30.397  34.243  1.00  0.00     0.010 C 
ENDROOT
BRANCH   1   3
ATOM      3  C   UNL     1      16.139  31.933  35.827  1.00  0.00     0.064 C 
ATOM      4  O   UNL     1      15.477  31.927  36.897  1.00  0.00    -0.545 OA
ATOM      5  O   UNL     1      16.035  33.020  34.966  1.00  0.00    -0.545 OA
ENDBRANCH   1   3
BRANCH   2   6
ATOM      6  C   UNL     1      18.094  29.255  33.844  1.00  0.00    -0.026 A 
ATOM      7  C   UNL     1      18.655  28.462  34.862  1.00  0.00     0.008 A 
ATOM      8  C   UNL     1      18.379  28.928  32.500  1.00  0.00     0.008 A 
ATOM      9  C   UNL     1      19.477  27.375  34.551  1.00  0.00     0.001 A 
ATOM     10  C   UNL     1      19.203  27.839  32.195  1.00  0.00     0.001 A 
ATOM     11  C   UNL     1      19.750  27.064  33.218  1.00  0.00     0.000 A 
ENDBRANCH   2   6
TORSDOF 2
ENDMDL
MODEL 9
REMARK VINA RESULT:    -4.631      3.598      4.746
REMARK INTER + INTRA:          -5.306
REMARK INTER:                  -5.170
REMARK INTRA:                  -0.136
REMARK UNBOUND:                -0.134
REMARK SMILES O=C([O-])C=Cc1ccccc1
REMARK SMILES IDX 4 1 5 2 2 3 1 4 3 5 6 6 7 7 11 8 8 9 10 10 9 11
REMARK H PARENT
REMARK Flexibility Score: inf
ROOT
ATOM      1  C   UNL     1      16.667  32.611  33.726  1.00  0.00     0.025 C 
ATOM      2  C   UNL     1      16.501  31.372  34.209  1.00  0.00     0.010 C 
ENDROOT
BRANCH   1   3
ATOM      3  C   UNL     1      15.774  33.719  34.104  1.00  0.00     0.064 C 
ATOM      4  O   UNL     1      15.046  34.256  33.228  1.00  0.00    -0.545 OA
ATOM      5  O   UNL     1      15.718  34.181  35.414  1.00  0.00    -0.545 OA
ENDBRANCH   1   3
BRANCH   2   6
ATOM      6  C   UNL     1      17.363  30.205  33.873  1.00  0.00    -0.026 A 
ATOM      7  C   UNL     1      17.648  29.961  32.517  1.00  0.00     0.008 A 
ATOM      8  C   UNL     1      17.907  29.336  34.845  1.00  0.00     0.008 A 
ATOM      9  C   UNL     1      18.451  28.881  32.139  1.00  0.00     0.001 A 
ATOM     10  C   UNL     1      18.710  28.257  34.459  1.00  0.00     0.001 A 
ATOM     11  C   UNL     1      18.982  28.031  33.110  1.00  0.00     0.000 A 
ENDBRANCH   2   6
TORSDOF 2
ENDMDL
