MODEL 1
REMARK VINA RESULT:    76.465      0.000      0.000
REMARK INTER + INTRA:          83.569
REMARK INTER:                  83.170
REMARK INTRA:                   0.399
REMARK UNBOUND:                 0.399
REMARK SMILES CC1(C)CC[C@@]2(C(=O)[O-])CC[C@@]3(C)C(=CC[C@@H]4[C@@]5(C)CC[C@@H](O)C(C)(C)[C@@H]5CC[C@]43C)[C@@H]2C1
REMARK SMILES IDX 6 1 5 2 10 3 32 4 4 5 11 6 14 7 33 8 2 9 12 10 15 11 1 12
REMARK SMILES IDX 3 13 13 14 30 15 16 16 17 17 29 18 31 19 18 20 28 21 27 22
REMARK SMILES IDX 20 23 19 24 24 25 21 26 22 27 25 28 26 29 7 30 8 31 9 32
REMARK SMILES IDX 23 33
REMARK H PARENT 23 34
REMARK Flexibility Score: inf
ROOT
ATOM      1  C   UNL     1      -8.677  17.587 -14.033  1.00  0.00     0.017 C 
ATOM      2  C   UNL     1      -9.185  18.866 -14.752  1.00  0.00     0.014 C 
ATOM      3  C   UNL     1      -9.512  16.330 -14.471  1.00  0.00     0.014 C 
ATOM      4  C   UNL     1      -7.179  17.417 -14.442  1.00  0.00     0.028 C 
ATOM      5  C   UNL     1      -8.357  20.115 -14.371  1.00  0.00     0.007 C 
ATOM      6  C   UNL     1      -8.765  15.388 -15.440  1.00  0.00     0.013 C 
ATOM      7  C   UNL     1      -6.711  16.010 -14.089  1.00  0.00    -0.064 C 
ATOM      8  C   UNL     1      -6.302  18.618 -14.014  1.00  0.00     0.015 C 
ATOM      9  C   UNL     1      -6.826  19.961 -14.612  1.00  0.00    -0.035 C 
ATOM     10  C   UNL     1      -7.390  14.840 -14.865  1.00  0.00    -0.006 C 
ATOM     11  C   UNL     1      -5.918  15.806 -13.015  1.00  0.00    -0.027 C 
ATOM     12  C   UNL     1      -6.507  20.056 -16.125  1.00  0.00     0.011 C 
ATOM     13  C   UNL     1      -6.095  21.125 -13.909  1.00  0.00     0.011 C 
ATOM     14  C   UNL     1      -6.488  14.638 -16.122  1.00  0.00     0.017 C 
ATOM     15  C   UNL     1      -7.532  13.461 -13.965  1.00  0.00    -0.020 C 
ATOM     16  C   UNL     1      -5.887  14.494 -12.302  1.00  0.00     0.032 C 
ATOM     17  C   UNL     1      -7.272  13.814 -12.441  1.00  0.00     0.006 C 
ATOM     18  C   UNL     1      -8.952  12.805 -14.075  1.00  0.00     0.008 C 
ATOM     19  C   UNL     1      -6.529  12.363 -14.468  1.00  0.00     0.012 C 
ATOM     20  C   UNL     1      -7.601  12.705 -11.343  1.00  0.00    -0.025 C 
ATOM     21  C   UNL     1      -9.222  11.675 -13.069  1.00  0.00     0.005 C 
ATOM     22  C   UNL     1      -9.068  12.202 -11.623  1.00  0.00     0.003 C 
ATOM     23  C   UNL     1      -7.596  13.375  -9.928  1.00  0.00     0.010 C 
ATOM     24  C   UNL     1      -6.533  11.563 -11.348  1.00  0.00     0.012 C 
ATOM     25  C   UNL     1      -9.730  11.304 -10.505  1.00  0.00    -0.006 C 
ATOM     26  C   UNL     1      -8.193  12.500  -8.813  1.00  0.00     0.033 C 
ATOM     27  C   UNL     1      -9.624  12.038  -9.129  1.00  0.00     0.120 C 
ATOM     28  C   UNL     1      -9.100   9.890 -10.406  1.00  0.00     0.014 C 
ATOM     29  C   UNL     1     -11.241  11.099 -10.812  1.00  0.00     0.014 C 
ENDROOT
BRANCH   1  30
ATOM     30  C   UNL     1      -8.886  17.758 -12.526  1.00  0.00     0.048 C 
ATOM     31  O   UNL     1      -9.332  18.849 -12.077  1.00  0.00    -0.550 OA
ATOM     32  O   UNL     1      -8.688  16.713 -11.635  1.00  0.00    -0.550 OA
ENDBRANCH   1  30
BRANCH  27  33
ATOM     33  O   UNL     1     -10.482  13.155  -9.102  1.00  0.00    -0.393 OA
ATOM     34  H   UNL     1     -10.133  13.774  -8.409  1.00  0.00     0.210 HD
ENDBRANCH  27  33
TORSDOF 2
ENDMDL
MODEL 2
REMARK VINA RESULT:    77.310      1.713      7.288
REMARK INTER + INTRA:          84.489
REMARK INTER:                  84.148
REMARK INTRA:                   0.340
REMARK UNBOUND:                 0.399
REMARK SMILES CC1(C)CC[C@@]2(C(=O)[O-])CC[C@@]3(C)C(=CC[C@@H]4[C@@]5(C)CC[C@@H](O)C(C)(C)[C@@H]5CC[C@]43C)[C@@H]2C1
REMARK SMILES IDX 6 1 5 2 10 3 32 4 4 5 11 6 14 7 33 8 2 9 12 10 15 11 1 12
REMARK SMILES IDX 3 13 13 14 30 15 16 16 17 17 29 18 31 19 18 20 28 21 27 22
REMARK SMILES IDX 20 23 19 24 24 25 21 26 22 27 25 28 26 29 7 30 8 31 9 32
REMARK SMILES IDX 23 33
REMARK H PARENT 23 34
REMARK Flexibility Score: inf
ROOT
ATOM      1  C   UNL     1      -6.762  13.957 -11.594  1.00  0.00     0.017 C 
ATOM      2  C   UNL     1      -5.938  12.806 -10.956  1.00  0.00     0.014 C 
ATOM      3  C   UNL     1      -6.124  14.413 -12.956  1.00  0.00     0.014 C 
ATOM      4  C   UNL     1      -8.201  13.393 -11.827  1.00  0.00     0.028 C 
ATOM      5  C   UNL     1      -6.564  12.308  -9.632  1.00  0.00     0.007 C 
ATOM      6  C   UNL     1      -6.902  13.936 -14.202  1.00  0.00     0.013 C 
ATOM      7  C   UNL     1      -8.962  14.315 -12.774  1.00  0.00    -0.064 C 
ATOM      8  C   UNL     1      -8.889  12.950 -10.514  1.00  0.00     0.015 C 
ATOM      9  C   UNL     1      -8.053  11.870  -9.758  1.00  0.00    -0.035 C 
ATOM     10  C   UNL     1      -8.417  14.411 -14.231  1.00  0.00    -0.006 C 
ATOM     11  C   UNL     1      -9.910  15.148 -12.295  1.00  0.00    -0.027 C 
ATOM     12  C   UNL     1      -8.152  10.496 -10.467  1.00  0.00     0.011 C 
ATOM     13  C   UNL     1      -8.641  11.704  -8.339  1.00  0.00     0.011 C 
ATOM     14  C   UNL     1      -9.171  13.282 -15.000  1.00  0.00     0.017 C 
ATOM     15  C   UNL     1      -8.648  15.899 -14.912  1.00  0.00    -0.020 C 
ATOM     16  C   UNL     1     -10.275  16.410 -13.006  1.00  0.00     0.032 C 
ATOM     17  C   UNL     1      -9.033  16.932 -13.772  1.00  0.00     0.006 C 
ATOM     18  C   UNL     1      -7.372  16.440 -15.645  1.00  0.00     0.008 C 
ATOM     19  C   UNL     1      -9.763  15.838 -16.016  1.00  0.00     0.012 C 
ATOM     20  C   UNL     1      -9.058  18.484 -14.136  1.00  0.00    -0.025 C 
ATOM     21  C   UNL     1      -7.447  17.915 -16.072  1.00  0.00     0.005 C 
ATOM     22  C   UNL     1      -7.685  18.814 -14.837  1.00  0.00     0.003 C 
ATOM     23  C   UNL     1      -9.121  19.316 -12.812  1.00  0.00     0.010 C 
ATOM     24  C   UNL     1     -10.309  18.846 -15.002  1.00  0.00     0.012 C 
ATOM     25  C   UNL     1      -7.350  20.344 -15.044  1.00  0.00    -0.006 C 
ATOM     26  C   UNL     1      -8.845  20.817 -12.995  1.00  0.00     0.033 C 
ATOM     27  C   UNL     1      -7.494  21.089 -13.677  1.00  0.00     0.120 C 
ATOM     28  C   UNL     1      -8.237  21.023 -16.119  1.00  0.00     0.014 C 
ATOM     29  C   UNL     1      -5.875  20.507 -15.513  1.00  0.00     0.014 C 
ENDROOT
BRANCH   1  30
ATOM     30  C   UNL     1      -6.721  15.166 -10.656  1.00  0.00     0.048 C 
ATOM     31  O   UNL     1      -6.380  15.011  -9.453  1.00  0.00    -0.550 OA
ATOM     32  O   UNL     1      -6.959  16.455 -11.111  1.00  0.00    -0.550 OA
ENDBRANCH   1  30
BRANCH  27  33
ATOM     33  O   UNL     1      -6.456  20.714 -12.802  1.00  0.00    -0.393 OA
ATOM     34  H   UNL     1      -6.592  19.755 -12.583  1.00  0.00     0.210 HD
ENDBRANCH  27  33
TORSDOF 2
ENDMDL
