MODEL 1
REMARK VINA RESULT:    -3.928      0.000      0.000
REMARK INTER + INTRA:          -6.250
REMARK INTER:                  -5.536
REMARK INTRA:                  -0.714
REMARK UNBOUND:                -0.714
REMARK SMILES CCCCCCCCC(=O)[O-]
REMARK SMILES IDX 6 1 7 2 8 3 9 4 10 5 11 6 5 7 4 8 3 9 2 10 1 11
REMARK H PARENT
REMARK Flexibility Score: inf
ROOT
ATOM      1  C   UNL     1     -19.903 -30.302  18.914  1.00  0.00     0.000 C 
ENDROOT
BRANCH   1   2
ATOM      2  C   UNL     1     -18.450 -30.130  18.437  1.00  0.00     0.006 C 
BRANCH   2   3
ATOM      3  C   UNL     1     -17.644 -29.204  19.358  1.00  0.00     0.053 C 
BRANCH   3   4
ATOM      4  C   UNL     1     -17.612 -27.797  18.845  1.00  0.00     0.041 C 
ATOM      5  O   UNL     1     -18.497 -26.974  19.198  1.00  0.00    -0.550 OA
ATOM      6  O   UNL     1     -16.622 -27.403  17.954  1.00  0.00    -0.550 OA
ENDBRANCH   3   4
ENDBRANCH   2   3
ENDBRANCH   1   2
BRANCH   1   7
ATOM      7  C   UNL     1     -20.027 -31.290  20.084  1.00  0.00     0.000 C 
BRANCH   7   8
ATOM      8  C   UNL     1     -19.681 -32.732  19.682  1.00  0.00    -0.000 C 
BRANCH   8   9
ATOM      9  C   UNL     1     -18.499 -33.262  20.503  1.00  0.00    -0.000 C 
BRANCH   9  10
ATOM     10  C   UNL     1     -18.169 -32.318  21.665  1.00  0.00    -0.003 C 
ATOM     11  C   UNL     1     -16.665 -32.083  21.774  1.00  0.00     0.004 C 
ENDBRANCH   9  10
ENDBRANCH   8   9
ENDBRANCH   7   8
ENDBRANCH   1   7
TORSDOF 7
ENDMDL
MODEL 2
REMARK VINA RESULT:    -3.806      1.548      1.712
REMARK INTER + INTRA:          -6.078
REMARK INTER:                  -5.253
REMARK INTRA:                  -0.825
REMARK UNBOUND:                -0.714
REMARK SMILES CCCCCCCCC(=O)[O-]
REMARK SMILES IDX 6 1 7 2 8 3 9 4 10 5 11 6 5 7 4 8 3 9 2 10 1 11
REMARK H PARENT
REMARK Flexibility Score: inf
ROOT
ATOM      1  C   UNL     1     -20.018 -30.316  19.065  1.00  0.00     0.000 C 
ENDROOT
BRANCH   1   2
ATOM      2  C   UNL     1     -18.989 -30.618  17.961  1.00  0.00     0.006 C 
BRANCH   2   3
ATOM      3  C   UNL     1     -17.799 -29.650  18.000  1.00  0.00     0.053 C 
BRANCH   3   4
ATOM      4  C   UNL     1     -16.844 -29.983  19.106  1.00  0.00     0.041 C 
ATOM      5  O   UNL     1     -16.845 -29.308  20.168  1.00  0.00    -0.550 OA
ATOM      6  O   UNL     1     -15.931 -31.018  18.949  1.00  0.00    -0.550 OA
ENDBRANCH   3   4
ENDBRANCH   2   3
ENDBRANCH   1   2
BRANCH   1   7
ATOM      7  C   UNL     1     -20.072 -31.414  20.139  1.00  0.00     0.000 C 
BRANCH   7   8
ATOM      8  C   UNL     1     -19.616 -32.783  19.611  1.00  0.00    -0.000 C 
BRANCH   8   9
ATOM      9  C   UNL     1     -18.505 -33.368  20.492  1.00  0.00    -0.000 C 
BRANCH   9  10
ATOM     10  C   UNL     1     -18.131 -32.401  21.621  1.00  0.00    -0.003 C 
ATOM     11  C   UNL     1     -16.651 -32.512  21.975  1.00  0.00     0.004 C 
ENDBRANCH   9  10
ENDBRANCH   8   9
ENDBRANCH   7   8
ENDBRANCH   1   7
TORSDOF 7
ENDMDL
MODEL 3
REMARK VINA RESULT:    -3.749      1.528      2.633
REMARK INTER + INTRA:          -5.997
REMARK INTER:                  -5.354
REMARK INTRA:                  -0.643
REMARK UNBOUND:                -0.714
REMARK SMILES CCCCCCCCC(=O)[O-]
REMARK SMILES IDX 6 1 7 2 8 3 9 4 10 5 11 6 5 7 4 8 3 9 2 10 1 11
REMARK H PARENT
REMARK Flexibility Score: inf
ROOT
ATOM      1  C   UNL     1     -20.260 -30.777  19.700  1.00  0.00     0.000 C 
ENDROOT
BRANCH   1   2
ATOM      2  C   UNL     1     -19.627 -29.956  18.562  1.00  0.00     0.006 C 
BRANCH   2   3
ATOM      3  C   UNL     1     -18.216 -29.469  18.918  1.00  0.00     0.053 C 
BRANCH   3   4
ATOM      4  C   UNL     1     -17.993 -28.048  18.498  1.00  0.00     0.041 C 
ATOM      5  O   UNL     1     -17.496 -27.791  17.370  1.00  0.00    -0.550 OA
ATOM      6  O   UNL     1     -18.305 -27.008  19.365  1.00  0.00    -0.550 OA
ENDBRANCH   3   4
ENDBRANCH   2   3
ENDBRANCH   1   2
BRANCH   1   7
ATOM      7  C   UNL     1     -19.261 -31.741  20.359  1.00  0.00     0.000 C 
BRANCH   7   8
ATOM      8  C   UNL     1     -19.400 -33.183  19.847  1.00  0.00    -0.000 C 
BRANCH   8   9
ATOM      9  C   UNL     1     -18.503 -33.421  18.627  1.00  0.00    -0.000 C 
BRANCH   9  10
ATOM     10  C   UNL     1     -19.340 -33.716  17.377  1.00  0.00    -0.003 C 
ATOM     11  C   UNL     1     -18.976 -32.774  16.234  1.00  0.00     0.004 C 
ENDBRANCH   9  10
ENDBRANCH   8   9
ENDBRANCH   7   8
ENDBRANCH   1   7
TORSDOF 7
ENDMDL
MODEL 4
REMARK VINA RESULT:    -3.714      2.457      4.733
REMARK INTER + INTRA:          -5.948
REMARK INTER:                  -5.162
REMARK INTRA:                  -0.786
REMARK UNBOUND:                -0.714
REMARK SMILES CCCCCCCCC(=O)[O-]
REMARK SMILES IDX 6 1 7 2 8 3 9 4 10 5 11 6 5 7 4 8 3 9 2 10 1 11
REMARK H PARENT
REMARK Flexibility Score: inf
ROOT
ATOM      1  C   UNL     1     -17.418 -30.946  17.706  1.00  0.00     0.000 C 
ENDROOT
BRANCH   1   2
ATOM      2  C   UNL     1     -17.076 -31.207  19.183  1.00  0.00     0.006 C 
BRANCH   2   3
ATOM      3  C   UNL     1     -18.131 -30.622  20.132  1.00  0.00     0.053 C 
BRANCH   3   4
ATOM      4  C   UNL     1     -19.523 -30.994  19.719  1.00  0.00     0.041 C 
ATOM      5  O   UNL     1     -19.927 -32.179  19.850  1.00  0.00    -0.550 OA
ATOM      6  O   UNL     1     -20.362 -30.038  19.159  1.00  0.00    -0.550 OA
ENDBRANCH   3   4
ENDBRANCH   2   3
ENDBRANCH   1   2
BRANCH   1   7
ATOM      7  C   UNL     1     -16.471 -29.928  17.052  1.00  0.00     0.000 C 
BRANCH   7   8
ATOM      8  C   UNL     1     -16.938 -28.476  17.241  1.00  0.00    -0.000 C 
BRANCH   8   9
ATOM      9  C   UNL     1     -16.008 -27.720  18.198  1.00  0.00    -0.000 C 
BRANCH   9  10
ATOM     10  C   UNL     1     -16.778 -27.195  19.414  1.00  0.00    -0.003 C 
ATOM     11  C   UNL     1     -18.272 -27.095  19.120  1.00  0.00     0.004 C 
ENDBRANCH   9  10
ENDBRANCH   8   9
ENDBRANCH   7   8
ENDBRANCH   1   7
TORSDOF 7
ENDMDL
MODEL 5
REMARK VINA RESULT:    -3.709      3.053      4.481
REMARK INTER + INTRA:          -5.941
REMARK INTER:                  -5.007
REMARK INTRA:                  -0.933
REMARK UNBOUND:                -0.714
REMARK SMILES CCCCCCCCC(=O)[O-]
REMARK SMILES IDX 6 1 7 2 8 3 9 4 10 5 11 6 5 7 4 8 3 9 2 10 1 11
REMARK H PARENT
REMARK Flexibility Score: inf
ROOT
ATOM      1  C   UNL     1     -19.028 -31.774  20.639  1.00  0.00     0.000 C 
ENDROOT
BRANCH   1   2
ATOM      2  C   UNL     1     -18.890 -33.266  20.291  1.00  0.00     0.006 C 
BRANCH   2   3
ATOM      3  C   UNL     1     -17.761 -33.523  19.284  1.00  0.00     0.053 C 
BRANCH   3   4
ATOM      4  C   UNL     1     -18.266 -33.558  17.874  1.00  0.00     0.041 C 
ATOM      5  O   UNL     1     -19.477 -33.808  17.641  1.00  0.00    -0.550 OA
ATOM      6  O   UNL     1     -17.391 -33.346  16.815  1.00  0.00    -0.550 OA
ENDBRANCH   3   4
ENDBRANCH   2   3
ENDBRANCH   1   2
BRANCH   1   7
ATOM      7  C   UNL     1     -20.275 -31.133  20.010  1.00  0.00     0.000 C 
BRANCH   7   8
ATOM      8  C   UNL     1     -19.937 -30.207  18.831  1.00  0.00    -0.000 C 
BRANCH   8   9
ATOM      9  C   UNL     1     -18.550 -29.576  19.010  1.00  0.00    -0.000 C 
BRANCH   9  10
ATOM     10  C   UNL     1     -17.669 -29.827  17.781  1.00  0.00    -0.003 C 
ATOM     11  C   UNL     1     -16.264 -30.260  18.189  1.00  0.00     0.004 C 
ENDBRANCH   9  10
ENDBRANCH   8   9
ENDBRANCH   7   8
ENDBRANCH   1   7
TORSDOF 7
ENDMDL
MODEL 6
REMARK VINA RESULT:    -3.692      2.679      4.250
REMARK INTER + INTRA:          -5.917
REMARK INTER:                  -5.193
REMARK INTRA:                  -0.724
REMARK UNBOUND:                -0.714
REMARK SMILES CCCCCCCCC(=O)[O-]
REMARK SMILES IDX 6 1 7 2 8 3 9 4 10 5 11 6 5 7 4 8 3 9 2 10 1 11
REMARK H PARENT
REMARK Flexibility Score: inf
ROOT
ATOM      1  C   UNL     1     -18.826 -32.998  20.339  1.00  0.00     0.000 C 
ENDROOT
BRANCH   1   2
ATOM      2  C   UNL     1     -19.371 -33.458  18.976  1.00  0.00     0.006 C 
BRANCH   2   3
ATOM      3  C   UNL     1     -18.264 -33.571  17.918  1.00  0.00     0.053 C 
BRANCH   3   4
ATOM      4  C   UNL     1     -18.458 -32.594  16.799  1.00  0.00     0.041 C 
ATOM      5  O   UNL     1     -19.602 -32.414  16.306  1.00  0.00    -0.550 OA
ATOM      6  O   UNL     1     -17.369 -31.905  16.280  1.00  0.00    -0.550 OA
ENDBRANCH   3   4
ENDBRANCH   2   3
ENDBRANCH   1   2
BRANCH   1   7
ATOM      7  C   UNL     1     -19.056 -31.500  20.592  1.00  0.00     0.000 C 
BRANCH   7   8
ATOM      8  C   UNL     1     -20.352 -30.982  19.948  1.00  0.00    -0.000 C 
BRANCH   8   9
ATOM      9  C   UNL     1     -20.062 -29.815  18.996  1.00  0.00    -0.000 C 
BRANCH   9  10
ATOM     10  C   UNL     1     -18.555 -29.565  18.874  1.00  0.00    -0.003 C 
ATOM     11  C   UNL     1     -18.240 -28.072  18.900  1.00  0.00     0.004 C 
ENDBRANCH   9  10
ENDBRANCH   8   9
ENDBRANCH   7   8
ENDBRANCH   1   7
TORSDOF 7
ENDMDL
MODEL 7
REMARK VINA RESULT:    -3.685      1.208      2.406
REMARK INTER + INTRA:          -5.907
REMARK INTER:                  -5.392
REMARK INTRA:                  -0.515
REMARK UNBOUND:                -0.714
REMARK SMILES CCCCCCCCC(=O)[O-]
REMARK SMILES IDX 6 1 7 2 8 3 9 4 10 5 11 6 5 7 4 8 3 9 2 10 1 11
REMARK H PARENT
REMARK Flexibility Score: inf
ROOT
ATOM      1  C   UNL     1     -17.356 -30.198  18.264  1.00  0.00     0.000 C 
ENDROOT
BRANCH   1   2
ATOM      2  C   UNL     1     -16.759 -29.305  17.162  1.00  0.00     0.006 C 
BRANCH   2   3
ATOM      3  C   UNL     1     -17.360 -27.893  17.174  1.00  0.00     0.053 C 
BRANCH   3   4
ATOM      4  C   UNL     1     -17.347 -27.292  18.546  1.00  0.00     0.041 C 
ATOM      5  O   UNL     1     -16.256 -27.082  19.137  1.00  0.00    -0.550 OA
ATOM      6  O   UNL     1     -18.544 -26.992  19.186  1.00  0.00    -0.550 OA
ENDBRANCH   3   4
ENDBRANCH   2   3
ENDBRANCH   1   2
BRANCH   1   7
ATOM      7  C   UNL     1     -18.724 -30.781  17.875  1.00  0.00     0.000 C 
BRANCH   7   8
ATOM      8  C   UNL     1     -19.847 -30.348  18.831  1.00  0.00    -0.000 C 
BRANCH   8   9
ATOM      9  C   UNL     1     -19.949 -31.302  20.026  1.00  0.00    -0.000 C 
BRANCH   9  10
ATOM     10  C   UNL     1     -19.747 -32.757  19.588  1.00  0.00    -0.003 C 
ATOM     11  C   UNL     1     -18.697 -33.453  20.448  1.00  0.00     0.004 C 
ENDBRANCH   9  10
ENDBRANCH   8   9
ENDBRANCH   7   8
ENDBRANCH   1   7
TORSDOF 7
ENDMDL
MODEL 8
REMARK VINA RESULT:    -3.674      2.502      4.266
REMARK INTER + INTRA:          -5.892
REMARK INTER:                  -5.262
REMARK INTRA:                  -0.630
REMARK UNBOUND:                -0.714
REMARK SMILES CCCCCCCCC(=O)[O-]
REMARK SMILES IDX 6 1 7 2 8 3 9 4 10 5 11 6 5 7 4 8 3 9 2 10 1 11
REMARK H PARENT
REMARK Flexibility Score: inf
ROOT
ATOM      1  C   UNL     1     -19.713 -32.571  19.569  1.00  0.00     0.000 C 
ENDROOT
BRANCH   1   2
ATOM      2  C   UNL     1     -18.688 -33.304  20.451  1.00  0.00     0.006 C 
BRANCH   2   3
ATOM      3  C   UNL     1     -17.289 -33.319  19.820  1.00  0.00     0.053 C 
BRANCH   3   4
ATOM      4  C   UNL     1     -16.327 -32.451  20.573  1.00  0.00     0.041 C 
ATOM      5  O   UNL     1     -16.753 -31.588  21.384  1.00  0.00    -0.550 OA
ATOM      6  O   UNL     1     -14.960 -32.574  20.355  1.00  0.00    -0.550 OA
ENDBRANCH   3   4
ENDBRANCH   2   3
ENDBRANCH   1   2
BRANCH   1   7
ATOM      7  C   UNL     1     -20.015 -31.150  20.070  1.00  0.00     0.000 C 
BRANCH   7   8
ATOM      8  C   UNL     1     -19.968 -30.101  18.948  1.00  0.00    -0.000 C 
BRANCH   8   9
ATOM      9  C   UNL     1     -18.532 -29.890  18.454  1.00  0.00    -0.000 C 
BRANCH   9  10
ATOM     10  C   UNL     1     -17.795 -28.867  19.326  1.00  0.00    -0.003 C 
ATOM     11  C   UNL     1     -18.221 -27.442  18.986  1.00  0.00     0.004 C 
ENDBRANCH   9  10
ENDBRANCH   8   9
ENDBRANCH   7   8
ENDBRANCH   1   7
TORSDOF 7
ENDMDL
MODEL 9
REMARK VINA RESULT:    -3.634      2.835      4.756
REMARK INTER + INTRA:          -5.836
REMARK INTER:                  -5.350
REMARK INTRA:                  -0.486
REMARK UNBOUND:                -0.714
REMARK SMILES CCCCCCCCC(=O)[O-]
REMARK SMILES IDX 6 1 7 2 8 3 9 4 10 5 11 6 5 7 4 8 3 9 2 10 1 11
REMARK H PARENT
REMARK Flexibility Score: inf
ROOT
ATOM      1  C   UNL     1     -19.945 -30.283  18.995  1.00  0.00     0.000 C 
ENDROOT
BRANCH   1   2
ATOM      2  C   UNL     1     -20.332 -31.331  20.052  1.00  0.00     0.006 C 
BRANCH   2   3
ATOM      3  C   UNL     1     -19.640 -32.680  19.810  1.00  0.00     0.053 C 
BRANCH   3   4
ATOM      4  C   UNL     1     -18.532 -32.923  20.788  1.00  0.00     0.041 C 
ATOM      5  O   UNL     1     -17.983 -34.054  20.854  1.00  0.00    -0.550 OA
ATOM      6  O   UNL     1     -18.126 -31.910  21.647  1.00  0.00    -0.550 OA
ENDBRANCH   3   4
ENDBRANCH   2   3
ENDBRANCH   1   2
BRANCH   1   7
ATOM      7  C   UNL     1     -19.169 -30.891  17.816  1.00  0.00     0.000 C 
BRANCH   7   8
ATOM      8  C   UNL     1     -17.699 -30.445  17.779  1.00  0.00    -0.000 C 
BRANCH   8   9
ATOM      9  C   UNL     1     -17.424 -29.374  18.842  1.00  0.00    -0.000 C 
BRANCH   9  10
ATOM     10  C   UNL     1     -17.444 -27.970  18.227  1.00  0.00    -0.003 C 
ATOM     11  C   UNL     1     -18.252 -27.003  19.086  1.00  0.00     0.004 C 
ENDBRANCH   9  10
ENDBRANCH   8   9
ENDBRANCH   7   8
ENDBRANCH   1   7
TORSDOF 7
ENDMDL
