MODEL 1
REMARK VINA RESULT:    -4.502      0.000      0.000
REMARK INTER + INTRA:          -5.534
REMARK INTER:                  -5.423
REMARK INTRA:                  -0.111
REMARK UNBOUND:                -0.111
REMARK SMILES NC(=O)C[C@@H]([NH3+])C(=O)[O-]
REMARK SMILES IDX 4 1 5 2 6 3 7 7 8 8 9 9 2 10 3 11 1 12
REMARK H PARENT 6 4 6 5 6 6 1 13 1 14
REMARK Flexibility Score: inf
ROOT
ATOM      1  C   UNL     1      -9.276   4.583 -17.626  1.00  0.00     0.171 C 
ENDROOT
BRANCH   1   2
ATOM      2  C   UNL     1     -10.105   5.093 -18.824  1.00  0.00     0.237 C 
BRANCH   2   3
ATOM      3  N   UNL     1     -10.002   6.551 -18.980  1.00  0.00    -0.350 N 
ATOM      4  H   UNL     1     -10.607   6.891 -19.763  1.00  0.00     0.345 HD
ATOM      5  H   UNL     1     -10.300   7.021 -18.094  1.00  0.00     0.345 HD
ATOM      6  H   UNL     1      -9.010   6.817 -19.174  1.00  0.00     0.345 HD
ENDBRANCH   2   3
BRANCH   2   7
ATOM      7  C   UNL     1      -9.735   4.376 -20.097  1.00  0.00     0.100 C 
ATOM      8  O   UNL     1      -8.551   3.996 -20.303  1.00  0.00    -0.544 OA
ATOM      9  O   UNL     1     -10.718   4.083 -21.034  1.00  0.00    -0.544 OA
ENDBRANCH   2   7
ENDBRANCH   1   2
BRANCH   1  10
ATOM     10  C   UNL     1      -9.960   3.490 -16.851  1.00  0.00     0.223 C 
ATOM     11  O   UNL     1     -11.208   3.347 -16.940  1.00  0.00    -0.275 OA
ATOM     12  N   UNL     1      -9.203   2.601 -16.030  1.00  0.00    -0.369 N 
ATOM     13  H   UNL     1      -8.166   2.699 -15.951  1.00  0.00     0.159 HD
ATOM     14  H   UNL     1      -9.681   1.837 -15.502  1.00  0.00     0.159 HD
ENDBRANCH   1  10
TORSDOF 4
ENDMDL
MODEL 2
REMARK VINA RESULT:    -4.287      1.643      1.918
REMARK INTER + INTRA:          -5.275
REMARK INTER:                  -5.043
REMARK INTRA:                  -0.232
REMARK UNBOUND:                -0.111
REMARK SMILES NC(=O)C[C@@H]([NH3+])C(=O)[O-]
REMARK SMILES IDX 4 1 5 2 6 3 7 7 8 8 9 9 2 10 3 11 1 12
REMARK H PARENT 6 4 6 5 6 6 1 13 1 14
REMARK Flexibility Score: inf
ROOT
ATOM      1  C   UNL     1     -10.341   3.903 -17.865  1.00  0.00     0.171 C 
ENDROOT
BRANCH   1   2
ATOM      2  C   UNL     1      -9.834   4.953 -18.878  1.00  0.00     0.237 C 
BRANCH   2   3
ATOM      3  N   UNL     1      -8.695   5.716 -18.352  1.00  0.00    -0.350 N 
ATOM      4  H   UNL     1      -7.977   5.885 -19.094  1.00  0.00     0.345 HD
ATOM      5  H   UNL     1      -9.028   6.639 -17.989  1.00  0.00     0.345 HD
ATOM      6  H   UNL     1      -8.253   5.194 -17.561  1.00  0.00     0.345 HD
ENDBRANCH   2   3
BRANCH   2   7
ATOM      7  C   UNL     1      -9.506   4.322 -20.208  1.00  0.00     0.100 C 
ATOM      8  O   UNL     1      -8.326   3.980 -20.487  1.00  0.00    -0.544 OA
ATOM      9  O   UNL     1     -10.524   4.067 -21.119  1.00  0.00    -0.544 OA
ENDBRANCH   2   7
ENDBRANCH   1   2
BRANCH   1  10
ATOM     10  C   UNL     1     -11.842   3.836 -17.779  1.00  0.00     0.223 C 
ATOM     11  O   UNL     1     -12.398   3.695 -16.657  1.00  0.00    -0.275 OA
ATOM     12  N   UNL     1     -12.641   3.953 -18.956  1.00  0.00    -0.369 N 
ATOM     13  H   UNL     1     -12.198   4.080 -19.892  1.00  0.00     0.159 HD
ATOM     14  H   UNL     1     -13.683   3.917 -18.889  1.00  0.00     0.159 HD
ENDBRANCH   1  10
TORSDOF 4
ENDMDL
MODEL 3
REMARK VINA RESULT:    -4.274      2.084      2.460
REMARK INTER + INTRA:          -5.260
REMARK INTER:                  -5.045
REMARK INTRA:                  -0.215
REMARK UNBOUND:                -0.111
REMARK SMILES NC(=O)C[C@@H]([NH3+])C(=O)[O-]
REMARK SMILES IDX 4 1 5 2 6 3 7 7 8 8 9 9 2 10 3 11 1 12
REMARK H PARENT 6 4 6 5 6 6 1 13 1 14
REMARK Flexibility Score: inf
ROOT
ATOM      1  C   UNL     1     -11.140   4.024 -18.711  1.00  0.00     0.171 C 
ENDROOT
BRANCH   1   2
ATOM      2  C   UNL     1      -9.661   4.270 -19.080  1.00  0.00     0.237 C 
BRANCH   2   3
ATOM      3  N   UNL     1      -9.433   4.170 -20.528  1.00  0.00    -0.350 N 
ATOM      4  H   UNL     1      -8.669   4.814 -20.837  1.00  0.00     0.345 HD
ATOM      5  H   UNL     1      -9.167   3.188 -20.774  1.00  0.00     0.345 HD
ATOM      6  H   UNL     1     -10.311   4.410 -21.042  1.00  0.00     0.345 HD
ENDBRANCH   2   3
BRANCH   2   7
ATOM      7  C   UNL     1      -9.170   5.588 -18.536  1.00  0.00     0.100 C 
ATOM      8  O   UNL     1      -9.465   6.672 -19.107  1.00  0.00    -0.544 OA
ATOM      9  O   UNL     1      -8.425   5.616 -17.363  1.00  0.00    -0.544 OA
ENDBRANCH   2   7
ENDBRANCH   1   2
BRANCH   1  10
ATOM     10  C   UNL     1     -11.335   3.611 -17.278  1.00  0.00     0.223 C 
ATOM     11  O   UNL     1     -12.469   3.727 -16.742  1.00  0.00    -0.275 OA
ATOM     12  N   UNL     1     -10.250   3.068 -16.527  1.00  0.00    -0.369 N 
ATOM     13  H   UNL     1      -9.305   2.956 -16.957  1.00  0.00     0.159 HD
ATOM     14  H   UNL     1     -10.393   2.772 -15.535  1.00  0.00     0.159 HD
ENDBRANCH   1  10
TORSDOF 4
ENDMDL
MODEL 4
REMARK VINA RESULT:    -4.256      9.843     10.355
REMARK INTER + INTRA:          -5.238
REMARK INTER:                  -4.895
REMARK INTRA:                  -0.343
REMARK UNBOUND:                -0.111
REMARK SMILES NC(=O)C[C@@H]([NH3+])C(=O)[O-]
REMARK SMILES IDX 4 1 5 2 6 3 7 7 8 8 9 9 2 10 3 11 1 12
REMARK H PARENT 6 4 6 5 6 6 1 13 1 14
REMARK Flexibility Score: inf
ROOT
ATOM      1  C   UNL     1     -18.865   1.735 -18.393  1.00  0.00     0.171 C 
ENDROOT
BRANCH   1   2
ATOM      2  C   UNL     1     -20.409   1.758 -18.376  1.00  0.00     0.237 C 
BRANCH   2   3
ATOM      3  N   UNL     1     -20.932   2.551 -17.254  1.00  0.00    -0.350 N 
ATOM      4  H   UNL     1     -20.261   3.305 -16.978  1.00  0.00     0.345 HD
ATOM      5  H   UNL     1     -21.840   2.992 -17.530  1.00  0.00     0.345 HD
ATOM      6  H   UNL     1     -21.106   1.930 -16.432  1.00  0.00     0.345 HD
ENDBRANCH   2   3
BRANCH   2   7
ATOM      7  C   UNL     1     -20.969   2.233 -19.693  1.00  0.00     0.100 C 
ATOM      8  O   UNL     1     -22.196   2.488 -19.819  1.00  0.00    -0.544 OA
ATOM      9  O   UNL     1     -20.115   2.443 -20.769  1.00  0.00    -0.544 OA
ENDBRANCH   2   7
ENDBRANCH   1   2
BRANCH   1  10
ATOM     10  C   UNL     1     -18.245   2.755 -17.479  1.00  0.00     0.223 C 
ATOM     11  O   UNL     1     -18.137   2.510 -16.248  1.00  0.00    -0.275 OA
ATOM     12  N   UNL     1     -17.758   3.992 -17.999  1.00  0.00    -0.369 N 
ATOM     13  H   UNL     1     -17.830   4.209 -19.017  1.00  0.00     0.159 HD
ATOM     14  H   UNL     1     -17.317   4.693 -17.362  1.00  0.00     0.159 HD
ENDBRANCH   1  10
TORSDOF 4
ENDMDL
MODEL 5
REMARK VINA RESULT:    -4.238      8.966      9.921
REMARK INTER + INTRA:          -5.216
REMARK INTER:                  -4.893
REMARK INTRA:                  -0.323
REMARK UNBOUND:                -0.111
REMARK SMILES NC(=O)C[C@@H]([NH3+])C(=O)[O-]
REMARK SMILES IDX 4 1 5 2 6 3 7 7 8 8 9 9 2 10 3 11 1 12
REMARK H PARENT 6 4 6 5 6 6 1 13 1 14
REMARK Flexibility Score: inf
ROOT
ATOM      1  C   UNL     1      -8.596   7.070 -10.845  1.00  0.00     0.171 C 
ENDROOT
BRANCH   1   2
ATOM      2  C   UNL     1      -9.302   6.664  -9.533  1.00  0.00     0.237 C 
BRANCH   2   3
ATOM      3  N   UNL     1      -8.387   6.705  -8.384  1.00  0.00    -0.350 N 
ATOM      4  H   UNL     1      -7.659   7.446  -8.506  1.00  0.00     0.345 HD
ATOM      5  H   UNL     1      -8.929   6.906  -7.511  1.00  0.00     0.345 HD
ATOM      6  H   UNL     1      -7.918   5.779  -8.271  1.00  0.00     0.345 HD
ENDBRANCH   2   3
BRANCH   2   7
ATOM      7  C   UNL     1     -10.532   7.500  -9.288  1.00  0.00     0.100 C 
ATOM      8  O   UNL     1     -10.464   8.570  -8.626  1.00  0.00    -0.544 OA
ATOM      9  O   UNL     1     -11.748   7.115  -9.839  1.00  0.00    -0.544 OA
ENDBRANCH   2   7
ENDBRANCH   1   2
BRANCH   1  10
ATOM     10  C   UNL     1      -7.157   7.464 -10.649  1.00  0.00     0.223 C 
ATOM     11  O   UNL     1      -6.878   8.548 -10.073  1.00  0.00    -0.275 OA
ATOM     12  N   UNL     1      -6.105   6.607 -11.094  1.00  0.00    -0.369 N 
ATOM     13  H   UNL     1      -6.317   5.701 -11.565  1.00  0.00     0.159 HD
ATOM     14  H   UNL     1      -5.108   6.880 -10.946  1.00  0.00     0.159 HD
ENDBRANCH   1  10
TORSDOF 4
ENDMDL
MODEL 6
REMARK VINA RESULT:    -4.224      2.212      2.972
REMARK INTER + INTRA:          -5.199
REMARK INTER:                  -4.983
REMARK INTRA:                  -0.216
REMARK UNBOUND:                -0.111
REMARK SMILES NC(=O)C[C@@H]([NH3+])C(=O)[O-]
REMARK SMILES IDX 4 1 5 2 6 3 7 7 8 8 9 9 2 10 3 11 1 12
REMARK H PARENT 6 4 6 5 6 6 1 13 1 14
REMARK Flexibility Score: inf
ROOT
ATOM      1  C   UNL     1      -9.593   3.169 -16.489  1.00  0.00     0.171 C 
ENDROOT
BRANCH   1   2
ATOM      2  C   UNL     1     -10.138   4.077 -17.613  1.00  0.00     0.237 C 
BRANCH   2   3
ATOM      3  N   UNL     1      -9.392   3.903 -18.867  1.00  0.00    -0.350 N 
ATOM      4  H   UNL     1      -8.392   4.188 -18.755  1.00  0.00     0.345 HD
ATOM      5  H   UNL     1      -9.426   2.899 -19.160  1.00  0.00     0.345 HD
ATOM      6  H   UNL     1      -9.830   4.479 -19.622  1.00  0.00     0.345 HD
ENDBRANCH   2   3
BRANCH   2   7
ATOM      7  C   UNL     1     -11.617   3.870 -17.820  1.00  0.00     0.100 C 
ATOM      8  O   UNL     1     -12.102   3.794 -18.981  1.00  0.00    -0.544 OA
ATOM      9  O   UNL     1     -12.451   3.711 -16.720  1.00  0.00    -0.544 OA
ENDBRANCH   2   7
ENDBRANCH   1   2
BRANCH   1  10
ATOM     10  C   UNL     1      -8.452   3.785 -15.727  1.00  0.00     0.223 C 
ATOM     11  O   UNL     1      -8.027   4.926 -16.051  1.00  0.00    -0.275 OA
ATOM     12  N   UNL     1      -7.859   3.095 -14.627  1.00  0.00    -0.369 N 
ATOM     13  H   UNL     1      -8.204   2.153 -14.339  1.00  0.00     0.159 HD
ATOM     14  H   UNL     1      -7.074   3.532 -14.094  1.00  0.00     0.159 HD
ENDBRANCH   1  10
TORSDOF 4
ENDMDL
MODEL 7
REMARK VINA RESULT:    -4.211      2.748      2.948
REMARK INTER + INTRA:          -5.183
REMARK INTER:                  -4.938
REMARK INTRA:                  -0.246
REMARK UNBOUND:                -0.111
REMARK SMILES NC(=O)C[C@@H]([NH3+])C(=O)[O-]
REMARK SMILES IDX 4 1 5 2 6 3 7 7 8 8 9 9 2 10 3 11 1 12
REMARK H PARENT 6 4 6 5 6 6 1 13 1 14
REMARK Flexibility Score: inf
ROOT
ATOM      1  C   UNL     1     -11.264   3.732 -17.847  1.00  0.00     0.171 C 
ENDROOT
BRANCH   1   2
ATOM      2  C   UNL     1     -10.470   4.343 -19.021  1.00  0.00     0.237 C 
BRANCH   2   3
ATOM      3  N   UNL     1     -11.350   4.746 -20.127  1.00  0.00    -0.350 N 
ATOM      4  H   UNL     1     -11.965   3.955 -20.428  1.00  0.00     0.345 HD
ATOM      5  H   UNL     1     -11.952   5.545 -19.822  1.00  0.00     0.345 HD
ATOM      6  H   UNL     1     -10.775   5.061 -20.941  1.00  0.00     0.345 HD
ENDBRANCH   2   3
BRANCH   2   7
ATOM      7  C   UNL     1      -9.603   5.489 -18.563  1.00  0.00     0.100 C 
ATOM      8  O   UNL     1      -8.770   5.336 -17.630  1.00  0.00    -0.544 OA
ATOM      9  O   UNL     1      -9.684   6.716 -19.210  1.00  0.00    -0.544 OA
ENDBRANCH   2   7
ENDBRANCH   1   2
BRANCH   1  10
ATOM     10  C   UNL     1     -12.744   3.658 -18.104  1.00  0.00     0.223 C 
ATOM     11  O   UNL     1     -13.182   2.932 -19.036  1.00  0.00    -0.275 OA
ATOM     12  N   UNL     1     -13.658   4.389 -17.287  1.00  0.00    -0.369 N 
ATOM     13  H   UNL     1     -13.314   4.988 -16.505  1.00  0.00     0.159 HD
ATOM     14  H   UNL     1     -14.686   4.326 -17.462  1.00  0.00     0.159 HD
ENDBRANCH   1  10
TORSDOF 4
ENDMDL
MODEL 8
REMARK VINA RESULT:    -4.184      6.815      8.540
REMARK INTER + INTRA:          -5.152
REMARK INTER:                  -4.704
REMARK INTRA:                  -0.448
REMARK UNBOUND:                -0.111
REMARK SMILES NC(=O)C[C@@H]([NH3+])C(=O)[O-]
REMARK SMILES IDX 4 1 5 2 6 3 7 7 8 8 9 9 2 10 3 11 1 12
REMARK H PARENT 6 4 6 5 6 6 1 13 1 14
REMARK Flexibility Score: inf
ROOT
ATOM      1  C   UNL     1     -12.965   2.691 -26.258  1.00  0.00     0.171 C 
ENDROOT
BRANCH   1   2
ATOM      2  C   UNL     1     -12.973   1.929 -24.915  1.00  0.00     0.237 C 
BRANCH   2   3
ATOM      3  N   UNL     1     -12.375   0.593 -25.040  1.00  0.00    -0.350 N 
ATOM      4  H   UNL     1     -12.886   0.014 -25.746  1.00  0.00     0.345 HD
ATOM      5  H   UNL     1     -11.375   0.682 -25.336  1.00  0.00     0.345 HD
ATOM      6  H   UNL     1     -12.400   0.105 -24.115  1.00  0.00     0.345 HD
ENDBRANCH   2   3
BRANCH   2   7
ATOM      7  C   UNL     1     -12.308   2.729 -23.823  1.00  0.00     0.100 C 
ATOM      8  O   UNL     1     -12.851   2.855 -22.693  1.00  0.00    -0.544 OA
ATOM      9  O   UNL     1     -11.057   3.292 -24.046  1.00  0.00    -0.544 OA
ENDBRANCH   2   7
ENDBRANCH   1   2
BRANCH   1  10
ATOM     10  C   UNL     1     -11.999   2.120 -27.260  1.00  0.00     0.223 C 
ATOM     11  O   UNL     1     -12.406   1.300 -28.125  1.00  0.00    -0.275 OA
ATOM     12  N   UNL     1     -10.628   2.517 -27.251  1.00  0.00    -0.369 N 
ATOM     13  H   UNL     1     -10.275   3.203 -26.547  1.00  0.00     0.159 HD
ATOM     14  H   UNL     1      -9.963   2.127 -27.955  1.00  0.00     0.159 HD
ENDBRANCH   1  10
TORSDOF 4
ENDMDL
MODEL 9
REMARK VINA RESULT:    -4.070      4.456      5.246
REMARK INTER + INTRA:          -5.014
REMARK INTER:                  -4.530
REMARK INTRA:                  -0.484
REMARK UNBOUND:                -0.111
REMARK SMILES NC(=O)C[C@@H]([NH3+])C(=O)[O-]
REMARK SMILES IDX 4 1 5 2 6 3 7 7 8 8 9 9 2 10 3 11 1 12
REMARK H PARENT 6 4 6 5 6 6 1 13 1 14
REMARK Flexibility Score: inf
ROOT
ATOM      1  C   UNL     1     -13.881   2.831 -20.986  1.00  0.00     0.171 C 
ENDROOT
BRANCH   1   2
ATOM      2  C   UNL     1     -14.814   3.745 -21.809  1.00  0.00     0.237 C 
BRANCH   2   3
ATOM      3  N   UNL     1     -15.437   4.783 -20.976  1.00  0.00    -0.350 N 
ATOM      4  H   UNL     1     -15.465   4.495 -19.970  1.00  0.00     0.345 HD
ATOM      5  H   UNL     1     -14.892   5.673 -21.057  1.00  0.00     0.345 HD
ATOM      6  H   UNL     1     -16.412   4.965 -21.306  1.00  0.00     0.345 HD
ENDBRANCH   2   3
BRANCH   2   7
ATOM      7  C   UNL     1     -14.096   4.346 -22.991  1.00  0.00     0.100 C 
ATOM      8  O   UNL     1     -14.660   5.206 -23.719  1.00  0.00    -0.544 OA
ATOM      9  O   UNL     1     -12.779   3.989 -23.252  1.00  0.00    -0.544 OA
ENDBRANCH   2   7
ENDBRANCH   1   2
BRANCH   1  10
ATOM     10  C   UNL     1     -13.165   3.554 -19.878  1.00  0.00     0.223 C 
ATOM     11  O   UNL     1     -13.640   3.538 -18.712  1.00  0.00    -0.275 OA
ATOM     12  N   UNL     1     -11.941   4.241 -20.134  1.00  0.00    -0.369 N 
ATOM     13  H   UNL     1     -11.527   4.257 -21.092  1.00  0.00     0.159 HD
ATOM     14  H   UNL     1     -11.441   4.732 -19.359  1.00  0.00     0.159 HD
ENDBRANCH   1  10
TORSDOF 4
ENDMDL
