MODEL 1
REMARK VINA RESULT:    -6.571      0.000      0.000
REMARK INTER + INTRA:         -10.254
REMARK INTER:                  -8.683
REMARK INTRA:                  -1.571
REMARK UNBOUND:                -1.571
REMARK SMILES CC[C@H](C=C[C@H](C)[C@@H]1CC[C@@H]2[C@@H]3CC=C4C[C@H](O)CC[C@@]4(C)[C@H]3CC[C@@]21C)C(C)C
REMARK SMILES IDX 6 1 7 2 5 3 4 4 3 5 2 6 1 7 28 8 29 9 30 10 8 11 9 12 26 13
REMARK SMILES IDX 10 14 11 15 25 16 27 17 12 18 24 19 23 20 13 21 21 22 14 23
REMARK SMILES IDX 15 24 20 25 22 26 16 27 19 28 17 29 18 30
REMARK H PARENT 18 31
REMARK Flexibility Score: inf
ROOT
ATOM      1  C   UNL     1      44.660  13.868  21.854  1.00  0.00     0.012 C 
ATOM      2  C   UNL     1      45.850  14.426  21.059  1.00  0.00     0.012 C 
ENDROOT
BRANCH   1   3
ATOM      3  C   UNL     1      45.173  12.700  22.671  1.00  0.00    -0.028 C 
ATOM      4  C   UNL     1      45.007  11.429  22.271  1.00  0.00    -0.027 C 
BRANCH   4   5
ATOM      5  C   UNL     1      45.577  10.235  23.014  1.00  0.00     0.014 C 
BRANCH   5   6
ATOM      6  C   UNL     1      45.691  10.530  24.532  1.00  0.00     0.004 C 
ATOM      7  C   UNL     1      44.560   9.908  25.351  1.00  0.00     0.004 C 
ENDBRANCH   5   6
BRANCH   5   8
ATOM      8  C   UNL     1      44.864   8.892  22.660  1.00  0.00    -0.011 C 
ATOM      9  C   UNL     1      43.955   8.955  21.424  1.00  0.00     0.008 C 
ATOM     10  C   UNL     1      45.875   7.743  22.509  1.00  0.00     0.008 C 
ENDBRANCH   5   8
ENDBRANCH   4   5
ENDBRANCH   1   3
BRANCH   1  11
ATOM     11  C   UNL     1      43.995  14.937  22.784  1.00  0.00     0.002 C 
ATOM     12  C   UNL     1      44.691  15.009  24.145  1.00  0.00     0.005 C 
ATOM     13  C   UNL     1      42.459  14.809  23.095  1.00  0.00    -0.026 C 
ATOM     14  C   UNL     1      43.700  15.603  25.125  1.00  0.00     0.005 C 
ATOM     15  C   UNL     1      42.296  15.468  24.509  1.00  0.00    -0.001 C 
ATOM     16  C   UNL     1      41.910  13.338  23.094  1.00  0.00     0.007 C 
ATOM     17  C   UNL     1      41.633  15.624  22.066  1.00  0.00     0.012 C 
ATOM     18  C   UNL     1      41.272  14.719  25.408  1.00  0.00     0.000 C 
ATOM     19  C   UNL     1      42.247  12.567  24.375  1.00  0.00     0.005 C 
ATOM     20  C   UNL     1      41.663  13.241  25.653  1.00  0.00     0.003 C 
ATOM     21  C   UNL     1      41.038  15.400  26.763  1.00  0.00     0.031 C 
ATOM     22  C   UNL     1      40.492  12.449  26.360  1.00  0.00    -0.008 C 
ATOM     23  C   UNL     1      39.999  14.652  27.548  1.00  0.00    -0.027 C 
ATOM     24  C   UNL     1      39.779  13.321  27.416  1.00  0.00    -0.065 C 
ATOM     25  C   UNL     1      39.399  11.985  25.342  1.00  0.00     0.014 C 
ATOM     26  C   UNL     1      41.120  11.219  27.070  1.00  0.00     0.016 C 
ATOM     27  C   UNL     1      38.582  12.717  28.115  1.00  0.00     0.063 C 
ATOM     28  C   UNL     1      38.136  11.393  26.005  1.00  0.00     0.033 C 
ATOM     29  C   UNL     1      37.534  12.334  27.064  1.00  0.00     0.118 C 
BRANCH  29  30
ATOM     30  O   UNL     1      36.451  11.707  27.701  1.00  0.00    -0.393 OA
ATOM     31  H   UNL     1      36.571  11.852  28.676  1.00  0.00     0.210 HD
ENDBRANCH  29  30
ENDBRANCH   1  11
TORSDOF 6
ENDMDL
MODEL 2
REMARK VINA RESULT:    -6.545      1.352      1.714
REMARK INTER + INTRA:         -10.221
REMARK INTER:                  -8.495
REMARK INTRA:                  -1.726
REMARK UNBOUND:                -1.571
REMARK SMILES CC[C@H](C=C[C@H](C)[C@@H]1CC[C@@H]2[C@@H]3CC=C4C[C@H](O)CC[C@@]4(C)[C@H]3CC[C@@]21C)C(C)C
REMARK SMILES IDX 6 1 7 2 5 3 4 4 3 5 2 6 1 7 28 8 29 9 30 10 8 11 9 12 26 13
REMARK SMILES IDX 10 14 11 15 25 16 27 17 12 18 24 19 23 20 13 21 21 22 14 23
REMARK SMILES IDX 15 24 20 25 22 26 16 27 19 28 17 29 18 30
REMARK H PARENT 18 31
REMARK Flexibility Score: inf
ROOT
ATOM      1  C   UNL     1      43.952  13.276  22.893  1.00  0.00     0.012 C 
ATOM      2  C   UNL     1      44.938  14.020  21.981  1.00  0.00     0.012 C 
ENDROOT
BRANCH   1   3
ATOM      3  C   UNL     1      44.558  11.923  23.201  1.00  0.00    -0.028 C 
ATOM      4  C   UNL     1      43.907  10.777  22.941  1.00  0.00    -0.027 C 
BRANCH   4   5
ATOM      5  C   UNL     1      44.509   9.402  23.156  1.00  0.00     0.014 C 
BRANCH   5   6
ATOM      6  C   UNL     1      43.747   8.630  24.265  1.00  0.00     0.004 C 
ATOM      7  C   UNL     1      43.875   9.277  25.643  1.00  0.00     0.004 C 
ENDBRANCH   5   6
BRANCH   5   8
ATOM      8  C   UNL     1      44.716   8.606  21.829  1.00  0.00    -0.011 C 
ATOM      9  C   UNL     1      43.510   7.762  21.393  1.00  0.00     0.008 C 
ATOM     10  C   UNL     1      45.151   9.532  20.681  1.00  0.00     0.008 C 
ENDBRANCH   5   8
ENDBRANCH   4   5
ENDBRANCH   1   3
BRANCH   1  11
ATOM     11  C   UNL     1      43.640  14.052  24.215  1.00  0.00     0.002 C 
ATOM     12  C   UNL     1      44.330  13.407  25.420  1.00  0.00     0.005 C 
ATOM     13  C   UNL     1      42.137  14.246  24.635  1.00  0.00    -0.026 C 
ATOM     14  C   UNL     1      43.565  13.835  26.657  1.00  0.00     0.005 C 
ATOM     15  C   UNL     1      42.184  14.337  26.200  1.00  0.00    -0.001 C 
ATOM     16  C   UNL     1      41.173  13.098  24.168  1.00  0.00     0.007 C 
ATOM     17  C   UNL     1      41.591  15.583  24.072  1.00  0.00     0.012 C 
ATOM     18  C   UNL     1      40.985  13.618  26.881  1.00  0.00     0.000 C 
ATOM     19  C   UNL     1      41.266  11.839  25.036  1.00  0.00     0.005 C 
ATOM     20  C   UNL     1      40.914  12.112  26.530  1.00  0.00     0.003 C 
ATOM     21  C   UNL     1      40.969  13.772  28.408  1.00  0.00     0.031 C 
ATOM     22  C   UNL     1      39.562  11.469  27.035  1.00  0.00    -0.008 C 
ATOM     23  C   UNL     1      39.756  13.101  28.985  1.00  0.00    -0.027 C 
ATOM     24  C   UNL     1      39.146  12.037  28.409  1.00  0.00    -0.065 C 
ATOM     25  C   UNL     1      38.377  11.748  26.052  1.00  0.00     0.014 C 
ATOM     26  C   UNL     1      39.794   9.940  27.175  1.00  0.00     0.016 C 
ATOM     27  C   UNL     1      37.825  11.569  28.977  1.00  0.00     0.063 C 
ATOM     28  C   UNL     1      36.997  11.323  26.598  1.00  0.00     0.033 C 
ATOM     29  C   UNL     1      36.707  11.920  27.987  1.00  0.00     0.118 C 
BRANCH  29  30
ATOM     30  O   UNL     1      35.488  11.424  28.477  1.00  0.00    -0.393 OA
ATOM     31  H   UNL     1      34.993  12.200  28.849  1.00  0.00     0.210 HD
ENDBRANCH  29  30
ENDBRANCH   1  11
TORSDOF 6
ENDMDL
MODEL 3
REMARK VINA RESULT:    -6.238      2.981      8.706
REMARK INTER + INTRA:          -9.815
REMARK INTER:                  -8.142
REMARK INTRA:                  -1.673
REMARK UNBOUND:                -1.571
REMARK SMILES CC[C@H](C=C[C@H](C)[C@@H]1CC[C@@H]2[C@@H]3CC=C4C[C@H](O)CC[C@@]4(C)[C@H]3CC[C@@]21C)C(C)C
REMARK SMILES IDX 6 1 7 2 5 3 4 4 3 5 2 6 1 7 28 8 29 9 30 10 8 11 9 12 26 13
REMARK SMILES IDX 10 14 11 15 25 16 27 17 12 18 24 19 23 20 13 21 21 22 14 23
REMARK SMILES IDX 15 24 20 25 22 26 16 27 19 28 17 29 18 30
REMARK H PARENT 18 31
REMARK Flexibility Score: inf
ROOT
ATOM      1  C   UNL     1      35.903  11.154  28.615  1.00  0.00     0.012 C 
ATOM      2  C   UNL     1      34.730  10.532  29.388  1.00  0.00     0.012 C 
ENDROOT
BRANCH   1   3
ATOM      3  C   UNL     1      36.255  12.456  29.305  1.00  0.00    -0.028 C 
ATOM      4  C   UNL     1      36.198  13.635  28.665  1.00  0.00    -0.027 C 
BRANCH   4   5
ATOM      5  C   UNL     1      36.461  14.968  29.338  1.00  0.00     0.014 C 
BRANCH   5   6
ATOM      6  C   UNL     1      37.850  14.977  30.027  1.00  0.00     0.004 C 
ATOM      7  C   UNL     1      38.995  15.299  29.067  1.00  0.00     0.004 C 
ENDBRANCH   5   6
BRANCH   5   8
ATOM      8  C   UNL     1      36.184  16.193  28.409  1.00  0.00    -0.011 C 
ATOM      9  C   UNL     1      34.962  16.039  27.493  1.00  0.00     0.008 C 
ATOM     10  C   UNL     1      36.073  17.496  29.217  1.00  0.00     0.008 C 
ENDBRANCH   5   8
ENDBRANCH   4   5
ENDBRANCH   1   3
BRANCH   1  11
ATOM     11  C   UNL     1      37.152  10.214  28.546  1.00  0.00     0.002 C 
ATOM     12  C   UNL     1      38.191  10.582  29.609  1.00  0.00     0.005 C 
ATOM     13  C   UNL     1      37.943  10.116  27.190  1.00  0.00    -0.026 C 
ATOM     14  C   UNL     1      39.527  10.045  29.135  1.00  0.00     0.005 C 
ATOM     15  C   UNL     1      39.410   9.771  27.625  1.00  0.00    -0.001 C 
ATOM     16  C   UNL     1      37.907  11.419  26.315  1.00  0.00     0.007 C 
ATOM     17  C   UNL     1      37.390   8.951  26.330  1.00  0.00     0.012 C 
ATOM     18  C   UNL     1      40.480  10.495  26.759  1.00  0.00     0.000 C 
ATOM     19  C   UNL     1      38.867  12.506  26.811  1.00  0.00     0.005 C 
ATOM     20  C   UNL     1      40.353  12.037  26.820  1.00  0.00     0.003 C 
ATOM     21  C   UNL     1      41.919  10.103  27.115  1.00  0.00     0.031 C 
ATOM     22  C   UNL     1      41.288  12.731  25.752  1.00  0.00    -0.008 C 
ATOM     23  C   UNL     1      42.888  10.798  26.202  1.00  0.00    -0.027 C 
ATOM     24  C   UNL     1      42.641  11.999  25.626  1.00  0.00    -0.065 C 
ATOM     25  C   UNL     1      40.643  12.740  24.326  1.00  0.00     0.014 C 
ATOM     26  C   UNL     1      41.549  14.185  26.231  1.00  0.00     0.016 C 
ATOM     27  C   UNL     1      43.605  12.507  24.578  1.00  0.00     0.063 C 
ATOM     28  C   UNL     1      41.598  13.217  23.210  1.00  0.00     0.033 C 
ATOM     29  C   UNL     1      42.927  12.440  23.205  1.00  0.00     0.118 C 
BRANCH  29  30
ATOM     30  O   UNL     1      43.792  12.978  22.238  1.00  0.00    -0.393 OA
ATOM     31  H   UNL     1      44.376  12.235  21.932  1.00  0.00     0.210 HD
ENDBRANCH  29  30
ENDBRANCH   1  11
TORSDOF 6
ENDMDL
MODEL 4
REMARK VINA RESULT:    -5.698      2.041      3.741
REMARK INTER + INTRA:          -9.102
REMARK INTER:                  -8.010
REMARK INTRA:                  -1.092
REMARK UNBOUND:                -1.571
REMARK SMILES CC[C@H](C=C[C@H](C)[C@@H]1CC[C@@H]2[C@@H]3CC=C4C[C@H](O)CC[C@@]4(C)[C@H]3CC[C@@]21C)C(C)C
REMARK SMILES IDX 6 1 7 2 5 3 4 4 3 5 2 6 1 7 28 8 29 9 30 10 8 11 9 12 26 13
REMARK SMILES IDX 10 14 11 15 25 16 27 17 12 18 24 19 23 20 13 21 21 22 14 23
REMARK SMILES IDX 15 24 20 25 22 26 16 27 19 28 17 29 18 30
REMARK H PARENT 18 31
REMARK Flexibility Score: inf
ROOT
ATOM      1  C   UNL     1      42.825  13.395  24.543  1.00  0.00     0.012 C 
ATOM      2  C   UNL     1      43.268  14.811  24.146  1.00  0.00     0.012 C 
ENDROOT
BRANCH   1   3
ATOM      3  C   UNL     1      43.750  12.422  23.842  1.00  0.00    -0.028 C 
ATOM      4  C   UNL     1      43.388  11.784  22.717  1.00  0.00    -0.027 C 
BRANCH   4   5
ATOM      5  C   UNL     1      44.311  10.867  21.938  1.00  0.00     0.014 C 
BRANCH   5   6
ATOM      6  C   UNL     1      45.790  11.308  22.093  1.00  0.00     0.004 C 
ATOM      7  C   UNL     1      46.083  12.663  21.449  1.00  0.00     0.004 C 
ENDBRANCH   5   6
BRANCH   5   8
ATOM      8  C   UNL     1      44.048   9.352  22.210  1.00  0.00    -0.011 C 
ATOM      9  C   UNL     1      45.021   8.397  21.504  1.00  0.00     0.008 C 
ATOM     10  C   UNL     1      44.017   9.050  23.717  1.00  0.00     0.008 C 
ENDBRANCH   5   8
ENDBRANCH   4   5
ENDBRANCH   1   3
BRANCH   1  11
ATOM     11  C   UNL     1      42.852  13.161  26.090  1.00  0.00     0.002 C 
ATOM     12  C   UNL     1      43.410  11.778  26.438  1.00  0.00     0.005 C 
ATOM     13  C   UNL     1      41.506  13.294  26.892  1.00  0.00    -0.026 C 
ATOM     14  C   UNL     1      42.897  11.422  27.819  1.00  0.00     0.005 C 
ATOM     15  C   UNL     1      41.692  12.333  28.118  1.00  0.00    -0.001 C 
ATOM     16  C   UNL     1      40.217  12.921  26.077  1.00  0.00     0.007 C 
ATOM     17  C   UNL     1      41.335  14.743  27.415  1.00  0.00     0.012 C 
ATOM     18  C   UNL     1      40.389  11.569  28.488  1.00  0.00     0.000 C 
ATOM     19  C   UNL     1      40.003  11.409  25.943  1.00  0.00     0.005 C 
ATOM     20  C   UNL     1      39.857  10.700  27.323  1.00  0.00     0.003 C 
ATOM     21  C   UNL     1      40.531  10.690  29.737  1.00  0.00     0.031 C 
ATOM     22  C   UNL     1      38.417  10.133  27.643  1.00  0.00    -0.008 C 
ATOM     23  C   UNL     1      39.221  10.032  30.061  1.00  0.00    -0.027 C 
ATOM     24  C   UNL     1      38.287   9.729  29.127  1.00  0.00    -0.065 C 
ATOM     25  C   UNL     1      37.296  11.188  27.360  1.00  0.00     0.014 C 
ATOM     26  C   UNL     1      38.202   8.873  26.762  1.00  0.00     0.016 C 
ATOM     27  C   UNL     1      36.932   9.246  29.594  1.00  0.00     0.063 C 
ATOM     28  C   UNL     1      35.895  10.760  27.851  1.00  0.00     0.033 C 
ATOM     29  C   UNL     1      35.896  10.346  29.334  1.00  0.00     0.118 C 
BRANCH  29  30
ATOM     30  O   UNL     1      34.624   9.875  29.700  1.00  0.00    -0.393 OA
ATOM     31  H   UNL     1      34.760   9.244  30.454  1.00  0.00     0.210 HD
ENDBRANCH  29  30
ENDBRANCH   1  11
TORSDOF 6
ENDMDL
MODEL 5
REMARK VINA RESULT:    -5.625      2.760      6.853
REMARK INTER + INTRA:          -9.005
REMARK INTER:                  -6.971
REMARK INTRA:                  -2.034
REMARK UNBOUND:                -1.571
REMARK SMILES CC[C@H](C=C[C@H](C)[C@@H]1CC[C@@H]2[C@@H]3CC=C4C[C@H](O)CC[C@@]4(C)[C@H]3CC[C@@]21C)C(C)C
REMARK SMILES IDX 6 1 7 2 5 3 4 4 3 5 2 6 1 7 28 8 29 9 30 10 8 11 9 12 26 13
REMARK SMILES IDX 10 14 11 15 25 16 27 17 12 18 24 19 23 20 13 21 21 22 14 23
REMARK SMILES IDX 15 24 20 25 22 26 16 27 19 28 17 29 18 30
REMARK H PARENT 18 31
REMARK Flexibility Score: inf
ROOT
ATOM      1  C   UNL     1      40.439  14.940  27.053  1.00  0.00     0.012 C 
ATOM      2  C   UNL     1      39.362  15.665  27.873  1.00  0.00     0.012 C 
ENDROOT
BRANCH   1   3
ATOM      3  C   UNL     1      41.755  15.641  27.319  1.00  0.00    -0.028 C 
ATOM      4  C   UNL     1      42.524  16.107  26.322  1.00  0.00    -0.027 C 
BRANCH   4   5
ATOM      5  C   UNL     1      43.805  16.887  26.545  1.00  0.00     0.014 C 
BRANCH   5   6
ATOM      6  C   UNL     1      43.858  17.465  27.984  1.00  0.00     0.004 C 
ATOM      7  C   UNL     1      45.061  18.378  28.220  1.00  0.00     0.004 C 
ENDBRANCH   5   6
BRANCH   5   8
ATOM      8  C   UNL     1      45.086  16.109  26.105  1.00  0.00    -0.011 C 
ATOM      9  C   UNL     1      45.323  14.790  26.855  1.00  0.00     0.008 C 
ATOM     10  C   UNL     1      45.096  15.859  24.589  1.00  0.00     0.008 C 
ENDBRANCH   5   8
ENDBRANCH   4   5
ENDBRANCH   1   3
BRANCH   1  11
ATOM     11  C   UNL     1      40.547  13.418  27.401  1.00  0.00     0.002 C 
ATOM     12  C   UNL     1      41.776  13.126  28.266  1.00  0.00     0.005 C 
ATOM     13  C   UNL     1      40.599  12.381  26.220  1.00  0.00    -0.026 C 
ATOM     14  C   UNL     1      42.113  11.660  28.086  1.00  0.00     0.005 C 
ATOM     15  C   UNL     1      41.415  11.174  26.803  1.00  0.00    -0.001 C 
ATOM     16  C   UNL     1      41.258  12.920  24.901  1.00  0.00     0.007 C 
ATOM     17  C   UNL     1      39.168  11.894  25.871  1.00  0.00     0.012 C 
ATOM     18  C   UNL     1      42.371  10.533  25.758  1.00  0.00     0.000 C 
ATOM     19  C   UNL     1      42.789  12.949  24.959  1.00  0.00     0.005 C 
ATOM     20  C   UNL     1      43.407  11.539  25.201  1.00  0.00     0.003 C 
ATOM     21  C   UNL     1      43.113   9.299  26.287  1.00  0.00     0.031 C 
ATOM     22  C   UNL     1      44.199  10.928  23.977  1.00  0.00    -0.008 C 
ATOM     23  C   UNL     1      43.970   8.705  25.206  1.00  0.00    -0.027 C 
ATOM     24  C   UNL     1      44.506   9.431  24.195  1.00  0.00    -0.065 C 
ATOM     25  C   UNL     1      43.388  11.035  22.643  1.00  0.00     0.014 C 
ATOM     26  C   UNL     1      45.540  11.700  23.853  1.00  0.00     0.016 C 
ATOM     27  C   UNL     1      45.188   8.696  23.064  1.00  0.00     0.063 C 
ATOM     28  C   UNL     1      44.022  10.270  21.462  1.00  0.00     0.033 C 
ATOM     29  C   UNL     1      44.316   8.798  21.807  1.00  0.00     0.118 C 
BRANCH  29  30
ATOM     30  O   UNL     1      44.980   8.178  20.736  1.00  0.00    -0.393 OA
ATOM     31  H   UNL     1      45.601   8.854  20.355  1.00  0.00     0.210 HD
ENDBRANCH  29  30
ENDBRANCH   1  11
TORSDOF 6
ENDMDL
MODEL 6
REMARK VINA RESULT:    -5.600      2.125      4.824
REMARK INTER + INTRA:          -8.971
REMARK INTER:                  -7.740
REMARK INTRA:                  -1.231
REMARK UNBOUND:                -1.571
REMARK SMILES CC[C@H](C=C[C@H](C)[C@@H]1CC[C@@H]2[C@@H]3CC=C4C[C@H](O)CC[C@@]4(C)[C@H]3CC[C@@]21C)C(C)C
REMARK SMILES IDX 6 1 7 2 5 3 4 4 3 5 2 6 1 7 28 8 29 9 30 10 8 11 9 12 26 13
REMARK SMILES IDX 10 14 11 15 25 16 27 17 12 18 24 19 23 20 13 21 21 22 14 23
REMARK SMILES IDX 15 24 20 25 22 26 16 27 19 28 17 29 18 30
REMARK H PARENT 18 31
REMARK Flexibility Score: inf
ROOT
ATOM      1  C   UNL     1      42.893  15.044  25.472  1.00  0.00     0.012 C 
ATOM      2  C   UNL     1      43.560  16.312  26.025  1.00  0.00     0.012 C 
ENDROOT
BRANCH   1   3
ATOM      3  C   UNL     1      43.504  14.770  24.113  1.00  0.00    -0.028 C 
ATOM      4  C   UNL     1      44.640  15.366  23.714  1.00  0.00    -0.027 C 
BRANCH   4   5
ATOM      5  C   UNL     1      45.331  15.059  22.399  1.00  0.00     0.014 C 
BRANCH   5   6
ATOM      6  C   UNL     1      44.918  13.660  21.870  1.00  0.00     0.004 C 
ATOM      7  C   UNL     1      46.012  12.607  22.043  1.00  0.00     0.004 C 
ENDBRANCH   5   6
BRANCH   5   8
ATOM      8  C   UNL     1      45.212  16.214  21.356  1.00  0.00    -0.011 C 
ATOM      9  C   UNL     1      43.797  16.432  20.799  1.00  0.00     0.008 C 
ATOM     10  C   UNL     1      45.764  17.535  21.916  1.00  0.00     0.008 C 
ENDBRANCH   5   8
ENDBRANCH   4   5
ENDBRANCH   1   3
BRANCH   1  11
ATOM     11  C   UNL     1      43.068  13.806  26.412  1.00  0.00     0.002 C 
ATOM     12  C   UNL     1      43.124  12.499  25.615  1.00  0.00     0.005 C 
ATOM     13  C   UNL     1      42.005  13.569  27.546  1.00  0.00    -0.026 C 
ATOM     14  C   UNL     1      42.734  11.380  26.560  1.00  0.00     0.005 C 
ATOM     15  C   UNL     1      42.010  12.015  27.761  1.00  0.00    -0.001 C 
ATOM     16  C   UNL     1      40.561  14.085  27.210  1.00  0.00     0.007 C 
ATOM     17  C   UNL     1      42.460  14.256  28.860  1.00  0.00     0.012 C 
ATOM     18  C   UNL     1      40.590  11.439  28.028  1.00  0.00     0.000 C 
ATOM     19  C   UNL     1      39.788  13.150  26.273  1.00  0.00     0.005 C 
ATOM     20  C   UNL     1      39.604  11.722  26.868  1.00  0.00     0.003 C 
ATOM     21  C   UNL     1      40.589   9.934  28.324  1.00  0.00     0.031 C 
ATOM     22  C   UNL     1      38.123  11.342  27.270  1.00  0.00    -0.008 C 
ATOM     23  C   UNL     1      39.194   9.466  28.627  1.00  0.00    -0.027 C 
ATOM     24  C   UNL     1      38.083  10.054  28.120  1.00  0.00    -0.065 C 
ATOM     25  C   UNL     1      37.439  12.465  28.117  1.00  0.00     0.014 C 
ATOM     26  C   UNL     1      37.329  11.100  25.959  1.00  0.00     0.016 C 
ATOM     27  C   UNL     1      36.734   9.617  28.646  1.00  0.00     0.063 C 
ATOM     28  C   UNL     1      36.073  12.059  28.710  1.00  0.00     0.033 C 
ATOM     29  C   UNL     1      36.148  10.743  29.506  1.00  0.00     0.118 C 
BRANCH  29  30
ATOM     30  O   UNL     1      34.864  10.370  29.937  1.00  0.00    -0.393 OA
ATOM     31  H   UNL     1      34.668   9.489  29.523  1.00  0.00     0.210 HD
ENDBRANCH  29  30
ENDBRANCH   1  11
TORSDOF 6
ENDMDL
MODEL 7
REMARK VINA RESULT:    -5.548      2.189      3.607
REMARK INTER + INTRA:          -8.903
REMARK INTER:                  -7.492
REMARK INTRA:                  -1.411
REMARK UNBOUND:                -1.571
REMARK SMILES CC[C@H](C=C[C@H](C)[C@@H]1CC[C@@H]2[C@@H]3CC=C4C[C@H](O)CC[C@@]4(C)[C@H]3CC[C@@]21C)C(C)C
REMARK SMILES IDX 6 1 7 2 5 3 4 4 3 5 2 6 1 7 28 8 29 9 30 10 8 11 9 12 26 13
REMARK SMILES IDX 10 14 11 15 25 16 27 17 12 18 24 19 23 20 13 21 21 22 14 23
REMARK SMILES IDX 15 24 20 25 22 26 16 27 19 28 17 29 18 30
REMARK H PARENT 18 31
REMARK Flexibility Score: inf
ROOT
ATOM      1  C   UNL     1      43.108  10.920  24.631  1.00  0.00     0.012 C 
ATOM      2  C   UNL     1      43.929  10.581  23.378  1.00  0.00     0.012 C 
ENDROOT
BRANCH   1   3
ATOM      3  C   UNL     1      43.858  10.365  25.824  1.00  0.00    -0.028 C 
ATOM      4  C   UNL     1      43.478   9.231  26.435  1.00  0.00    -0.027 C 
BRANCH   4   5
ATOM      5  C   UNL     1      44.248   8.596  27.577  1.00  0.00     0.014 C 
BRANCH   5   6
ATOM      6  C   UNL     1      43.334   8.390  28.813  1.00  0.00     0.004 C 
ATOM      7  C   UNL     1      42.305   9.505  28.992  1.00  0.00     0.004 C 
ENDBRANCH   5   6
BRANCH   5   8
ATOM      8  C   UNL     1      45.060   7.333  27.146  1.00  0.00    -0.011 C 
ATOM      9  C   UNL     1      44.293   6.008  27.259  1.00  0.00     0.008 C 
ATOM     10  C   UNL     1      45.630   7.491  25.727  1.00  0.00     0.008 C 
ENDBRANCH   5   8
ENDBRANCH   4   5
ENDBRANCH   1   3
BRANCH   1  11
ATOM     11  C   UNL     1      42.865  12.457  24.801  1.00  0.00     0.002 C 
ATOM     12  C   UNL     1      43.496  12.984  26.093  1.00  0.00     0.005 C 
ATOM     13  C   UNL     1      41.385  12.987  24.802  1.00  0.00    -0.026 C 
ATOM     14  C   UNL     1      42.772  14.265  26.455  1.00  0.00     0.005 C 
ATOM     15  C   UNL     1      41.439  14.282  25.686  1.00  0.00    -0.001 C 
ATOM     16  C   UNL     1      40.325  11.971  25.357  1.00  0.00     0.007 C 
ATOM     17  C   UNL     1      40.956  13.381  23.364  1.00  0.00     0.012 C 
ATOM     18  C   UNL     1      40.183  14.449  26.587  1.00  0.00     0.000 C 
ATOM     19  C   UNL     1      40.309  11.891  26.888  1.00  0.00     0.005 C 
ATOM     20  C   UNL     1      39.982  13.259  27.557  1.00  0.00     0.003 C 
ATOM     21  C   UNL     1      40.181  15.753  27.394  1.00  0.00     0.031 C 
ATOM     22  C   UNL     1      38.580  13.341  28.281  1.00  0.00    -0.008 C 
ATOM     23  C   UNL     1      38.915  15.868  28.193  1.00  0.00    -0.027 C 
ATOM     24  C   UNL     1      38.215  14.797  28.641  1.00  0.00    -0.065 C 
ATOM     25  C   UNL     1      37.423  12.793  27.381  1.00  0.00     0.014 C 
ATOM     26  C   UNL     1      38.679  12.513  29.590  1.00  0.00     0.016 C 
ATOM     27  C   UNL     1      36.859  15.034  29.266  1.00  0.00     0.063 C 
ATOM     28  C   UNL     1      36.012  13.042  27.955  1.00  0.00     0.033 C 
ATOM     29  C   UNL     1      35.775  14.521  28.310  1.00  0.00     0.118 C 
BRANCH  29  30
ATOM     30  O   UNL     1      34.518  14.673  28.917  1.00  0.00    -0.393 OA
ATOM     31  H   UNL     1      34.439  13.952  29.594  1.00  0.00     0.210 HD
ENDBRANCH  29  30
ENDBRANCH   1  11
TORSDOF 6
ENDMDL
MODEL 8
REMARK VINA RESULT:    -5.521      3.128      8.313
REMARK INTER + INTRA:          -8.867
REMARK INTER:                  -7.198
REMARK INTRA:                  -1.670
REMARK UNBOUND:                -1.571
REMARK SMILES CC[C@H](C=C[C@H](C)[C@@H]1CC[C@@H]2[C@@H]3CC=C4C[C@H](O)CC[C@@]4(C)[C@H]3CC[C@@]21C)C(C)C
REMARK SMILES IDX 6 1 7 2 5 3 4 4 3 5 2 6 1 7 28 8 29 9 30 10 8 11 9 12 26 13
REMARK SMILES IDX 10 14 11 15 25 16 27 17 12 18 24 19 23 20 13 21 21 22 14 23
REMARK SMILES IDX 15 24 20 25 22 26 16 27 19 28 17 29 18 30
REMARK H PARENT 18 31
REMARK Flexibility Score: inf
ROOT
ATOM      1  C   UNL     1      37.408  11.636  28.297  1.00  0.00     0.012 C 
ATOM      2  C   UNL     1      36.386  10.584  28.753  1.00  0.00     0.012 C 
ENDROOT
BRANCH   1   3
ATOM      3  C   UNL     1      37.198  12.867  29.154  1.00  0.00    -0.028 C 
ATOM      4  C   UNL     1      37.232  14.106  28.635  1.00  0.00    -0.027 C 
BRANCH   4   5
ATOM      5  C   UNL     1      36.945  15.359  29.439  1.00  0.00     0.014 C 
BRANCH   5   6
ATOM      6  C   UNL     1      38.245  16.165  29.692  1.00  0.00     0.004 C 
ATOM      7  C   UNL     1      39.411  15.717  28.810  1.00  0.00     0.004 C 
ENDBRANCH   5   6
BRANCH   5   8
ATOM      8  C   UNL     1      35.756  16.197  28.870  1.00  0.00    -0.011 C 
ATOM      9  C   UNL     1      36.159  17.546  28.256  1.00  0.00     0.008 C 
ATOM     10  C   UNL     1      34.932  15.386  27.858  1.00  0.00     0.008 C 
ENDBRANCH   5   8
ENDBRANCH   4   5
ENDBRANCH   1   3
BRANCH   1  11
ATOM     11  C   UNL     1      38.886  11.136  28.407  1.00  0.00     0.002 C 
ATOM     12  C   UNL     1      39.700  12.000  29.374  1.00  0.00     0.005 C 
ATOM     13  C   UNL     1      39.745  11.038  27.094  1.00  0.00    -0.026 C 
ATOM     14  C   UNL     1      41.161  11.827  29.009  1.00  0.00     0.005 C 
ATOM     15  C   UNL     1      41.220  11.254  27.581  1.00  0.00    -0.001 C 
ATOM     16  C   UNL     1      39.363  12.078  25.981  1.00  0.00     0.007 C 
ATOM     17  C   UNL     1      39.625   9.620  26.479  1.00  0.00     0.012 C 
ATOM     18  C   UNL     1      42.065  12.101  26.587  1.00  0.00     0.000 C 
ATOM     19  C   UNL     1      39.914  13.482  26.252  1.00  0.00     0.005 C 
ATOM     20  C   UNL     1      41.469  13.509  26.347  1.00  0.00     0.003 C 
ATOM     21  C   UNL     1      43.533  12.250  27.008  1.00  0.00     0.031 C 
ATOM     22  C   UNL     1      42.206  14.248  25.160  1.00  0.00    -0.008 C 
ATOM     23  C   UNL     1      44.293  13.029  25.973  1.00  0.00    -0.027 C 
ATOM     24  C   UNL     1      43.723  13.964  25.175  1.00  0.00    -0.065 C 
ATOM     25  C   UNL     1      41.672  13.790  23.762  1.00  0.00     0.014 C 
ATOM     26  C   UNL     1      41.982  15.773  25.346  1.00  0.00     0.016 C 
ATOM     27  C   UNL     1      44.544  14.542  24.044  1.00  0.00     0.063 C 
ATOM     28  C   UNL     1      42.497  14.324  22.571  1.00  0.00     0.033 C 
ATOM     29  C   UNL     1      43.999  14.012  22.713  1.00  0.00     0.118 C 
BRANCH  29  30
ATOM     30  O   UNL     1      44.711  14.603  21.657  1.00  0.00    -0.393 OA
ATOM     31  H   UNL     1      44.049  14.819  20.950  1.00  0.00     0.210 HD
ENDBRANCH  29  30
ENDBRANCH   1  11
TORSDOF 6
ENDMDL
MODEL 9
REMARK VINA RESULT:    -5.489      3.105      7.634
REMARK INTER + INTRA:          -8.825
REMARK INTER:                  -7.318
REMARK INTRA:                  -1.506
REMARK UNBOUND:                -1.571
REMARK SMILES CC[C@H](C=C[C@H](C)[C@@H]1CC[C@@H]2[C@@H]3CC=C4C[C@H](O)CC[C@@]4(C)[C@H]3CC[C@@]21C)C(C)C
REMARK SMILES IDX 6 1 7 2 5 3 4 4 3 5 2 6 1 7 28 8 29 9 30 10 8 11 9 12 26 13
REMARK SMILES IDX 10 14 11 15 25 16 27 17 12 18 24 19 23 20 13 21 21 22 14 23
REMARK SMILES IDX 15 24 20 25 22 26 16 27 19 28 17 29 18 30
REMARK H PARENT 18 31
REMARK Flexibility Score: inf
ROOT
ATOM      1  C   UNL     1      40.425   9.168  28.959  1.00  0.00     0.012 C 
ATOM      2  C   UNL     1      40.454   8.115  30.076  1.00  0.00     0.012 C 
ENDROOT
BRANCH   1   3
ATOM      3  C   UNL     1      39.017   9.723  28.901  1.00  0.00    -0.028 C 
ATOM      4  C   UNL     1      38.239   9.572  27.817  1.00  0.00    -0.027 C 
BRANCH   4   5
ATOM      5  C   UNL     1      36.797  10.037  27.747  1.00  0.00     0.014 C 
BRANCH   5   6
ATOM      6  C   UNL     1      36.651  11.250  26.791  1.00  0.00     0.004 C 
ATOM      7  C   UNL     1      37.925  11.546  26.000  1.00  0.00     0.004 C 
ENDBRANCH   5   6
BRANCH   5   8
ATOM      8  C   UNL     1      35.786   8.875  27.489  1.00  0.00    -0.011 C 
ATOM      9  C   UNL     1      34.366   9.133  28.012  1.00  0.00     0.008 C 
ATOM     10  C   UNL     1      35.736   8.496  26.000  1.00  0.00     0.008 C 
ENDBRANCH   5   8
ENDBRANCH   4   5
ENDBRANCH   1   3
BRANCH   1  11
ATOM     11  C   UNL     1      41.460  10.320  29.181  1.00  0.00     0.002 C 
ATOM     12  C   UNL     1      40.771  11.685  29.265  1.00  0.00     0.005 C 
ATOM     13  C   UNL     1      42.626  10.493  28.140  1.00  0.00    -0.026 C 
ATOM     14  C   UNL     1      41.810  12.733  28.919  1.00  0.00     0.005 C 
ATOM     15  C   UNL     1      42.966  12.023  28.192  1.00  0.00    -0.001 C 
ATOM     16  C   UNL     1      42.270  10.046  26.677  1.00  0.00     0.007 C 
ATOM     17  C   UNL     1      43.872   9.688  28.592  1.00  0.00     0.012 C 
ATOM     18  C   UNL     1      43.300  12.614  26.793  1.00  0.00     0.000 C 
ATOM     19  C   UNL     1      41.424  11.075  25.920  1.00  0.00     0.005 C 
ATOM     20  C   UNL     1      42.136  12.454  25.785  1.00  0.00     0.003 C 
ATOM     21  C   UNL     1      43.718  14.089  26.839  1.00  0.00     0.031 C 
ATOM     22  C   UNL     1      42.590  12.841  24.321  1.00  0.00    -0.008 C 
ATOM     23  C   UNL     1      44.078  14.569  25.462  1.00  0.00    -0.027 C 
ATOM     24  C   UNL     1      43.542  14.056  24.328  1.00  0.00    -0.065 C 
ATOM     25  C   UNL     1      43.353  11.671  23.616  1.00  0.00     0.014 C 
ATOM     26  C   UNL     1      41.314  13.211  23.517  1.00  0.00     0.016 C 
ATOM     27  C   UNL     1      44.122  14.485  22.999  1.00  0.00     0.063 C 
ATOM     28  C   UNL     1      43.997  12.065  22.269  1.00  0.00     0.033 C 
ATOM     29  C   UNL     1      44.896  13.310  22.392  1.00  0.00     0.118 C 
BRANCH  29  30
ATOM     30  O   UNL     1      45.376  13.681  21.125  1.00  0.00    -0.393 OA
ATOM     31  H   UNL     1      44.579  13.842  20.554  1.00  0.00     0.210 HD
ENDBRANCH  29  30
ENDBRANCH   1  11
TORSDOF 6
ENDMDL
