MODEL 1
REMARK VINA RESULT:     4.865      0.000      0.000
REMARK INTER + INTRA:           6.394
REMARK INTER:                   5.860
REMARK INTRA:                   0.533
REMARK UNBOUND:                 0.533
REMARK SMILES O=c1c(O)c(-c2ccc(O)c(O)c2)oc2cc(O)cc(O)c12
REMARK SMILES IDX 5 1 3 2 2 3 1 4 22 5 20 6 19 7 17 8 16 9 15 10 14 11 6 12
REMARK SMILES IDX 7 13 8 14 9 15 13 16 11 17 10 18 12 20 4 22 21 24 18 26
REMARK H PARENT 10 19 12 21 4 23 21 25 18 27
REMARK Flexibility Score: inf
ROOT
ATOM      1  C   UNL     1     -20.022 -21.084 -26.925  1.00  0.00     0.180 A 
ATOM      2  C   UNL     1     -20.153 -19.907 -26.161  1.00  0.00     0.208 A 
ATOM      3  C   UNL     1     -20.184 -20.007 -24.761  1.00  0.00     0.238 A 
ATOM      4  O   UNL     1     -20.290 -18.961 -24.067  1.00  0.00    -0.285 OA
ATOM      5  C   UNL     1     -20.105 -21.276 -24.152  1.00  0.00     0.111 A 
ATOM      6  C   UNL     1     -20.133 -21.464 -22.748  1.00  0.00     0.134 A 
ATOM      7  C   UNL     1     -20.058 -22.761 -22.218  1.00  0.00     0.093 A 
ATOM      8  C   UNL     1     -19.956 -23.870 -23.061  1.00  0.00     0.123 A 
ATOM      9  C   UNL     1     -19.928 -23.691 -24.447  1.00  0.00     0.094 A 
ATOM     10  C   UNL     1     -19.999 -22.406 -24.996  1.00  0.00     0.146 A 
ATOM     11  O   UNL     1     -19.964 -22.264 -26.316  1.00  0.00    -0.452 OA
ENDROOT
BRANCH   1  12
ATOM     12  C   UNL     1     -19.962 -21.058 -28.404  1.00  0.00     0.025 A 
ATOM     13  C   UNL     1     -19.981 -22.244 -29.158  1.00  0.00     0.016 A 
ATOM     14  C   UNL     1     -19.948 -22.193 -30.554  1.00  0.00     0.051 A 
ATOM     15  C   UNL     1     -19.910 -20.963 -31.218  1.00  0.00     0.157 A 
ATOM     16  C   UNL     1     -19.944 -19.823 -29.073  1.00  0.00     0.062 A 
ATOM     17  C   UNL     1     -19.911 -19.770 -30.474  1.00  0.00     0.158 A 
BRANCH  15  18
ATOM     18  O   UNL     1     -19.875 -20.945 -32.611  1.00  0.00    -0.504 OA
ATOM     19  H   UNL     1     -20.224 -20.159 -33.147  1.00  0.00     0.293 HD
ENDBRANCH  15  18
BRANCH  17  20
ATOM     20  O   UNL     1     -19.880 -18.540 -31.129  1.00  0.00    -0.504 OA
ATOM     21  H   UNL     1     -20.483 -17.774 -30.849  1.00  0.00     0.293 HD
ENDBRANCH  17  20
ENDBRANCH   1  12
BRANCH   2  22
ATOM     22  O   UNL     1     -20.279 -18.667 -26.791  1.00  0.00    -0.502 OA
ATOM     23  H   UNL     1     -19.561 -17.955 -26.737  1.00  0.00     0.293 HD
ENDBRANCH   2  22
BRANCH   6  24
ATOM     24  O   UNL     1     -20.235 -20.376 -21.880  1.00  0.00    -0.507 OA
ATOM     25  H   UNL     1     -20.309 -19.426 -22.224  1.00  0.00     0.293 HD
ENDBRANCH   6  24
BRANCH   8  26
ATOM     26  O   UNL     1     -19.885 -25.147 -22.509  1.00  0.00    -0.508 OA
ATOM     27  H   UNL     1     -20.469 -25.904 -22.846  1.00  0.00     0.293 HD
ENDBRANCH   8  26
TORSDOF 6
ENDMDL
MODEL 2
REMARK VINA RESULT:     5.840     21.698     24.003
REMARK INTER + INTRA:           7.568
REMARK INTER:                   7.107
REMARK INTRA:                   0.461
REMARK UNBOUND:                 0.533
REMARK SMILES O=c1c(O)c(-c2ccc(O)c(O)c2)oc2cc(O)cc(O)c12
REMARK SMILES IDX 5 1 3 2 2 3 1 4 22 5 20 6 19 7 17 8 16 9 15 10 14 11 6 12
REMARK SMILES IDX 7 13 8 14 9 15 13 16 11 17 10 18 12 20 4 22 21 24 18 26
REMARK H PARENT 10 19 12 21 4 23 21 25 18 27
REMARK Flexibility Score: inf
ROOT
ATOM      1  C   UNL     1     -35.140 -36.062 -35.183  1.00  0.00     0.180 A 
ATOM      2  C   UNL     1     -36.485 -36.044 -34.764  1.00  0.00     0.208 A 
ATOM      3  C   UNL     1     -37.499 -36.069 -35.736  1.00  0.00     0.238 A 
ATOM      4  O   UNL     1     -38.706 -36.065 -35.373  1.00  0.00    -0.285 OA
ATOM      5  C   UNL     1     -37.153 -36.091 -37.102  1.00  0.00     0.111 A 
ATOM      6  C   UNL     1     -38.113 -36.113 -38.144  1.00  0.00     0.134 A 
ATOM      7  C   UNL     1     -37.689 -36.125 -39.481  1.00  0.00     0.093 A 
ATOM      8  C   UNL     1     -36.329 -36.114 -39.797  1.00  0.00     0.123 A 
ATOM      9  C   UNL     1     -35.376 -36.092 -38.773  1.00  0.00     0.094 A 
ATOM     10  C   UNL     1     -35.778 -36.082 -37.434  1.00  0.00     0.146 A 
ATOM     11  O   UNL     1     -34.853 -36.068 -36.481  1.00  0.00    -0.452 OA
ENDROOT
BRANCH   1  12
ATOM     12  C   UNL     1     -34.017 -36.056 -34.220  1.00  0.00     0.025 A 
ATOM     13  C   UNL     1     -34.241 -36.106 -32.833  1.00  0.00     0.016 A 
ATOM     14  C   UNL     1     -33.164 -36.124 -31.944  1.00  0.00     0.051 A 
ATOM     15  C   UNL     1     -31.849 -36.108 -32.422  1.00  0.00     0.157 A 
ATOM     16  C   UNL     1     -32.696 -36.060 -34.699  1.00  0.00     0.062 A 
ATOM     17  C   UNL     1     -31.613 -36.079 -33.807  1.00  0.00     0.158 A 
BRANCH  15  18
ATOM     18  O   UNL     1     -30.795 -36.125 -31.510  1.00  0.00    -0.504 OA
ATOM     19  H   UNL     1     -29.829 -36.186 -31.807  1.00  0.00     0.293 HD
ENDBRANCH  15  18
BRANCH  17  20
ATOM     20  O   UNL     1     -30.306 -36.070 -34.292  1.00  0.00    -0.504 OA
ATOM     21  H   UNL     1     -30.106 -35.916 -35.274  1.00  0.00     0.293 HD
ENDBRANCH  17  20
ENDBRANCH   1  12
BRANCH   2  22
ATOM     22  O   UNL     1     -36.801 -35.973 -33.406  1.00  0.00    -0.502 OA
ATOM     23  H   UNL     1     -36.474 -35.220 -32.812  1.00  0.00     0.293 HD
ENDBRANCH   2  22
BRANCH   6  24
ATOM     24  O   UNL     1     -39.479 -36.123 -37.860  1.00  0.00    -0.507 OA
ATOM     25  H   UNL     1     -40.174 -36.232 -38.590  1.00  0.00     0.293 HD
ENDBRANCH   6  24
BRANCH   8  26
ATOM     26  O   UNL     1     -35.935 -36.125 -41.133  1.00  0.00    -0.508 OA
ATOM     27  H   UNL     1     -36.203 -36.876 -41.759  1.00  0.00     0.293 HD
ENDBRANCH   8  26
TORSDOF 6
ENDMDL
MODEL 3
REMARK VINA RESULT:     6.280      1.514      3.387
REMARK INTER + INTRA:           8.099
REMARK INTER:                   7.692
REMARK INTRA:                   0.406
REMARK UNBOUND:                 0.533
REMARK SMILES O=c1c(O)c(-c2ccc(O)c(O)c2)oc2cc(O)cc(O)c12
REMARK SMILES IDX 5 1 3 2 2 3 1 4 22 5 20 6 19 7 17 8 16 9 15 10 14 11 6 12
REMARK SMILES IDX 7 13 8 14 9 15 13 16 11 17 10 18 12 20 4 22 21 24 18 26
REMARK H PARENT 10 19 12 21 4 23 21 25 18 27
REMARK Flexibility Score: inf
ROOT
ATOM      1  C   UNL     1     -20.290 -20.623 -27.034  1.00  0.00     0.180 A 
ATOM      2  C   UNL     1     -20.166 -21.655 -26.084  1.00  0.00     0.208 A 
ATOM      3  C   UNL     1     -20.308 -21.344 -24.722  1.00  0.00     0.238 A 
ATOM      4  O   UNL     1     -20.210 -22.262 -23.863  1.00  0.00    -0.285 OA
ATOM      5  C   UNL     1     -20.551 -20.011 -24.334  1.00  0.00     0.111 A 
ATOM      6  C   UNL     1     -20.704 -19.613 -22.983  1.00  0.00     0.134 A 
ATOM      7  C   UNL     1     -20.934 -18.264 -22.677  1.00  0.00     0.093 A 
ATOM      8  C   UNL     1     -21.015 -17.307 -23.691  1.00  0.00     0.123 A 
ATOM      9  C   UNL     1     -20.865 -17.694 -25.027  1.00  0.00     0.094 A 
ATOM     10  C   UNL     1     -20.636 -19.034 -25.353  1.00  0.00     0.146 A 
ATOM     11  O   UNL     1     -20.504 -19.375 -26.630  1.00  0.00    -0.452 OA
ENDROOT
BRANCH   1  12
ATOM     12  C   UNL     1     -20.171 -20.875 -28.488  1.00  0.00     0.025 A 
ATOM     13  C   UNL     1     -20.212 -22.179 -29.011  1.00  0.00     0.016 A 
ATOM     14  C   UNL     1     -20.122 -22.390 -30.389  1.00  0.00     0.051 A 
ATOM     15  C   UNL     1     -20.006 -21.306 -31.266  1.00  0.00     0.157 A 
ATOM     16  C   UNL     1     -20.074 -19.787 -29.372  1.00  0.00     0.062 A 
ATOM     17  C   UNL     1     -19.984 -19.997 -30.755  1.00  0.00     0.158 A 
BRANCH  15  18
ATOM     18  O   UNL     1     -19.916 -21.549 -32.636  1.00  0.00    -0.504 OA
ATOM     19  H   UNL     1     -20.307 -22.380 -33.061  1.00  0.00     0.293 HD
ENDBRANCH  15  18
BRANCH  17  20
ATOM     20  O   UNL     1     -19.875 -18.911 -31.624  1.00  0.00    -0.504 OA
ATOM     21  H   UNL     1     -19.754 -19.041 -32.622  1.00  0.00     0.293 HD
ENDBRANCH  17  20
ENDBRANCH   1  12
BRANCH   2  22
ATOM     22  O   UNL     1     -19.876 -22.959 -26.491  1.00  0.00    -0.502 OA
ATOM     23  H   UNL     1     -19.136 -23.170 -27.150  1.00  0.00     0.293 HD
ENDBRANCH   2  22
BRANCH   6  24
ATOM     24  O   UNL     1     -20.627 -20.545 -21.947  1.00  0.00    -0.507 OA
ATOM     25  H   UNL     1     -20.719 -20.271 -20.976  1.00  0.00     0.293 HD
ENDBRANCH   6  24
BRANCH   8  26
ATOM     26  O   UNL     1     -21.243 -15.973 -23.359  1.00  0.00    -0.508 OA
ATOM     27  H   UNL     1     -22.147 -15.657 -23.026  1.00  0.00     0.293 HD
ENDBRANCH   8  26
TORSDOF 6
ENDMDL
