MODEL 1
REMARK VINA RESULT:    -3.852      0.000      0.000
REMARK INTER + INTRA:          -5.560
REMARK INTER:                  -5.204
REMARK INTRA:                  -0.356
REMARK UNBOUND:                -0.356
REMARK SMILES CCCCCCCC(=O)[O-]
REMARK SMILES IDX 5 1 6 2 7 3 8 4 9 5 10 6 4 7 3 8 2 9 1 10
REMARK H PARENT
REMARK Flexibility Score: inf
ROOT
ATOM      1  C   UNL     1      74.230  81.828  74.311  1.00  0.00     0.000 C 
ENDROOT
BRANCH   1   2
ATOM      2  C   UNL     1      74.432  83.208  74.962  1.00  0.00     0.006 C 
BRANCH   2   3
ATOM      3  C   UNL     1      75.749  83.311  75.741  1.00  0.00     0.053 C 
BRANCH   3   4
ATOM      4  C   UNL     1      76.778  84.034  74.931  1.00  0.00     0.041 C 
ATOM      5  O   UNL     1      76.741  85.289  74.832  1.00  0.00    -0.550 OA
ATOM      6  O   UNL     1      77.809  83.327  74.325  1.00  0.00    -0.550 OA
ENDBRANCH   3   4
ENDBRANCH   2   3
ENDBRANCH   1   2
BRANCH   1   7
ATOM      7  C   UNL     1      72.775  81.316  74.301  1.00  0.00     0.000 C 
BRANCH   7   8
ATOM      8  C   UNL     1      71.702  82.391  74.546  1.00  0.00    -0.000 C 
BRANCH   8   9
ATOM      9  C   UNL     1      70.723  82.012  75.667  1.00  0.00    -0.003 C 
ATOM     10  C   UNL     1      71.192  82.555  77.013  1.00  0.00     0.004 C 
ENDBRANCH   8   9
ENDBRANCH   7   8
ENDBRANCH   1   7
TORSDOF 6
ENDMDL
MODEL 2
REMARK VINA RESULT:    -3.816      3.344      4.323
REMARK INTER + INTRA:          -5.511
REMARK INTER:                  -5.276
REMARK INTRA:                  -0.235
REMARK UNBOUND:                -0.356
REMARK SMILES CCCCCCCC(=O)[O-]
REMARK SMILES IDX 5 1 6 2 7 3 8 4 9 5 10 6 4 7 3 8 2 9 1 10
REMARK H PARENT
REMARK Flexibility Score: inf
ROOT
ATOM      1  C   UNL     1      77.075  81.919  77.799  1.00  0.00     0.000 C 
ENDROOT
BRANCH   1   2
ATOM      2  C   UNL     1      77.207  81.921  76.265  1.00  0.00     0.006 C 
BRANCH   2   3
ATOM      3  C   UNL     1      76.286  82.947  75.592  1.00  0.00     0.053 C 
BRANCH   3   4
ATOM      4  C   UNL     1      77.096  84.019  74.932  1.00  0.00     0.041 C 
ATOM      5  O   UNL     1      76.668  85.203  74.892  1.00  0.00    -0.550 OA
ATOM      6  O   UNL     1      78.346  83.721  74.404  1.00  0.00    -0.550 OA
ENDBRANCH   3   4
ENDBRANCH   2   3
ENDBRANCH   1   2
BRANCH   1   7
ATOM      7  C   UNL     1      75.628  81.899  78.331  1.00  0.00     0.000 C 
BRANCH   7   8
ATOM      8  C   UNL     1      75.150  80.541  78.876  1.00  0.00    -0.000 C 
BRANCH   8   9
ATOM      9  C   UNL     1      76.138  79.919  79.874  1.00  0.00    -0.003 C 
ATOM     10  C   UNL     1      75.482  79.706  81.235  1.00  0.00     0.004 C 
ENDBRANCH   8   9
ENDBRANCH   7   8
ENDBRANCH   1   7
TORSDOF 6
ENDMDL
MODEL 3
REMARK VINA RESULT:    -3.762      2.712      4.481
REMARK INTER + INTRA:          -5.438
REMARK INTER:                  -5.110
REMARK INTRA:                  -0.328
REMARK UNBOUND:                -0.356
REMARK SMILES CCCCCCCC(=O)[O-]
REMARK SMILES IDX 5 1 6 2 7 3 8 4 9 5 10 6 4 7 3 8 2 9 1 10
REMARK H PARENT
REMARK Flexibility Score: inf
ROOT
ATOM      1  C   UNL     1      74.882  81.988  77.107  1.00  0.00     0.000 C 
ENDROOT
BRANCH   1   2
ATOM      2  C   UNL     1      75.324  83.198  76.265  1.00  0.00     0.006 C 
BRANCH   2   3
ATOM      3  C   UNL     1      76.315  82.821  75.157  1.00  0.00     0.053 C 
BRANCH   3   4
ATOM      4  C   UNL     1      77.194  83.986  74.824  1.00  0.00     0.041 C 
ATOM      5  O   UNL     1      78.393  83.801  74.488  1.00  0.00    -0.550 OA
ATOM      6  O   UNL     1      76.673  85.274  74.837  1.00  0.00    -0.550 OA
ENDBRANCH   3   4
ENDBRANCH   2   3
ENDBRANCH   1   2
BRANCH   1   7
ATOM      7  C   UNL     1      75.531  81.890  78.503  1.00  0.00     0.000 C 
BRANCH   7   8
ATOM      8  C   UNL     1      75.974  80.476  78.919  1.00  0.00    -0.000 C 
BRANCH   8   9
ATOM      9  C   UNL     1      77.500  80.315  78.949  1.00  0.00    -0.003 C 
ATOM     10  C   UNL     1      78.198  81.616  78.564  1.00  0.00     0.004 C 
ENDBRANCH   8   9
ENDBRANCH   7   8
ENDBRANCH   1   7
TORSDOF 6
ENDMDL
MODEL 4
REMARK VINA RESULT:    -3.697      1.706      2.694
REMARK INTER + INTRA:          -5.349
REMARK INTER:                  -4.880
REMARK INTRA:                  -0.470
REMARK UNBOUND:                -0.356
REMARK SMILES CCCCCCCC(=O)[O-]
REMARK SMILES IDX 5 1 6 2 7 3 8 4 9 5 10 6 4 7 3 8 2 9 1 10
REMARK H PARENT
REMARK Flexibility Score: inf
ROOT
ATOM      1  C   UNL     1      75.797  82.577  77.361  1.00  0.00     0.000 C 
ENDROOT
BRANCH   1   2
ATOM      2  C   UNL     1      76.660  82.015  76.216  1.00  0.00     0.006 C 
BRANCH   2   3
ATOM      3  C   UNL     1      76.407  82.724  74.879  1.00  0.00     0.053 C 
BRANCH   3   4
ATOM      4  C   UNL     1      77.263  83.946  74.768  1.00  0.00     0.041 C 
ATOM      5  O   UNL     1      78.493  83.839  74.521  1.00  0.00    -0.550 OA
ATOM      6  O   UNL     1      76.692  85.207  74.888  1.00  0.00    -0.550 OA
ENDBRANCH   3   4
ENDBRANCH   2   3
ENDBRANCH   1   2
BRANCH   1   7
ATOM      7  C   UNL     1      74.806  81.574  77.986  1.00  0.00     0.000 C 
BRANCH   7   8
ATOM      8  C   UNL     1      73.597  81.214  77.104  1.00  0.00    -0.000 C 
BRANCH   8   9
ATOM      9  C   UNL     1      72.727  82.432  76.761  1.00  0.00    -0.003 C 
ATOM     10  C   UNL     1      72.732  82.707  75.260  1.00  0.00     0.004 C 
ENDBRANCH   8   9
ENDBRANCH   7   8
ENDBRANCH   1   7
TORSDOF 6
ENDMDL
MODEL 5
REMARK VINA RESULT:    -3.657      2.801      3.642
REMARK INTER + INTRA:          -5.296
REMARK INTER:                  -5.020
REMARK INTRA:                  -0.276
REMARK UNBOUND:                -0.356
REMARK SMILES CCCCCCCC(=O)[O-]
REMARK SMILES IDX 5 1 6 2 7 3 8 4 9 5 10 6 4 7 3 8 2 9 1 10
REMARK H PARENT
REMARK Flexibility Score: inf
ROOT
ATOM      1  C   UNL     1      74.970  81.173  76.257  1.00  0.00     0.000 C 
ENDROOT
BRANCH   1   2
ATOM      2  C   UNL     1      74.868  82.158  75.078  1.00  0.00     0.006 C 
BRANCH   2   3
ATOM      3  C   UNL     1      75.154  83.608  75.489  1.00  0.00     0.053 C 
BRANCH   3   4
ATOM      4  C   UNL     1      76.448  84.072  74.898  1.00  0.00     0.041 C 
ATOM      5  O   UNL     1      76.745  85.295  74.901  1.00  0.00    -0.550 OA
ATOM      6  O   UNL     1      77.350  83.145  74.389  1.00  0.00    -0.550 OA
ENDBRANCH   3   4
ENDBRANCH   2   3
ENDBRANCH   1   2
BRANCH   1   7
ATOM      7  C   UNL     1      74.440  81.708  77.603  1.00  0.00     0.000 C 
BRANCH   7   8
ATOM      8  C   UNL     1      75.489  81.804  78.725  1.00  0.00    -0.000 C 
BRANCH   8   9
ATOM      9  C   UNL     1      76.102  80.444  79.087  1.00  0.00    -0.003 C 
ATOM     10  C   UNL     1      75.467  79.873  80.352  1.00  0.00     0.004 C 
ENDBRANCH   8   9
ENDBRANCH   7   8
ENDBRANCH   1   7
TORSDOF 6
ENDMDL
MODEL 6
REMARK VINA RESULT:    -3.620      3.385      5.739
REMARK INTER + INTRA:          -5.245
REMARK INTER:                  -4.791
REMARK INTRA:                  -0.454
REMARK UNBOUND:                -0.356
REMARK SMILES CCCCCCCC(=O)[O-]
REMARK SMILES IDX 5 1 6 2 7 3 8 4 9 5 10 6 4 7 3 8 2 9 1 10
REMARK H PARENT
REMARK Flexibility Score: inf
ROOT
ATOM      1  C   UNL     1      76.811  82.144  78.011  1.00  0.00     0.000 C 
ENDROOT
BRANCH   1   2
ATOM      2  C   UNL     1      76.199  81.949  76.613  1.00  0.00     0.006 C 
BRANCH   2   3
ATOM      3  C   UNL     1      76.966  82.700  75.518  1.00  0.00     0.053 C 
BRANCH   3   4
ATOM      4  C   UNL     1      76.183  83.890  75.057  1.00  0.00     0.041 C 
ATOM      5  O   UNL     1      74.939  83.802  74.882  1.00  0.00    -0.550 OA
ATOM      6  O   UNL     1      76.821  85.110  74.867  1.00  0.00    -0.550 OA
ENDBRANCH   3   4
ENDBRANCH   2   3
ENDBRANCH   1   2
BRANCH   1   7
ATOM      7  C   UNL     1      77.699  80.984  78.505  1.00  0.00     0.000 C 
BRANCH   7   8
ATOM      8  C   UNL     1      79.211  81.270  78.499  1.00  0.00    -0.000 C 
BRANCH   8   9
ATOM      9  C   UNL     1      79.866  80.989  77.139  1.00  0.00    -0.003 C 
ATOM     10  C   UNL     1      80.515  82.247  76.571  1.00  0.00     0.004 C 
ENDBRANCH   8   9
ENDBRANCH   7   8
ENDBRANCH   1   7
TORSDOF 6
ENDMDL
MODEL 7
REMARK VINA RESULT:    -3.579      3.313      4.648
REMARK INTER + INTRA:          -5.190
REMARK INTER:                  -4.741
REMARK INTRA:                  -0.449
REMARK UNBOUND:                -0.356
REMARK SMILES CCCCCCCC(=O)[O-]
REMARK SMILES IDX 5 1 6 2 7 3 8 4 9 5 10 6 4 7 3 8 2 9 1 10
REMARK H PARENT
REMARK Flexibility Score: inf
ROOT
ATOM      1  C   UNL     1      78.190  81.219  76.160  1.00  0.00     0.000 C 
ENDROOT
BRANCH   1   2
ATOM      2  C   UNL     1      78.066  82.459  75.257  1.00  0.00     0.006 C 
BRANCH   2   3
ATOM      3  C   UNL     1      76.634  82.688  74.755  1.00  0.00     0.053 C 
BRANCH   3   4
ATOM      4  C   UNL     1      76.140  84.034  75.185  1.00  0.00     0.041 C 
ATOM      5  O   UNL     1      75.141  84.131  75.944  1.00  0.00    -0.550 OA
ATOM      6  O   UNL     1      76.815  85.181  74.786  1.00  0.00    -0.550 OA
ENDBRANCH   3   4
ENDBRANCH   2   3
ENDBRANCH   1   2
BRANCH   1   7
ATOM      7  C   UNL     1      78.863  81.470  77.525  1.00  0.00     0.000 C 
BRANCH   7   8
ATOM      8  C   UNL     1      77.959  81.246  78.751  1.00  0.00    -0.000 C 
BRANCH   8   9
ATOM      9  C   UNL     1      76.557  80.744  78.374  1.00  0.00    -0.003 C 
ATOM     10  C   UNL     1      75.501  81.813  78.641  1.00  0.00     0.004 C 
ENDBRANCH   8   9
ENDBRANCH   7   8
ENDBRANCH   1   7
TORSDOF 6
ENDMDL
MODEL 8
REMARK VINA RESULT:    -3.543      3.631      6.546
REMARK INTER + INTRA:          -5.142
REMARK INTER:                  -4.880
REMARK INTRA:                  -0.263
REMARK UNBOUND:                -0.356
REMARK SMILES CCCCCCCC(=O)[O-]
REMARK SMILES IDX 5 1 6 2 7 3 8 4 9 5 10 6 4 7 3 8 2 9 1 10
REMARK H PARENT
REMARK Flexibility Score: inf
ROOT
ATOM      1  C   UNL     1      79.307  82.117  74.070  1.00  0.00     0.000 C 
ENDROOT
BRANCH   1   2
ATOM      2  C   UNL     1      78.578  83.362  74.605  1.00  0.00     0.006 C 
BRANCH   2   3
ATOM      3  C   UNL     1      77.251  83.023  75.296  1.00  0.00     0.053 C 
BRANCH   3   4
ATOM      4  C   UNL     1      76.238  84.092  75.030  1.00  0.00     0.041 C 
ATOM      5  O   UNL     1      76.600  85.290  74.894  1.00  0.00    -0.550 OA
ATOM      6  O   UNL     1      74.897  83.757  74.884  1.00  0.00    -0.550 OA
ENDBRANCH   3   4
ENDBRANCH   2   3
ENDBRANCH   1   2
BRANCH   1   7
ATOM      7  C   UNL     1      80.784  81.991  74.495  1.00  0.00     0.000 C 
BRANCH   7   8
ATOM      8  C   UNL     1      81.130  82.626  75.853  1.00  0.00    -0.000 C 
BRANCH   8   9
ATOM      9  C   UNL     1      80.687  81.763  77.044  1.00  0.00    -0.003 C 
ATOM     10  C   UNL     1      81.891  81.210  77.801  1.00  0.00     0.004 C 
ENDBRANCH   8   9
ENDBRANCH   7   8
ENDBRANCH   1   7
TORSDOF 6
ENDMDL
MODEL 9
REMARK VINA RESULT:    -3.205      2.908      3.162
REMARK INTER + INTRA:          -4.685
REMARK INTER:                  -4.204
REMARK INTRA:                  -0.481
REMARK UNBOUND:                -0.356
REMARK SMILES CCCCCCCC(=O)[O-]
REMARK SMILES IDX 5 1 6 2 7 3 8 4 9 5 10 6 4 7 3 8 2 9 1 10
REMARK H PARENT
REMARK Flexibility Score: inf
ROOT
ATOM      1  C   UNL     1      74.626  82.337  75.042  1.00  0.00     0.000 C 
ENDROOT
BRANCH   1   2
ATOM      2  C   UNL     1      74.963  81.250  76.078  1.00  0.00     0.006 C 
BRANCH   2   3
ATOM      3  C   UNL     1      74.341  81.527  77.453  1.00  0.00     0.053 C 
BRANCH   3   4
ATOM      4  C   UNL     1      75.412  81.671  78.489  1.00  0.00     0.041 C 
ATOM      5  O   UNL     1      76.261  82.595  78.399  1.00  0.00    -0.550 OA
ATOM      6  O   UNL     1      75.441  80.812  79.581  1.00  0.00    -0.550 OA
ENDBRANCH   3   4
ENDBRANCH   2   3
ENDBRANCH   1   2
BRANCH   1   7
ATOM      7  C   UNL     1      73.348  83.149  75.338  1.00  0.00     0.000 C 
BRANCH   7   8
ATOM      8  C   UNL     1      72.134  82.801  74.459  1.00  0.00    -0.000 C 
BRANCH   8   9
ATOM      9  C   UNL     1      71.053  82.020  75.220  1.00  0.00    -0.003 C 
ATOM     10  C   UNL     1      70.871  82.567  76.633  1.00  0.00     0.004 C 
ENDBRANCH   8   9
ENDBRANCH   7   8
ENDBRANCH   1   7
TORSDOF 6
ENDMDL
