MODEL 1
REMARK VINA RESULT:    -5.401      0.000      0.000
REMARK INTER + INTRA:         -10.556
REMARK INTER:                  -8.242
REMARK INTRA:                  -2.314
REMARK UNBOUND:                -2.314
REMARK SMILES CC(=O)CCC=C(C)CCC=C(C)CCC=C(C)C
REMARK SMILES IDX 10 1 11 2 12 3 13 4 14 5 15 6 16 7 18 8 17 9 19 10 9 11 7 12
REMARK SMILES IDX 6 13 8 14 5 15 4 16 2 17 3 18 1 19
REMARK H PARENT
REMARK Flexibility Score: inf
ROOT
ATOM      1  C   UNL     1      15.188 -33.804  23.423  1.00  0.00     0.032 C 
ENDROOT
BRANCH   1   2
ATOM      2  C   UNL     1      15.737 -34.429  22.162  1.00  0.00    -0.028 C 
ATOM      3  C   UNL     1      15.407 -34.054  20.904  1.00  0.00    -0.077 C 
ATOM      4  C   UNL     1      14.301 -33.043  20.660  1.00  0.00     0.039 C 
BRANCH   3   5
ATOM      5  C   UNL     1      16.132 -34.744  19.754  1.00  0.00     0.034 C 
BRANCH   5   6
ATOM      6  C   UNL     1      17.330 -33.963  19.189  1.00  0.00     0.032 C 
BRANCH   6   7
ATOM      7  C   UNL     1      18.441 -33.870  20.205  1.00  0.00    -0.028 C 
ATOM      8  C   UNL     1      19.870 -32.809  21.902  1.00  0.00     0.039 C 
ATOM      9  C   UNL     1      18.738 -32.753  20.910  1.00  0.00    -0.080 C 
ATOM     10  C   UNL     1      17.988 -31.458  20.704  1.00  0.00     0.039 C 
ENDBRANCH   6   7
ENDBRANCH   5   6
ENDBRANCH   3   5
ENDBRANCH   1   2
BRANCH   1  11
ATOM     11  C   UNL     1      16.302 -33.202  24.292  1.00  0.00     0.034 C 
BRANCH  11  12
ATOM     12  C   UNL     1      16.468 -31.716  24.044  1.00  0.00    -0.077 C 
ATOM     13  C   UNL     1      15.454 -31.024  23.478  1.00  0.00    -0.028 C 
ATOM     14  C   UNL     1      17.759 -31.041  24.446  1.00  0.00     0.039 C 
BRANCH  13  15
ATOM     15  C   UNL     1      15.515 -29.537  23.220  1.00  0.00     0.035 C 
BRANCH  15  16
ATOM     16  C   UNL     1      14.319 -29.050  22.391  1.00  0.00     0.079 C 
BRANCH  16  17
ATOM     17  C   UNL     1      13.012 -29.269  23.112  1.00  0.00     0.130 C 
ATOM     18  O   UNL     1      12.152 -29.968  22.598  1.00  0.00    -0.300 OA
ATOM     19  C   UNL     1      12.738 -28.634  24.444  1.00  0.00     0.087 C 
ENDBRANCH  16  17
ENDBRANCH  15  16
ENDBRANCH  13  15
ENDBRANCH  11  12
ENDBRANCH   1  11
TORSDOF 9
ENDMDL
MODEL 2
REMARK VINA RESULT:    -5.396      2.443      5.713
REMARK INTER + INTRA:         -10.549
REMARK INTER:                  -8.260
REMARK INTRA:                  -2.289
REMARK UNBOUND:                -2.314
REMARK SMILES CC(=O)CCC=C(C)CCC=C(C)CCC=C(C)C
REMARK SMILES IDX 10 1 11 2 12 3 13 4 14 5 15 6 16 7 18 8 17 9 19 10 9 11 7 12
REMARK SMILES IDX 6 13 8 14 5 15 4 16 2 17 3 18 1 19
REMARK H PARENT
REMARK Flexibility Score: inf
ROOT
ATOM      1  C   UNL     1      13.242 -31.324  21.495  1.00  0.00     0.032 C 
ENDROOT
BRANCH   1   2
ATOM      2  C   UNL     1      14.188 -30.161  21.673  1.00  0.00    -0.028 C 
ATOM      3  C   UNL     1      14.277 -29.397  22.788  1.00  0.00    -0.077 C 
ATOM      4  C   UNL     1      13.285 -29.566  23.925  1.00  0.00     0.039 C 
BRANCH   3   5
ATOM      5  C   UNL     1      15.354 -28.320  22.816  1.00  0.00     0.034 C 
BRANCH   5   6
ATOM      6  C   UNL     1      16.699 -28.739  22.199  1.00  0.00     0.032 C 
BRANCH   6   7
ATOM      7  C   UNL     1      17.327 -29.862  22.988  1.00  0.00    -0.028 C 
ATOM      8  C   UNL     1      18.471 -32.010  23.345  1.00  0.00     0.039 C 
ATOM      9  C   UNL     1      17.867 -30.973  22.434  1.00  0.00    -0.080 C 
ATOM     10  C   UNL     1      17.849 -31.209  20.942  1.00  0.00     0.039 C 
ENDBRANCH   6   7
ENDBRANCH   5   6
ENDBRANCH   3   5
ENDBRANCH   1   2
BRANCH   1  11
ATOM     11  C   UNL     1      13.899 -32.480  20.725  1.00  0.00     0.034 C 
BRANCH  11  12
ATOM     12  C   UNL     1      14.810 -33.302  21.615  1.00  0.00    -0.077 C 
ATOM     13  C   UNL     1      15.689 -34.158  21.050  1.00  0.00    -0.028 C 
ATOM     14  C   UNL     1      14.720 -33.136  23.114  1.00  0.00     0.039 C 
BRANCH  13  15
ATOM     15  C   UNL     1      16.657 -34.996  21.853  1.00  0.00     0.035 C 
BRANCH  15  16
ATOM     16  C   UNL     1      18.053 -35.026  21.218  1.00  0.00     0.079 C 
BRANCH  16  17
ATOM     17  C   UNL     1      18.006 -35.500  19.787  1.00  0.00     0.130 C 
ATOM     18  O   UNL     1      18.354 -34.744  18.892  1.00  0.00    -0.300 OA
ATOM     19  C   UNL     1      17.527 -36.877  19.434  1.00  0.00     0.087 C 
ENDBRANCH  16  17
ENDBRANCH  15  16
ENDBRANCH  13  15
ENDBRANCH  11  12
ENDBRANCH   1  11
TORSDOF 9
ENDMDL
MODEL 3
REMARK VINA RESULT:    -5.395      1.149      3.218
REMARK INTER + INTRA:         -10.548
REMARK INTER:                  -8.250
REMARK INTRA:                  -2.298
REMARK UNBOUND:                -2.314
REMARK SMILES CC(=O)CCC=C(C)CCC=C(C)CCC=C(C)C
REMARK SMILES IDX 10 1 11 2 12 3 13 4 14 5 15 6 16 7 18 8 17 9 19 10 9 11 7 12
REMARK SMILES IDX 6 13 8 14 5 15 4 16 2 17 3 18 1 19
REMARK H PARENT
REMARK Flexibility Score: inf
ROOT
ATOM      1  C   UNL     1      18.979 -31.678  21.246  1.00  0.00     0.032 C 
ENDROOT
BRANCH   1   2
ATOM      2  C   UNL     1      18.639 -32.967  20.535  1.00  0.00    -0.028 C 
ATOM      3  C   UNL     1      18.640 -34.193  21.109  1.00  0.00    -0.077 C 
ATOM      4  C   UNL     1      19.153 -34.386  22.525  1.00  0.00     0.039 C 
BRANCH   3   5
ATOM      5  C   UNL     1      18.184 -35.369  20.254  1.00  0.00     0.034 C 
BRANCH   5   6
ATOM      6  C   UNL     1      16.749 -35.849  20.533  1.00  0.00     0.032 C 
BRANCH   6   7
ATOM      7  C   UNL     1      15.742 -34.799  20.133  1.00  0.00    -0.028 C 
ATOM      8  C   UNL     1      14.152 -32.952  20.458  1.00  0.00     0.039 C 
ATOM      9  C   UNL     1      15.130 -33.961  21.001  1.00  0.00    -0.080 C 
ATOM     10  C   UNL     1      15.377 -34.035  22.490  1.00  0.00     0.039 C 
ENDBRANCH   6   7
ENDBRANCH   5   6
ENDBRANCH   3   5
ENDBRANCH   1   2
BRANCH   1  11
ATOM     11  C   UNL     1      17.870 -30.628  21.079  1.00  0.00     0.034 C 
BRANCH  11  12
ATOM     12  C   UNL     1      16.995 -30.534  22.314  1.00  0.00    -0.077 C 
ATOM     13  C   UNL     1      15.782 -29.947  22.220  1.00  0.00    -0.028 C 
ATOM     14  C   UNL     1      17.496 -31.111  23.617  1.00  0.00     0.039 C 
BRANCH  13  15
ATOM     15  C   UNL     1      14.829 -29.834  23.387  1.00  0.00     0.035 C 
BRANCH  15  16
ATOM     16  C   UNL     1      13.623 -30.771  23.233  1.00  0.00     0.079 C 
BRANCH  16  17
ATOM     17  C   UNL     1      12.381 -30.021  22.820  1.00  0.00     0.130 C 
ATOM     18  O   UNL     1      11.664 -30.482  21.945  1.00  0.00    -0.300 OA
ATOM     19  C   UNL     1      12.013 -28.710  23.452  1.00  0.00     0.087 C 
ENDBRANCH  16  17
ENDBRANCH  15  16
ENDBRANCH  13  15
ENDBRANCH  11  12
ENDBRANCH   1  11
TORSDOF 9
ENDMDL
MODEL 4
REMARK VINA RESULT:    -5.390      2.029      5.166
REMARK INTER + INTRA:         -10.540
REMARK INTER:                  -8.459
REMARK INTRA:                  -2.081
REMARK UNBOUND:                -2.314
REMARK SMILES CC(=O)CCC=C(C)CCC=C(C)CCC=C(C)C
REMARK SMILES IDX 10 1 11 2 12 3 13 4 14 5 15 6 16 7 18 8 17 9 19 10 9 11 7 12
REMARK SMILES IDX 6 13 8 14 5 15 4 16 2 17 3 18 1 19
REMARK H PARENT
REMARK Flexibility Score: inf
ROOT
ATOM      1  C   UNL     1      15.785 -35.438  20.046  1.00  0.00     0.032 C 
ENDROOT
BRANCH   1   2
ATOM      2  C   UNL     1      14.922 -34.199  20.053  1.00  0.00    -0.028 C 
ATOM      3  C   UNL     1      14.721 -33.400  21.127  1.00  0.00    -0.077 C 
ATOM      4  C   UNL     1      15.245 -33.794  22.496  1.00  0.00     0.039 C 
BRANCH   3   5
ATOM      5  C   UNL     1      13.886 -32.142  20.919  1.00  0.00     0.034 C 
BRANCH   5   6
ATOM      6  C   UNL     1      14.471 -30.869  21.555  1.00  0.00     0.032 C 
BRANCH   6   7
ATOM      7  C   UNL     1      13.523 -30.292  22.577  1.00  0.00    -0.028 C 
ATOM      8  C   UNL     1      12.708 -28.685  24.250  1.00  0.00     0.039 C 
ATOM      9  C   UNL     1      13.750 -29.150  23.266  1.00  0.00    -0.080 C 
ATOM     10  C   UNL     1      15.024 -28.356  23.098  1.00  0.00     0.039 C 
ENDBRANCH   6   7
ENDBRANCH   5   6
ENDBRANCH   3   5
ENDBRANCH   1   2
BRANCH   1  11
ATOM     11  C   UNL     1      17.151 -35.177  19.394  1.00  0.00     0.034 C 
BRANCH  11  12
ATOM     12  C   UNL     1      18.052 -34.348  20.289  1.00  0.00    -0.077 C 
ATOM     13  C   UNL     1      18.210 -33.032  20.029  1.00  0.00    -0.028 C 
ATOM     14  C   UNL     1      18.741 -35.012  21.459  1.00  0.00     0.039 C 
BRANCH  13  15
ATOM     15  C   UNL     1      19.061 -32.119  20.881  1.00  0.00     0.035 C 
BRANCH  15  16
ATOM     16  C   UNL     1      18.208 -31.200  21.765  1.00  0.00     0.079 C 
BRANCH  16  17
ATOM     17  C   UNL     1      18.255 -31.616  23.214  1.00  0.00     0.130 C 
ATOM     18  O   UNL     1      19.133 -32.376  23.593  1.00  0.00    -0.300 OA
ATOM     19  C   UNL     1      17.235 -31.128  24.201  1.00  0.00     0.087 C 
ENDBRANCH  16  17
ENDBRANCH  15  16
ENDBRANCH  13  15
ENDBRANCH  11  12
ENDBRANCH   1  11
TORSDOF 9
ENDMDL
MODEL 5
REMARK VINA RESULT:    -5.266      1.784      2.616
REMARK INTER + INTRA:         -10.351
REMARK INTER:                  -8.117
REMARK INTRA:                  -2.234
REMARK UNBOUND:                -2.314
REMARK SMILES CC(=O)CCC=C(C)CCC=C(C)CCC=C(C)C
REMARK SMILES IDX 10 1 11 2 12 3 13 4 14 5 15 6 16 7 18 8 17 9 19 10 9 11 7 12
REMARK SMILES IDX 6 13 8 14 5 15 4 16 2 17 3 18 1 19
REMARK H PARENT
REMARK Flexibility Score: inf
ROOT
ATOM      1  C   UNL     1      17.010 -34.817  23.641  1.00  0.00     0.032 C 
ENDROOT
BRANCH   1   2
ATOM      2  C   UNL     1      17.709 -34.228  22.440  1.00  0.00    -0.028 C 
ATOM      3  C   UNL     1      17.134 -34.018  21.232  1.00  0.00    -0.077 C 
ATOM      4  C   UNL     1      15.732 -34.523  20.943  1.00  0.00     0.039 C 
BRANCH   3   5
ATOM      5  C   UNL     1      17.976 -33.331  20.164  1.00  0.00     0.034 C 
BRANCH   5   6
ATOM      6  C   UNL     1      18.989 -32.307  20.703  1.00  0.00     0.032 C 
BRANCH   6   7
ATOM      7  C   UNL     1      18.320 -30.984  20.985  1.00  0.00    -0.028 C 
ATOM      8  C   UNL     1      18.186 -28.580  21.485  1.00  0.00     0.039 C 
ATOM      9  C   UNL     1      18.985 -29.832  21.230  1.00  0.00    -0.080 C 
ATOM     10  C   UNL     1      20.494 -29.778  21.286  1.00  0.00     0.039 C 
ENDBRANCH   6   7
ENDBRANCH   5   6
ENDBRANCH   3   5
ENDBRANCH   1   2
BRANCH   1  11
ATOM     11  C   UNL     1      16.692 -33.747  24.697  1.00  0.00     0.034 C 
BRANCH  11  12
ATOM     12  C   UNL     1      15.628 -32.780  24.214  1.00  0.00    -0.077 C 
ATOM     13  C   UNL     1      16.003 -31.581  23.716  1.00  0.00    -0.028 C 
ATOM     14  C   UNL     1      14.175 -33.186  24.290  1.00  0.00     0.039 C 
BRANCH  13  15
ATOM     15  C   UNL     1      15.019 -30.566  23.183  1.00  0.00     0.035 C 
BRANCH  15  16
ATOM     16  C   UNL     1      14.811 -30.708  21.670  1.00  0.00     0.079 C 
BRANCH  16  17
ATOM     17  C   UNL     1      13.428 -31.209  21.339  1.00  0.00     0.130 C 
ATOM     18  O   UNL     1      13.278 -31.996  20.417  1.00  0.00    -0.300 OA
ATOM     19  C   UNL     1      12.225 -30.749  22.110  1.00  0.00     0.087 C 
ENDBRANCH  16  17
ENDBRANCH  15  16
ENDBRANCH  13  15
ENDBRANCH  11  12
ENDBRANCH   1  11
TORSDOF 9
ENDMDL
MODEL 6
REMARK VINA RESULT:    -5.263      2.969      5.326
REMARK INTER + INTRA:         -10.347
REMARK INTER:                  -8.072
REMARK INTRA:                  -2.275
REMARK UNBOUND:                -2.314
REMARK SMILES CC(=O)CCC=C(C)CCC=C(C)CCC=C(C)C
REMARK SMILES IDX 10 1 11 2 12 3 13 4 14 5 15 6 16 7 18 8 17 9 19 10 9 11 7 12
REMARK SMILES IDX 6 13 8 14 5 15 4 16 2 17 3 18 1 19
REMARK H PARENT
REMARK Flexibility Score: inf
ROOT
ATOM      1  C   UNL     1      16.571 -34.219  21.536  1.00  0.00     0.032 C 
ENDROOT
BRANCH   1   2
ATOM      2  C   UNL     1      15.415 -33.861  22.438  1.00  0.00    -0.028 C 
ATOM      3  C   UNL     1      15.534 -33.348  23.686  1.00  0.00    -0.077 C 
ATOM      4  C   UNL     1      16.893 -33.237  24.352  1.00  0.00     0.039 C 
BRANCH   3   5
ATOM      5  C   UNL     1      14.250 -32.967  24.413  1.00  0.00     0.034 C 
BRANCH   5   6
ATOM      6  C   UNL     1      13.497 -31.772  23.803  1.00  0.00     0.032 C 
BRANCH   6   7
ATOM      7  C   UNL     1      14.359 -30.533  23.805  1.00  0.00    -0.028 C 
ATOM      8  C   UNL     1      15.629 -28.662  22.840  1.00  0.00     0.039 C 
ATOM      9  C   UNL     1      14.781 -29.898  22.687  1.00  0.00    -0.080 C 
ATOM     10  C   UNL     1      14.451 -30.411  21.305  1.00  0.00     0.039 C 
ENDBRANCH   6   7
ENDBRANCH   5   6
ENDBRANCH   3   5
ENDBRANCH   1   2
BRANCH   1  11
ATOM     11  C   UNL     1      16.897 -33.087  20.550  1.00  0.00     0.034 C 
BRANCH  11  12
ATOM     12  C   UNL     1      18.111 -32.292  20.988  1.00  0.00    -0.077 C 
ATOM     13  C   UNL     1      18.081 -30.943  20.910  1.00  0.00    -0.028 C 
ATOM     14  C   UNL     1      19.322 -33.027  21.514  1.00  0.00     0.039 C 
BRANCH  13  15
ATOM     15  C   UNL     1      19.229 -30.066  21.351  1.00  0.00     0.035 C 
BRANCH  15  16
ATOM     16  C   UNL     1      18.957 -28.582  21.072  1.00  0.00     0.079 C 
BRANCH  16  17
ATOM     17  C   UNL     1      20.212 -27.753  21.180  1.00  0.00     0.130 C 
ATOM     18  O   UNL     1      21.131 -28.143  21.885  1.00  0.00    -0.300 OA
ATOM     19  C   UNL     1      20.353 -26.449  20.452  1.00  0.00     0.087 C 
ENDBRANCH  16  17
ENDBRANCH  15  16
ENDBRANCH  13  15
ENDBRANCH  11  12
ENDBRANCH   1  11
TORSDOF 9
ENDMDL
MODEL 7
REMARK VINA RESULT:    -5.235      2.131      5.701
REMARK INTER + INTRA:         -10.304
REMARK INTER:                  -8.112
REMARK INTRA:                  -2.192
REMARK UNBOUND:                -2.314
REMARK SMILES CC(=O)CCC=C(C)CCC=C(C)CCC=C(C)C
REMARK SMILES IDX 10 1 11 2 12 3 13 4 14 5 15 6 16 7 18 8 17 9 19 10 9 11 7 12
REMARK SMILES IDX 6 13 8 14 5 15 4 16 2 17 3 18 1 19
REMARK H PARENT
REMARK Flexibility Score: inf
ROOT
ATOM      1  C   UNL     1      17.001 -32.586  24.402  1.00  0.00     0.032 C 
ENDROOT
BRANCH   1   2
ATOM      2  C   UNL     1      15.704 -32.593  23.627  1.00  0.00    -0.028 C 
ATOM      3  C   UNL     1      15.580 -32.266  22.320  1.00  0.00    -0.077 C 
ATOM      4  C   UNL     1      16.757 -31.696  21.548  1.00  0.00     0.039 C 
BRANCH   3   5
ATOM      5  C   UNL     1      14.203 -32.417  21.686  1.00  0.00     0.034 C 
BRANCH   5   6
ATOM      6  C   UNL     1      13.539 -31.095  21.266  1.00  0.00     0.032 C 
BRANCH   6   7
ATOM      7  C   UNL     1      12.838 -30.448  22.435  1.00  0.00    -0.028 C 
ATOM      8  C   UNL     1      12.513 -28.839  24.266  1.00  0.00     0.039 C 
ATOM      9  C   UNL     1      13.327 -29.390  23.125  1.00  0.00    -0.080 C 
ATOM     10  C   UNL     1      14.670 -28.778  22.801  1.00  0.00     0.039 C 
ENDBRANCH   6   7
ENDBRANCH   5   6
ENDBRANCH   3   5
ENDBRANCH   1   2
BRANCH   1  11
ATOM     11  C   UNL     1      17.543 -34.007  24.618  1.00  0.00     0.034 C 
BRANCH  11  12
ATOM     12  C   UNL     1      18.194 -34.556  23.363  1.00  0.00    -0.077 C 
ATOM     13  C   UNL     1      17.567 -35.529  22.666  1.00  0.00    -0.028 C 
ATOM     14  C   UNL     1      19.524 -33.994  22.917  1.00  0.00     0.039 C 
BRANCH  13  15
ATOM     15  C   UNL     1      18.123 -36.116  21.389  1.00  0.00     0.035 C 
BRANCH  15  16
ATOM     16  C   UNL     1      17.049 -36.237  20.300  1.00  0.00     0.079 C 
BRANCH  16  17
ATOM     17  C   UNL     1      16.846 -34.936  19.566  1.00  0.00     0.130 C 
ATOM     18  O   UNL     1      15.714 -34.504  19.408  1.00  0.00    -0.300 OA
ATOM     19  C   UNL     1      18.006 -34.163  19.010  1.00  0.00     0.087 C 
ENDBRANCH  16  17
ENDBRANCH  15  16
ENDBRANCH  13  15
ENDBRANCH  11  12
ENDBRANCH   1  11
TORSDOF 9
ENDMDL
MODEL 8
REMARK VINA RESULT:    -5.215      2.392      5.779
REMARK INTER + INTRA:         -10.274
REMARK INTER:                  -7.870
REMARK INTRA:                  -2.403
REMARK UNBOUND:                -2.314
REMARK SMILES CC(=O)CCC=C(C)CCC=C(C)CCC=C(C)C
REMARK SMILES IDX 10 1 11 2 12 3 13 4 14 5 15 6 16 7 18 8 17 9 19 10 9 11 7 12
REMARK SMILES IDX 6 13 8 14 5 15 4 16 2 17 3 18 1 19
REMARK H PARENT
REMARK Flexibility Score: inf
ROOT
ATOM      1  C   UNL     1      18.415 -31.973  23.582  1.00  0.00     0.032 C 
ENDROOT
BRANCH   1   2
ATOM      2  C   UNL     1      17.958 -30.551  23.354  1.00  0.00    -0.028 C 
ATOM      3  C   UNL     1      17.751 -29.988  22.140  1.00  0.00    -0.077 C 
ATOM      4  C   UNL     1      18.126 -30.728  20.868  1.00  0.00     0.039 C 
BRANCH   3   5
ATOM      5  C   UNL     1      17.205 -28.566  22.111  1.00  0.00     0.034 C 
BRANCH   5   6
ATOM      6  C   UNL     1      15.706 -28.445  22.432  1.00  0.00     0.032 C 
BRANCH   6   7
ATOM      7  C   UNL     1      14.915 -29.521  21.728  1.00  0.00    -0.028 C 
ATOM      8  C   UNL     1      13.293 -31.356  21.507  1.00  0.00     0.039 C 
ATOM      9  C   UNL     1      14.020 -30.331  22.339  1.00  0.00    -0.080 C 
ATOM     10  C   UNL     1      13.759 -30.255  23.825  1.00  0.00     0.039 C 
ENDBRANCH   6   7
ENDBRANCH   5   6
ENDBRANCH   3   5
ENDBRANCH   1   2
BRANCH   1  11
ATOM     11  C   UNL     1      17.400 -32.770  24.414  1.00  0.00     0.034 C 
BRANCH  11  12
ATOM     12  C   UNL     1      16.313 -33.375  23.547  1.00  0.00    -0.077 C 
ATOM     13  C   UNL     1      16.590 -33.682  22.261  1.00  0.00    -0.028 C 
ATOM     14  C   UNL     1      14.949 -33.629  24.145  1.00  0.00     0.039 C 
BRANCH  13  15
ATOM     15  C   UNL     1      15.582 -34.315  21.329  1.00  0.00     0.035 C 
BRANCH  15  16
ATOM     16  C   UNL     1      15.988 -34.162  19.857  1.00  0.00     0.079 C 
BRANCH  16  17
ATOM     17  C   UNL     1      17.119 -35.090  19.490  1.00  0.00     0.130 C 
ATOM     18  O   UNL     1      18.144 -34.628  19.011  1.00  0.00    -0.300 OA
ATOM     19  C   UNL     1      17.008 -36.573  19.686  1.00  0.00     0.087 C 
ENDBRANCH  16  17
ENDBRANCH  15  16
ENDBRANCH  13  15
ENDBRANCH  11  12
ENDBRANCH   1  11
TORSDOF 9
ENDMDL
MODEL 9
REMARK VINA RESULT:    -5.202      1.315      3.509
REMARK INTER + INTRA:         -10.253
REMARK INTER:                  -8.110
REMARK INTRA:                  -2.143
REMARK UNBOUND:                -2.314
REMARK SMILES CC(=O)CCC=C(C)CCC=C(C)CCC=C(C)C
REMARK SMILES IDX 10 1 11 2 12 3 13 4 14 5 15 6 16 7 18 8 17 9 19 10 9 11 7 12
REMARK SMILES IDX 6 13 8 14 5 15 4 16 2 17 3 18 1 19
REMARK H PARENT
REMARK Flexibility Score: inf
ROOT
ATOM      1  C   UNL     1      18.559 -30.383  21.521  1.00  0.00     0.032 C 
ENDROOT
BRANCH   1   2
ATOM      2  C   UNL     1      17.875 -31.483  20.746  1.00  0.00    -0.028 C 
ATOM      3  C   UNL     1      18.207 -32.795  20.803  1.00  0.00    -0.077 C 
ATOM      4  C   UNL     1      19.440 -33.250  21.562  1.00  0.00     0.039 C 
BRANCH   3   5
ATOM      5  C   UNL     1      17.343 -33.772  20.014  1.00  0.00     0.034 C 
BRANCH   5   6
ATOM      6  C   UNL     1      16.639 -34.841  20.867  1.00  0.00     0.032 C 
BRANCH   6   7
ATOM      7  C   UNL     1      15.798 -34.202  21.945  1.00  0.00    -0.028 C 
ATOM      8  C   UNL     1      15.145 -33.583  24.234  1.00  0.00     0.039 C 
ATOM      9  C   UNL     1      16.068 -34.281  23.269  1.00  0.00    -0.080 C 
ATOM     10  C   UNL     1      17.243 -35.071  23.797  1.00  0.00     0.039 C 
ENDBRANCH   6   7
ENDBRANCH   5   6
ENDBRANCH   3   5
ENDBRANCH   1   2
BRANCH   1  11
ATOM     11  C   UNL     1      17.913 -30.169  22.898  1.00  0.00     0.034 C 
BRANCH  11  12
ATOM     12  C   UNL     1      16.531 -29.555  22.781  1.00  0.00    -0.077 C 
ATOM     13  C   UNL     1      15.494 -30.137  23.421  1.00  0.00    -0.028 C 
ATOM     14  C   UNL     1      16.351 -28.299  21.960  1.00  0.00     0.039 C 
BRANCH  13  15
ATOM     15  C   UNL     1      14.089 -29.582  23.388  1.00  0.00     0.035 C 
BRANCH  15  16
ATOM     16  C   UNL     1      13.034 -30.695  23.328  1.00  0.00     0.079 C 
BRANCH  16  17
ATOM     17  C   UNL     1      12.560 -30.942  21.918  1.00  0.00     0.130 C 
ATOM     18  O   UNL     1      11.434 -30.597  21.594  1.00  0.00    -0.300 OA
ATOM     19  C   UNL     1      13.438 -31.617  20.906  1.00  0.00     0.087 C 
ENDBRANCH  16  17
ENDBRANCH  15  16
ENDBRANCH  13  15
ENDBRANCH  11  12
ENDBRANCH   1  11
TORSDOF 9
ENDMDL
