MODEL 1
REMARK VINA RESULT:     3.446      0.000      0.000
REMARK INTER + INTRA:           3.896
REMARK INTER:                   3.949
REMARK INTRA:                  -0.053
REMARK UNBOUND:                -0.053
REMARK SMILES CC(C)[C@H]([NH3+])C(=O)[O-]
REMARK SMILES IDX 4 1 5 2 6 6 7 7 8 8 2 9 1 10 3 11
REMARK H PARENT 5 3 5 4 5 5
REMARK Flexibility Score: inf
ROOT
ATOM      1  C   UNL     1       1.876   0.234  -8.718  1.00  0.00     0.230 C 
ENDROOT
BRANCH   1   2
ATOM      2  N   UNL     1       3.246   0.613  -9.094  1.00  0.00    -0.350 N 
ATOM      3  H   UNL     1       3.301   0.781 -10.124  1.00  0.00     0.345 HD
ATOM      4  H   UNL     1       3.509   1.500  -8.605  1.00  0.00     0.345 HD
ATOM      5  H   UNL     1       3.935  -0.128  -8.829  1.00  0.00     0.345 HD
ENDBRANCH   1   2
BRANCH   1   6
ATOM      6  C   UNL     1       1.721   0.195  -7.215  1.00  0.00     0.099 C 
ATOM      7  O   UNL     1       0.762   0.786  -6.651  1.00  0.00    -0.544 OA
ATOM      8  O   UNL     1       2.661  -0.474  -6.441  1.00  0.00    -0.544 OA
ENDBRANCH   1   6
BRANCH   1   9
ATOM      9  C   UNL     1       1.435  -1.094  -9.404  1.00  0.00     0.047 C 
ATOM     10  C   UNL     1       2.004  -1.203 -10.827  1.00  0.00     0.014 C 
ATOM     11  C   UNL     1      -0.089  -1.300  -9.429  1.00  0.00     0.014 C 
ENDBRANCH   1   9
TORSDOF 3
ENDMDL
MODEL 2
REMARK VINA RESULT:     3.571      6.743      7.578
REMARK INTER + INTRA:           4.039
REMARK INTER:                   4.087
REMARK INTRA:                  -0.047
REMARK UNBOUND:                -0.053
REMARK SMILES CC(C)[C@H]([NH3+])C(=O)[O-]
REMARK SMILES IDX 4 1 5 2 6 6 7 7 8 8 2 9 1 10 3 11
REMARK H PARENT 5 3 5 4 5 5
REMARK Flexibility Score: inf
ROOT
ATOM      1  C   UNL     1      -2.390  -5.325 -11.430  1.00  0.00     0.230 C 
ENDROOT
BRANCH   1   2
ATOM      2  N   UNL     1      -2.527  -5.219  -9.970  1.00  0.00    -0.350 N 
ATOM      3  H   UNL     1      -1.585  -5.271  -9.519  1.00  0.00     0.345 HD
ATOM      4  H   UNL     1      -2.954  -4.296  -9.725  1.00  0.00     0.345 HD
ATOM      5  H   UNL     1      -3.134  -5.978  -9.586  1.00  0.00     0.345 HD
ENDBRANCH   1   2
BRANCH   1   6
ATOM      6  C   UNL     1      -1.653  -6.588 -11.812  1.00  0.00     0.099 C 
ATOM      7  O   UNL     1      -1.505  -7.524 -10.981  1.00  0.00    -0.544 OA
ATOM      8  O   UNL     1      -1.105  -6.710 -13.082  1.00  0.00    -0.544 OA
ENDBRANCH   1   6
BRANCH   1   9
ATOM      9  C   UNL     1      -1.750  -4.044 -12.046  1.00  0.00     0.047 C 
ATOM     10  C   UNL     1      -1.496  -2.976 -10.971  1.00  0.00     0.014 C 
ATOM     11  C   UNL     1      -2.563  -3.441 -13.204  1.00  0.00     0.014 C 
ENDBRANCH   1   9
TORSDOF 3
ENDMDL
MODEL 3
REMARK VINA RESULT:     3.828      6.243      7.063
REMARK INTER + INTRA:           4.335
REMARK INTER:                   4.386
REMARK INTRA:                  -0.051
REMARK UNBOUND:                -0.053
REMARK SMILES CC(C)[C@H]([NH3+])C(=O)[O-]
REMARK SMILES IDX 4 1 5 2 6 6 7 7 8 8 2 9 1 10 3 11
REMARK H PARENT 5 3 5 4 5 5
REMARK Flexibility Score: inf
ROOT
ATOM      1  C   UNL     1      -2.287  -4.460 -11.491  1.00  0.00     0.230 C 
ENDROOT
BRANCH   1   2
ATOM      2  N   UNL     1      -2.361  -5.107 -10.173  1.00  0.00    -0.350 N 
ATOM      3  H   UNL     1      -1.418  -5.109  -9.721  1.00  0.00     0.345 HD
ATOM      4  H   UNL     1      -3.016  -4.571  -9.557  1.00  0.00     0.345 HD
ATOM      5  H   UNL     1      -2.708  -6.091 -10.248  1.00  0.00     0.345 HD
ENDBRANCH   1   2
BRANCH   1   6
ATOM      6  C   UNL     1      -1.590  -5.354 -12.491  1.00  0.00     0.099 C 
ATOM      7  O   UNL     1      -1.065  -4.871 -13.530  1.00  0.00    -0.544 OA
ATOM      8  O   UNL     1      -1.551  -6.726 -12.281  1.00  0.00    -0.544 OA
ENDBRANCH   1   6
BRANCH   1   9
ATOM      9  C   UNL     1      -1.649  -3.041 -11.403  1.00  0.00     0.047 C 
ATOM     10  C   UNL     1      -1.227  -2.707  -9.964  1.00  0.00     0.014 C 
ATOM     11  C   UNL     1      -2.547  -1.923 -11.961  1.00  0.00     0.014 C 
ENDBRANCH   1   9
TORSDOF 3
ENDMDL
MODEL 4
REMARK VINA RESULT:     4.336      2.087      3.503
REMARK INTER + INTRA:           4.916
REMARK INTER:                   4.673
REMARK INTRA:                   0.244
REMARK UNBOUND:                -0.053
REMARK SMILES CC(C)[C@H]([NH3+])C(=O)[O-]
REMARK SMILES IDX 4 1 5 2 6 6 7 7 8 8 2 9 1 10 3 11
REMARK H PARENT 5 3 5 4 5 5
REMARK Flexibility Score: inf
ROOT
ATOM      1  C   UNL     1       2.840  -0.402  -7.507  1.00  0.00     0.230 C 
ENDROOT
BRANCH   1   2
ATOM      2  N   UNL     1       4.132   0.296  -7.587  1.00  0.00    -0.350 N 
ATOM      3  H   UNL     1       4.071   1.218  -7.097  1.00  0.00     0.345 HD
ATOM      4  H   UNL     1       4.868  -0.276  -7.112  1.00  0.00     0.345 HD
ATOM      5  H   UNL     1       4.422   0.452  -8.579  1.00  0.00     0.345 HD
ENDBRANCH   1   2
BRANCH   1   6
ATOM      6  C   UNL     1       2.030  -0.181  -8.764  1.00  0.00     0.099 C 
ATOM      7  O   UNL     1       2.453   0.577  -9.678  1.00  0.00    -0.544 OA
ATOM      8  O   UNL     1       0.792  -0.794  -8.904  1.00  0.00    -0.544 OA
ENDBRANCH   1   6
BRANCH   1   9
ATOM      9  C   UNL     1       2.058  -0.026  -6.213  1.00  0.00     0.047 C 
ATOM     10  C   UNL     1       0.965   1.015  -6.504  1.00  0.00     0.014 C 
ATOM     11  C   UNL     1       2.959   0.464  -5.066  1.00  0.00     0.014 C 
ENDBRANCH   1   9
TORSDOF 3
ENDMDL
MODEL 5
REMARK VINA RESULT:     4.364      6.556      7.395
REMARK INTER + INTRA:           4.949
REMARK INTER:                   4.872
REMARK INTRA:                   0.077
REMARK UNBOUND:                -0.053
REMARK SMILES CC(C)[C@H]([NH3+])C(=O)[O-]
REMARK SMILES IDX 4 1 5 2 6 6 7 7 8 8 2 9 1 10 3 11
REMARK H PARENT 5 3 5 4 5 5
REMARK Flexibility Score: inf
ROOT
ATOM      1  C   UNL     1      -1.597  -3.967 -12.647  1.00  0.00     0.230 C 
ENDROOT
BRANCH   1   2
ATOM      2  N   UNL     1      -2.978  -3.788 -13.121  1.00  0.00    -0.350 N 
ATOM      3  H   UNL     1      -3.641  -4.294 -12.490  1.00  0.00     0.345 HD
ATOM      4  H   UNL     1      -3.224  -2.772 -13.103  1.00  0.00     0.345 HD
ATOM      5  H   UNL     1      -3.096  -4.141 -14.097  1.00  0.00     0.345 HD
ENDBRANCH   1   2
BRANCH   1   6
ATOM      6  C   UNL     1      -0.938  -5.137 -13.340  1.00  0.00     0.099 C 
ATOM      7  O   UNL     1      -1.171  -6.319 -12.970  1.00  0.00    -0.544 OA
ATOM      8  O   UNL     1      -0.042  -4.911 -14.377  1.00  0.00    -0.544 OA
ENDBRANCH   1   6
BRANCH   1   9
ATOM      9  C   UNL     1      -1.527  -4.068 -11.094  1.00  0.00     0.047 C 
ATOM     10  C   UNL     1      -2.725  -4.849 -10.531  1.00  0.00     0.014 C 
ATOM     11  C   UNL     1      -1.409  -2.706 -10.389  1.00  0.00     0.014 C 
ENDBRANCH   1   9
TORSDOF 3
ENDMDL
MODEL 6
REMARK VINA RESULT:     4.407      1.821      2.279
REMARK INTER + INTRA:           4.998
REMARK INTER:                   4.835
REMARK INTRA:                   0.163
REMARK UNBOUND:                -0.053
REMARK SMILES CC(C)[C@H]([NH3+])C(=O)[O-]
REMARK SMILES IDX 4 1 5 2 6 6 7 7 8 8 2 9 1 10 3 11
REMARK H PARENT 5 3 5 4 5 5
REMARK Flexibility Score: inf
ROOT
ATOM      1  C   UNL     1       1.688  -0.079  -6.974  1.00  0.00     0.230 C 
ENDROOT
BRANCH   1   2
ATOM      2  N   UNL     1       0.894   1.156  -6.899  1.00  0.00    -0.350 N 
ATOM      3  H   UNL     1       1.502   1.953  -6.601  1.00  0.00     0.345 HD
ATOM      4  H   UNL     1       0.505   1.379  -7.844  1.00  0.00     0.345 HD
ATOM      5  H   UNL     1       0.099   1.060  -6.227  1.00  0.00     0.345 HD
ENDBRANCH   1   2
BRANCH   1   6
ATOM      6  C   UNL     1       2.937   0.031  -6.131  1.00  0.00     0.099 C 
ATOM      7  O   UNL     1       4.031  -0.448  -6.533  1.00  0.00    -0.544 OA
ATOM      8  O   UNL     1       2.877   0.642  -4.885  1.00  0.00    -0.544 OA
ENDBRANCH   1   6
BRANCH   1   9
ATOM      9  C   UNL     1       1.991  -0.483  -8.449  1.00  0.00     0.047 C 
ATOM     10  C   UNL     1       2.775   0.618  -9.179  1.00  0.00     0.014 C 
ATOM     11  C   UNL     1       0.737  -0.861  -9.256  1.00  0.00     0.014 C 
ENDBRANCH   1   9
TORSDOF 3
ENDMDL
MODEL 7
REMARK VINA RESULT:     4.460      5.661      6.432
REMARK INTER + INTRA:           5.059
REMARK INTER:                   4.693
REMARK INTRA:                   0.366
REMARK UNBOUND:                -0.053
REMARK SMILES CC(C)[C@H]([NH3+])C(=O)[O-]
REMARK SMILES IDX 4 1 5 2 6 6 7 7 8 8 2 9 1 10 3 11
REMARK H PARENT 5 3 5 4 5 5
REMARK Flexibility Score: inf
ROOT
ATOM      1  C   UNL     1      -1.878  -4.568 -10.792  1.00  0.00     0.230 C 
ENDROOT
BRANCH   1   2
ATOM      2  N   UNL     1      -3.012  -4.908  -9.920  1.00  0.00    -0.350 N 
ATOM      3  H   UNL     1      -3.860  -4.371 -10.211  1.00  0.00     0.345 HD
ATOM      4  H   UNL     1      -3.227  -5.928 -10.008  1.00  0.00     0.345 HD
ATOM      5  H   UNL     1      -2.801  -4.700  -8.918  1.00  0.00     0.345 HD
ENDBRANCH   1   2
BRANCH   1   6
ATOM      6  C   UNL     1      -1.697  -3.070 -10.880  1.00  0.00     0.099 C 
ATOM      7  O   UNL     1      -2.325  -2.395 -11.738  1.00  0.00    -0.544 OA
ATOM      8  O   UNL     1      -0.807  -2.431 -10.026  1.00  0.00    -0.544 OA
ENDBRANCH   1   6
BRANCH   1   9
ATOM      9  C   UNL     1      -2.001  -5.244 -12.191  1.00  0.00     0.047 C 
ATOM     10  C   UNL     1      -1.662  -6.741 -12.120  1.00  0.00     0.014 C 
ATOM     11  C   UNL     1      -1.156  -4.564 -13.282  1.00  0.00     0.014 C 
ENDBRANCH   1   9
TORSDOF 3
ENDMDL
MODEL 8
REMARK VINA RESULT:     4.837      6.126      6.931
REMARK INTER + INTRA:           5.491
REMARK INTER:                   5.540
REMARK INTRA:                  -0.050
REMARK UNBOUND:                -0.053
REMARK SMILES CC(C)[C@H]([NH3+])C(=O)[O-]
REMARK SMILES IDX 4 1 5 2 6 6 7 7 8 8 2 9 1 10 3 11
REMARK H PARENT 5 3 5 4 5 5
REMARK Flexibility Score: inf
ROOT
ATOM      1  C   UNL     1      -1.672  -4.257 -12.095  1.00  0.00     0.230 C 
ENDROOT
BRANCH   1   2
ATOM      2  N   UNL     1      -2.254  -4.115 -13.437  1.00  0.00    -0.350 N 
ATOM      3  H   UNL     1      -1.536  -3.746 -14.101  1.00  0.00     0.345 HD
ATOM      4  H   UNL     1      -2.566  -5.051 -13.784  1.00  0.00     0.345 HD
ATOM      5  H   UNL     1      -3.079  -3.472 -13.431  1.00  0.00     0.345 HD
ENDBRANCH   1   2
BRANCH   1   6
ATOM      6  C   UNL     1      -2.027  -5.598 -11.494  1.00  0.00     0.099 C 
ATOM      7  O   UNL     1      -2.663  -5.670 -10.408  1.00  0.00    -0.544 OA
ATOM      8  O   UNL     1      -1.624  -6.766 -12.127  1.00  0.00    -0.544 OA
ENDBRANCH   1   6
BRANCH   1   9
ATOM      9  C   UNL     1      -2.054  -3.062 -11.169  1.00  0.00     0.047 C 
ATOM     10  C   UNL     1      -2.571  -1.868 -11.985  1.00  0.00     0.014 C 
ATOM     11  C   UNL     1      -0.913  -2.611 -10.241  1.00  0.00     0.014 C 
ENDBRANCH   1   9
TORSDOF 3
ENDMDL
MODEL 9
REMARK VINA RESULT:     4.936      2.376      3.554
REMARK INTER + INTRA:           5.604
REMARK INTER:                   4.973
REMARK INTRA:                   0.631
REMARK UNBOUND:                -0.053
REMARK SMILES CC(C)[C@H]([NH3+])C(=O)[O-]
REMARK SMILES IDX 4 1 5 2 6 6 7 7 8 8 2 9 1 10 3 11
REMARK H PARENT 5 3 5 4 5 5
REMARK Flexibility Score: inf
ROOT
ATOM      1  C   UNL     1       1.161  -0.021  -8.420  1.00  0.00     0.230 C 
ENDROOT
BRANCH   1   2
ATOM      2  N   UNL     1       0.213  -1.089  -8.773  1.00  0.00    -0.350 N 
ATOM      3  H   UNL     1      -0.151  -1.545  -7.905  1.00  0.00     0.345 HD
ATOM      4  H   UNL     1      -0.599  -0.679  -9.289  1.00  0.00     0.345 HD
ATOM      5  H   UNL     1       0.660  -1.813  -9.380  1.00  0.00     0.345 HD
ENDBRANCH   1   2
BRANCH   1   6
ATOM      6  C   UNL     1       2.347  -0.024  -9.357  1.00  0.00     0.099 C 
ATOM      7  O   UNL     1       3.319   0.755  -9.167  1.00  0.00    -0.544 OA
ATOM      8  O   UNL     1       2.356  -0.872 -10.457  1.00  0.00    -0.544 OA
ENDBRANCH   1   6
BRANCH   1   9
ATOM      9  C   UNL     1       1.577  -0.089  -6.920  1.00  0.00     0.047 C 
ATOM     10  C   UNL     1       1.111   1.159  -6.155  1.00  0.00     0.014 C 
ATOM     11  C   UNL     1       3.085  -0.306  -6.706  1.00  0.00     0.014 C 
ENDBRANCH   1   9
TORSDOF 3
ENDMDL
