MODEL 1
REMARK VINA RESULT:    14.108      0.000      0.000
REMARK INTER + INTRA:          21.901
REMARK INTER:                  22.355
REMARK INTRA:                  -0.454
REMARK UNBOUND:                -0.454
REMARK SMILES CCCCCCCCCCCC(=O)[O-]
REMARK SMILES IDX 7 1 8 2 9 3 10 4 11 5 12 6 13 7 14 8 6 9 5 10 4 11 3 12 2 13
REMARK SMILES IDX 1 14
REMARK H PARENT
REMARK Flexibility Score: inf
ROOT
ATOM      1  C   UNL     1      -6.400  12.889 -25.322  1.00  0.00     0.000 C 
ENDROOT
BRANCH   1   2
ATOM      2  C   UNL     1      -5.383  14.008 -25.054  1.00  0.00     0.000 C 
BRANCH   2   3
ATOM      3  C   UNL     1      -5.289  15.023 -26.206  1.00  0.00     0.000 C 
BRANCH   3   4
ATOM      4  C   UNL     1      -4.531  16.324 -25.876  1.00  0.00     0.006 C 
BRANCH   4   5
ATOM      5  C   UNL     1      -5.418  17.582 -25.866  1.00  0.00     0.053 C 
BRANCH   5   6
ATOM      6  C   UNL     1      -5.488  18.229 -24.516  1.00  0.00     0.041 C 
ATOM      7  O   UNL     1      -6.114  19.311 -24.360  1.00  0.00    -0.550 OA
ATOM      8  O   UNL     1      -4.827  17.658 -23.435  1.00  0.00    -0.550 OA
ENDBRANCH   5   6
ENDBRANCH   4   5
ENDBRANCH   3   4
ENDBRANCH   2   3
ENDBRANCH   1   2
BRANCH   1   9
ATOM      9  C   UNL     1      -6.606  12.025 -24.071  1.00  0.00     0.000 C 
BRANCH   9  10
ATOM     10  C   UNL     1      -5.458  11.023 -23.900  1.00  0.00    -0.000 C 
BRANCH  10  11
ATOM     11  C   UNL     1      -5.703   9.758 -24.732  1.00  0.00    -0.000 C 
BRANCH  11  12
ATOM     12  C   UNL     1      -4.384   9.200 -25.287  1.00  0.00    -0.000 C 
BRANCH  12  13
ATOM     13  C   UNL     1      -3.422   8.747 -24.178  1.00  0.00    -0.003 C 
ATOM     14  C   UNL     1      -1.981   9.191 -24.426  1.00  0.00     0.004 C 
ENDBRANCH  12  13
ENDBRANCH  11  12
ENDBRANCH  10  11
ENDBRANCH   9  10
ENDBRANCH   1   9
TORSDOF 10
ENDMDL
MODEL 2
REMARK VINA RESULT:    14.229      7.155      8.557
REMARK INTER + INTRA:          22.093
REMARK INTER:                  22.150
REMARK INTRA:                  -0.056
REMARK UNBOUND:                -0.454
REMARK SMILES CCCCCCCCCCCC(=O)[O-]
REMARK SMILES IDX 7 1 8 2 9 3 10 4 11 5 12 6 13 7 14 8 6 9 5 10 4 11 3 12 2 13
REMARK SMILES IDX 1 14
REMARK H PARENT
REMARK Flexibility Score: inf
ROOT
ATOM      1  C   UNL     1      -0.654   9.033 -22.421  1.00  0.00     0.000 C 
ENDROOT
BRANCH   1   2
ATOM      2  C   UNL     1      -1.229   7.636 -22.697  1.00  0.00     0.000 C 
BRANCH   2   3
ATOM      3  C   UNL     1      -2.765   7.622 -22.771  1.00  0.00     0.000 C 
BRANCH   3   4
ATOM      4  C   UNL     1      -3.472   6.882 -21.618  1.00  0.00     0.006 C 
BRANCH   4   5
ATOM      5  C   UNL     1      -2.679   6.875 -20.298  1.00  0.00     0.053 C 
BRANCH   5   6
ATOM      6  C   UNL     1      -3.176   7.897 -19.320  1.00  0.00     0.041 C 
ATOM      7  O   UNL     1      -4.412   8.077 -19.161  1.00  0.00    -0.550 OA
ATOM      8  O   UNL     1      -2.273   8.680 -18.612  1.00  0.00    -0.550 OA
ENDBRANCH   5   6
ENDBRANCH   4   5
ENDBRANCH   3   4
ENDBRANCH   2   3
ENDBRANCH   1   2
BRANCH   1   9
ATOM      9  C   UNL     1      -0.949   9.986 -23.586  1.00  0.00     0.000 C 
BRANCH   9  10
ATOM     10  C   UNL     1      -0.857   9.257 -24.931  1.00  0.00    -0.000 C 
BRANCH  10  11
ATOM     11  C   UNL     1       0.304   9.799 -25.774  1.00  0.00    -0.000 C 
BRANCH  11  12
ATOM     12  C   UNL     1       0.592   8.879 -26.970  1.00  0.00    -0.000 C 
BRANCH  12  13
ATOM     13  C   UNL     1       0.587   7.392 -26.585  1.00  0.00    -0.003 C 
ATOM     14  C   UNL     1       1.203   7.135 -25.209  1.00  0.00     0.004 C 
ENDBRANCH  12  13
ENDBRANCH  11  12
ENDBRANCH  10  11
ENDBRANCH   9  10
ENDBRANCH   1   9
TORSDOF 10
ENDMDL
MODEL 3
REMARK VINA RESULT:    14.266      3.721      5.722
REMARK INTER + INTRA:          22.152
REMARK INTER:                  21.588
REMARK INTRA:                   0.564
REMARK UNBOUND:                -0.454
REMARK SMILES CCCCCCCCCCCC(=O)[O-]
REMARK SMILES IDX 7 1 8 2 9 3 10 4 11 5 12 6 13 7 14 8 6 9 5 10 4 11 3 12 2 13
REMARK SMILES IDX 1 14
REMARK H PARENT
REMARK Flexibility Score: inf
ROOT
ATOM      1  C   UNL     1      -3.159   7.914 -23.464  1.00  0.00     0.000 C 
ENDROOT
BRANCH   1   2
ATOM      2  C   UNL     1      -3.552   8.823 -24.637  1.00  0.00     0.000 C 
BRANCH   2   3
ATOM      3  C   UNL     1      -5.060   8.797 -24.939  1.00  0.00     0.000 C 
BRANCH   3   4
ATOM      4  C   UNL     1      -5.734  10.180 -25.038  1.00  0.00     0.006 C 
BRANCH   4   5
ATOM      5  C   UNL     1      -5.808  10.940 -23.701  1.00  0.00     0.053 C 
BRANCH   5   6
ATOM      6  C   UNL     1      -6.555  12.235 -23.814  1.00  0.00     0.041 C 
ATOM      7  O   UNL     1      -7.140  12.721 -22.811  1.00  0.00    -0.550 OA
ATOM      8  O   UNL     1      -6.637  12.888 -25.038  1.00  0.00    -0.550 OA
ENDBRANCH   5   6
ENDBRANCH   4   5
ENDBRANCH   3   4
ENDBRANCH   2   3
ENDBRANCH   1   2
BRANCH   1   9
ATOM      9  C   UNL     1      -1.696   8.138 -23.063  1.00  0.00     0.000 C 
BRANCH   9  10
ATOM     10  C   UNL     1      -1.083   9.304 -23.847  1.00  0.00    -0.000 C 
BRANCH  10  11
ATOM     11  C   UNL     1      -1.098   9.023 -25.355  1.00  0.00    -0.000 C 
BRANCH  11  12
ATOM     12  C   UNL     1       0.233   9.434 -26.004  1.00  0.00    -0.000 C 
BRANCH  12  13
ATOM     13  C   UNL     1       0.981   8.242 -26.621  1.00  0.00    -0.003 C 
ATOM     14  C   UNL     1       0.909   6.985 -25.753  1.00  0.00     0.004 C 
ENDBRANCH  12  13
ENDBRANCH  11  12
ENDBRANCH  10  11
ENDBRANCH   9  10
ENDBRANCH   1   9
TORSDOF 10
ENDMDL
MODEL 4
REMARK VINA RESULT:    14.340      6.984      8.308
REMARK INTER + INTRA:          22.268
REMARK INTER:                  22.832
REMARK INTRA:                  -0.564
REMARK UNBOUND:                -0.454
REMARK SMILES CCCCCCCCCCCC(=O)[O-]
REMARK SMILES IDX 7 1 8 2 9 3 10 4 11 5 12 6 13 7 14 8 6 9 5 10 4 11 3 12 2 13
REMARK SMILES IDX 1 14
REMARK H PARENT
REMARK Flexibility Score: inf
ROOT
ATOM      1  C   UNL     1      -1.726   7.533 -22.568  1.00  0.00     0.000 C 
ENDROOT
BRANCH   1   2
ATOM      2  C   UNL     1      -2.943   8.038 -23.357  1.00  0.00     0.000 C 
BRANCH   2   3
ATOM      3  C   UNL     1      -2.565   9.016 -24.482  1.00  0.00     0.000 C 
BRANCH   3   4
ATOM      4  C   UNL     1      -1.065   9.356 -24.581  1.00  0.00     0.006 C 
BRANCH   4   5
ATOM      5  C   UNL     1      -0.592   9.701 -26.006  1.00  0.00     0.053 C 
BRANCH   5   6
ATOM      6  C   UNL     1       0.643   8.949 -26.402  1.00  0.00     0.041 C 
ATOM      7  O   UNL     1       1.516   9.497 -27.125  1.00  0.00    -0.550 OA
ATOM      8  O   UNL     1       0.811   7.628 -26.006  1.00  0.00    -0.550 OA
ENDBRANCH   5   6
ENDBRANCH   4   5
ENDBRANCH   3   4
ENDBRANCH   2   3
ENDBRANCH   1   2
BRANCH   1   9
ATOM      9  C   UNL     1      -2.157   6.919 -21.230  1.00  0.00     0.000 C 
BRANCH   9  10
ATOM     10  C   UNL     1      -3.582   7.348 -20.861  1.00  0.00    -0.000 C 
BRANCH  10  11
ATOM     11  C   UNL     1      -3.708   7.602 -19.354  1.00  0.00    -0.000 C 
BRANCH  11  12
ATOM     12  C   UNL     1      -2.339   7.922 -18.734  1.00  0.00    -0.000 C 
BRANCH  12  13
ATOM     13  C   UNL     1      -1.949   9.399 -18.896  1.00  0.00    -0.003 C 
ATOM     14  C   UNL     1      -2.676  10.314 -17.910  1.00  0.00     0.004 C 
ENDBRANCH  12  13
ENDBRANCH  11  12
ENDBRANCH  10  11
ENDBRANCH   9  10
ENDBRANCH   1   9
TORSDOF 10
ENDMDL
MODEL 5
REMARK VINA RESULT:    14.384     13.490     15.185
REMARK INTER + INTRA:          22.338
REMARK INTER:                  22.842
REMARK INTRA:                  -0.504
REMARK UNBOUND:                -0.454
REMARK SMILES CCCCCCCCCCCC(=O)[O-]
REMARK SMILES IDX 7 1 8 2 9 3 10 4 11 5 12 6 13 7 14 8 6 9 5 10 4 11 3 12 2 13
REMARK SMILES IDX 1 14
REMARK H PARENT
REMARK Flexibility Score: inf
ROOT
ATOM      1  C   UNL     1       4.218  18.147 -12.832  1.00  0.00     0.000 C 
ENDROOT
BRANCH   1   2
ATOM      2  C   UNL     1       4.872  17.391 -13.998  1.00  0.00     0.000 C 
BRANCH   2   3
ATOM      3  C   UNL     1       4.867  18.192 -15.311  1.00  0.00     0.000 C 
BRANCH   3   4
ATOM      4  C   UNL     1       5.020  17.351 -16.594  1.00  0.00     0.006 C 
BRANCH   4   5
ATOM      5  C   UNL     1       4.318  17.952 -17.826  1.00  0.00     0.053 C 
BRANCH   5   6
ATOM      6  C   UNL     1       3.799  16.904 -18.764  1.00  0.00     0.041 C 
ATOM      7  O   UNL     1       2.881  17.179 -19.579  1.00  0.00    -0.550 OA
ATOM      8  O   UNL     1       4.303  15.610 -18.710  1.00  0.00    -0.550 OA
ENDBRANCH   5   6
ENDBRANCH   4   5
ENDBRANCH   3   4
ENDBRANCH   2   3
ENDBRANCH   1   2
BRANCH   1   9
ATOM      9  C   UNL     1       4.196  19.656 -13.102  1.00  0.00     0.000 C 
BRANCH   9  10
ATOM     10  C   UNL     1       3.410  20.399 -12.015  1.00  0.00    -0.000 C 
BRANCH  10  11
ATOM     11  C   UNL     1       2.004  20.765 -12.505  1.00  0.00    -0.000 C 
BRANCH  11  12
ATOM     12  C   UNL     1       0.927  20.146 -11.601  1.00  0.00    -0.000 C 
BRANCH  12  13
ATOM     13  C   UNL     1       1.090  18.626 -11.447  1.00  0.00    -0.003 C 
ATOM     14  C   UNL     1      -0.148  17.850 -11.898  1.00  0.00     0.004 C 
ENDBRANCH  12  13
ENDBRANCH  11  12
ENDBRANCH  10  11
ENDBRANCH   9  10
ENDBRANCH   1   9
TORSDOF 10
ENDMDL
MODEL 6
REMARK VINA RESULT:    14.469     14.862     16.875
REMARK INTER + INTRA:          22.473
REMARK INTER:                  22.800
REMARK INTRA:                  -0.327
REMARK UNBOUND:                -0.454
REMARK SMILES CCCCCCCCCCCC(=O)[O-]
REMARK SMILES IDX 7 1 8 2 9 3 10 4 11 5 12 6 13 7 14 8 6 9 5 10 4 11 3 12 2 13
REMARK SMILES IDX 1 14
REMARK H PARENT
REMARK Flexibility Score: inf
ROOT
ATOM      1  C   UNL     1       4.248  17.985 -12.574  1.00  0.00     0.000 C 
ENDROOT
BRANCH   1   2
ATOM      2  C   UNL     1       4.968  17.358 -13.777  1.00  0.00     0.000 C 
BRANCH   2   3
ATOM      3  C   UNL     1       4.829  18.192 -15.062  1.00  0.00     0.000 C 
BRANCH   3   4
ATOM      4  C   UNL     1       5.123  17.435 -16.372  1.00  0.00     0.006 C 
BRANCH   4   5
ATOM      5  C   UNL     1       4.411  18.018 -17.607  1.00  0.00     0.053 C 
BRANCH   5   6
ATOM      6  C   UNL     1       3.743  16.965 -18.439  1.00  0.00     0.041 C 
ATOM      7  O   UNL     1       4.111  15.764 -18.360  1.00  0.00    -0.550 OA
ATOM      8  O   UNL     1       2.739  17.318 -19.333  1.00  0.00    -0.550 OA
ENDBRANCH   5   6
ENDBRANCH   4   5
ENDBRANCH   3   4
ENDBRANCH   2   3
ENDBRANCH   1   2
BRANCH   1   9
ATOM      9  C   UNL     1       4.967  19.257 -12.108  1.00  0.00     0.000 C 
BRANCH   9  10
ATOM     10  C   UNL     1       4.119  20.503 -12.390  1.00  0.00    -0.000 C 
BRANCH  10  11
ATOM     11  C   UNL     1       4.963  21.779 -12.282  1.00  0.00    -0.000 C 
BRANCH  11  12
ATOM     12  C   UNL     1       5.125  22.208 -10.815  1.00  0.00    -0.000 C 
BRANCH  12  13
ATOM     13  C   UNL     1       4.805  23.694 -10.596  1.00  0.00    -0.003 C 
ATOM     14  C   UNL     1       4.709  24.067  -9.116  1.00  0.00     0.004 C 
ENDBRANCH  12  13
ENDBRANCH  11  12
ENDBRANCH  10  11
ENDBRANCH   9  10
ENDBRANCH   1   9
TORSDOF 10
ENDMDL
MODEL 7
REMARK VINA RESULT:    14.565      3.728      5.871
REMARK INTER + INTRA:          22.625
REMARK INTER:                  23.231
REMARK INTRA:                  -0.606
REMARK UNBOUND:                -0.454
REMARK SMILES CCCCCCCCCCCC(=O)[O-]
REMARK SMILES IDX 7 1 8 2 9 3 10 4 11 5 12 6 13 7 14 8 6 9 5 10 4 11 3 12 2 13
REMARK SMILES IDX 1 14
REMARK H PARENT
REMARK Flexibility Score: inf
ROOT
ATOM      1  C   UNL     1      -2.344   9.401 -24.542  1.00  0.00     0.000 C 
ENDROOT
BRANCH   1   2
ATOM      2  C   UNL     1      -3.730   8.745 -24.463  1.00  0.00     0.000 C 
BRANCH   2   3
ATOM      3  C   UNL     1      -4.680   9.209 -25.580  1.00  0.00     0.000 C 
BRANCH   3   4
ATOM      4  C   UNL     1      -5.944   9.951 -25.103  1.00  0.00     0.006 C 
BRANCH   4   5
ATOM      5  C   UNL     1      -5.719  10.843 -23.868  1.00  0.00     0.053 C 
BRANCH   5   6
ATOM      6  C   UNL     1      -6.479  12.134 -23.942  1.00  0.00     0.041 C 
ATOM      7  O   UNL     1      -7.070  12.583 -22.925  1.00  0.00    -0.550 OA
ATOM      8  O   UNL     1      -6.567  12.821 -25.147  1.00  0.00    -0.550 OA
ENDBRANCH   5   6
ENDBRANCH   4   5
ENDBRANCH   3   4
ENDBRANCH   2   3
ENDBRANCH   1   2
BRANCH   1   9
ATOM      9  C   UNL     1      -1.387   8.786 -23.514  1.00  0.00     0.000 C 
BRANCH   9  10
ATOM     10  C   UNL     1      -2.000   7.537 -22.869  1.00  0.00    -0.000 C 
BRANCH  10  11
ATOM     11  C   UNL     1      -1.894   7.599 -21.340  1.00  0.00    -0.000 C 
BRANCH  11  12
ATOM     12  C   UNL     1      -3.175   7.067 -20.679  1.00  0.00    -0.000 C 
BRANCH  12  13
ATOM     13  C   UNL     1      -3.295   7.484 -19.205  1.00  0.00    -0.003 C 
ATOM     14  C   UNL     1      -2.325   8.604 -18.827  1.00  0.00     0.004 C 
ENDBRANCH  12  13
ENDBRANCH  11  12
ENDBRANCH  10  11
ENDBRANCH   9  10
ENDBRANCH   1   9
TORSDOF 10
ENDMDL
MODEL 8
REMARK VINA RESULT:    14.593      7.469      8.466
REMARK INTER + INTRA:          22.670
REMARK INTER:                  23.185
REMARK INTRA:                  -0.515
REMARK UNBOUND:                -0.454
REMARK SMILES CCCCCCCCCCCC(=O)[O-]
REMARK SMILES IDX 7 1 8 2 9 3 10 4 11 5 12 6 13 7 14 8 6 9 5 10 4 11 3 12 2 13
REMARK SMILES IDX 1 14
REMARK H PARENT
REMARK Flexibility Score: inf
ROOT
ATOM      1  C   UNL     1      -1.663   7.626 -24.310  1.00  0.00     0.000 C 
ENDROOT
BRANCH   1   2
ATOM      2  C   UNL     1      -1.908   9.141 -24.303  1.00  0.00     0.000 C 
BRANCH   2   3
ATOM      3  C   UNL     1      -0.696   9.949 -24.797  1.00  0.00     0.000 C 
BRANCH   3   4
ATOM      4  C   UNL     1      -0.364   9.786 -26.294  1.00  0.00     0.006 C 
BRANCH   4   5
ATOM      5  C   UNL     1       1.014   9.157 -26.567  1.00  0.00     0.053 C 
BRANCH   5   6
ATOM      6  C   UNL     1       1.046   7.686 -26.277  1.00  0.00     0.041 C 
ATOM      7  O   UNL     1       0.461   6.875 -27.042  1.00  0.00    -0.550 OA
ATOM      8  O   UNL     1       1.689   7.215 -25.139  1.00  0.00    -0.550 OA
ENDBRANCH   5   6
ENDBRANCH   4   5
ENDBRANCH   3   4
ENDBRANCH   2   3
ENDBRANCH   1   2
BRANCH   1   9
ATOM      9  C   UNL     1      -2.141   6.987 -23.000  1.00  0.00     0.000 C 
BRANCH   9  10
ATOM     10  C   UNL     1      -3.671   6.899 -22.957  1.00  0.00    -0.000 C 
BRANCH  10  11
ATOM     11  C   UNL     1      -4.198   7.146 -21.538  1.00  0.00    -0.000 C 
BRANCH  11  12
ATOM     12  C   UNL     1      -3.045   7.176 -20.522  1.00  0.00    -0.000 C 
BRANCH  12  13
ATOM     13  C   UNL     1      -3.479   7.726 -19.155  1.00  0.00    -0.003 C 
ATOM     14  C   UNL     1      -2.397   8.578 -18.491  1.00  0.00     0.004 C 
ENDBRANCH  12  13
ENDBRANCH  11  12
ENDBRANCH  10  11
ENDBRANCH   9  10
ENDBRANCH   1   9
TORSDOF 10
ENDMDL
MODEL 9
REMARK VINA RESULT:    14.809      2.896      4.700
REMARK INTER + INTRA:          23.012
REMARK INTER:                  23.419
REMARK INTRA:                  -0.407
REMARK UNBOUND:                -0.454
REMARK SMILES CCCCCCCCCCCC(=O)[O-]
REMARK SMILES IDX 7 1 8 2 9 3 10 4 11 5 12 6 13 7 14 8 6 9 5 10 4 11 3 12 2 13
REMARK SMILES IDX 1 14
REMARK H PARENT
REMARK Flexibility Score: inf
ROOT
ATOM      1  C   UNL     1      -6.504  12.687 -24.802  1.00  0.00     0.000 C 
ENDROOT
BRANCH   1   2
ATOM      2  C   UNL     1      -5.506  13.850 -24.693  1.00  0.00     0.000 C 
BRANCH   2   3
ATOM      3  C   UNL     1      -5.378  14.657 -25.995  1.00  0.00     0.000 C 
BRANCH   3   4
ATOM      4  C   UNL     1      -4.524  15.936 -25.895  1.00  0.00     0.006 C 
BRANCH   4   5
ATOM      5  C   UNL     1      -5.338  17.241 -25.952  1.00  0.00     0.053 C 
BRANCH   5   6
ATOM      6  C   UNL     1      -5.316  17.993 -24.655  1.00  0.00     0.041 C 
ATOM      7  O   UNL     1      -4.662  17.550 -23.674  1.00  0.00    -0.550 OA
ATOM      8  O   UNL     1      -6.051  19.164 -24.516  1.00  0.00    -0.550 OA
ENDBRANCH   5   6
ENDBRANCH   4   5
ENDBRANCH   3   4
ENDBRANCH   2   3
ENDBRANCH   1   2
BRANCH   1   9
ATOM      9  C   UNL     1      -6.845  12.126 -23.417  1.00  0.00     0.000 C 
BRANCH   9  10
ATOM     10  C   UNL     1      -7.220  13.250 -22.444  1.00  0.00    -0.000 C 
BRANCH  10  11
ATOM     11  C   UNL     1      -8.309  12.792 -21.466  1.00  0.00    -0.000 C 
BRANCH  11  12
ATOM     12  C   UNL     1      -8.734  13.941 -20.538  1.00  0.00    -0.000 C 
BRANCH  12  13
ATOM     13  C   UNL     1      -8.826  13.508 -19.067  1.00  0.00    -0.003 C 
ATOM     14  C   UNL     1      -8.920  14.695 -18.107  1.00  0.00     0.004 C 
ENDBRANCH  12  13
ENDBRANCH  11  12
ENDBRANCH  10  11
ENDBRANCH   9  10
ENDBRANCH   1   9
TORSDOF 10
ENDMDL
