MODEL 1
REMARK VINA RESULT:    -4.652      0.000      0.000
REMARK INTER + INTRA:         -10.147
REMARK INTER:                  -8.731
REMARK INTRA:                  -1.415
REMARK UNBOUND:                -1.415
REMARK SMILES O=C([O-])CCCCCCCCCCCCCCC(=O)[O-]
REMARK SMILES IDX 10 1 9 2 8 3 7 4 6 5 5 6 4 7 2 8 1 9 3 10 11 11 12 12 13 13
REMARK SMILES IDX 14 14 15 15 16 16 17 17 18 18 19 19 20 20
REMARK H PARENT
REMARK Flexibility Score: inf
ROOT
ATOM      1  C   UNL     1       5.670  10.762   5.697  1.00  0.00     0.000 C 
ENDROOT
BRANCH   1   2
ATOM      2  C   UNL     1       5.790  11.600   4.410  1.00  0.00     0.000 C 
BRANCH   2   3
ATOM      3  C   UNL     1       6.957  12.602   4.450  1.00  0.00     0.000 C 
BRANCH   3   4
ATOM      4  C   UNL     1       8.265  11.986   3.903  1.00  0.00     0.000 C 
BRANCH   4   5
ATOM      5  C   UNL     1       9.541  12.653   4.454  1.00  0.00     0.000 C 
BRANCH   5   6
ATOM      6  C   UNL     1      10.125  11.992   5.715  1.00  0.00     0.006 C 
BRANCH   6   7
ATOM      7  C   UNL     1       9.700  12.699   7.008  1.00  0.00     0.053 C 
BRANCH   7   8
ATOM      8  C   UNL     1       8.718  11.858   7.761  1.00  0.00     0.041 C 
ATOM      9  O   UNL     1       8.517  10.662   7.424  1.00  0.00    -0.550 OA
ATOM     10  O   UNL     1       8.062  12.379   8.869  1.00  0.00    -0.550 OA
ENDBRANCH   7   8
ENDBRANCH   6   7
ENDBRANCH   5   6
ENDBRANCH   4   5
ENDBRANCH   3   4
ENDBRANCH   2   3
ENDBRANCH   1   2
BRANCH   1  11
ATOM     11  C   UNL     1       4.223  10.458   6.131  1.00  0.00     0.000 C 
BRANCH  11  12
ATOM     12  C   UNL     1       4.147   9.638   7.428  1.00  0.00     0.000 C 
BRANCH  12  13
ATOM     13  C   UNL     1       5.276  10.024   8.397  1.00  0.00     0.000 C 
BRANCH  13  14
ATOM     14  C   UNL     1       4.803  10.988   9.497  1.00  0.00     0.000 C 
BRANCH  14  15
ATOM     15  C   UNL     1       4.617  12.426   8.984  1.00  0.00     0.000 C 
BRANCH  15  16
ATOM     16  C   UNL     1       3.224  12.990   9.306  1.00  0.00     0.006 C 
BRANCH  16  17
ATOM     17  C   UNL     1       2.093  12.118   8.746  1.00  0.00     0.053 C 
BRANCH  17  18
ATOM     18  C   UNL     1       0.979  12.007   9.738  1.00  0.00     0.041 C 
ATOM     19  O   UNL     1       1.061  11.190  10.693  1.00  0.00    -0.550 OA
ATOM     20  O   UNL     1      -0.171  12.770   9.581  1.00  0.00    -0.550 OA
ENDBRANCH  17  18
ENDBRANCH  16  17
ENDBRANCH  15  16
ENDBRANCH  14  15
ENDBRANCH  13  14
ENDBRANCH  12  13
ENDBRANCH  11  12
ENDBRANCH   1  11
TORSDOF 15
ENDMDL
MODEL 2
REMARK VINA RESULT:    -4.529      1.630      5.667
REMARK INTER + INTRA:          -9.915
REMARK INTER:                  -8.558
REMARK INTRA:                  -1.357
REMARK UNBOUND:                -1.415
REMARK SMILES O=C([O-])CCCCCCCCCCCCCCC(=O)[O-]
REMARK SMILES IDX 10 1 9 2 8 3 7 4 6 5 5 6 4 7 2 8 1 9 3 10 11 11 12 12 13 13
REMARK SMILES IDX 14 14 15 15 16 16 17 17 18 18 19 19 20 20
REMARK H PARENT
REMARK Flexibility Score: inf
ROOT
ATOM      1  C   UNL     1       9.024  10.859   6.571  1.00  0.00     0.000 C 
ENDROOT
BRANCH   1   2
ATOM      2  C   UNL     1       7.973  11.175   7.652  1.00  0.00     0.000 C 
BRANCH   2   3
ATOM      3  C   UNL     1       8.132  12.582   8.252  1.00  0.00     0.000 C 
BRANCH   3   4
ATOM      4  C   UNL     1       6.988  12.923   9.234  1.00  0.00     0.000 C 
BRANCH   4   5
ATOM      5  C   UNL     1       5.597  12.979   8.569  1.00  0.00     0.000 C 
BRANCH   5   6
ATOM      6  C   UNL     1       4.486  12.235   9.330  1.00  0.00     0.006 C 
BRANCH   6   7
ATOM      7  C   UNL     1       3.118  12.918   9.203  1.00  0.00     0.053 C 
BRANCH   7   8
ATOM      8  C   UNL     1       2.028  11.975   9.604  1.00  0.00     0.041 C 
ATOM      9  O   UNL     1       2.305  10.804   9.973  1.00  0.00    -0.550 OA
ATOM     10  O   UNL     1       0.708  12.406   9.620  1.00  0.00    -0.550 OA
ENDBRANCH   7   8
ENDBRANCH   6   7
ENDBRANCH   5   6
ENDBRANCH   4   5
ENDBRANCH   3   4
ENDBRANCH   2   3
ENDBRANCH   1   2
BRANCH   1  11
ATOM     11  C   UNL     1      10.025  11.998   6.298  1.00  0.00     0.000 C 
BRANCH  11  12
ATOM     12  C   UNL     1       9.849  12.629   4.908  1.00  0.00     0.000 C 
BRANCH  12  13
ATOM     13  C   UNL     1       8.583  12.101   4.213  1.00  0.00     0.000 C 
BRANCH  13  14
ATOM     14  C   UNL     1       7.337  12.937   4.550  1.00  0.00     0.000 C 
BRANCH  14  15
ATOM     15  C   UNL     1       6.027  12.219   4.185  1.00  0.00     0.000 C 
BRANCH  15  16
ATOM     16  C   UNL     1       5.737  11.021   5.104  1.00  0.00     0.006 C 
BRANCH  16  17
ATOM     17  C   UNL     1       4.240  10.701   5.197  1.00  0.00     0.053 C 
BRANCH  17  18
ATOM     18  C   UNL     1       3.903  10.169   6.554  1.00  0.00     0.041 C 
ATOM     19  O   UNL     1       4.803   9.671   7.281  1.00  0.00    -0.550 OA
ATOM     20  O   UNL     1       2.586  10.180   6.998  1.00  0.00    -0.550 OA
ENDBRANCH  17  18
ENDBRANCH  16  17
ENDBRANCH  15  16
ENDBRANCH  14  15
ENDBRANCH  13  14
ENDBRANCH  12  13
ENDBRANCH  11  12
ENDBRANCH   1  11
TORSDOF 15
ENDMDL
MODEL 3
REMARK VINA RESULT:    -4.504      2.693      8.611
REMARK INTER + INTRA:          -9.870
REMARK INTER:                  -8.999
REMARK INTRA:                  -0.871
REMARK UNBOUND:                -1.415
REMARK SMILES O=C([O-])CCCCCCCCCCCCCCC(=O)[O-]
REMARK SMILES IDX 10 1 9 2 8 3 7 4 6 5 5 6 4 7 2 8 1 9 3 10 11 11 12 12 13 13
REMARK SMILES IDX 14 14 15 15 16 16 17 17 18 18 19 19 20 20
REMARK H PARENT
REMARK Flexibility Score: inf
ROOT
ATOM      1  C   UNL     1       3.154  10.304   7.803  1.00  0.00     0.000 C 
ENDROOT
BRANCH   1   2
ATOM      2  C   UNL     1       2.703  11.390   8.798  1.00  0.00     0.000 C 
BRANCH   2   3
ATOM      3  C   UNL     1       1.420  11.015   9.558  1.00  0.00     0.000 C 
BRANCH   3   4
ATOM      4  C   UNL     1       0.764  12.245  10.226  1.00  0.00     0.000 C 
BRANCH   4   5
ATOM      5  C   UNL     1      -0.041  13.125   9.248  1.00  0.00     0.000 C 
BRANCH   5   6
ATOM      6  C   UNL     1      -1.070  12.366   8.392  1.00  0.00     0.006 C 
BRANCH   6   7
ATOM      7  C   UNL     1      -2.517  12.640   8.821  1.00  0.00     0.053 C 
BRANCH   7   8
ATOM      8  C   UNL     1      -3.463  12.268   7.723  1.00  0.00     0.041 C 
ATOM      9  O   UNL     1      -3.743  13.097   6.818  1.00  0.00    -0.550 OA
ATOM     10  O   UNL     1      -3.996  10.987   7.670  1.00  0.00    -0.550 OA
ENDBRANCH   7   8
ENDBRANCH   6   7
ENDBRANCH   5   6
ENDBRANCH   4   5
ENDBRANCH   3   4
ENDBRANCH   2   3
ENDBRANCH   1   2
BRANCH   1  11
ATOM     11  C   UNL     1       4.612   9.836   7.983  1.00  0.00     0.000 C 
BRANCH  11  12
ATOM     12  C   UNL     1       5.586  10.531   7.019  1.00  0.00     0.000 C 
BRANCH  12  13
ATOM     13  C   UNL     1       6.323  11.689   7.713  1.00  0.00     0.000 C 
BRANCH  13  14
ATOM     14  C   UNL     1       7.814  11.386   7.935  1.00  0.00     0.000 C 
BRANCH  14  15
ATOM     15  C   UNL     1       8.430  10.569   6.787  1.00  0.00     0.000 C 
BRANCH  15  16
ATOM     16  C   UNL     1       9.360  11.411   5.898  1.00  0.00     0.006 C 
BRANCH  16  17
ATOM     17  C   UNL     1       8.668  12.664   5.347  1.00  0.00     0.053 C 
BRANCH  17  18
ATOM     18  C   UNL     1       7.955  12.347   4.070  1.00  0.00     0.041 C 
ATOM     19  O   UNL     1       6.709  12.159   4.071  1.00  0.00    -0.550 OA
ATOM     20  O   UNL     1       8.671  12.213   2.887  1.00  0.00    -0.550 OA
ENDBRANCH  17  18
ENDBRANCH  16  17
ENDBRANCH  15  16
ENDBRANCH  14  15
ENDBRANCH  13  14
ENDBRANCH  12  13
ENDBRANCH  11  12
ENDBRANCH   1  11
TORSDOF 15
ENDMDL
MODEL 4
REMARK VINA RESULT:    -4.456      1.907      7.223
REMARK INTER + INTRA:          -9.779
REMARK INTER:                  -8.023
REMARK INTRA:                  -1.756
REMARK UNBOUND:                -1.415
REMARK SMILES O=C([O-])CCCCCCCCCCCCCCC(=O)[O-]
REMARK SMILES IDX 10 1 9 2 8 3 7 4 6 5 5 6 4 7 2 8 1 9 3 10 11 11 12 12 13 13
REMARK SMILES IDX 14 14 15 15 16 16 17 17 18 18 19 19 20 20
REMARK H PARENT
REMARK Flexibility Score: inf
ROOT
ATOM      1  C   UNL     1       5.581  10.495   6.616  1.00  0.00     0.000 C 
ENDROOT
BRANCH   1   2
ATOM      2  C   UNL     1       4.202   9.933   7.009  1.00  0.00     0.000 C 
BRANCH   2   3
ATOM      3  C   UNL     1       4.191   9.282   8.403  1.00  0.00     0.000 C 
BRANCH   3   4
ATOM      4  C   UNL     1       3.272  10.041   9.387  1.00  0.00     0.000 C 
BRANCH   4   5
ATOM      5  C   UNL     1       3.745  11.475   9.697  1.00  0.00     0.000 C 
BRANCH   5   6
ATOM      6  C   UNL     1       2.890  12.589   9.069  1.00  0.00     0.006 C 
BRANCH   6   7
ATOM      7  C   UNL     1       1.588  12.844   9.839  1.00  0.00     0.053 C 
BRANCH   7   8
ATOM      8  C   UNL     1       0.411  12.393   9.032  1.00  0.00     0.041 C 
ATOM      9  O   UNL     1       0.490  11.360   8.317  1.00  0.00    -0.550 OA
ATOM     10  O   UNL     1      -0.791  13.085   9.110  1.00  0.00    -0.550 OA
ENDBRANCH   7   8
ENDBRANCH   6   7
ENDBRANCH   5   6
ENDBRANCH   4   5
ENDBRANCH   3   4
ENDBRANCH   2   3
ENDBRANCH   1   2
BRANCH   1  11
ATOM     11  C   UNL     1       5.636  12.031   6.497  1.00  0.00     0.000 C 
BRANCH  11  12
ATOM     12  C   UNL     1       6.623  12.673   7.484  1.00  0.00     0.000 C 
BRANCH  12  13
ATOM     13  C   UNL     1       7.294  11.611   8.371  1.00  0.00     0.000 C 
BRANCH  13  14
ATOM     14  C   UNL     1       8.679  11.197   7.846  1.00  0.00     0.000 C 
BRANCH  14  15
ATOM     15  C   UNL     1       9.415  12.351   7.145  1.00  0.00     0.000 C 
BRANCH  15  16
ATOM     16  C   UNL     1      10.078  11.911   5.829  1.00  0.00     0.006 C 
BRANCH  16  17
ATOM     17  C   UNL     1       9.059  11.425   4.792  1.00  0.00     0.053 C 
BRANCH  17  18
ATOM     18  C   UNL     1       8.693  12.536   3.859  1.00  0.00     0.041 C 
ATOM     19  O   UNL     1       7.586  13.125   3.978  1.00  0.00    -0.550 OA
ATOM     20  O   UNL     1       9.555  12.890   2.827  1.00  0.00    -0.550 OA
ENDBRANCH  17  18
ENDBRANCH  16  17
ENDBRANCH  15  16
ENDBRANCH  14  15
ENDBRANCH  13  14
ENDBRANCH  12  13
ENDBRANCH  11  12
ENDBRANCH   1  11
TORSDOF 15
ENDMDL
MODEL 5
REMARK VINA RESULT:    -4.336      0.758      6.675
REMARK INTER + INTRA:          -9.554
REMARK INTER:                  -8.225
REMARK INTRA:                  -1.329
REMARK UNBOUND:                -1.415
REMARK SMILES O=C([O-])CCCCCCCCCCCCCCC(=O)[O-]
REMARK SMILES IDX 10 1 9 2 8 3 7 4 6 5 5 6 4 7 2 8 1 9 3 10 11 11 12 12 13 13
REMARK SMILES IDX 14 14 15 15 16 16 17 17 18 18 19 19 20 20
REMARK H PARENT
REMARK Flexibility Score: inf
ROOT
ATOM      1  C   UNL     1       4.909  10.160   5.175  1.00  0.00     0.000 C 
ENDROOT
BRANCH   1   2
ATOM      2  C   UNL     1       3.937  10.553   6.304  1.00  0.00     0.000 C 
BRANCH   2   3
ATOM      3  C   UNL     1       4.149   9.738   7.591  1.00  0.00     0.000 C 
BRANCH   3   4
ATOM      4  C   UNL     1       5.123  10.439   8.565  1.00  0.00     0.000 C 
BRANCH   4   5
ATOM      5  C   UNL     1       4.423  11.367   9.579  1.00  0.00     0.000 C 
BRANCH   5   6
ATOM      6  C   UNL     1       3.584  12.494   8.954  1.00  0.00     0.006 C 
BRANCH   6   7
ATOM      7  C   UNL     1       2.276  12.752   9.712  1.00  0.00     0.053 C 
BRANCH   7   8
ATOM      8  C   UNL     1       1.376  11.560   9.615  1.00  0.00     0.041 C 
ATOM      9  O   UNL     1       1.312  10.734  10.563  1.00  0.00    -0.550 OA
ATOM     10  O   UNL     1       0.569  11.387   8.498  1.00  0.00    -0.550 OA
ENDBRANCH   7   8
ENDBRANCH   6   7
ENDBRANCH   5   6
ENDBRANCH   4   5
ENDBRANCH   3   4
ENDBRANCH   2   3
ENDBRANCH   1   2
BRANCH   1  11
ATOM     11  C   UNL     1       6.264  10.894   5.211  1.00  0.00     0.000 C 
BRANCH  11  12
ATOM     12  C   UNL     1       6.115  12.423   5.269  1.00  0.00     0.000 C 
BRANCH  12  13
ATOM     13  C   UNL     1       7.344  13.124   4.668  1.00  0.00     0.000 C 
BRANCH  13  14
ATOM     14  C   UNL     1       8.306  12.140   3.983  1.00  0.00     0.000 C 
BRANCH  14  15
ATOM     15  C   UNL     1       9.767  12.338   4.421  1.00  0.00     0.000 C 
BRANCH  15  16
ATOM     16  C   UNL     1      10.124  11.511   5.667  1.00  0.00     0.006 C 
BRANCH  16  17
ATOM     17  C   UNL     1      10.025  12.327   6.962  1.00  0.00     0.053 C 
BRANCH  17  18
ATOM     18  C   UNL     1       8.815  11.921   7.743  1.00  0.00     0.041 C 
ATOM     19  O   UNL     1       8.197  12.770   8.439  1.00  0.00    -0.550 OA
ATOM     20  O   UNL     1       8.397  10.596   7.740  1.00  0.00    -0.550 OA
ENDBRANCH  17  18
ENDBRANCH  16  17
ENDBRANCH  15  16
ENDBRANCH  14  15
ENDBRANCH  13  14
ENDBRANCH  12  13
ENDBRANCH  11  12
ENDBRANCH   1  11
TORSDOF 15
ENDMDL
MODEL 6
REMARK VINA RESULT:    -4.288      2.211      8.405
REMARK INTER + INTRA:          -9.463
REMARK INTER:                  -8.810
REMARK INTRA:                  -0.653
REMARK UNBOUND:                -1.415
REMARK SMILES O=C([O-])CCCCCCCCCCCCCCC(=O)[O-]
REMARK SMILES IDX 10 1 9 2 8 3 7 4 6 5 5 6 4 7 2 8 1 9 3 10 11 11 12 12 13 13
REMARK SMILES IDX 14 14 15 15 16 16 17 17 18 18 19 19 20 20
REMARK H PARENT
REMARK Flexibility Score: inf
ROOT
ATOM      1  C   UNL     1       3.770  10.119   7.511  1.00  0.00     0.000 C 
ENDROOT
BRANCH   1   2
ATOM      2  C   UNL     1       3.079  10.653   8.780  1.00  0.00     0.000 C 
BRANCH   2   3
ATOM      3  C   UNL     1       1.701  11.276   8.499  1.00  0.00     0.000 C 
BRANCH   3   4
ATOM      4  C   UNL     1       1.070  11.882   9.773  1.00  0.00     0.000 C 
BRANCH   4   5
ATOM      5  C   UNL     1       0.013  12.967   9.485  1.00  0.00     0.000 C 
BRANCH   5   6
ATOM      6  C   UNL     1      -0.951  12.642   8.331  1.00  0.00     0.006 C 
BRANCH   6   7
ATOM      7  C   UNL     1      -2.382  13.125   8.598  1.00  0.00     0.053 C 
BRANCH   7   8
ATOM      8  C   UNL     1      -3.348  12.400   7.714  1.00  0.00     0.041 C 
ATOM      9  O   UNL     1      -3.414  11.143   7.743  1.00  0.00    -0.550 OA
ATOM     10  O   UNL     1      -4.213  13.115   6.896  1.00  0.00    -0.550 OA
ENDBRANCH   7   8
ENDBRANCH   6   7
ENDBRANCH   5   6
ENDBRANCH   4   5
ENDBRANCH   3   4
ENDBRANCH   2   3
ENDBRANCH   1   2
BRANCH   1  11
ATOM     11  C   UNL     1       4.928  10.995   6.996  1.00  0.00     0.000 C 
BRANCH  11  12
ATOM     12  C   UNL     1       4.933  11.142   5.466  1.00  0.00     0.000 C 
BRANCH  12  13
ATOM     13  C   UNL     1       6.004  12.145   5.006  1.00  0.00     0.000 C 
BRANCH  13  14
ATOM     14  C   UNL     1       7.217  11.454   4.362  1.00  0.00     0.000 C 
BRANCH  14  15
ATOM     15  C   UNL     1       8.497  12.303   4.446  1.00  0.00     0.000 C 
BRANCH  15  16
ATOM     16  C   UNL     1       9.618  11.600   5.228  1.00  0.00     0.006 C 
BRANCH  16  17
ATOM     17  C   UNL     1       9.833  12.206   6.620  1.00  0.00     0.053 C 
BRANCH  17  18
ATOM     18  C   UNL     1       8.624  11.993   7.475  1.00  0.00     0.041 C 
ATOM     19  O   UNL     1       8.386  10.857   7.964  1.00  0.00    -0.550 OA
ATOM     20  O   UNL     1       7.734  13.037   7.694  1.00  0.00    -0.550 OA
ENDBRANCH  17  18
ENDBRANCH  16  17
ENDBRANCH  15  16
ENDBRANCH  14  15
ENDBRANCH  13  14
ENDBRANCH  12  13
ENDBRANCH  11  12
ENDBRANCH   1  11
TORSDOF 15
ENDMDL
MODEL 7
REMARK VINA RESULT:    -3.853      2.498      4.139
REMARK INTER + INTRA:          -8.646
REMARK INTER:                  -7.908
REMARK INTRA:                  -0.738
REMARK UNBOUND:                -1.415
REMARK SMILES O=C([O-])CCCCCCCCCCCCCCC(=O)[O-]
REMARK SMILES IDX 10 1 9 2 8 3 7 4 6 5 5 6 4 7 2 8 1 9 3 10 11 11 12 12 13 13
REMARK SMILES IDX 14 14 15 15 16 16 17 17 18 18 19 19 20 20
REMARK H PARENT
REMARK Flexibility Score: inf
ROOT
ATOM      1  C   UNL     1       4.064   9.561   7.729  1.00  0.00     0.000 C 
ENDROOT
BRANCH   1   2
ATOM      2  C   UNL     1       5.487   9.853   8.241  1.00  0.00     0.000 C 
BRANCH   2   3
ATOM      3  C   UNL     1       5.685  11.317   8.669  1.00  0.00     0.000 C 
BRANCH   3   4
ATOM      4  C   UNL     1       7.150  11.776   8.498  1.00  0.00     0.000 C 
BRANCH   4   5
ATOM      5  C   UNL     1       7.307  13.031   7.616  1.00  0.00     0.000 C 
BRANCH   5   6
ATOM      6  C   UNL     1       6.326  13.120   6.435  1.00  0.00     0.006 C 
BRANCH   6   7
ATOM      7  C   UNL     1       7.016  12.944   5.075  1.00  0.00     0.053 C 
BRANCH   7   8
ATOM      8  C   UNL     1       7.596  11.569   4.962  1.00  0.00     0.041 C 
ATOM      9  O   UNL     1       8.820  11.415   4.711  1.00  0.00    -0.550 OA
ATOM     10  O   UNL     1       6.795  10.456   5.185  1.00  0.00    -0.550 OA
ENDBRANCH   7   8
ENDBRANCH   6   7
ENDBRANCH   5   6
ENDBRANCH   4   5
ENDBRANCH   3   4
ENDBRANCH   2   3
ENDBRANCH   1   2
BRANCH   1  11
ATOM     11  C   UNL     1       2.985  10.533   8.247  1.00  0.00     0.000 C 
BRANCH  11  12
ATOM     12  C   UNL     1       2.809  10.473   9.772  1.00  0.00     0.000 C 
BRANCH  12  13
ATOM     13  C   UNL     1       1.487  11.128  10.205  1.00  0.00     0.000 C 
BRANCH  13  14
ATOM     14  C   UNL     1       0.716  11.735   9.021  1.00  0.00     0.000 C 
BRANCH  14  15
ATOM     15  C   UNL     1       0.096  13.101   9.356  1.00  0.00     0.000 C 
BRANCH  15  16
ATOM     16  C   UNL     1      -1.439  13.086   9.272  1.00  0.00     0.006 C 
BRANCH  16  17
ATOM     17  C   UNL     1      -1.947  12.918   7.835  1.00  0.00     0.053 C 
BRANCH  17  18
ATOM     18  C   UNL     1      -3.420  12.654   7.829  1.00  0.00     0.041 C 
ATOM     19  O   UNL     1      -4.106  12.913   6.804  1.00  0.00    -0.550 OA
ATOM     20  O   UNL     1      -4.044  12.166   8.970  1.00  0.00    -0.550 OA
ENDBRANCH  17  18
ENDBRANCH  16  17
ENDBRANCH  15  16
ENDBRANCH  14  15
ENDBRANCH  13  14
ENDBRANCH  12  13
ENDBRANCH  11  12
ENDBRANCH   1  11
TORSDOF 15
ENDMDL
MODEL 8
REMARK VINA RESULT:    -3.840      2.049      3.000
REMARK INTER + INTRA:          -8.623
REMARK INTER:                  -7.920
REMARK INTRA:                  -0.702
REMARK UNBOUND:                -1.415
REMARK SMILES O=C([O-])CCCCCCCCCCCCCCC(=O)[O-]
REMARK SMILES IDX 10 1 9 2 8 3 7 4 6 5 5 6 4 7 2 8 1 9 3 10 11 11 12 12 13 13
REMARK SMILES IDX 14 14 15 15 16 16 17 17 18 18 19 19 20 20
REMARK H PARENT
REMARK Flexibility Score: inf
ROOT
ATOM      1  C   UNL     1       4.703   9.978   7.332  1.00  0.00     0.000 C 
ENDROOT
BRANCH   1   2
ATOM      2  C   UNL     1       5.000  11.209   6.456  1.00  0.00     0.000 C 
BRANCH   2   3
ATOM      3  C   UNL     1       5.714  10.854   5.141  1.00  0.00     0.000 C 
BRANCH   3   4
ATOM      4  C   UNL     1       6.477  12.064   4.554  1.00  0.00     0.000 C 
BRANCH   4   5
ATOM      5  C   UNL     1       7.325  12.825   5.593  1.00  0.00     0.000 C 
BRANCH   5   6
ATOM      6  C   UNL     1       8.828  12.501   5.565  1.00  0.00     0.006 C 
BRANCH   6   7
ATOM      7  C   UNL     1       9.484  12.602   6.949  1.00  0.00     0.053 C 
BRANCH   7   8
ATOM      8  C   UNL     1       8.521  12.174   8.012  1.00  0.00     0.041 C 
ATOM      9  O   UNL     1       8.052  11.006   8.010  1.00  0.00    -0.550 OA
ATOM     10  O   UNL     1       8.182  13.049   9.035  1.00  0.00    -0.550 OA
ENDBRANCH   7   8
ENDBRANCH   6   7
ENDBRANCH   5   6
ENDBRANCH   4   5
ENDBRANCH   3   4
ENDBRANCH   2   3
ENDBRANCH   1   2
BRANCH   1  11
ATOM     11  C   UNL     1       3.342  10.018   8.055  1.00  0.00     0.000 C 
BRANCH  11  12
ATOM     12  C   UNL     1       3.442  10.559   9.490  1.00  0.00     0.000 C 
BRANCH  12  13
ATOM     13  C   UNL     1       2.913  11.999   9.580  1.00  0.00     0.000 C 
BRANCH  13  14
ATOM     14  C   UNL     1       1.427  12.055   9.973  1.00  0.00     0.000 C 
BRANCH  14  15
ATOM     15  C   UNL     1       0.524  12.506   8.813  1.00  0.00     0.000 C 
BRANCH  15  16
ATOM     16  C   UNL     1      -0.962  12.540   9.205  1.00  0.00     0.006 C 
BRANCH  16  17
ATOM     17  C   UNL     1      -1.848  13.125   8.098  1.00  0.00     0.053 C 
BRANCH  17  18
ATOM     18  C   UNL     1      -3.267  12.684   8.277  1.00  0.00     0.041 C 
ATOM     19  O   UNL     1      -3.652  12.222   9.384  1.00  0.00    -0.550 OA
ATOM     20  O   UNL     1      -4.153  12.739   7.208  1.00  0.00    -0.550 OA
ENDBRANCH  17  18
ENDBRANCH  16  17
ENDBRANCH  15  16
ENDBRANCH  14  15
ENDBRANCH  13  14
ENDBRANCH  12  13
ENDBRANCH  11  12
ENDBRANCH   1  11
TORSDOF 15
ENDMDL
MODEL 9
REMARK VINA RESULT:    -3.784      1.628      3.263
REMARK INTER + INTRA:          -8.518
REMARK INTER:                  -7.403
REMARK INTRA:                  -1.116
REMARK UNBOUND:                -1.415
REMARK SMILES O=C([O-])CCCCCCCCCCCCCCC(=O)[O-]
REMARK SMILES IDX 10 1 9 2 8 3 7 4 6 5 5 6 4 7 2 8 1 9 3 10 11 11 12 12 13 13
REMARK SMILES IDX 14 14 15 15 16 16 17 17 18 18 19 19 20 20
REMARK H PARENT
REMARK Flexibility Score: inf
ROOT
ATOM      1  C   UNL     1       8.149  13.045   9.261  1.00  0.00     0.000 C 
ENDROOT
BRANCH   1   2
ATOM      2  C   UNL     1       9.450  12.799   8.474  1.00  0.00     0.000 C 
BRANCH   2   3
ATOM      3  C   UNL     1       9.283  12.998   6.958  1.00  0.00     0.000 C 
BRANCH   3   4
ATOM      4  C   UNL     1       9.682  11.735   6.162  1.00  0.00     0.000 C 
BRANCH   4   5
ATOM      5  C   UNL     1       8.847  11.518   4.884  1.00  0.00     0.000 C 
BRANCH   5   6
ATOM      6  C   UNL     1       7.985  12.720   4.462  1.00  0.00     0.006 C 
BRANCH   6   7
ATOM      7  C   UNL     1       6.615  12.741   5.152  1.00  0.00     0.053 C 
BRANCH   7   8
ATOM      8  C   UNL     1       5.981  11.387   5.087  1.00  0.00     0.041 C 
ATOM      9  O   UNL     1       5.289  11.057   4.088  1.00  0.00    -0.550 OA
ATOM     10  O   UNL     1       6.198  10.469   6.106  1.00  0.00    -0.550 OA
ENDBRANCH   7   8
ENDBRANCH   6   7
ENDBRANCH   5   6
ENDBRANCH   4   5
ENDBRANCH   3   4
ENDBRANCH   2   3
ENDBRANCH   1   2
BRANCH   1  11
ATOM     11  C   UNL     1       6.957  12.175   8.818  1.00  0.00     0.000 C 
BRANCH  11  12
ATOM     12  C   UNL     1       5.720  13.003   8.436  1.00  0.00     0.000 C 
BRANCH  12  13
ATOM     13  C   UNL     1       4.491  12.578   9.255  1.00  0.00     0.000 C 
BRANCH  13  14
ATOM     14  C   UNL     1       4.485  11.073   9.569  1.00  0.00     0.000 C 
BRANCH  14  15
ATOM     15  C   UNL     1       3.623  10.266   8.583  1.00  0.00     0.000 C 
BRANCH  15  16
ATOM     16  C   UNL     1       2.554  11.130   7.894  1.00  0.00     0.006 C 
BRANCH  16  17
ATOM     17  C   UNL     1       1.141  10.842   8.415  1.00  0.00     0.053 C 
BRANCH  17  18
ATOM     18  C   UNL     1       0.724  11.889   9.399  1.00  0.00     0.041 C 
ATOM     19  O   UNL     1       0.168  12.947   9.001  1.00  0.00    -0.550 OA
ATOM     20  O   UNL     1       0.991  11.719  10.752  1.00  0.00    -0.550 OA
ENDBRANCH  17  18
ENDBRANCH  16  17
ENDBRANCH  15  16
ENDBRANCH  14  15
ENDBRANCH  13  14
ENDBRANCH  12  13
ENDBRANCH  11  12
ENDBRANCH   1  11
TORSDOF 15
ENDMDL
