MODEL 1
REMARK VINA RESULT:     4.032      0.000      0.000
REMARK INTER + INTRA:           5.250
REMARK INTER:                   4.974
REMARK INTRA:                   0.276
REMARK UNBOUND:                 0.276
REMARK SMILES Oc1cc(O)c2cc(O)c(-c3cc(O)c(O)c(O)c3)[o+]c2c1
REMARK SMILES IDX 10 1 20 2 21 3 22 4 2 5 3 6 4 7 6 8 7 9 8 10 11 11 12 12
REMARK SMILES IDX 13 13 19 14 15 15 17 16 14 17 16 19 18 21 9 23 1 25 5 27
REMARK H PARENT 14 18 16 20 18 22 9 24 1 26 5 28
REMARK Flexibility Score: inf
ROOT
ATOM      1  C   UNL     1      58.708  27.156  16.869  1.00  0.00     0.402 A 
ATOM      2  O   UNL     1      59.560  26.523  16.068  1.00  0.00    -0.202 OA
ATOM      3  C   UNL     1      60.856  26.814  16.006  1.00  0.00     0.368 A 
ATOM      4  C   UNL     1      61.674  26.090  15.134  1.00  0.00     0.162 A 
ATOM      5  C   UNL     1      63.040  26.373  15.050  1.00  0.00     0.128 A 
ATOM      6  C   UNL     1      63.591  27.382  15.842  1.00  0.00     0.093 A 
ATOM      7  C   UNL     1      62.793  28.122  16.724  1.00  0.00     0.136 A 
ATOM      8  C   UNL     1      61.404  27.840  16.810  1.00  0.00     0.125 A 
ATOM      9  C   UNL     1      60.526  28.539  17.655  1.00  0.00     0.078 A 
ATOM     10  C   UNL     1      59.168  28.207  17.683  1.00  0.00     0.223 A 
ENDROOT
BRANCH   1  11
ATOM     11  C   UNL     1      57.288  26.733  16.856  1.00  0.00     0.091 A 
ATOM     12  C   UNL     1      56.261  27.606  17.252  1.00  0.00     0.068 A 
ATOM     13  C   UNL     1      54.925  27.181  17.254  1.00  0.00     0.162 A 
ATOM     14  C   UNL     1      56.965  25.417  16.494  1.00  0.00     0.068 A 
ATOM     15  C   UNL     1      54.609  25.867  16.868  1.00  0.00     0.200 A 
ATOM     16  C   UNL     1      55.630  24.985  16.493  1.00  0.00     0.162 A 
BRANCH  13  17
ATOM     17  O   UNL     1      53.913  28.057  17.643  1.00  0.00    -0.504 OA
ATOM     18  H   UNL     1      53.458  27.976  18.544  1.00  0.00     0.293 HD
ENDBRANCH  13  17
BRANCH  15  19
ATOM     19  O   UNL     1      53.286  25.421  16.858  1.00  0.00    -0.502 OA
ATOM     20  H   UNL     1      52.503  26.062  16.840  1.00  0.00     0.293 HD
ENDBRANCH  15  19
BRANCH  16  21
ATOM     21  O   UNL     1      55.313  23.681  16.119  1.00  0.00    -0.504 OA
ATOM     22  H   UNL     1      55.051  22.981  16.803  1.00  0.00     0.293 HD
ENDBRANCH  16  21
ENDBRANCH   1  11
BRANCH  10  23
ATOM     23  O   UNL     1      58.287  28.933  18.485  1.00  0.00    -0.500 OA
ATOM     24  H   UNL     1      58.149  28.708  19.463  1.00  0.00     0.294 HD
ENDBRANCH  10  23
BRANCH   5  25
ATOM     25  O   UNL     1      63.862  25.655  14.183  1.00  0.00    -0.507 OA
ATOM     26  H   UNL     1      64.212  26.064  13.325  1.00  0.00     0.293 HD
ENDBRANCH   5  25
BRANCH   7  27
ATOM     27  O   UNL     1      63.421  29.113  17.484  1.00  0.00    -0.507 OA
ATOM     28  H   UNL     1      63.902  28.945  18.355  1.00  0.00     0.293 HD
ENDBRANCH   7  27
TORSDOF 7
ENDMDL
MODEL 2
REMARK VINA RESULT:     4.409      0.062      1.789
REMARK INTER + INTRA:           5.715
REMARK INTER:                   5.405
REMARK INTRA:                   0.311
REMARK UNBOUND:                 0.276
REMARK SMILES Oc1cc(O)c2cc(O)c(-c3cc(O)c(O)c(O)c3)[o+]c2c1
REMARK SMILES IDX 10 1 20 2 21 3 22 4 2 5 3 6 4 7 6 8 7 9 8 10 11 11 12 12
REMARK SMILES IDX 13 13 19 14 15 15 17 16 14 17 16 19 18 21 9 23 1 25 5 27
REMARK H PARENT 14 18 16 20 18 22 9 24 1 26 5 28
REMARK Flexibility Score: inf
ROOT
ATOM      1  C   UNL     1      58.739  27.090  16.901  1.00  0.00     0.402 A 
ATOM      2  O   UNL     1      59.589  26.460  16.095  1.00  0.00    -0.202 OA
ATOM      3  C   UNL     1      60.880  26.766  16.012  1.00  0.00     0.368 A 
ATOM      4  C   UNL     1      61.695  26.044  15.137  1.00  0.00     0.162 A 
ATOM      5  C   UNL     1      63.057  26.344  15.032  1.00  0.00     0.128 A 
ATOM      6  C   UNL     1      63.605  27.368  15.808  1.00  0.00     0.093 A 
ATOM      7  C   UNL     1      62.809  28.106  16.692  1.00  0.00     0.136 A 
ATOM      8  C   UNL     1      61.426  27.808  16.800  1.00  0.00     0.125 A 
ATOM      9  C   UNL     1      60.550  28.503  17.649  1.00  0.00     0.078 A 
ATOM     10  C   UNL     1      59.196  28.155  17.699  1.00  0.00     0.223 A 
ENDROOT
BRANCH   1  11
ATOM     11  C   UNL     1      57.325  26.649  16.911  1.00  0.00     0.091 A 
ATOM     12  C   UNL     1      56.962  25.347  16.527  1.00  0.00     0.068 A 
ATOM     13  C   UNL     1      55.616  24.954  16.520  1.00  0.00     0.162 A 
ATOM     14  C   UNL     1      56.320  27.564  17.256  1.00  0.00     0.068 A 
ATOM     15  C   UNL     1      54.618  25.872  16.890  1.00  0.00     0.200 A 
ATOM     16  C   UNL     1      54.972  27.178  17.253  1.00  0.00     0.162 A 
BRANCH  13  17
ATOM     17  O   UNL     1      55.267  23.658  16.143  1.00  0.00    -0.504 OA
ATOM     18  H   UNL     1      55.749  23.175  15.395  1.00  0.00     0.293 HD
ENDBRANCH  13  17
BRANCH  15  19
ATOM     19  O   UNL     1      53.272  25.505  16.895  1.00  0.00    -0.502 OA
ATOM     20  H   UNL     1      52.800  25.204  17.739  1.00  0.00     0.293 HD
ENDBRANCH  15  19
BRANCH  16  21
ATOM     21  O   UNL     1      53.979  28.088  17.611  1.00  0.00    -0.504 OA
ATOM     22  H   UNL     1      52.998  27.896  17.443  1.00  0.00     0.293 HD
ENDBRANCH  16  21
ENDBRANCH   1  11
BRANCH  10  23
ATOM     23  O   UNL     1      58.317  28.877  18.505  1.00  0.00    -0.500 OA
ATOM     24  H   UNL     1      57.379  28.548  18.699  1.00  0.00     0.294 HD
ENDBRANCH  10  23
BRANCH   5  25
ATOM     25  O   UNL     1      63.876  25.628  14.162  1.00  0.00    -0.507 OA
ATOM     26  H   UNL     1      64.187  24.688  14.380  1.00  0.00     0.293 HD
ENDBRANCH   5  25
BRANCH   7  27
ATOM     27  O   UNL     1      63.435  29.113  17.434  1.00  0.00    -0.507 OA
ATOM     28  H   UNL     1      63.425  29.168  18.442  1.00  0.00     0.293 HD
ENDBRANCH   7  27
TORSDOF 7
ENDMDL
MODEL 3
REMARK VINA RESULT:     5.975      2.517      6.713
REMARK INTER + INTRA:           7.648
REMARK INTER:                   7.890
REMARK INTRA:                  -0.242
REMARK UNBOUND:                 0.276
REMARK SMILES Oc1cc(O)c2cc(O)c(-c3cc(O)c(O)c(O)c3)[o+]c2c1
REMARK SMILES IDX 10 1 20 2 21 3 22 4 2 5 3 6 4 7 6 8 7 9 8 10 11 11 12 12
REMARK SMILES IDX 13 13 19 14 15 15 17 16 14 17 16 19 18 21 9 23 1 25 5 27
REMARK H PARENT 14 18 16 20 18 22 9 24 1 26 5 28
REMARK Flexibility Score: inf
ROOT
ATOM      1  C   UNL     1      61.604  26.128  15.009  1.00  0.00     0.402 A 
ATOM      2  O   UNL     1      60.302  26.297  15.217  1.00  0.00    -0.202 OA
ATOM      3  C   UNL     1      59.811  27.025  16.215  1.00  0.00     0.368 A 
ATOM      4  C   UNL     1      58.426  27.147  16.350  1.00  0.00     0.162 A 
ATOM      5  C   UNL     1      57.883  27.909  17.389  1.00  0.00     0.128 A 
ATOM      6  C   UNL     1      58.729  28.554  18.294  1.00  0.00     0.093 A 
ATOM      7  C   UNL     1      60.120  28.448  18.180  1.00  0.00     0.136 A 
ATOM      8  C   UNL     1      60.676  27.672  17.129  1.00  0.00     0.125 A 
ATOM      9  C   UNL     1      62.058  27.499  16.945  1.00  0.00     0.078 A 
ATOM     10  C   UNL     1      62.532  26.716  15.888  1.00  0.00     0.223 A 
ENDROOT
BRANCH   1  11
ATOM     11  C   UNL     1      62.027  25.300  13.855  1.00  0.00     0.091 A 
ATOM     12  C   UNL     1      62.776  25.846  12.799  1.00  0.00     0.068 A 
ATOM     13  C   UNL     1      63.148  25.052  11.705  1.00  0.00     0.162 A 
ATOM     14  C   UNL     1      61.626  23.957  13.786  1.00  0.00     0.068 A 
ATOM     15  C   UNL     1      62.761  23.702  11.655  1.00  0.00     0.200 A 
ATOM     16  C   UNL     1      61.996  23.158  12.695  1.00  0.00     0.162 A 
BRANCH  13  17
ATOM     17  O   UNL     1      63.896  25.602  10.664  1.00  0.00    -0.504 OA
ATOM     18  H   UNL     1      63.461  25.916   9.806  1.00  0.00     0.293 HD
ENDBRANCH  13  17
BRANCH  15  19
ATOM     19  O   UNL     1      63.121  22.891  10.579  1.00  0.00    -0.502 OA
ATOM     20  H   UNL     1      62.707  21.979  10.430  1.00  0.00     0.293 HD
ENDBRANCH  15  19
BRANCH  16  21
ATOM     21  O   UNL     1      61.607  21.821  12.639  1.00  0.00    -0.504 OA
ATOM     22  H   UNL     1      61.844  21.167  13.375  1.00  0.00     0.293 HD
ENDBRANCH  16  21
ENDBRANCH   1  11
BRANCH  10  23
ATOM     23  O   UNL     1      63.902  26.503  15.735  1.00  0.00    -0.500 OA
ATOM     24  H   UNL     1      64.272  25.943  14.977  1.00  0.00     0.294 HD
ENDBRANCH  10  23
BRANCH   5  25
ATOM     25  O   UNL     1      56.503  28.036  17.530  1.00  0.00    -0.507 OA
ATOM     26  H   UNL     1      56.028  27.750  18.379  1.00  0.00     0.293 HD
ENDBRANCH   5  25
BRANCH   7  27
ATOM     27  O   UNL     1      60.898  29.125  19.125  1.00  0.00    -0.507 OA
ATOM     28  H   UNL     1      61.889  28.988  19.250  1.00  0.00     0.293 HD
ENDBRANCH   7  27
TORSDOF 7
ENDMDL
