MODEL 1
REMARK VINA RESULT:    -4.948      0.000      0.000
REMARK INTER + INTRA:          -7.918
REMARK INTER:                  -7.262
REMARK INTRA:                  -0.656
REMARK UNBOUND:                -0.656
REMARK SMILES O=C([O-])CCCCCCCC(=O)[O-]
REMARK SMILES IDX 7 1 6 2 5 3 4 4 2 5 1 6 3 7 8 8 9 9 10 10 11 11 12 12 13 13
REMARK H PARENT
REMARK Flexibility Score: inf
ROOT
ATOM      1  C   UNL     1     -12.742 -18.065  31.082  1.00  0.00     0.000 C 
ENDROOT
BRANCH   1   2
ATOM      2  C   UNL     1     -13.430 -17.171  30.036  1.00  0.00     0.000 C 
BRANCH   2   3
ATOM      3  C   UNL     1     -12.489 -16.093  29.465  1.00  0.00     0.006 C 
BRANCH   3   4
ATOM      4  C   UNL     1     -11.453 -16.621  28.459  1.00  0.00     0.053 C 
BRANCH   4   5
ATOM      5  C   UNL     1     -11.620 -16.007  27.104  1.00  0.00     0.041 C 
ATOM      6  O   UNL     1     -10.621 -15.553  26.487  1.00  0.00    -0.550 OA
ATOM      7  O   UNL     1     -12.874 -15.969  26.507  1.00  0.00    -0.550 OA
ENDBRANCH   4   5
ENDBRANCH   3   4
ENDBRANCH   2   3
ENDBRANCH   1   2
BRANCH   1   8
ATOM      8  C   UNL     1     -11.961 -17.254  32.129  1.00  0.00     0.000 C 
BRANCH   8   9
ATOM      9  C   UNL     1     -10.667 -17.955  32.577  1.00  0.00     0.006 C 
BRANCH   9  10
ATOM     10  C   UNL     1      -9.596 -17.950  31.479  1.00  0.00     0.053 C 
BRANCH  10  11
ATOM     11  C   UNL     1      -8.699 -16.754  31.583  1.00  0.00     0.041 C 
ATOM     12  O   UNL     1      -9.030 -15.664  31.046  1.00  0.00    -0.550 OA
ATOM     13  O   UNL     1      -7.483 -16.851  32.248  1.00  0.00    -0.550 OA
ENDBRANCH  10  11
ENDBRANCH   9  10
ENDBRANCH   8   9
ENDBRANCH   1   8
TORSDOF 8
ENDMDL
MODEL 2
REMARK VINA RESULT:    -4.901      1.981      2.963
REMARK INTER + INTRA:          -7.849
REMARK INTER:                  -7.319
REMARK INTRA:                  -0.530
REMARK UNBOUND:                -0.656
REMARK SMILES O=C([O-])CCCCCCCC(=O)[O-]
REMARK SMILES IDX 7 1 6 2 5 3 4 4 2 5 1 6 3 7 8 8 9 9 10 10 11 11 12 12 13 13
REMARK H PARENT
REMARK Flexibility Score: inf
ROOT
ATOM      1  C   UNL     1     -12.807 -16.122  28.975  1.00  0.00     0.000 C 
ENDROOT
BRANCH   1   2
ATOM      2  C   UNL     1     -11.987 -16.791  27.859  1.00  0.00     0.000 C 
BRANCH   2   3
ATOM      3  C   UNL     1     -10.635 -16.095  27.613  1.00  0.00     0.006 C 
BRANCH   3   4
ATOM      4  C   UNL     1     -10.560 -15.298  26.301  1.00  0.00     0.053 C 
BRANCH   4   5
ATOM      5  C   UNL     1      -9.223 -14.650  26.111  1.00  0.00     0.041 C 
ATOM      6  O   UNL     1      -9.138 -13.525  25.553  1.00  0.00    -0.550 OA
ATOM      7  O   UNL     1      -8.075 -15.273  26.583  1.00  0.00    -0.550 OA
ENDBRANCH   4   5
ENDBRANCH   3   4
ENDBRANCH   2   3
ENDBRANCH   1   2
BRANCH   1   8
ATOM      8  C   UNL     1     -13.335 -17.133  30.006  1.00  0.00     0.000 C 
BRANCH   8   9
ATOM      9  C   UNL     1     -12.513 -17.140  31.306  1.00  0.00     0.006 C 
BRANCH   9  10
ATOM     10  C   UNL     1     -11.694 -18.428  31.465  1.00  0.00     0.053 C 
BRANCH  10  11
ATOM     11  C   UNL     1     -10.383 -18.346  30.746  1.00  0.00     0.041 C 
ATOM     12  O   UNL     1      -9.515 -17.507  31.104  1.00  0.00    -0.550 OA
ATOM     13  O   UNL     1     -10.130 -19.177  29.662  1.00  0.00    -0.550 OA
ENDBRANCH  10  11
ENDBRANCH   9  10
ENDBRANCH   8   9
ENDBRANCH   1   8
TORSDOF 8
ENDMDL
MODEL 3
REMARK VINA RESULT:    -4.860      2.365      5.423
REMARK INTER + INTRA:          -7.789
REMARK INTER:                  -7.409
REMARK INTRA:                  -0.380
REMARK UNBOUND:                -0.656
REMARK SMILES O=C([O-])CCCCCCCC(=O)[O-]
REMARK SMILES IDX 7 1 6 2 5 3 4 4 2 5 1 6 3 7 8 8 9 9 10 10 11 11 12 12 13 13
REMARK H PARENT
REMARK Flexibility Score: inf
ROOT
ATOM      1  C   UNL     1     -11.058 -16.923  28.831  1.00  0.00     0.000 C 
ENDROOT
BRANCH   1   2
ATOM      2  C   UNL     1     -11.265 -18.366  29.324  1.00  0.00     0.000 C 
BRANCH   2   3
ATOM      3  C   UNL     1     -10.130 -18.848  30.247  1.00  0.00     0.006 C 
BRANCH   3   4
ATOM      4  C   UNL     1      -9.913 -17.977  31.495  1.00  0.00     0.053 C 
BRANCH   4   5
ATOM      5  C   UNL     1     -11.032 -18.117  32.480  1.00  0.00     0.041 C 
ATOM      6  O   UNL     1     -11.620 -17.094  32.920  1.00  0.00    -0.550 OA
ATOM      7  O   UNL     1     -11.448 -19.379  32.886  1.00  0.00    -0.550 OA
ENDBRANCH   4   5
ENDBRANCH   3   4
ENDBRANCH   2   3
ENDBRANCH   1   2
BRANCH   1   8
ATOM      8  C   UNL     1     -11.920 -16.591  27.601  1.00  0.00     0.000 C 
BRANCH   8   9
ATOM      9  C   UNL     1     -11.218 -15.631  26.626  1.00  0.00     0.006 C 
BRANCH   9  10
ATOM     10  C   UNL     1      -9.722 -15.486  26.933  1.00  0.00     0.053 C 
BRANCH  10  11
ATOM     11  C   UNL     1      -9.075 -14.446  26.071  1.00  0.00     0.041 C 
ATOM     12  O   UNL     1      -9.739 -13.867  25.171  1.00  0.00    -0.550 OA
ATOM     13  O   UNL     1      -7.732 -14.137  26.242  1.00  0.00    -0.550 OA
ENDBRANCH  10  11
ENDBRANCH   9  10
ENDBRANCH   8   9
ENDBRANCH   1   8
TORSDOF 8
ENDMDL
MODEL 4
REMARK VINA RESULT:    -4.858      1.254      4.845
REMARK INTER + INTRA:          -7.786
REMARK INTER:                  -7.235
REMARK INTRA:                  -0.551
REMARK UNBOUND:                -0.656
REMARK SMILES O=C([O-])CCCCCCCC(=O)[O-]
REMARK SMILES IDX 7 1 6 2 5 3 4 4 2 5 1 6 3 7 8 8 9 9 10 10 11 11 12 12 13 13
REMARK H PARENT
REMARK Flexibility Score: inf
ROOT
ATOM      1  C   UNL     1     -10.706 -18.648  29.631  1.00  0.00     0.000 C 
ENDROOT
BRANCH   1   2
ATOM      2  C   UNL     1     -10.092 -19.017  30.993  1.00  0.00     0.000 C 
BRANCH   2   3
ATOM      3  C   UNL     1      -9.983 -17.809  31.943  1.00  0.00     0.006 C 
BRANCH   3   4
ATOM      4  C   UNL     1      -8.627 -17.086  31.897  1.00  0.00     0.053 C 
BRANCH   4   5
ATOM      5  C   UNL     1      -8.755 -15.681  31.395  1.00  0.00     0.041 C 
ATOM      6  O   UNL     1      -7.987 -15.259  30.491  1.00  0.00    -0.550 OA
ATOM      7  O   UNL     1      -9.746 -14.849  31.901  1.00  0.00    -0.550 OA
ENDBRANCH   4   5
ENDBRANCH   3   4
ENDBRANCH   2   3
ENDBRANCH   1   2
BRANCH   1   8
ATOM      8  C   UNL     1     -12.086 -17.985  29.766  1.00  0.00     0.000 C 
BRANCH   8   9
ATOM      9  C   UNL     1     -12.298 -16.844  28.756  1.00  0.00     0.006 C 
BRANCH   9  10
ATOM     10  C   UNL     1     -10.979 -16.377  28.127  1.00  0.00     0.053 C 
BRANCH  10  11
ATOM     11  C   UNL     1     -11.201 -15.701  26.808  1.00  0.00     0.041 C 
ATOM     12  O   UNL     1     -10.241 -15.146  26.211  1.00  0.00    -0.550 OA
ATOM     13  O   UNL     1     -12.473 -15.659  26.252  1.00  0.00    -0.550 OA
ENDBRANCH  10  11
ENDBRANCH   9  10
ENDBRANCH   8   9
ENDBRANCH   1   8
TORSDOF 8
ENDMDL
MODEL 5
REMARK VINA RESULT:    -4.792      2.309      3.194
REMARK INTER + INTRA:          -7.689
REMARK INTER:                  -7.228
REMARK INTRA:                  -0.461
REMARK UNBOUND:                -0.656
REMARK SMILES O=C([O-])CCCCCCCC(=O)[O-]
REMARK SMILES IDX 7 1 6 2 5 3 4 4 2 5 1 6 3 7 8 8 9 9 10 10 11 11 12 12 13 13
REMARK H PARENT
REMARK Flexibility Score: inf
ROOT
ATOM      1  C   UNL     1     -11.648 -16.752  28.851  1.00  0.00     0.000 C 
ENDROOT
BRANCH   1   2
ATOM      2  C   UNL     1     -12.253 -16.308  27.508  1.00  0.00     0.000 C 
BRANCH   2   3
ATOM      3  C   UNL     1     -11.222 -15.630  26.586  1.00  0.00     0.006 C 
BRANCH   3   4
ATOM      4  C   UNL     1      -9.788 -15.614  27.140  1.00  0.00     0.053 C 
BRANCH   4   5
ATOM      5  C   UNL     1      -8.849 -14.858  26.252  1.00  0.00     0.041 C 
ATOM      6  O   UNL     1      -7.619 -15.126  26.255  1.00  0.00    -0.550 OA
ATOM      7  O   UNL     1      -9.339 -13.879  25.395  1.00  0.00    -0.550 OA
ENDBRANCH   4   5
ENDBRANCH   3   4
ENDBRANCH   2   3
ENDBRANCH   1   2
BRANCH   1   8
ATOM      8  C   UNL     1     -11.647 -18.281  29.020  1.00  0.00     0.000 C 
BRANCH   8   9
ATOM      9  C   UNL     1     -10.430 -18.789  29.812  1.00  0.00     0.006 C 
BRANCH   9  10
ATOM     10  C   UNL     1     -10.077 -17.866  30.985  1.00  0.00     0.053 C 
BRANCH  10  11
ATOM     11  C   UNL     1     -10.912 -18.158  32.194  1.00  0.00     0.041 C 
ATOM     12  O   UNL     1     -11.154 -19.350  32.524  1.00  0.00    -0.550 OA
ATOM     13  O   UNL     1     -11.448 -17.116  32.939  1.00  0.00    -0.550 OA
ENDBRANCH  10  11
ENDBRANCH   9  10
ENDBRANCH   8   9
ENDBRANCH   1   8
TORSDOF 8
ENDMDL
MODEL 6
REMARK VINA RESULT:    -4.784      1.492      4.975
REMARK INTER + INTRA:          -7.677
REMARK INTER:                  -7.107
REMARK INTRA:                  -0.570
REMARK UNBOUND:                -0.656
REMARK SMILES O=C([O-])CCCCCCCC(=O)[O-]
REMARK SMILES IDX 7 1 6 2 5 3 4 4 2 5 1 6 3 7 8 8 9 9 10 10 11 11 12 12 13 13
REMARK H PARENT
REMARK Flexibility Score: inf
ROOT
ATOM      1  C   UNL     1     -12.132 -17.143  30.110  1.00  0.00     0.000 C 
ENDROOT
BRANCH   1   2
ATOM      2  C   UNL     1     -11.368 -18.443  29.803  1.00  0.00     0.000 C 
BRANCH   2   3
ATOM      3  C   UNL     1     -10.148 -18.646  30.720  1.00  0.00     0.006 C 
BRANCH   3   4
ATOM      4  C   UNL     1     -10.005 -17.594  31.832  1.00  0.00     0.053 C 
BRANCH   4   5
ATOM      5  C   UNL     1      -8.791 -16.738  31.645  1.00  0.00     0.041 C 
ATOM      6  O   UNL     1      -7.726 -17.007  32.259  1.00  0.00    -0.550 OA
ATOM      7  O   UNL     1      -8.827 -15.663  30.765  1.00  0.00    -0.550 OA
ENDBRANCH   4   5
ENDBRANCH   3   4
ENDBRANCH   2   3
ENDBRANCH   1   2
BRANCH   1   8
ATOM      8  C   UNL     1     -11.934 -16.072  29.025  1.00  0.00     0.000 C 
BRANCH   8   9
ATOM      9  C   UNL     1     -11.135 -16.592  27.817  1.00  0.00     0.006 C 
BRANCH   9  10
ATOM     10  C   UNL     1     -11.229 -15.649  26.612  1.00  0.00     0.053 C 
BRANCH  10  11
ATOM     11  C   UNL     1      -9.912 -15.006  26.305  1.00  0.00     0.041 C 
ATOM     12  O   UNL     1      -8.873 -15.363  26.921  1.00  0.00    -0.550 OA
ATOM     13  O   UNL     1      -9.835 -13.992  25.359  1.00  0.00    -0.550 OA
ENDBRANCH  10  11
ENDBRANCH   9  10
ENDBRANCH   8   9
ENDBRANCH   1   8
TORSDOF 8
ENDMDL
MODEL 7
REMARK VINA RESULT:    -4.771      1.676      5.260
REMARK INTER + INTRA:          -7.658
REMARK INTER:                  -7.180
REMARK INTRA:                  -0.478
REMARK UNBOUND:                -0.656
REMARK SMILES O=C([O-])CCCCCCCC(=O)[O-]
REMARK SMILES IDX 7 1 6 2 5 3 4 4 2 5 1 6 3 7 8 8 9 9 10 10 11 11 12 12 13 13
REMARK H PARENT
REMARK Flexibility Score: inf
ROOT
ATOM      1  C   UNL     1     -10.213 -18.970  31.427  1.00  0.00     0.000 C 
ENDROOT
BRANCH   1   2
ATOM      2  C   UNL     1     -10.004 -17.582  32.057  1.00  0.00     0.000 C 
BRANCH   2   3
ATOM      3  C   UNL     1      -8.538 -17.114  31.993  1.00  0.00     0.006 C 
BRANCH   3   4
ATOM      4  C   UNL     1      -8.319 -15.821  31.191  1.00  0.00     0.053 C 
BRANCH   4   5
ATOM      5  C   UNL     1      -6.999 -15.184  31.499  1.00  0.00     0.041 C 
ATOM      6  O   UNL     1      -6.277 -14.740  30.569  1.00  0.00    -0.550 OA
ATOM      7  O   UNL     1      -6.583 -15.049  32.818  1.00  0.00    -0.550 OA
ENDBRANCH   4   5
ENDBRANCH   3   4
ENDBRANCH   2   3
ENDBRANCH   1   2
BRANCH   1   8
ATOM      8  C   UNL     1     -10.157 -18.934  29.891  1.00  0.00     0.000 C 
BRANCH   8   9
ATOM      9  C   UNL     1     -11.373 -18.225  29.270  1.00  0.00     0.006 C 
BRANCH   9  10
ATOM     10  C   UNL     1     -11.007 -16.855  28.685  1.00  0.00     0.053 C 
BRANCH  10  11
ATOM     11  C   UNL     1     -12.129 -16.278  27.877  1.00  0.00     0.041 C 
ATOM     12  O   UNL     1     -13.299 -16.255  28.343  1.00  0.00    -0.550 OA
ATOM     13  O   UNL     1     -11.887 -15.790  26.599  1.00  0.00    -0.550 OA
ENDBRANCH  10  11
ENDBRANCH   9  10
ENDBRANCH   8   9
ENDBRANCH   1   8
TORSDOF 8
ENDMDL
MODEL 8
REMARK VINA RESULT:    -4.768      1.543      2.185
REMARK INTER + INTRA:          -7.655
REMARK INTER:                  -7.190
REMARK INTRA:                  -0.464
REMARK UNBOUND:                -0.656
REMARK SMILES O=C([O-])CCCCCCCC(=O)[O-]
REMARK SMILES IDX 7 1 6 2 5 3 4 4 2 5 1 6 3 7 8 8 9 9 10 10 11 11 12 12 13 13
REMARK H PARENT
REMARK Flexibility Score: inf
ROOT
ATOM      1  C   UNL     1     -10.131 -18.537  30.518  1.00  0.00     0.000 C 
ENDROOT
BRANCH   1   2
ATOM      2  C   UNL     1     -11.597 -18.319  30.106  1.00  0.00     0.000 C 
BRANCH   2   3
ATOM      3  C   UNL     1     -11.740 -17.821  28.655  1.00  0.00     0.006 C 
BRANCH   3   4
ATOM      4  C   UNL     1     -11.031 -16.488  28.368  1.00  0.00     0.053 C 
BRANCH   4   5
ATOM      5  C   UNL     1     -11.428 -15.912  27.044  1.00  0.00     0.041 C 
ATOM      6  O   UNL     1     -12.617 -16.009  26.642  1.00  0.00    -0.550 OA
ATOM      7  O   UNL     1     -10.492 -15.238  26.269  1.00  0.00    -0.550 OA
ENDBRANCH   4   5
ENDBRANCH   3   4
ENDBRANCH   2   3
ENDBRANCH   1   2
BRANCH   1   8
ATOM      8  C   UNL     1      -9.812 -17.942  31.900  1.00  0.00     0.000 C 
BRANCH   8   9
ATOM      9  C   UNL     1      -8.586 -17.015  31.878  1.00  0.00     0.006 C 
BRANCH   9  10
ATOM     10  C   UNL     1      -8.907 -15.645  31.265  1.00  0.00     0.053 C 
BRANCH  10  11
ATOM     11  C   UNL     1      -7.782 -14.674  31.456  1.00  0.00     0.041 C 
ATOM     12  O   UNL     1      -7.946 -13.644  32.162  1.00  0.00    -0.550 OA
ATOM     13  O   UNL     1      -6.562 -14.890  30.829  1.00  0.00    -0.550 OA
ENDBRANCH  10  11
ENDBRANCH   9  10
ENDBRANCH   8   9
ENDBRANCH   1   8
TORSDOF 8
ENDMDL
MODEL 9
REMARK VINA RESULT:    -4.722      1.627      2.348
REMARK INTER + INTRA:          -7.586
REMARK INTER:                  -6.956
REMARK INTRA:                  -0.630
REMARK UNBOUND:                -0.656
REMARK SMILES O=C([O-])CCCCCCCC(=O)[O-]
REMARK SMILES IDX 7 1 6 2 5 3 4 4 2 5 1 6 3 7 8 8 9 9 10 10 11 11 12 12 13 13
REMARK H PARENT
REMARK Flexibility Score: inf
ROOT
ATOM      1  C   UNL     1     -11.129 -18.278  32.202  1.00  0.00     0.000 C 
ENDROOT
BRANCH   1   2
ATOM      2  C   UNL     1     -12.063 -17.110  31.839  1.00  0.00     0.000 C 
BRANCH   2   3
ATOM      3  C   UNL     1     -13.093 -17.485  30.757  1.00  0.00     0.006 C 
BRANCH   3   4
ATOM      4  C   UNL     1     -12.991 -16.654  29.468  1.00  0.00     0.053 C 
BRANCH   4   5
ATOM      5  C   UNL     1     -11.995 -17.225  28.506  1.00  0.00     0.041 C 
ATOM      6  O   UNL     1     -11.406 -16.475  27.684  1.00  0.00    -0.550 OA
ATOM      7  O   UNL     1     -11.691 -18.580  28.542  1.00  0.00    -0.550 OA
ENDBRANCH   4   5
ENDBRANCH   3   4
ENDBRANCH   2   3
ENDBRANCH   1   2
BRANCH   1   8
ATOM      8  C   UNL     1      -9.797 -18.227  31.435  1.00  0.00     0.000 C 
BRANCH   8   9
ATOM      9  C   UNL     1      -9.363 -16.791  31.096  1.00  0.00     0.006 C 
BRANCH   9  10
ATOM     10  C   UNL     1      -8.096 -16.375  31.854  1.00  0.00     0.053 C 
BRANCH  10  11
ATOM     11  C   UNL     1      -7.567 -15.058  31.372  1.00  0.00     0.041 C 
ATOM     12  O   UNL     1      -6.599 -15.020  30.567  1.00  0.00    -0.550 OA
ATOM     13  O   UNL     1      -8.123 -13.873  31.835  1.00  0.00    -0.550 OA
ENDBRANCH  10  11
ENDBRANCH   9  10
ENDBRANCH   8   9
ENDBRANCH   1   8
TORSDOF 8
ENDMDL
