MODEL 1
REMARK VINA RESULT:    -4.761      0.000      0.000
REMARK INTER + INTRA:          -5.517
REMARK INTER:                  -5.456
REMARK INTRA:                  -0.061
REMARK UNBOUND:                -0.061
REMARK SMILES CC(C)[C@H]([NH3+])C(=O)[O-]
REMARK SMILES IDX 4 1 5 2 6 6 7 7 8 8 2 9 1 10 3 11
REMARK H PARENT 5 3 5 4 5 5
REMARK Flexibility Score: inf
ROOT
ATOM      1  C   UNL     1       0.579   2.579  -1.843  1.00  0.00     0.230 C 
ENDROOT
BRANCH   1   2
ATOM      2  N   UNL     1      -0.102   3.848  -1.544  1.00  0.00    -0.350 N 
ATOM      3  H   UNL     1       0.514   4.474  -0.977  1.00  0.00     0.345 HD
ATOM      4  H   UNL     1      -0.372   4.331  -2.431  1.00  0.00     0.345 HD
ATOM      5  H   UNL     1      -0.985   3.666  -1.013  1.00  0.00     0.345 HD
ENDBRANCH   1   2
BRANCH   1   6
ATOM      6  C   UNL     1       1.557   2.794  -2.971  1.00  0.00     0.099 C 
ATOM      7  O   UNL     1       2.499   1.980  -3.157  1.00  0.00    -0.544 OA
ATOM      8  O   UNL     1       1.424   3.892  -3.813  1.00  0.00    -0.544 OA
ENDBRANCH   1   6
BRANCH   1   9
ATOM      9  C   UNL     1      -0.433   1.448  -2.199  1.00  0.00     0.047 C 
ATOM     10  C   UNL     1      -1.425   1.887  -3.290  1.00  0.00     0.014 C 
ATOM     11  C   UNL     1      -1.220   0.993  -0.957  1.00  0.00     0.014 C 
ENDBRANCH   1   9
TORSDOF 3
ENDMDL
MODEL 2
REMARK VINA RESULT:    -4.637      3.489      4.064
REMARK INTER + INTRA:          -5.375
REMARK INTER:                  -5.327
REMARK INTRA:                  -0.048
REMARK UNBOUND:                -0.061
REMARK SMILES CC(C)[C@H]([NH3+])C(=O)[O-]
REMARK SMILES IDX 4 1 5 2 6 6 7 7 8 8 2 9 1 10 3 11
REMARK H PARENT 5 3 5 4 5 5
REMARK Flexibility Score: inf
ROOT
ATOM      1  C   UNL     1      -1.213   1.466  -0.766  1.00  0.00     0.230 C 
ENDROOT
BRANCH   1   2
ATOM      2  N   UNL     1      -1.052   0.040  -1.091  1.00  0.00    -0.350 N 
ATOM      3  H   UNL     1      -1.813  -0.282  -1.731  1.00  0.00     0.345 HD
ATOM      4  H   UNL     1      -0.123  -0.125  -1.541  1.00  0.00     0.345 HD
ATOM      5  H   UNL     1      -1.077  -0.533  -0.217  1.00  0.00     0.345 HD
ENDBRANCH   1   2
BRANCH   1   6
ATOM      6  C   UNL     1      -2.671   1.754  -0.506  1.00  0.00     0.099 C 
ATOM      7  O   UNL     1      -3.426   0.851  -0.059  1.00  0.00    -0.544 OA
ATOM      8  O   UNL     1      -3.189   3.019  -0.757  1.00  0.00    -0.544 OA
ENDBRANCH   1   6
BRANCH   1   9
ATOM      9  C   UNL     1      -0.662   2.385  -1.898  1.00  0.00     0.047 C 
ATOM     10  C   UNL     1      -1.073   1.886  -3.294  1.00  0.00     0.014 C 
ATOM     11  C   UNL     1       0.872   2.490  -1.833  1.00  0.00     0.014 C 
ENDBRANCH   1   9
TORSDOF 3
ENDMDL
MODEL 3
REMARK VINA RESULT:    -4.603      2.222      3.763
REMARK INTER + INTRA:          -5.337
REMARK INTER:                  -5.262
REMARK INTRA:                  -0.075
REMARK UNBOUND:                -0.061
REMARK SMILES CC(C)[C@H]([NH3+])C(=O)[O-]
REMARK SMILES IDX 4 1 5 2 6 6 7 7 8 8 2 9 1 10 3 11
REMARK H PARENT 5 3 5 4 5 5
REMARK Flexibility Score: inf
ROOT
ATOM      1  C   UNL     1       1.634   3.285  -3.585  1.00  0.00     0.230 C 
ENDROOT
BRANCH   1   2
ATOM      2  N   UNL     1       0.822   4.511  -3.582  1.00  0.00    -0.350 N 
ATOM      3  H   UNL     1       0.604   4.808  -2.603  1.00  0.00     0.345 HD
ATOM      4  H   UNL     1       1.328   5.281  -4.077  1.00  0.00     0.345 HD
ATOM      5  H   UNL     1      -0.074   4.351  -4.097  1.00  0.00     0.345 HD
ENDBRANCH   1   2
BRANCH   1   6
ATOM      6  C   UNL     1       1.048   2.298  -2.607  1.00  0.00     0.099 C 
ATOM      7  O   UNL     1       0.451   1.271  -3.025  1.00  0.00    -0.544 OA
ATOM      8  O   UNL     1       1.164   2.514  -1.240  1.00  0.00    -0.544 OA
ENDBRANCH   1   6
BRANCH   1   9
ATOM      9  C   UNL     1       3.127   3.577  -3.245  1.00  0.00     0.047 C 
ATOM     10  C   UNL     1       3.661   4.802  -4.008  1.00  0.00     0.014 C 
ATOM     11  C   UNL     1       4.019   2.362  -3.558  1.00  0.00     0.014 C 
ENDBRANCH   1   9
TORSDOF 3
ENDMDL
MODEL 4
REMARK VINA RESULT:    -4.532      1.850      2.329
REMARK INTER + INTRA:          -5.255
REMARK INTER:                  -5.181
REMARK INTRA:                  -0.074
REMARK UNBOUND:                -0.061
REMARK SMILES CC(C)[C@H]([NH3+])C(=O)[O-]
REMARK SMILES IDX 4 1 5 2 6 6 7 7 8 8 2 9 1 10 3 11
REMARK H PARENT 5 3 5 4 5 5
REMARK Flexibility Score: inf
ROOT
ATOM      1  C   UNL     1      -0.851   2.407  -2.273  1.00  0.00     0.230 C 
ENDROOT
BRANCH   1   2
ATOM      2  N   UNL     1      -1.537   1.840  -3.444  1.00  0.00    -0.350 N 
ATOM      3  H   UNL     1      -1.196   0.871  -3.639  1.00  0.00     0.345 HD
ATOM      4  H   UNL     1      -2.570   1.823  -3.283  1.00  0.00     0.345 HD
ATOM      5  H   UNL     1      -1.367   2.437  -4.285  1.00  0.00     0.345 HD
ENDBRANCH   1   2
BRANCH   1   6
ATOM      6  C   UNL     1       0.576   1.918  -2.248  1.00  0.00     0.099 C 
ATOM      7  O   UNL     1       0.961   1.045  -3.069  1.00  0.00    -0.544 OA
ATOM      8  O   UNL     1       1.476   2.431  -1.321  1.00  0.00    -0.544 OA
ENDBRANCH   1   6
BRANCH   1   9
ATOM      9  C   UNL     1      -1.580   2.048  -0.943  1.00  0.00     0.047 C 
ATOM     10  C   UNL     1      -1.716   0.528  -0.755  1.00  0.00     0.014 C 
ATOM     11  C   UNL     1      -2.978   2.690  -0.882  1.00  0.00     0.014 C 
ENDBRANCH   1   9
TORSDOF 3
ENDMDL
MODEL 5
REMARK VINA RESULT:    -4.430      2.688      3.279
REMARK INTER + INTRA:          -5.138
REMARK INTER:                  -5.093
REMARK INTRA:                  -0.045
REMARK UNBOUND:                -0.061
REMARK SMILES CC(C)[C@H]([NH3+])C(=O)[O-]
REMARK SMILES IDX 4 1 5 2 6 6 7 7 8 8 2 9 1 10 3 11
REMARK H PARENT 5 3 5 4 5 5
REMARK Flexibility Score: inf
ROOT
ATOM      1  C   UNL     1       3.271   3.390  -3.140  1.00  0.00     0.230 C 
ENDROOT
BRANCH   1   2
ATOM      2  N   UNL     1       3.345   4.815  -3.494  1.00  0.00    -0.350 N 
ATOM      3  H   UNL     1       2.392   5.245  -3.501  1.00  0.00     0.345 HD
ATOM      4  H   UNL     1       3.955   5.325  -2.815  1.00  0.00     0.345 HD
ATOM      5  H   UNL     1       3.777   4.929  -4.440  1.00  0.00     0.345 HD
ENDBRANCH   1   2
BRANCH   1   6
ATOM      6  C   UNL     1       4.132   2.596  -4.092  1.00  0.00     0.099 C 
ATOM      7  O   UNL     1       4.734   3.175  -5.034  1.00  0.00    -0.544 OA
ATOM      8  O   UNL     1       4.268   1.223  -3.934  1.00  0.00    -0.544 OA
ENDBRANCH   1   6
BRANCH   1   9
ATOM      9  C   UNL     1       1.804   2.864  -3.155  1.00  0.00     0.047 C 
ATOM     10  C   UNL     1       0.846   3.854  -3.839  1.00  0.00     0.014 C 
ATOM     11  C   UNL     1       1.300   2.579  -1.729  1.00  0.00     0.014 C 
ENDBRANCH   1   9
TORSDOF 3
ENDMDL
MODEL 6
REMARK VINA RESULT:    -4.419      3.278      4.248
REMARK INTER + INTRA:          -5.125
REMARK INTER:                  -5.364
REMARK INTRA:                   0.239
REMARK UNBOUND:                -0.061
REMARK SMILES CC(C)[C@H]([NH3+])C(=O)[O-]
REMARK SMILES IDX 4 1 5 2 6 6 7 7 8 8 2 9 1 10 3 11
REMARK H PARENT 5 3 5 4 5 5
REMARK Flexibility Score: inf
ROOT
ATOM      1  C   UNL     1      -2.502   1.051  -0.925  1.00  0.00     0.230 C 
ENDROOT
BRANCH   1   2
ATOM      2  N   UNL     1      -1.393   0.091  -0.810  1.00  0.00    -0.350 N 
ATOM      3  H   UNL     1      -0.643   0.307  -1.505  1.00  0.00     0.345 HD
ATOM      4  H   UNL     1      -0.994   0.115   0.156  1.00  0.00     0.345 HD
ATOM      5  H   UNL     1      -1.741  -0.881  -0.975  1.00  0.00     0.345 HD
ENDBRANCH   1   2
BRANCH   1   6
ATOM      6  C   UNL     1      -1.949   2.408  -1.284  1.00  0.00     0.099 C 
ATOM      7  O   UNL     1      -2.635   3.444  -1.086  1.00  0.00    -0.544 OA
ATOM      8  O   UNL     1      -0.678   2.522  -1.834  1.00  0.00    -0.544 OA
ENDBRANCH   1   6
BRANCH   1   9
ATOM      9  C   UNL     1      -3.342   1.127   0.386  1.00  0.00     0.047 C 
ATOM     10  C   UNL     1      -3.421  -0.234   1.097  1.00  0.00     0.014 C 
ATOM     11  C   UNL     1      -4.768   1.633   0.106  1.00  0.00     0.014 C 
ENDBRANCH   1   9
TORSDOF 3
ENDMDL
MODEL 7
REMARK VINA RESULT:    -4.334      3.113      4.740
REMARK INTER + INTRA:          -5.029
REMARK INTER:                  -4.958
REMARK INTRA:                  -0.071
REMARK UNBOUND:                -0.061
REMARK SMILES CC(C)[C@H]([NH3+])C(=O)[O-]
REMARK SMILES IDX 4 1 5 2 6 6 7 7 8 8 2 9 1 10 3 11
REMARK H PARENT 5 3 5 4 5 5
REMARK Flexibility Score: inf
ROOT
ATOM      1  C   UNL     1       3.398   3.517  -3.933  1.00  0.00     0.230 C 
ENDROOT
BRANCH   1   2
ATOM      2  N   UNL     1       3.315   4.959  -3.653  1.00  0.00    -0.350 N 
ATOM      3  H   UNL     1       4.040   5.483  -4.194  1.00  0.00     0.345 HD
ATOM      4  H   UNL     1       2.365   5.320  -3.897  1.00  0.00     0.345 HD
ATOM      5  H   UNL     1       3.458   5.135  -2.632  1.00  0.00     0.345 HD
ENDBRANCH   1   2
BRANCH   1   6
ATOM      6  C   UNL     1       2.566   2.766  -2.922  1.00  0.00     0.099 C 
ATOM      7  O   UNL     1       2.947   2.679  -1.726  1.00  0.00    -0.544 OA
ATOM      8  O   UNL     1       1.371   2.169  -3.305  1.00  0.00    -0.544 OA
ENDBRANCH   1   6
BRANCH   1   9
ATOM      9  C   UNL     1       4.871   3.008  -3.921  1.00  0.00     0.047 C 
ATOM     10  C   UNL     1       5.788   3.884  -4.791  1.00  0.00     0.014 C 
ATOM     11  C   UNL     1       4.960   1.550  -4.406  1.00  0.00     0.014 C 
ENDBRANCH   1   9
TORSDOF 3
ENDMDL
MODEL 8
REMARK VINA RESULT:    -4.295      4.479      5.413
REMARK INTER + INTRA:          -4.983
REMARK INTER:                  -4.949
REMARK INTRA:                  -0.034
REMARK UNBOUND:                -0.061
REMARK SMILES CC(C)[C@H]([NH3+])C(=O)[O-]
REMARK SMILES IDX 4 1 5 2 6 6 7 7 8 8 2 9 1 10 3 11
REMARK H PARENT 5 3 5 4 5 5
REMARK Flexibility Score: inf
ROOT
ATOM      1  C   UNL     1      -3.650   0.545   0.124  1.00  0.00     0.230 C 
ENDROOT
BRANCH   1   2
ATOM      2  N   UNL     1      -2.970  -0.413   1.009  1.00  0.00    -0.350 N 
ATOM      3  H   UNL     1      -2.203  -0.908   0.500  1.00  0.00     0.345 HD
ATOM      4  H   UNL     1      -2.577   0.081   1.842  1.00  0.00     0.345 HD
ATOM      5  H   UNL     1      -3.653  -1.120   1.365  1.00  0.00     0.345 HD
ENDBRANCH   1   2
BRANCH   1   6
ATOM      6  C   UNL     1      -2.627   1.477  -0.478  1.00  0.00     0.099 C 
ATOM      7  O   UNL     1      -1.469   1.060  -0.743  1.00  0.00    -0.544 OA
ATOM      8  O   UNL     1      -2.957   2.800  -0.746  1.00  0.00    -0.544 OA
ENDBRANCH   1   6
BRANCH   1   9
ATOM      9  C   UNL     1      -4.752   1.349   0.877  1.00  0.00     0.047 C 
ATOM     10  C   UNL     1      -5.075   0.734   2.249  1.00  0.00     0.014 C 
ATOM     11  C   UNL     1      -6.046   1.434   0.047  1.00  0.00     0.014 C 
ENDBRANCH   1   9
TORSDOF 3
ENDMDL
MODEL 9
REMARK VINA RESULT:    -4.215      5.304      6.739
REMARK INTER + INTRA:          -4.891
REMARK INTER:                  -4.828
REMARK INTRA:                  -0.063
REMARK UNBOUND:                -0.061
REMARK SMILES CC(C)[C@H]([NH3+])C(=O)[O-]
REMARK SMILES IDX 4 1 5 2 6 6 7 7 8 8 2 9 1 10 3 11
REMARK H PARENT 5 3 5 4 5 5
REMARK Flexibility Score: inf
ROOT
ATOM      1  C   UNL     1       6.209   2.038  -4.451  1.00  0.00     0.230 C 
ENDROOT
BRANCH   1   2
ATOM      2  N   UNL     1       6.774   2.367  -3.134  1.00  0.00    -0.350 N 
ATOM      3  H   UNL     1       6.185   3.079  -2.646  1.00  0.00     0.345 HD
ATOM      4  H   UNL     1       6.844   1.506  -2.545  1.00  0.00     0.345 HD
ATOM      5  H   UNL     1       7.744   2.744  -3.243  1.00  0.00     0.345 HD
ENDBRANCH   1   2
BRANCH   1   6
ATOM      6  C   UNL     1       4.704   2.111  -4.378  1.00  0.00     0.099 C 
ATOM      7  O   UNL     1       4.088   3.056  -4.938  1.00  0.00    -0.544 OA
ATOM      8  O   UNL     1       3.988   1.135  -3.696  1.00  0.00    -0.544 OA
ENDBRANCH   1   6
BRANCH   1   9
ATOM      9  C   UNL     1       6.669   0.633  -4.945  1.00  0.00     0.047 C 
ATOM     10  C   UNL     1       8.202   0.514  -4.992  1.00  0.00     0.014 C 
ATOM     11  C   UNL     1       6.097   0.317  -6.339  1.00  0.00     0.014 C 
ENDBRANCH   1   9
TORSDOF 3
ENDMDL
