MODEL 1
REMARK VINA RESULT:    -3.169      0.000      0.000
REMARK INTER + INTRA:          -6.547
REMARK INTER:                  -5.022
REMARK INTRA:                  -1.524
REMARK UNBOUND:                -1.524
REMARK SMILES CCCCCCCCCCCC(=O)[O-]
REMARK SMILES IDX 7 1 8 2 9 3 10 4 11 5 12 6 13 7 14 8 6 9 5 10 4 11 3 12 2 13
REMARK SMILES IDX 1 14
REMARK H PARENT
REMARK Flexibility Score: inf
ROOT
ATOM      1  C   UNL     1      27.093  -5.186 -28.704  1.00  0.00     0.000 C 
ENDROOT
BRANCH   1   2
ATOM      2  C   UNL     1      26.294  -4.424 -29.773  1.00  0.00     0.000 C 
BRANCH   2   3
ATOM      3  C   UNL     1      24.836  -4.231 -29.331  1.00  0.00     0.000 C 
BRANCH   3   4
ATOM      4  C   UNL     1      23.823  -4.758 -30.366  1.00  0.00     0.006 C 
BRANCH   4   5
ATOM      5  C   UNL     1      24.447  -5.601 -31.490  1.00  0.00     0.053 C 
BRANCH   5   6
ATOM      6  C   UNL     1      24.451  -4.876 -32.800  1.00  0.00     0.041 C 
ATOM      7  O   UNL     1      25.413  -5.018 -33.600  1.00  0.00    -0.550 OA
ATOM      8  O   UNL     1      23.374  -4.071 -33.152  1.00  0.00    -0.550 OA
ENDBRANCH   5   6
ENDBRANCH   4   5
ENDBRANCH   3   4
ENDBRANCH   2   3
ENDBRANCH   1   2
BRANCH   1   9
ATOM      9  C   UNL     1      27.673  -6.510 -29.226  1.00  0.00     0.000 C 
BRANCH   9  10
ATOM     10  C   UNL     1      27.028  -7.740 -28.565  1.00  0.00    -0.000 C 
BRANCH  10  11
ATOM     11  C   UNL     1      25.629  -8.045 -29.125  1.00  0.00    -0.000 C 
BRANCH  11  12
ATOM     12  C   UNL     1      24.517  -7.859 -28.077  1.00  0.00    -0.000 C 
BRANCH  12  13
ATOM     13  C   UNL     1      25.075  -7.625 -26.665  1.00  0.00    -0.003 C 
ATOM     14  C   UNL     1      24.604  -6.304 -26.057  1.00  0.00     0.004 C 
ENDBRANCH  12  13
ENDBRANCH  11  12
ENDBRANCH  10  11
ENDBRANCH   9  10
ENDBRANCH   1   9
TORSDOF 10
ENDMDL
MODEL 2
REMARK VINA RESULT:    -3.011      1.323      2.146
REMARK INTER + INTRA:          -6.296
REMARK INTER:                  -4.904
REMARK INTRA:                  -1.392
REMARK UNBOUND:                -1.524
REMARK SMILES CCCCCCCCCCCC(=O)[O-]
REMARK SMILES IDX 7 1 8 2 9 3 10 4 11 5 12 6 13 7 14 8 6 9 5 10 4 11 3 12 2 13
REMARK SMILES IDX 1 14
REMARK H PARENT
REMARK Flexibility Score: inf
ROOT
ATOM      1  C   UNL     1      27.624  -7.135 -28.290  1.00  0.00     0.000 C 
ENDROOT
BRANCH   1   2
ATOM      2  C   UNL     1      27.619  -5.621 -28.558  1.00  0.00     0.000 C 
BRANCH   2   3
ATOM      3  C   UNL     1      27.527  -5.334 -30.064  1.00  0.00     0.000 C 
BRANCH   3   4
ATOM      4  C   UNL     1      26.256  -4.552 -30.446  1.00  0.00     0.006 C 
BRANCH   4   5
ATOM      5  C   UNL     1      25.772  -4.794 -31.885  1.00  0.00     0.053 C 
BRANCH   5   6
ATOM      6  C   UNL     1      24.292  -5.011 -31.950  1.00  0.00     0.041 C 
ATOM      7  O   UNL     1      23.612  -4.480 -32.867  1.00  0.00    -0.550 OA
ATOM      8  O   UNL     1      23.667  -5.829 -31.015  1.00  0.00    -0.550 OA
ENDBRANCH   5   6
ENDBRANCH   4   5
ENDBRANCH   3   4
ENDBRANCH   2   3
ENDBRANCH   1   2
BRANCH   1   9
ATOM      9  C   UNL     1      26.634  -7.900 -29.183  1.00  0.00     0.000 C 
BRANCH   9  10
ATOM     10  C   UNL     1      25.200  -7.883 -28.625  1.00  0.00    -0.000 C 
BRANCH  10  11
ATOM     11  C   UNL     1      25.162  -7.963 -27.090  1.00  0.00    -0.000 C 
BRANCH  11  12
ATOM     12  C   UNL     1      24.500  -6.731 -26.448  1.00  0.00    -0.000 C 
BRANCH  12  13
ATOM     13  C   UNL     1      24.017  -5.713 -27.492  1.00  0.00    -0.003 C 
ATOM     14  C   UNL     1      24.382  -4.275 -27.127  1.00  0.00     0.004 C 
ENDBRANCH  12  13
ENDBRANCH  11  12
ENDBRANCH  10  11
ENDBRANCH   9  10
ENDBRANCH   1   9
TORSDOF 10
ENDMDL
MODEL 3
REMARK VINA RESULT:    -2.962     14.636     16.421
REMARK INTER + INTRA:          -6.218
REMARK INTER:                  -5.716
REMARK INTRA:                  -0.502
REMARK UNBOUND:                -1.524
REMARK SMILES CCCCCCCCCCCC(=O)[O-]
REMARK SMILES IDX 7 1 8 2 9 3 10 4 11 5 12 6 13 7 14 8 6 9 5 10 4 11 3 12 2 13
REMARK SMILES IDX 1 14
REMARK H PARENT
REMARK Flexibility Score: inf
ROOT
ATOM      1  C   UNL     1      33.517   7.805 -30.356  1.00  0.00     0.000 C 
ENDROOT
BRANCH   1   2
ATOM      2  C   UNL     1      34.434   7.760 -31.588  1.00  0.00     0.000 C 
BRANCH   2   3
ATOM      3  C   UNL     1      35.664   6.880 -31.322  1.00  0.00     0.000 C 
BRANCH   3   4
ATOM      4  C   UNL     1      35.386   5.382 -31.550  1.00  0.00     0.006 C 
BRANCH   4   5
ATOM      5  C   UNL     1      35.078   5.010 -33.010  1.00  0.00     0.053 C 
BRANCH   5   6
ATOM      6  C   UNL     1      33.798   4.243 -33.136  1.00  0.00     0.041 C 
ATOM      7  O   UNL     1      32.727   4.718 -32.674  1.00  0.00    -0.550 OA
ATOM      8  O   UNL     1      33.781   3.020 -33.794  1.00  0.00    -0.550 OA
ENDBRANCH   5   6
ENDBRANCH   4   5
ENDBRANCH   3   4
ENDBRANCH   2   3
ENDBRANCH   1   2
BRANCH   1   9
ATOM      9  C   UNL     1      32.302   8.725 -30.551  1.00  0.00     0.000 C 
BRANCH   9  10
ATOM     10  C   UNL     1      32.221   9.833 -29.488  1.00  0.00    -0.000 C 
BRANCH  10  11
ATOM     11  C   UNL     1      32.800   9.394 -28.132  1.00  0.00    -0.000 C 
BRANCH  11  12
ATOM     12  C   UNL     1      33.396  10.567 -27.334  1.00  0.00    -0.000 C 
BRANCH  12  13
ATOM     13  C   UNL     1      33.574  10.234 -25.845  1.00  0.00    -0.003 C 
ATOM     14  C   UNL     1      33.473  11.467 -24.948  1.00  0.00     0.004 C 
ENDBRANCH  12  13
ENDBRANCH  11  12
ENDBRANCH  10  11
ENDBRANCH   9  10
ENDBRANCH   1   9
TORSDOF 10
ENDMDL
MODEL 4
REMARK VINA RESULT:    -2.955      1.159      2.470
REMARK INTER + INTRA:          -6.207
REMARK INTER:                  -4.803
REMARK INTRA:                  -1.404
REMARK UNBOUND:                -1.524
REMARK SMILES CCCCCCCCCCCC(=O)[O-]
REMARK SMILES IDX 7 1 8 2 9 3 10 4 11 5 12 6 13 7 14 8 6 9 5 10 4 11 3 12 2 13
REMARK SMILES IDX 1 14
REMARK H PARENT
REMARK Flexibility Score: inf
ROOT
ATOM      1  C   UNL     1      24.994  -4.965 -27.152  1.00  0.00     0.000 C 
ENDROOT
BRANCH   1   2
ATOM      2  C   UNL     1      24.530  -4.183 -28.391  1.00  0.00     0.000 C 
BRANCH   2   3
ATOM      3  C   UNL     1      25.733  -3.625 -29.167  1.00  0.00     0.000 C 
BRANCH   3   4
ATOM      4  C   UNL     1      26.049  -4.434 -30.439  1.00  0.00     0.006 C 
BRANCH   4   5
ATOM      5  C   UNL     1      25.410  -3.875 -31.721  1.00  0.00     0.053 C 
BRANCH   5   6
ATOM      6  C   UNL     1      24.280  -4.731 -32.204  1.00  0.00     0.041 C 
ATOM      7  O   UNL     1      24.018  -5.820 -31.627  1.00  0.00    -0.550 OA
ATOM      8  O   UNL     1      23.495  -4.310 -33.271  1.00  0.00    -0.550 OA
ENDBRANCH   5   6
ENDBRANCH   4   5
ENDBRANCH   3   4
ENDBRANCH   2   3
ENDBRANCH   1   2
BRANCH   1   9
ATOM      9  C   UNL     1      24.085  -6.161 -26.829  1.00  0.00     0.000 C 
BRANCH   9  10
ATOM     10  C   UNL     1      24.772  -7.513 -27.086  1.00  0.00    -0.000 C 
BRANCH  10  11
ATOM     11  C   UNL     1      24.815  -7.879 -28.579  1.00  0.00    -0.000 C 
BRANCH  11  12
ATOM     12  C   UNL     1      26.241  -7.848 -29.157  1.00  0.00    -0.000 C 
BRANCH  12  13
ATOM     13  C   UNL     1      27.317  -7.788 -28.063  1.00  0.00    -0.003 C 
ATOM     14  C   UNL     1      28.249  -6.587 -28.218  1.00  0.00     0.004 C 
ENDBRANCH  12  13
ENDBRANCH  11  12
ENDBRANCH  10  11
ENDBRANCH   9  10
ENDBRANCH   1   9
TORSDOF 10
ENDMDL
MODEL 5
REMARK VINA RESULT:    -2.952     12.393     14.259
REMARK INTER + INTRA:          -6.202
REMARK INTER:                  -5.746
REMARK INTRA:                  -0.456
REMARK UNBOUND:                -1.524
REMARK SMILES CCCCCCCCCCCC(=O)[O-]
REMARK SMILES IDX 7 1 8 2 9 3 10 4 11 5 12 6 13 7 14 8 6 9 5 10 4 11 3 12 2 13
REMARK SMILES IDX 1 14
REMARK H PARENT
REMARK Flexibility Score: inf
ROOT
ATOM      1  C   UNL     1      32.465   2.937 -33.356  1.00  0.00     0.000 C 
ENDROOT
BRANCH   1   2
ATOM      2  C   UNL     1      33.915   3.445 -33.399  1.00  0.00     0.000 C 
BRANCH   2   3
ATOM      3  C   UNL     1      33.977   4.944 -33.069  1.00  0.00     0.000 C 
BRANCH   3   4
ATOM      4  C   UNL     1      35.407   5.513 -33.147  1.00  0.00     0.006 C 
BRANCH   4   5
ATOM      5  C   UNL     1      35.901   6.165 -31.846  1.00  0.00     0.053 C 
BRANCH   5   6
ATOM      6  C   UNL     1      34.808   6.907 -31.140  1.00  0.00     0.041 C 
ATOM      7  O   UNL     1      34.304   6.441 -30.084  1.00  0.00    -0.550 OA
ATOM      8  O   UNL     1      34.369   8.131 -31.631  1.00  0.00    -0.550 OA
ENDBRANCH   5   6
ENDBRANCH   4   5
ENDBRANCH   3   4
ENDBRANCH   2   3
ENDBRANCH   1   2
BRANCH   1   9
ATOM      9  C   UNL     1      32.202   1.803 -34.360  1.00  0.00     0.000 C 
BRANCH   9  10
ATOM     10  C   UNL     1      33.458   0.964 -34.647  1.00  0.00    -0.000 C 
BRANCH  10  11
ATOM     11  C   UNL     1      33.285   0.039 -35.863  1.00  0.00    -0.000 C 
BRANCH  11  12
ATOM     12  C   UNL     1      32.067   0.414 -36.726  1.00  0.00    -0.000 C 
BRANCH  12  13
ATOM     13  C   UNL     1      32.366   0.338 -38.230  1.00  0.00    -0.003 C 
ATOM     14  C   UNL     1      33.373  -0.758 -38.577  1.00  0.00     0.004 C 
ENDBRANCH  12  13
ENDBRANCH  11  12
ENDBRANCH  10  11
ENDBRANCH   9  10
ENDBRANCH   1   9
TORSDOF 10
ENDMDL
MODEL 6
REMARK VINA RESULT:    -2.949     13.640     15.218
REMARK INTER + INTRA:          -6.198
REMARK INTER:                  -4.853
REMARK INTRA:                  -1.345
REMARK UNBOUND:                -1.524
REMARK SMILES CCCCCCCCCCCC(=O)[O-]
REMARK SMILES IDX 7 1 8 2 9 3 10 4 11 5 12 6 13 7 14 8 6 9 5 10 4 11 3 12 2 13
REMARK SMILES IDX 1 14
REMARK H PARENT
REMARK Flexibility Score: inf
ROOT
ATOM      1  C   UNL     1      35.731   5.418 -31.932  1.00  0.00     0.000 C 
ENDROOT
BRANCH   1   2
ATOM      2  C   UNL     1      35.945   6.891 -31.550  1.00  0.00     0.000 C 
BRANCH   2   3
ATOM      3  C   UNL     1      34.604   7.636 -31.472  1.00  0.00     0.000 C 
BRANCH   3   4
ATOM      4  C   UNL     1      33.715   7.145 -30.314  1.00  0.00     0.006 C 
BRANCH   4   5
ATOM      5  C   UNL     1      32.374   7.885 -30.187  1.00  0.00     0.053 C 
BRANCH   5   6
ATOM      6  C   UNL     1      32.562   9.351 -29.946  1.00  0.00     0.041 C 
ATOM      7  O   UNL     1      32.998   9.760 -28.838  1.00  0.00    -0.550 OA
ATOM      8  O   UNL     1      32.287  10.263 -30.958  1.00  0.00    -0.550 OA
ENDBRANCH   5   6
ENDBRANCH   4   5
ENDBRANCH   3   4
ENDBRANCH   2   3
ENDBRANCH   1   2
BRANCH   1   9
ATOM      9  C   UNL     1      34.973   5.251 -33.259  1.00  0.00     0.000 C 
BRANCH   9  10
ATOM     10  C   UNL     1      34.163   3.945 -33.318  1.00  0.00    -0.000 C 
BRANCH  10  11
ATOM     11  C   UNL     1      32.662   4.169 -33.070  1.00  0.00    -0.000 C 
BRANCH  11  12
ATOM     12  C   UNL     1      32.291   4.108 -31.578  1.00  0.00    -0.000 C 
BRANCH  12  13
ATOM     13  C   UNL     1      32.973   2.939 -30.851  1.00  0.00    -0.003 C 
ATOM     14  C   UNL     1      33.729   3.383 -29.600  1.00  0.00     0.004 C 
ENDBRANCH  12  13
ENDBRANCH  11  12
ENDBRANCH  10  11
ENDBRANCH   9  10
ENDBRANCH   1   9
TORSDOF 10
ENDMDL
MODEL 7
REMARK VINA RESULT:    -2.948     15.045     16.776
REMARK INTER + INTRA:          -6.196
REMARK INTER:                  -5.387
REMARK INTRA:                  -0.809
REMARK UNBOUND:                -1.524
REMARK SMILES CCCCCCCCCCCC(=O)[O-]
REMARK SMILES IDX 7 1 8 2 9 3 10 4 11 5 12 6 13 7 14 8 6 9 5 10 4 11 3 12 2 13
REMARK SMILES IDX 1 14
REMARK H PARENT
REMARK Flexibility Score: inf
ROOT
ATOM      1  C   UNL     1      33.629   7.469 -30.407  1.00  0.00     0.000 C 
ENDROOT
BRANCH   1   2
ATOM      2  C   UNL     1      32.166   7.772 -30.770  1.00  0.00     0.000 C 
BRANCH   2   3
ATOM      3  C   UNL     1      31.824   9.240 -30.475  1.00  0.00     0.000 C 
BRANCH   3   4
ATOM      4  C   UNL     1      32.755   9.871 -29.423  1.00  0.00     0.006 C 
BRANCH   4   5
ATOM      5  C   UNL     1      32.118  10.040 -28.034  1.00  0.00     0.053 C 
BRANCH   5   6
ATOM      6  C   UNL     1      33.147  10.262 -26.968  1.00  0.00     0.041 C 
ATOM      7  O   UNL     1      33.254   9.449 -26.012  1.00  0.00    -0.550 OA
ATOM      8  O   UNL     1      34.009  11.349 -27.049  1.00  0.00    -0.550 OA
ENDBRANCH   5   6
ENDBRANCH   4   5
ENDBRANCH   3   4
ENDBRANCH   2   3
ENDBRANCH   1   2
BRANCH   1   9
ATOM      9  C   UNL     1      34.589   7.665 -31.592  1.00  0.00     0.000 C 
BRANCH   9  10
ATOM     10  C   UNL     1      35.917   6.912 -31.408  1.00  0.00    -0.000 C 
BRANCH  10  11
ATOM     11  C   UNL     1      35.854   5.467 -31.928  1.00  0.00    -0.000 C 
BRANCH  11  12
ATOM     12  C   UNL     1      35.036   5.339 -33.226  1.00  0.00    -0.000 C 
BRANCH  12  13
ATOM     13  C   UNL     1      34.081   4.136 -33.202  1.00  0.00    -0.003 C 
ATOM     14  C   UNL     1      32.639   4.533 -32.888  1.00  0.00     0.004 C 
ENDBRANCH  12  13
ENDBRANCH  11  12
ENDBRANCH  10  11
ENDBRANCH   9  10
ENDBRANCH   1   9
TORSDOF 10
ENDMDL
MODEL 8
REMARK VINA RESULT:    -2.933     13.636     15.320
REMARK INTER + INTRA:          -6.172
REMARK INTER:                  -4.589
REMARK INTRA:                  -1.583
REMARK UNBOUND:                -1.524
REMARK SMILES CCCCCCCCCCCC(=O)[O-]
REMARK SMILES IDX 7 1 8 2 9 3 10 4 11 5 12 6 13 7 14 8 6 9 5 10 4 11 3 12 2 13
REMARK SMILES IDX 1 14
REMARK H PARENT
REMARK Flexibility Score: inf
ROOT
ATOM      1  C   UNL     1      32.269   3.885 -31.900  1.00  0.00     0.000 C 
ENDROOT
BRANCH   1   2
ATOM      2  C   UNL     1      31.480   4.902 -31.060  1.00  0.00     0.000 C 
BRANCH   2   3
ATOM      3  C   UNL     1      31.755   6.335 -31.538  1.00  0.00     0.000 C 
BRANCH   3   4
ATOM      4  C   UNL     1      31.921   7.331 -30.374  1.00  0.00     0.006 C 
BRANCH   4   5
ATOM      5  C   UNL     1      33.127   8.273 -30.514  1.00  0.00     0.053 C 
BRANCH   5   6
ATOM      6  C   UNL     1      32.713   9.711 -30.565  1.00  0.00     0.041 C 
ATOM      7  O   UNL     1      33.163  10.469 -31.464  1.00  0.00    -0.550 OA
ATOM      8  O   UNL     1      31.802  10.206 -29.639  1.00  0.00    -0.550 OA
ENDBRANCH   5   6
ENDBRANCH   4   5
ENDBRANCH   3   4
ENDBRANCH   2   3
ENDBRANCH   1   2
BRANCH   1   9
ATOM      9  C   UNL     1      33.088   4.547 -33.020  1.00  0.00     0.000 C 
BRANCH   9  10
ATOM     10  C   UNL     1      34.604   4.365 -32.831  1.00  0.00    -0.000 C 
BRANCH  10  11
ATOM     11  C   UNL     1      35.341   5.703 -32.654  1.00  0.00    -0.000 C 
BRANCH  11  12
ATOM     12  C   UNL     1      35.779   5.952 -31.200  1.00  0.00    -0.000 C 
BRANCH  12  13
ATOM     13  C   UNL     1      35.438   4.775 -30.274  1.00  0.00    -0.003 C 
ATOM     14  C   UNL     1      34.697   5.213 -29.011  1.00  0.00     0.004 C 
ENDBRANCH  12  13
ENDBRANCH  11  12
ENDBRANCH  10  11
ENDBRANCH   9  10
ENDBRANCH   1   9
TORSDOF 10
ENDMDL
MODEL 9
REMARK VINA RESULT:    -2.915     15.968     17.786
REMARK INTER + INTRA:          -6.143
REMARK INTER:                  -5.667
REMARK INTRA:                  -0.475
REMARK UNBOUND:                -1.524
REMARK SMILES CCCCCCCCCCCC(=O)[O-]
REMARK SMILES IDX 7 1 8 2 9 3 10 4 11 5 12 6 13 7 14 8 6 9 5 10 4 11 3 12 2 13
REMARK SMILES IDX 1 14
REMARK H PARENT
REMARK Flexibility Score: inf
ROOT
ATOM      1  C   UNL     1      32.171   8.038 -28.889  1.00  0.00     0.000 C 
ENDROOT
BRANCH   1   2
ATOM      2  C   UNL     1      32.761   8.795 -27.689  1.00  0.00     0.000 C 
BRANCH   2   3
ATOM      3  C   UNL     1      32.975  10.277 -28.030  1.00  0.00     0.000 C 
BRANCH   3   4
ATOM      4  C   UNL     1      33.849  11.007 -26.993  1.00  0.00     0.006 C 
BRANCH   4   5
ATOM      5  C   UNL     1      33.056  11.790 -25.934  1.00  0.00     0.053 C 
BRANCH   5   6
ATOM      6  C   UNL     1      33.073  11.106 -24.601  1.00  0.00     0.041 C 
ATOM      7  O   UNL     1      32.309  11.496 -23.679  1.00  0.00    -0.550 OA
ATOM      8  O   UNL     1      33.908  10.016 -24.389  1.00  0.00    -0.550 OA
ENDBRANCH   5   6
ENDBRANCH   4   5
ENDBRANCH   3   4
ENDBRANCH   2   3
ENDBRANCH   1   2
BRANCH   1   9
ATOM      9  C   UNL     1      32.973   8.255 -30.182  1.00  0.00     0.000 C 
BRANCH   9  10
ATOM     10  C   UNL     1      33.761   7.004 -30.606  1.00  0.00    -0.000 C 
BRANCH  10  11
ATOM     11  C   UNL     1      34.926   7.334 -31.554  1.00  0.00    -0.000 C 
BRANCH  11  12
ATOM     12  C   UNL     1      35.756   6.092 -31.928  1.00  0.00    -0.000 C 
BRANCH  12  13
ATOM     13  C   UNL     1      35.347   5.499 -33.284  1.00  0.00    -0.003 C 
ATOM     14  C   UNL     1      34.390   4.315 -33.146  1.00  0.00     0.004 C 
ENDBRANCH  12  13
ENDBRANCH  11  12
ENDBRANCH  10  11
ENDBRANCH   9  10
ENDBRANCH   1   9
TORSDOF 10
ENDMDL
