MODEL 1
REMARK VINA RESULT:    -3.513      0.000      0.000
REMARK INTER + INTRA:          -8.271
REMARK INTER:                  -6.182
REMARK INTRA:                  -2.089
REMARK UNBOUND:                -2.089
REMARK SMILES CCCCCCC=CCCCCCCCC(=O)[O-]
REMARK SMILES IDX 10 1 11 2 12 3 13 4 14 5 15 6 16 7 17 8 18 9 9 10 8 11 7 12
REMARK SMILES IDX 6 13 5 14 4 15 3 16 2 17 1 18
REMARK H PARENT
REMARK Flexibility Score: inf
ROOT
ATOM      1  C   UNL     1       8.403   7.279  -2.706  1.00  0.00     0.004 C 
ENDROOT
BRANCH   1   2
ATOM      2  C   UNL     1       8.605   8.234  -1.521  1.00  0.00     0.000 C 
BRANCH   2   3
ATOM      3  C   UNL     1       7.287   8.926  -1.144  1.00  0.00     0.000 C 
BRANCH   3   4
ATOM      4  C   UNL     1       6.610   9.623  -2.338  1.00  0.00     0.000 C 
BRANCH   4   5
ATOM      5  C   UNL     1       5.089   9.817  -2.201  1.00  0.00     0.006 C 
BRANCH   5   6
ATOM      6  C   UNL     1       4.284   8.920  -3.150  1.00  0.00     0.053 C 
BRANCH   6   7
ATOM      7  C   UNL     1       3.676   7.779  -2.399  1.00  0.00     0.041 C 
ATOM      8  O   UNL     1       2.456   7.803  -2.087  1.00  0.00    -0.550 OA
ATOM      9  O   UNL     1       4.467   6.708  -2.000  1.00  0.00    -0.550 OA
ENDBRANCH   6   7
ENDBRANCH   5   6
ENDBRANCH   4   5
ENDBRANCH   3   4
ENDBRANCH   2   3
ENDBRANCH   1   2
BRANCH   1  10
ATOM     10  C   UNL     1       7.833   5.920  -2.275  1.00  0.00     0.027 C 
BRANCH  10  11
ATOM     11  C   UNL     1       8.919   4.879  -2.140  1.00  0.00    -0.031 C 
ATOM     12  C   UNL     1       9.011   3.751  -2.868  1.00  0.00    -0.031 C 
BRANCH  12  13
ATOM     13  C   UNL     1       8.073   3.346  -3.981  1.00  0.00     0.027 C 
BRANCH  13  14
ATOM     14  C   UNL     1       8.568   3.765  -5.375  1.00  0.00     0.004 C 
BRANCH  14  15
ATOM     15  C   UNL     1       7.929   5.078  -5.858  1.00  0.00     0.000 C 
BRANCH  15  16
ATOM     16  C   UNL     1       6.392   5.060  -5.730  1.00  0.00    -0.000 C 
BRANCH  16  17
ATOM     17  C   UNL     1       5.794   6.412  -5.307  1.00  0.00    -0.003 C 
ATOM     18  C   UNL     1       6.555   7.607  -5.877  1.00  0.00     0.004 C 
ENDBRANCH  16  17
ENDBRANCH  15  16
ENDBRANCH  14  15
ENDBRANCH  13  14
ENDBRANCH  12  13
ENDBRANCH  10  11
ENDBRANCH   1  10
TORSDOF 13
ENDMDL
MODEL 2
REMARK VINA RESULT:    -3.508      2.338      4.680
REMARK INTER + INTRA:          -8.264
REMARK INTER:                  -5.791
REMARK INTRA:                  -2.473
REMARK UNBOUND:                -2.089
REMARK SMILES CCCCCCC=CCCCCCCCC(=O)[O-]
REMARK SMILES IDX 10 1 11 2 12 3 13 4 14 5 15 6 16 7 17 8 18 9 9 10 8 11 7 12
REMARK SMILES IDX 6 13 5 14 4 15 3 16 2 17 1 18
REMARK H PARENT
REMARK Flexibility Score: inf
ROOT
ATOM      1  C   UNL     1       8.050   5.066  -3.624  1.00  0.00     0.004 C 
ENDROOT
BRANCH   1   2
ATOM      2  C   UNL     1       6.832   5.893  -4.062  1.00  0.00     0.000 C 
BRANCH   2   3
ATOM      3  C   UNL     1       7.226   6.926  -5.127  1.00  0.00     0.000 C 
BRANCH   3   4
ATOM      4  C   UNL     1       6.113   7.952  -5.410  1.00  0.00     0.000 C 
BRANCH   4   5
ATOM      5  C   UNL     1       4.842   7.370  -6.054  1.00  0.00     0.006 C 
BRANCH   5   6
ATOM      6  C   UNL     1       5.126   6.606  -7.354  1.00  0.00     0.053 C 
BRANCH   6   7
ATOM      7  C   UNL     1       4.465   5.266  -7.326  1.00  0.00     0.041 C 
ATOM      8  O   UNL     1       3.362   5.090  -7.910  1.00  0.00    -0.550 OA
ATOM      9  O   UNL     1       5.040   4.220  -6.615  1.00  0.00    -0.550 OA
ENDBRANCH   6   7
ENDBRANCH   5   6
ENDBRANCH   4   5
ENDBRANCH   3   4
ENDBRANCH   2   3
ENDBRANCH   1   2
BRANCH   1  10
ATOM     10  C   UNL     1       8.545   5.448  -2.220  1.00  0.00     0.027 C 
BRANCH  10  11
ATOM     11  C   UNL     1       9.603   6.523  -2.277  1.00  0.00    -0.031 C 
ATOM     12  C   UNL     1       9.443   7.796  -1.870  1.00  0.00    -0.031 C 
BRANCH  12  13
ATOM     13  C   UNL     1       8.193   8.364  -1.239  1.00  0.00     0.027 C 
BRANCH  13  14
ATOM     14  C   UNL     1       7.409   9.298  -2.176  1.00  0.00     0.004 C 
BRANCH  14  15
ATOM     15  C   UNL     1       5.889   9.220  -1.951  1.00  0.00     0.000 C 
BRANCH  15  16
ATOM     16  C   UNL     1       5.449   7.838  -1.424  1.00  0.00    -0.000 C 
BRANCH  16  17
ATOM     17  C   UNL     1       4.108   7.358  -2.003  1.00  0.00    -0.003 C 
ATOM     18  C   UNL     1       3.372   8.443  -2.785  1.00  0.00     0.004 C 
ENDBRANCH  16  17
ENDBRANCH  15  16
ENDBRANCH  14  15
ENDBRANCH  13  14
ENDBRANCH  12  13
ENDBRANCH  10  11
ENDBRANCH   1  10
TORSDOF 13
ENDMDL
MODEL 3
REMARK VINA RESULT:    -3.465      2.288      4.638
REMARK INTER + INTRA:          -8.188
REMARK INTER:                  -5.707
REMARK INTRA:                  -2.482
REMARK UNBOUND:                -2.089
REMARK SMILES CCCCCCC=CCCCCCCCC(=O)[O-]
REMARK SMILES IDX 10 1 11 2 12 3 13 4 14 5 15 6 16 7 17 8 18 9 9 10 8 11 7 12
REMARK SMILES IDX 6 13 5 14 4 15 3 16 2 17 1 18
REMARK H PARENT
REMARK Flexibility Score: inf
ROOT
ATOM      1  C   UNL     1       7.985   8.392  -1.320  1.00  0.00     0.004 C 
ENDROOT
BRANCH   1   2
ATOM      2  C   UNL     1       8.431   8.352  -2.788  1.00  0.00     0.000 C 
BRANCH   2   3
ATOM      3  C   UNL     1       9.112   7.016  -3.118  1.00  0.00     0.000 C 
BRANCH   3   4
ATOM      4  C   UNL     1       8.800   5.912  -2.091  1.00  0.00     0.000 C 
BRANCH   4   5
ATOM      5  C   UNL     1       7.932   4.756  -2.622  1.00  0.00     0.006 C 
BRANCH   5   6
ATOM      6  C   UNL     1       8.339   4.300  -4.029  1.00  0.00     0.053 C 
BRANCH   6   7
ATOM      7  C   UNL     1       7.590   3.065  -4.414  1.00  0.00     0.041 C 
ATOM      8  O   UNL     1       6.401   3.147  -4.823  1.00  0.00    -0.550 OA
ATOM      9  O   UNL     1       8.186   1.818  -4.277  1.00  0.00    -0.550 OA
ENDBRANCH   6   7
ENDBRANCH   5   6
ENDBRANCH   4   5
ENDBRANCH   3   4
ENDBRANCH   2   3
ENDBRANCH   1   2
BRANCH   1  10
ATOM     10  C   UNL     1       6.494   8.729  -1.167  1.00  0.00     0.027 C 
BRANCH  10  11
ATOM     11  C   UNL     1       5.631   7.495  -1.283  1.00  0.00    -0.031 C 
ATOM     12  C   UNL     1       4.664   7.304  -2.199  1.00  0.00    -0.031 C 
BRANCH  12  13
ATOM     13  C   UNL     1       4.302   8.267  -3.306  1.00  0.00     0.027 C 
BRANCH  13  14
ATOM     14  C   UNL     1       5.188   8.121  -4.553  1.00  0.00     0.004 C 
BRANCH  14  15
ATOM     15  C   UNL     1       5.627   6.667  -4.798  1.00  0.00     0.000 C 
BRANCH  15  16
ATOM     16  C   UNL     1       6.178   6.458  -6.224  1.00  0.00    -0.000 C 
BRANCH  16  17
ATOM     17  C   UNL     1       7.579   7.057  -6.436  1.00  0.00    -0.003 C 
ATOM     18  C   UNL     1       7.578   8.260  -7.376  1.00  0.00     0.004 C 
ENDBRANCH  16  17
ENDBRANCH  15  16
ENDBRANCH  14  15
ENDBRANCH  13  14
ENDBRANCH  12  13
ENDBRANCH  10  11
ENDBRANCH   1  10
TORSDOF 13
ENDMDL
MODEL 4
REMARK VINA RESULT:    -3.457     13.706     16.193
REMARK INTER + INTRA:          -8.173
REMARK INTER:                  -6.675
REMARK INTRA:                  -1.498
REMARK UNBOUND:                -2.089
REMARK SMILES CCCCCCC=CCCCCCCCC(=O)[O-]
REMARK SMILES IDX 10 1 11 2 12 3 13 4 14 5 15 6 16 7 17 8 18 9 9 10 8 11 7 12
REMARK SMILES IDX 6 13 5 14 4 15 3 16 2 17 1 18
REMARK H PARENT
REMARK Flexibility Score: inf
ROOT
ATOM      1  C   UNL     1      -6.904   2.308  -5.963  1.00  0.00     0.004 C 
ENDROOT
BRANCH   1   2
ATOM      2  C   UNL     1      -7.815   1.521  -6.915  1.00  0.00     0.000 C 
BRANCH   2   3
ATOM      3  C   UNL     1      -8.965   0.853  -6.147  1.00  0.00     0.000 C 
BRANCH   3   4
ATOM      4  C   UNL     1      -8.697   0.748  -4.635  1.00  0.00     0.000 C 
BRANCH   4   5
ATOM      5  C   UNL     1      -9.865   0.182  -3.806  1.00  0.00     0.006 C 
BRANCH   5   6
ATOM      6  C   UNL     1      -9.467  -1.043  -2.973  1.00  0.00     0.053 C 
BRANCH   6   7
ATOM      7  C   UNL     1      -9.635  -0.759  -1.514  1.00  0.00     0.041 C 
ATOM      8  O   UNL     1      -9.649   0.429  -1.097  1.00  0.00    -0.550 OA
ATOM      9  O   UNL     1      -9.726  -1.808  -0.607  1.00  0.00    -0.550 OA
ENDBRANCH   6   7
ENDBRANCH   5   6
ENDBRANCH   4   5
ENDBRANCH   3   4
ENDBRANCH   2   3
ENDBRANCH   1   2
BRANCH   1  10
ATOM     10  C   UNL     1      -7.039   3.828  -6.143  1.00  0.00     0.027 C 
BRANCH  10  11
ATOM     11  C   UNL     1      -8.482   4.243  -6.301  1.00  0.00    -0.031 C 
ATOM     12  C   UNL     1      -8.973   4.989  -7.307  1.00  0.00    -0.031 C 
BRANCH  12  13
ATOM     13  C   UNL     1      -8.178   5.505  -8.485  1.00  0.00     0.027 C 
BRANCH  13  14
ATOM     14  C   UNL     1      -8.031   4.476  -9.616  1.00  0.00     0.004 C 
BRANCH  14  15
ATOM     15  C   UNL     1      -6.571   4.041  -9.832  1.00  0.00     0.000 C 
BRANCH  15  16
ATOM     16  C   UNL     1      -5.568   5.125  -9.383  1.00  0.00    -0.000 C 
BRANCH  16  17
ATOM     17  C   UNL     1      -4.399   4.573  -8.551  1.00  0.00    -0.003 C 
ATOM     18  C   UNL     1      -3.051   5.178  -8.939  1.00  0.00     0.004 C 
ENDBRANCH  16  17
ENDBRANCH  15  16
ENDBRANCH  14  15
ENDBRANCH  13  14
ENDBRANCH  12  13
ENDBRANCH  10  11
ENDBRANCH   1  10
TORSDOF 13
ENDMDL
MODEL 5
REMARK VINA RESULT:    -3.427      2.938      6.013
REMARK INTER + INTRA:          -8.120
REMARK INTER:                  -6.093
REMARK INTRA:                  -2.027
REMARK UNBOUND:                -2.089
REMARK SMILES CCCCCCC=CCCCCCCCC(=O)[O-]
REMARK SMILES IDX 10 1 11 2 12 3 13 4 14 5 15 6 16 7 17 8 18 9 9 10 8 11 7 12
REMARK SMILES IDX 6 13 5 14 4 15 3 16 2 17 1 18
REMARK H PARENT
REMARK Flexibility Score: inf
ROOT
ATOM      1  C   UNL     1       5.988   7.800  -5.924  1.00  0.00     0.004 C 
ENDROOT
BRANCH   1   2
ATOM      2  C   UNL     1       4.845   6.790  -6.101  1.00  0.00     0.000 C 
BRANCH   2   3
ATOM      3  C   UNL     1       4.610   6.484  -7.588  1.00  0.00     0.000 C 
BRANCH   3   4
ATOM      4  C   UNL     1       5.343   5.218  -8.065  1.00  0.00     0.000 C 
BRANCH   4   5
ATOM      5  C   UNL     1       5.502   4.117  -7.000  1.00  0.00     0.006 C 
BRANCH   5   6
ATOM      6  C   UNL     1       4.346   3.109  -7.005  1.00  0.00     0.053 C 
BRANCH   6   7
ATOM      7  C   UNL     1       4.821   1.768  -6.545  1.00  0.00     0.041 C 
ATOM      8  O   UNL     1       5.139   0.885  -7.385  1.00  0.00    -0.550 OA
ATOM      9  O   UNL     1       4.867   1.475  -5.187  1.00  0.00    -0.550 OA
ENDBRANCH   6   7
ENDBRANCH   5   6
ENDBRANCH   4   5
ENDBRANCH   3   4
ENDBRANCH   2   3
ENDBRANCH   1   2
BRANCH   1  10
ATOM     10  C   UNL     1       7.090   7.282  -4.988  1.00  0.00     0.027 C 
BRANCH  10  11
ATOM     11  C   UNL     1       6.542   6.317  -3.964  1.00  0.00    -0.031 C 
ATOM     12  C   UNL     1       6.755   6.385  -2.637  1.00  0.00    -0.031 C 
BRANCH  12  13
ATOM     13  C   UNL     1       7.538   7.466  -1.929  1.00  0.00     0.027 C 
BRANCH  13  14
ATOM     14  C   UNL     1       6.649   8.462  -1.168  1.00  0.00     0.004 C 
BRANCH  14  15
ATOM     15  C   UNL     1       6.523   9.813  -1.893  1.00  0.00     0.000 C 
BRANCH  15  16
ATOM     16  C   UNL     1       5.412   9.798  -2.964  1.00  0.00    -0.000 C 
BRANCH  16  17
ATOM     17  C   UNL     1       4.016   9.492  -2.397  1.00  0.00    -0.003 C 
ATOM     18  C   UNL     1       3.393   8.230  -2.989  1.00  0.00     0.004 C 
ENDBRANCH  16  17
ENDBRANCH  15  16
ENDBRANCH  14  15
ENDBRANCH  13  14
ENDBRANCH  12  13
ENDBRANCH  10  11
ENDBRANCH   1  10
TORSDOF 13
ENDMDL
MODEL 6
REMARK VINA RESULT:    -3.425      1.643      3.516
REMARK INTER + INTRA:          -8.117
REMARK INTER:                  -6.792
REMARK INTRA:                  -1.325
REMARK UNBOUND:                -2.089
REMARK SMILES CCCCCCC=CCCCCCCCC(=O)[O-]
REMARK SMILES IDX 10 1 11 2 12 3 13 4 14 5 15 6 16 7 17 8 18 9 9 10 8 11 7 12
REMARK SMILES IDX 6 13 5 14 4 15 3 16 2 17 1 18
REMARK H PARENT
REMARK Flexibility Score: inf
ROOT
ATOM      1  C   UNL     1       7.716   6.611  -3.007  1.00  0.00     0.004 C 
ENDROOT
BRANCH   1   2
ATOM      2  C   UNL     1       6.389   6.821  -2.263  1.00  0.00     0.000 C 
BRANCH   2   3
ATOM      3  C   UNL     1       6.417   8.123  -1.450  1.00  0.00     0.000 C 
BRANCH   3   4
ATOM      4  C   UNL     1       6.079   9.366  -2.292  1.00  0.00     0.000 C 
BRANCH   4   5
ATOM      5  C   UNL     1       4.592   9.764  -2.296  1.00  0.00     0.006 C 
BRANCH   5   6
ATOM      6  C   UNL     1       3.725   8.831  -3.151  1.00  0.00     0.053 C 
BRANCH   6   7
ATOM      7  C   UNL     1       2.763   8.078  -2.289  1.00  0.00     0.041 C 
ATOM      8  O   UNL     1       3.026   6.903  -1.921  1.00  0.00    -0.550 OA
ATOM      9  O   UNL     1       1.550   8.656  -1.932  1.00  0.00    -0.550 OA
ENDBRANCH   6   7
ENDBRANCH   5   6
ENDBRANCH   4   5
ENDBRANCH   3   4
ENDBRANCH   2   3
ENDBRANCH   1   2
BRANCH   1  10
ATOM     10  C   UNL     1       7.605   6.929  -4.506  1.00  0.00     0.027 C 
BRANCH  10  11
ATOM     11  C   UNL     1       6.344   6.354  -5.104  1.00  0.00    -0.031 C 
ATOM     12  C   UNL     1       6.222   5.120  -5.628  1.00  0.00    -0.031 C 
BRANCH  12  13
ATOM     13  C   UNL     1       7.310   4.072  -5.668  1.00  0.00     0.027 C 
BRANCH  13  14
ATOM     14  C   UNL     1       7.353   3.193  -4.408  1.00  0.00     0.004 C 
BRANCH  14  15
ATOM     15  C   UNL     1       8.787   2.802  -4.010  1.00  0.00     0.000 C 
BRANCH  15  16
ATOM     16  C   UNL     1       9.032   1.283  -4.135  1.00  0.00    -0.000 C 
BRANCH  16  17
ATOM     17  C   UNL     1       7.796   0.497  -4.601  1.00  0.00    -0.003 C 
ATOM     18  C   UNL     1       7.689  -0.885  -3.960  1.00  0.00     0.004 C 
ENDBRANCH  16  17
ENDBRANCH  15  16
ENDBRANCH  14  15
ENDBRANCH  13  14
ENDBRANCH  12  13
ENDBRANCH  10  11
ENDBRANCH   1  10
TORSDOF 13
ENDMDL
MODEL 7
REMARK VINA RESULT:    -3.414      1.299      1.903
REMARK INTER + INTRA:          -8.097
REMARK INTER:                  -5.948
REMARK INTRA:                  -2.149
REMARK UNBOUND:                -2.089
REMARK SMILES CCCCCCC=CCCCCCCCC(=O)[O-]
REMARK SMILES IDX 10 1 11 2 12 3 13 4 14 5 15 6 16 7 17 8 18 9 9 10 8 11 7 12
REMARK SMILES IDX 6 13 5 14 4 15 3 16 2 17 1 18
REMARK H PARENT
REMARK Flexibility Score: inf
ROOT
ATOM      1  C   UNL     1       9.374   8.040  -2.187  1.00  0.00     0.004 C 
ENDROOT
BRANCH   1   2
ATOM      2  C   UNL     1       8.821   8.939  -3.303  1.00  0.00     0.000 C 
BRANCH   2   3
ATOM      3  C   UNL     1       7.413   9.441  -2.954  1.00  0.00     0.000 C 
BRANCH   3   4
ATOM      4  C   UNL     1       6.942   8.994  -1.558  1.00  0.00     0.000 C 
BRANCH   4   5
ATOM      5  C   UNL     1       5.615   8.214  -1.538  1.00  0.00     0.006 C 
BRANCH   5   6
ATOM      6  C   UNL     1       4.551   8.822  -2.461  1.00  0.00     0.053 C 
BRANCH   6   7
ATOM      7  C   UNL     1       3.229   8.158  -2.242  1.00  0.00     0.041 C 
ATOM      8  O   UNL     1       3.170   6.915  -2.043  1.00  0.00    -0.550 OA
ATOM      9  O   UNL     1       2.057   8.901  -2.305  1.00  0.00    -0.550 OA
ENDBRANCH   6   7
ENDBRANCH   5   6
ENDBRANCH   4   5
ENDBRANCH   3   4
ENDBRANCH   2   3
ENDBRANCH   1   2
BRANCH   1  10
ATOM     10  C   UNL     1       9.613   6.598  -2.659  1.00  0.00     0.027 C 
BRANCH  10  11
ATOM     11  C   UNL     1       8.542   5.662  -2.153  1.00  0.00    -0.031 C 
ATOM     12  C   UNL     1       7.793   4.848  -2.920  1.00  0.00    -0.031 C 
BRANCH  12  13
ATOM     13  C   UNL     1       7.923   4.688  -4.417  1.00  0.00     0.027 C 
BRANCH  13  14
ATOM     14  C   UNL     1       6.630   5.023  -5.178  1.00  0.00     0.004 C 
BRANCH  14  15
ATOM     15  C   UNL     1       6.023   6.369  -4.747  1.00  0.00     0.000 C 
BRANCH  15  16
ATOM     16  C   UNL     1       6.206   7.462  -5.821  1.00  0.00    -0.000 C 
BRANCH  16  17
ATOM     17  C   UNL     1       4.925   7.765  -6.615  1.00  0.00    -0.003 C 
ATOM     18  C   UNL     1       4.836   6.989  -7.927  1.00  0.00     0.004 C 
ENDBRANCH  16  17
ENDBRANCH  15  16
ENDBRANCH  14  15
ENDBRANCH  13  14
ENDBRANCH  12  13
ENDBRANCH  10  11
ENDBRANCH   1  10
TORSDOF 13
ENDMDL
MODEL 8
REMARK VINA RESULT:    -3.379      1.298      3.745
REMARK INTER + INTRA:          -8.036
REMARK INTER:                  -6.171
REMARK INTRA:                  -1.865
REMARK UNBOUND:                -2.089
REMARK SMILES CCCCCCC=CCCCCCCCC(=O)[O-]
REMARK SMILES IDX 10 1 11 2 12 3 13 4 14 5 15 6 16 7 17 8 18 9 9 10 8 11 7 12
REMARK SMILES IDX 6 13 5 14 4 15 3 16 2 17 1 18
REMARK H PARENT
REMARK Flexibility Score: inf
ROOT
ATOM      1  C   UNL     1       6.053   8.332  -6.712  1.00  0.00     0.004 C 
ENDROOT
BRANCH   1   2
ATOM      2  C   UNL     1       6.802   9.406  -5.910  1.00  0.00     0.000 C 
BRANCH   2   3
ATOM      3  C   UNL     1       5.972   9.866  -4.702  1.00  0.00     0.000 C 
BRANCH   3   4
ATOM      4  C   UNL     1       6.725   9.727  -3.367  1.00  0.00     0.000 C 
BRANCH   4   5
ATOM      5  C   UNL     1       5.867   9.239  -2.185  1.00  0.00     0.006 C 
BRANCH   5   6
ATOM      6  C   UNL     1       4.361   9.365  -2.447  1.00  0.00     0.053 C 
BRANCH   6   7
ATOM      7  C   UNL     1       3.703   8.025  -2.365  1.00  0.00     0.041 C 
ATOM      8  O   UNL     1       2.448   7.930  -2.415  1.00  0.00    -0.550 OA
ATOM      9  O   UNL     1       4.473   6.882  -2.183  1.00  0.00    -0.550 OA
ENDBRANCH   6   7
ENDBRANCH   5   6
ENDBRANCH   4   5
ENDBRANCH   3   4
ENDBRANCH   2   3
ENDBRANCH   1   2
BRANCH   1  10
ATOM     10  C   UNL     1       5.139   7.469  -5.829  1.00  0.00     0.027 C 
BRANCH  10  11
ATOM     11  C   UNL     1       5.563   6.020  -5.839  1.00  0.00    -0.031 C 
ATOM     12  C   UNL     1       6.592   5.504  -5.142  1.00  0.00    -0.031 C 
BRANCH  12  13
ATOM     13  C   UNL     1       7.476   6.271  -4.186  1.00  0.00     0.027 C 
BRANCH  13  14
ATOM     14  C   UNL     1       7.560   5.633  -2.790  1.00  0.00     0.004 C 
BRANCH  14  15
ATOM     15  C   UNL     1       8.998   5.244  -2.404  1.00  0.00     0.000 C 
BRANCH  15  16
ATOM     16  C   UNL     1       9.139   3.732  -2.133  1.00  0.00    -0.000 C 
BRANCH  16  17
ATOM     17  C   UNL     1       9.782   2.956  -3.294  1.00  0.00    -0.003 C 
ATOM     18  C   UNL     1       8.769   2.164  -4.118  1.00  0.00     0.004 C 
ENDBRANCH  16  17
ENDBRANCH  15  16
ENDBRANCH  14  15
ENDBRANCH  13  14
ENDBRANCH  12  13
ENDBRANCH  10  11
ENDBRANCH   1  10
TORSDOF 13
ENDMDL
MODEL 9
REMARK VINA RESULT:    -3.354      1.512      3.654
REMARK INTER + INTRA:          -7.992
REMARK INTER:                  -5.466
REMARK INTRA:                  -2.526
REMARK UNBOUND:                -2.089
REMARK SMILES CCCCCCC=CCCCCCCCC(=O)[O-]
REMARK SMILES IDX 10 1 11 2 12 3 13 4 14 5 15 6 16 7 17 8 18 9 9 10 8 11 7 12
REMARK SMILES IDX 6 13 5 14 4 15 3 16 2 17 1 18
REMARK H PARENT
REMARK Flexibility Score: inf
ROOT
ATOM      1  C   UNL     1       8.198   4.096  -4.497  1.00  0.00     0.004 C 
ENDROOT
BRANCH   1   2
ATOM      2  C   UNL     1       8.487   4.993  -3.285  1.00  0.00     0.000 C 
BRANCH   2   3
ATOM      3  C   UNL     1       7.244   5.807  -2.897  1.00  0.00     0.000 C 
BRANCH   3   4
ATOM      4  C   UNL     1       7.586   7.112  -2.157  1.00  0.00     0.000 C 
BRANCH   4   5
ATOM      5  C   UNL     1       6.370   7.928  -1.681  1.00  0.00     0.006 C 
BRANCH   5   6
ATOM      6  C   UNL     1       5.041   7.185  -1.870  1.00  0.00     0.053 C 
BRANCH   6   7
ATOM      7  C   UNL     1       3.963   8.139  -2.275  1.00  0.00     0.041 C 
ATOM      8  O   UNL     1       4.243   9.340  -2.530  1.00  0.00    -0.550 OA
ATOM      9  O   UNL     1       2.641   7.715  -2.325  1.00  0.00    -0.550 OA
ENDBRANCH   6   7
ENDBRANCH   5   6
ENDBRANCH   4   5
ENDBRANCH   3   4
ENDBRANCH   2   3
ENDBRANCH   1   2
BRANCH   1  10
ATOM     10  C   UNL     1       6.873   4.450  -5.188  1.00  0.00     0.027 C 
BRANCH  10  11
ATOM     11  C   UNL     1       7.101   5.074  -6.544  1.00  0.00    -0.031 C 
ATOM     12  C   UNL     1       6.223   5.854  -7.201  1.00  0.00    -0.031 C 
BRANCH  12  13
ATOM     13  C   UNL     1       4.873   6.287  -6.678  1.00  0.00     0.027 C 
BRANCH  13  14
ATOM     14  C   UNL     1       4.951   7.460  -5.688  1.00  0.00     0.004 C 
BRANCH  14  15
ATOM     15  C   UNL     1       5.827   8.613  -6.208  1.00  0.00     0.000 C 
BRANCH  15  16
ATOM     16  C   UNL     1       6.984   8.945  -5.243  1.00  0.00    -0.000 C 
BRANCH  16  17
ATOM     17  C   UNL     1       8.365   8.958  -5.920  1.00  0.00    -0.003 C 
ATOM     18  C   UNL     1       9.276   7.831  -5.441  1.00  0.00     0.004 C 
ENDBRANCH  16  17
ENDBRANCH  15  16
ENDBRANCH  14  15
ENDBRANCH  13  14
ENDBRANCH  12  13
ENDBRANCH  10  11
ENDBRANCH   1  10
TORSDOF 13
ENDMDL
