MODEL 1
REMARK VINA RESULT:    -3.407      0.000      0.000
REMARK INTER + INTRA:          -7.403
REMARK INTER:                  -5.997
REMARK INTRA:                  -1.407
REMARK UNBOUND:                -1.407
REMARK SMILES CCCCCCCCCCCCCCC(=O)[O-]
REMARK SMILES IDX 9 1 10 2 11 3 12 4 13 5 14 6 15 7 16 8 17 9 8 10 7 11 6 12
REMARK SMILES IDX 5 13 4 14 3 15 2 16 1 17
REMARK H PARENT
REMARK Flexibility Score: inf
ROOT
ATOM      1  C   UNL     1      44.833  20.818  78.883  1.00  0.00     0.000 C 
ENDROOT
BRANCH   1   2
ATOM      2  C   UNL     1      43.488  21.127  79.563  1.00  0.00     0.000 C 
BRANCH   2   3
ATOM      3  C   UNL     1      42.371  20.151  79.150  1.00  0.00     0.000 C 
BRANCH   3   4
ATOM      4  C   UNL     1      41.054  20.818  78.713  1.00  0.00     0.000 C 
BRANCH   4   5
ATOM      5  C   UNL     1      39.974  20.783  79.807  1.00  0.00     0.006 C 
BRANCH   5   6
ATOM      6  C   UNL     1      39.681  19.355  80.287  1.00  0.00     0.053 C 
BRANCH   6   7
ATOM      7  C   UNL     1      38.216  19.045  80.253  1.00  0.00     0.041 C 
ATOM      8  O   UNL     1      37.820  17.861  80.097  1.00  0.00    -0.550 OA
ATOM      9  O   UNL     1      37.286  20.073  80.364  1.00  0.00    -0.550 OA
ENDBRANCH   6   7
ENDBRANCH   5   6
ENDBRANCH   4   5
ENDBRANCH   3   4
ENDBRANCH   2   3
ENDBRANCH   1   2
BRANCH   1  10
ATOM     10  C   UNL     1      44.888  19.401  78.292  1.00  0.00     0.000 C 
BRANCH  10  11
ATOM     11  C   UNL     1      46.181  19.144  77.498  1.00  0.00    -0.000 C 
BRANCH  11  12
ATOM     12  C   UNL     1      45.914  18.859  76.010  1.00  0.00    -0.000 C 
BRANCH  12  13
ATOM     13  C   UNL     1      46.525  19.928  75.087  1.00  0.00    -0.000 C 
BRANCH  13  14
ATOM     14  C   UNL     1      45.732  21.246  75.107  1.00  0.00    -0.000 C 
BRANCH  14  15
ATOM     15  C   UNL     1      44.272  21.067  74.654  1.00  0.00    -0.000 C 
BRANCH  15  16
ATOM     16  C   UNL     1      43.267  21.505  75.730  1.00  0.00    -0.003 C 
ATOM     17  C   UNL     1      42.097  22.302  75.153  1.00  0.00     0.004 C 
ENDBRANCH  15  16
ENDBRANCH  14  15
ENDBRANCH  13  14
ENDBRANCH  12  13
ENDBRANCH  11  12
ENDBRANCH  10  11
ENDBRANCH   1  10
TORSDOF 13
ENDMDL
MODEL 2
REMARK VINA RESULT:    -3.384     16.967     18.789
REMARK INTER + INTRA:          -7.362
REMARK INTER:                  -5.695
REMARK INTRA:                  -1.667
REMARK UNBOUND:                -1.407
REMARK SMILES CCCCCCCCCCCCCCC(=O)[O-]
REMARK SMILES IDX 9 1 10 2 11 3 12 4 13 5 14 6 15 7 16 8 17 9 8 10 7 11 6 12
REMARK SMILES IDX 5 13 4 14 3 15 2 16 1 17
REMARK H PARENT
REMARK Flexibility Score: inf
ROOT
ATOM      1  C   UNL     1      49.986  35.107  87.779  1.00  0.00     0.000 C 
ENDROOT
BRANCH   1   2
ATOM      2  C   UNL     1      49.556  34.430  86.465  1.00  0.00     0.000 C 
BRANCH   2   3
ATOM      3  C   UNL     1      48.661  33.199  86.692  1.00  0.00     0.000 C 
BRANCH   3   4
ATOM      4  C   UNL     1      49.349  32.018  87.401  1.00  0.00     0.000 C 
BRANCH   4   5
ATOM      5  C   UNL     1      48.783  31.752  88.806  1.00  0.00     0.006 C 
BRANCH   5   6
ATOM      6  C   UNL     1      47.249  31.705  88.814  1.00  0.00     0.053 C 
BRANCH   6   7
ATOM      7  C   UNL     1      46.708  31.399  90.177  1.00  0.00     0.041 C 
ATOM      8  O   UNL     1      45.496  31.612  90.443  1.00  0.00    -0.550 OA
ATOM      9  O   UNL     1      47.552  30.903  91.164  1.00  0.00    -0.550 OA
ENDBRANCH   6   7
ENDBRANCH   5   6
ENDBRANCH   4   5
ENDBRANCH   3   4
ENDBRANCH   2   3
ENDBRANCH   1   2
BRANCH   1  10
ATOM     10  C   UNL     1      51.504  35.330  87.863  1.00  0.00     0.000 C 
BRANCH  10  11
ATOM     11  C   UNL     1      52.280  34.494  86.829  1.00  0.00    -0.000 C 
BRANCH  11  12
ATOM     12  C   UNL     1      53.030  33.313  87.467  1.00  0.00    -0.000 C 
BRANCH  12  13
ATOM     13  C   UNL     1      53.062  33.397  89.003  1.00  0.00    -0.000 C 
BRANCH  13  14
ATOM     14  C   UNL     1      52.397  32.183  89.674  1.00  0.00    -0.000 C 
BRANCH  14  15
ATOM     15  C   UNL     1      52.263  32.347  91.199  1.00  0.00    -0.000 C 
BRANCH  15  16
ATOM     16  C   UNL     1      50.977  31.710  91.747  1.00  0.00    -0.003 C 
ATOM     17  C   UNL     1      50.745  32.028  93.224  1.00  0.00     0.004 C 
ENDBRANCH  15  16
ENDBRANCH  14  15
ENDBRANCH  13  14
ENDBRANCH  12  13
ENDBRANCH  11  12
ENDBRANCH  10  11
ENDBRANCH   1  10
TORSDOF 13
ENDMDL
MODEL 3
REMARK VINA RESULT:    -3.354      3.321      6.812
REMARK INTER + INTRA:          -7.309
REMARK INTER:                  -5.841
REMARK INTRA:                  -1.468
REMARK UNBOUND:                -1.407
REMARK SMILES CCCCCCCCCCCCCCC(=O)[O-]
REMARK SMILES IDX 9 1 10 2 11 3 12 4 13 5 14 6 15 7 16 8 17 9 8 10 7 11 6 12
REMARK SMILES IDX 5 13 4 14 3 15 2 16 1 17
REMARK H PARENT
REMARK Flexibility Score: inf
ROOT
ATOM      1  C   UNL     1      42.203  22.152  75.141  1.00  0.00     0.000 C 
ENDROOT
BRANCH   1   2
ATOM      2  C   UNL     1      43.376  21.271  75.605  1.00  0.00     0.000 C 
BRANCH   2   3
ATOM      3  C   UNL     1      44.431  22.054  76.408  1.00  0.00     0.000 C 
BRANCH   3   4
ATOM      4  C   UNL     1      44.612  21.591  77.866  1.00  0.00     0.000 C 
BRANCH   4   5
ATOM      5  C   UNL     1      44.342  20.088  78.054  1.00  0.00     0.006 C 
BRANCH   5   6
ATOM      6  C   UNL     1      45.639  19.270  78.112  1.00  0.00     0.053 C 
BRANCH   6   7
ATOM      7  C   UNL     1      45.772  18.353  76.934  1.00  0.00     0.041 C 
ATOM      8  O   UNL     1      45.993  18.821  75.786  1.00  0.00    -0.550 OA
ATOM      9  O   UNL     1      45.621  16.982  77.101  1.00  0.00    -0.550 OA
ENDBRANCH   6   7
ENDBRANCH   5   6
ENDBRANCH   4   5
ENDBRANCH   3   4
ENDBRANCH   2   3
ENDBRANCH   1   2
BRANCH   1  10
ATOM     10  C   UNL     1      41.225  22.486  76.278  1.00  0.00     0.000 C 
BRANCH  10  11
ATOM     11  C   UNL     1      40.763  21.233  77.044  1.00  0.00    -0.000 C 
BRANCH  11  12
ATOM     12  C   UNL     1      40.822  21.419  78.569  1.00  0.00    -0.000 C 
BRANCH  12  13
ATOM     13  C   UNL     1      40.797  20.080  79.328  1.00  0.00    -0.000 C 
BRANCH  13  14
ATOM     14  C   UNL     1      39.506  19.888  80.142  1.00  0.00    -0.000 C 
BRANCH  14  15
ATOM     15  C   UNL     1      38.503  21.038  79.944  1.00  0.00    -0.000 C 
BRANCH  15  16
ATOM     16  C   UNL     1      37.319  20.959  80.919  1.00  0.00    -0.003 C 
ATOM     17  C   UNL     1      37.306  19.660  81.726  1.00  0.00     0.004 C 
ENDBRANCH  15  16
ENDBRANCH  14  15
ENDBRANCH  13  14
ENDBRANCH  12  13
ENDBRANCH  11  12
ENDBRANCH  10  11
ENDBRANCH   1  10
TORSDOF 13
ENDMDL
MODEL 4
REMARK VINA RESULT:    -3.338     16.301     18.060
REMARK INTER + INTRA:          -7.281
REMARK INTER:                  -6.221
REMARK INTRA:                  -1.059
REMARK UNBOUND:                -1.407
REMARK SMILES CCCCCCCCCCCCCCC(=O)[O-]
REMARK SMILES IDX 9 1 10 2 11 3 12 4 13 5 14 6 15 7 16 8 17 9 8 10 7 11 6 12
REMARK SMILES IDX 5 13 4 14 3 15 2 16 1 17
REMARK H PARENT
REMARK Flexibility Score: inf
ROOT
ATOM      1  C   UNL     1      47.879  32.297  87.870  1.00  0.00     0.000 C 
ENDROOT
BRANCH   1   2
ATOM      2  C   UNL     1      47.169  31.988  89.200  1.00  0.00     0.000 C 
BRANCH   2   3
ATOM      3  C   UNL     1      46.458  30.622  89.195  1.00  0.00     0.000 C 
BRANCH   3   4
ATOM      4  C   UNL     1      44.931  30.684  89.377  1.00  0.00     0.000 C 
BRANCH   4   5
ATOM      5  C   UNL     1      44.513  31.273  90.734  1.00  0.00     0.006 C 
BRANCH   5   6
ATOM      6  C   UNL     1      44.889  30.355  91.905  1.00  0.00     0.053 C 
BRANCH   6   7
ATOM      7  C   UNL     1      43.921  30.475  93.041  1.00  0.00     0.041 C 
ATOM      8  O   UNL     1      43.803  31.563  93.664  1.00  0.00    -0.550 OA
ATOM      9  O   UNL     1      43.168  29.373  93.432  1.00  0.00    -0.550 OA
ENDBRANCH   6   7
ENDBRANCH   5   6
ENDBRANCH   4   5
ENDBRANCH   3   4
ENDBRANCH   2   3
ENDBRANCH   1   2
BRANCH   1  10
ATOM     10  C   UNL     1      48.280  33.775  87.740  1.00  0.00     0.000 C 
BRANCH  10  11
ATOM     11  C   UNL     1      49.805  33.978  87.796  1.00  0.00    -0.000 C 
BRANCH  11  12
ATOM     12  C   UNL     1      50.554  32.702  88.215  1.00  0.00    -0.000 C 
BRANCH  12  13
ATOM     13  C   UNL     1      51.766  32.999  89.115  1.00  0.00    -0.000 C 
BRANCH  13  14
ATOM     14  C   UNL     1      51.833  32.071  90.340  1.00  0.00    -0.000 C 
BRANCH  14  15
ATOM     15  C   UNL     1      50.507  31.331  90.596  1.00  0.00    -0.000 C 
BRANCH  15  16
ATOM     16  C   UNL     1      50.308  30.979  92.078  1.00  0.00    -0.003 C 
ATOM     17  C   UNL     1      50.833  32.065  93.017  1.00  0.00     0.004 C 
ENDBRANCH  15  16
ENDBRANCH  14  15
ENDBRANCH  13  14
ENDBRANCH  12  13
ENDBRANCH  11  12
ENDBRANCH  10  11
ENDBRANCH   1  10
TORSDOF 13
ENDMDL
MODEL 5
REMARK VINA RESULT:    -3.337     16.931     18.974
REMARK INTER + INTRA:          -7.280
REMARK INTER:                  -5.197
REMARK INTRA:                  -2.083
REMARK UNBOUND:                -1.407
REMARK SMILES CCCCCCCCCCCCCCC(=O)[O-]
REMARK SMILES IDX 9 1 10 2 11 3 12 4 13 5 14 6 15 7 16 8 17 9 8 10 7 11 6 12
REMARK SMILES IDX 5 13 4 14 3 15 2 16 1 17
REMARK H PARENT
REMARK Flexibility Score: inf
ROOT
ATOM      1  C   UNL     1      50.871  34.524  88.077  1.00  0.00     0.000 C 
ENDROOT
BRANCH   1   2
ATOM      2  C   UNL     1      52.210  35.280  88.136  1.00  0.00     0.000 C 
BRANCH   2   3
ATOM      3  C   UNL     1      53.345  34.541  87.404  1.00  0.00     0.000 C 
BRANCH   3   4
ATOM      4  C   UNL     1      53.015  33.097  86.984  1.00  0.00     0.000 C 
BRANCH   4   5
ATOM      5  C   UNL     1      52.937  32.921  85.458  1.00  0.00     0.006 C 
BRANCH   5   6
ATOM      6  C   UNL     1      53.042  34.260  84.714  1.00  0.00     0.053 C 
BRANCH   6   7
ATOM      7  C   UNL     1      53.506  34.077  83.301  1.00  0.00     0.041 C 
ATOM      8  O   UNL     1      53.252  33.011  82.682  1.00  0.00    -0.550 OA
ATOM      9  O   UNL     1      54.246  35.076  82.679  1.00  0.00    -0.550 OA
ENDBRANCH   6   7
ENDBRANCH   5   6
ENDBRANCH   4   5
ENDBRANCH   3   4
ENDBRANCH   2   3
ENDBRANCH   1   2
BRANCH   1  10
ATOM     10  C   UNL     1      49.684  35.442  87.747  1.00  0.00     0.000 C 
BRANCH  10  11
ATOM     11  C   UNL     1      48.714  34.808  86.733  1.00  0.00    -0.000 C 
BRANCH  11  12
ATOM     12  C   UNL     1      49.432  34.283  85.479  1.00  0.00    -0.000 C 
BRANCH  12  13
ATOM     13  C   UNL     1      49.152  32.792  85.222  1.00  0.00    -0.000 C 
BRANCH  13  14
ATOM     14  C   UNL     1      48.325  32.145  86.346  1.00  0.00    -0.000 C 
BRANCH  14  15
ATOM     15  C   UNL     1      49.178  31.269  87.281  1.00  0.00    -0.000 C 
BRANCH  15  16
ATOM     16  C   UNL     1      48.858  31.509  88.764  1.00  0.00    -0.003 C 
ATOM     17  C   UNL     1      47.401  31.909  88.996  1.00  0.00     0.004 C 
ENDBRANCH  15  16
ENDBRANCH  14  15
ENDBRANCH  13  14
ENDBRANCH  12  13
ENDBRANCH  11  12
ENDBRANCH  10  11
ENDBRANCH   1  10
TORSDOF 13
ENDMDL
MODEL 6
REMARK VINA RESULT:    -3.330     16.526     17.692
REMARK INTER + INTRA:          -7.267
REMARK INTER:                  -5.913
REMARK INTRA:                  -1.353
REMARK UNBOUND:                -1.407
REMARK SMILES CCCCCCCCCCCCCCC(=O)[O-]
REMARK SMILES IDX 9 1 10 2 11 3 12 4 13 5 14 6 15 7 16 8 17 9 8 10 7 11 6 12
REMARK SMILES IDX 5 13 4 14 3 15 2 16 1 17
REMARK H PARENT
REMARK Flexibility Score: inf
ROOT
ATOM      1  C   UNL     1      49.714  31.097  89.896  1.00  0.00     0.000 C 
ENDROOT
BRANCH   1   2
ATOM      2  C   UNL     1      48.811  30.910  91.128  1.00  0.00     0.000 C 
BRANCH   2   3
ATOM      3  C   UNL     1      47.404  30.401  90.766  1.00  0.00     0.000 C 
BRANCH   3   4
ATOM      4  C   UNL     1      46.500  31.433  90.068  1.00  0.00     0.000 C 
BRANCH   4   5
ATOM      5  C   UNL     1      45.070  31.457  90.634  1.00  0.00     0.006 C 
BRANCH   5   6
ATOM      6  C   UNL     1      44.777  30.238  91.519  1.00  0.00     0.053 C 
BRANCH   6   7
ATOM      7  C   UNL     1      43.759  30.547  92.573  1.00  0.00     0.041 C 
ATOM      8  O   UNL     1      42.665  29.924  92.603  1.00  0.00    -0.550 OA
ATOM      9  O   UNL     1      44.007  31.547  93.506  1.00  0.00    -0.550 OA
ENDBRANCH   6   7
ENDBRANCH   5   6
ENDBRANCH   4   5
ENDBRANCH   3   4
ENDBRANCH   2   3
ENDBRANCH   1   2
BRANCH   1  10
ATOM     10  C   UNL     1      51.007  31.863  90.218  1.00  0.00     0.000 C 
BRANCH  10  11
ATOM     11  C   UNL     1      51.869  32.112  88.967  1.00  0.00    -0.000 C 
BRANCH  11  12
ATOM     12  C   UNL     1      51.866  33.588  88.533  1.00  0.00    -0.000 C 
BRANCH  12  13
ATOM     13  C   UNL     1      51.764  33.752  87.006  1.00  0.00    -0.000 C 
BRANCH  13  14
ATOM     14  C   UNL     1      50.459  34.442  86.574  1.00  0.00    -0.000 C 
BRANCH  14  15
ATOM     15  C   UNL     1      49.538  34.769  87.763  1.00  0.00    -0.000 C 
BRANCH  15  16
ATOM     16  C   UNL     1      48.333  33.820  87.850  1.00  0.00    -0.003 C 
ATOM     17  C   UNL     1      48.302  32.799  86.713  1.00  0.00     0.004 C 
ENDBRANCH  15  16
ENDBRANCH  14  15
ENDBRANCH  13  14
ENDBRANCH  12  13
ENDBRANCH  11  12
ENDBRANCH  10  11
ENDBRANCH   1  10
TORSDOF 13
ENDMDL
MODEL 7
REMARK VINA RESULT:    -3.323     16.352     17.860
REMARK INTER + INTRA:          -7.255
REMARK INTER:                  -5.998
REMARK INTRA:                  -1.257
REMARK UNBOUND:                -1.407
REMARK SMILES CCCCCCCCCCCCCCC(=O)[O-]
REMARK SMILES IDX 9 1 10 2 11 3 12 4 13 5 14 6 15 7 16 8 17 9 8 10 7 11 6 12
REMARK SMILES IDX 5 13 4 14 3 15 2 16 1 17
REMARK H PARENT
REMARK Flexibility Score: inf
ROOT
ATOM      1  C   UNL     1      49.120  32.917  87.373  1.00  0.00     0.000 C 
ENDROOT
BRANCH   1   2
ATOM      2  C   UNL     1      47.899  31.982  87.353  1.00  0.00     0.000 C 
BRANCH   2   3
ATOM      3  C   UNL     1      47.143  31.958  88.694  1.00  0.00     0.000 C 
BRANCH   3   4
ATOM      4  C   UNL     1      47.910  31.306  89.860  1.00  0.00     0.000 C 
BRANCH   4   5
ATOM      5  C   UNL     1      46.986  30.838  90.996  1.00  0.00     0.006 C 
BRANCH   5   6
ATOM      6  C   UNL     1      45.512  30.810  90.571  1.00  0.00     0.053 C 
BRANCH   6   7
ATOM      7  C   UNL     1      44.591  30.997  91.738  1.00  0.00     0.041 C 
ATOM      8  O   UNL     1      43.605  30.231  91.898  1.00  0.00    -0.550 OA
ATOM      9  O   UNL     1      44.807  32.038  92.633  1.00  0.00    -0.550 OA
ENDBRANCH   6   7
ENDBRANCH   5   6
ENDBRANCH   4   5
ENDBRANCH   3   4
ENDBRANCH   2   3
ENDBRANCH   1   2
BRANCH   1  10
ATOM     10  C   UNL     1      48.731  34.402  87.450  1.00  0.00     0.000 C 
BRANCH  10  11
ATOM     11  C   UNL     1      49.933  35.309  87.768  1.00  0.00    -0.000 C 
BRANCH  11  12
ATOM     12  C   UNL     1      51.171  34.513  88.215  1.00  0.00    -0.000 C 
BRANCH  12  13
ATOM     13  C   UNL     1      52.481  35.106  87.668  1.00  0.00    -0.000 C 
BRANCH  13  14
ATOM     14  C   UNL     1      53.502  34.022  87.281  1.00  0.00    -0.000 C 
BRANCH  14  15
ATOM     15  C   UNL     1      53.122  33.285  85.985  1.00  0.00    -0.000 C 
BRANCH  15  16
ATOM     16  C   UNL     1      52.653  34.243  84.880  1.00  0.00    -0.003 C 
ATOM     17  C   UNL     1      51.260  33.900  84.353  1.00  0.00     0.004 C 
ENDBRANCH  15  16
ENDBRANCH  14  15
ENDBRANCH  13  14
ENDBRANCH  12  13
ENDBRANCH  11  12
ENDBRANCH  10  11
ENDBRANCH   1  10
TORSDOF 13
ENDMDL
MODEL 8
REMARK VINA RESULT:    -3.308     16.649     18.646
REMARK INTER + INTRA:          -7.229
REMARK INTER:                  -5.720
REMARK INTRA:                  -1.508
REMARK UNBOUND:                -1.407
REMARK SMILES CCCCCCCCCCCCCCC(=O)[O-]
REMARK SMILES IDX 9 1 10 2 11 3 12 4 13 5 14 6 15 7 16 8 17 9 8 10 7 11 6 12
REMARK SMILES IDX 5 13 4 14 3 15 2 16 1 17
REMARK H PARENT
REMARK Flexibility Score: inf
ROOT
ATOM      1  C   UNL     1      47.834  29.973  90.260  1.00  0.00     0.000 C 
ENDROOT
BRANCH   1   2
ATOM      2  C   UNL     1      48.928  30.761  89.519  1.00  0.00     0.000 C 
BRANCH   2   3
ATOM      3  C   UNL     1      48.764  30.716  87.989  1.00  0.00     0.000 C 
BRANCH   3   4
ATOM      4  C   UNL     1      47.873  31.824  87.399  1.00  0.00     0.000 C 
BRANCH   4   5
ATOM      5  C   UNL     1      48.222  33.222  87.937  1.00  0.00     0.006 C 
BRANCH   5   6
ATOM      6  C   UNL     1      49.315  33.907  87.104  1.00  0.00     0.053 C 
BRANCH   6   7
ATOM      7  C   UNL     1      50.525  34.225  87.928  1.00  0.00     0.041 C 
ATOM      8  O   UNL     1      50.924  33.420  88.810  1.00  0.00    -0.550 OA
ATOM      9  O   UNL     1      51.197  35.428  87.739  1.00  0.00    -0.550 OA
ENDBRANCH   6   7
ENDBRANCH   5   6
ENDBRANCH   4   5
ENDBRANCH   3   4
ENDBRANCH   2   3
ENDBRANCH   1   2
BRANCH   1  10
ATOM     10  C   UNL     1      46.798  30.887  90.935  1.00  0.00     0.000 C 
BRANCH  10  11
ATOM     11  C   UNL     1      45.558  31.122  90.054  1.00  0.00    -0.000 C 
BRANCH  11  12
ATOM     12  C   UNL     1      44.278  31.328  90.881  1.00  0.00    -0.000 C 
BRANCH  12  13
ATOM     13  C   UNL     1      44.575  31.635  92.360  1.00  0.00    -0.000 C 
BRANCH  13  14
ATOM     14  C   UNL     1      43.693  30.819  93.319  1.00  0.00    -0.000 C 
BRANCH  14  15
ATOM     15  C   UNL     1      43.334  29.431  92.760  1.00  0.00    -0.000 C 
BRANCH  15  16
ATOM     16  C   UNL     1      44.201  28.314  93.361  1.00  0.00    -0.003 C 
ATOM     17  C   UNL     1      45.315  27.860  92.418  1.00  0.00     0.004 C 
ENDBRANCH  15  16
ENDBRANCH  14  15
ENDBRANCH  13  14
ENDBRANCH  12  13
ENDBRANCH  11  12
ENDBRANCH  10  11
ENDBRANCH   1  10
TORSDOF 13
ENDMDL
MODEL 9
REMARK VINA RESULT:    -3.282     16.467     17.964
REMARK INTER + INTRA:          -7.184
REMARK INTER:                  -5.355
REMARK INTRA:                  -1.829
REMARK UNBOUND:                -1.407
REMARK SMILES CCCCCCCCCCCCCCC(=O)[O-]
REMARK SMILES IDX 9 1 10 2 11 3 12 4 13 5 14 6 15 7 16 8 17 9 8 10 7 11 6 12
REMARK SMILES IDX 5 13 4 14 3 15 2 16 1 17
REMARK H PARENT
REMARK Flexibility Score: inf
ROOT
ATOM      1  C   UNL     1      48.639  34.627  87.727  1.00  0.00     0.000 C 
ENDROOT
BRANCH   1   2
ATOM      2  C   UNL     1      48.648  33.415  86.780  1.00  0.00     0.000 C 
BRANCH   2   3
ATOM      3  C   UNL     1      47.961  32.178  87.386  1.00  0.00     0.000 C 
BRANCH   3   4
ATOM      4  C   UNL     1      47.542  32.325  88.861  1.00  0.00     0.000 C 
BRANCH   4   5
ATOM      5  C   UNL     1      46.918  31.043  89.436  1.00  0.00     0.006 C 
BRANCH   5   6
ATOM      6  C   UNL     1      46.795  31.095  90.965  1.00  0.00     0.053 C 
BRANCH   6   7
ATOM      7  C   UNL     1      45.521  30.467  91.443  1.00  0.00     0.041 C 
ATOM      8  O   UNL     1      45.537  29.335  91.993  1.00  0.00    -0.550 OA
ATOM      9  O   UNL     1      44.310  31.123  91.253  1.00  0.00    -0.550 OA
ENDBRANCH   6   7
ENDBRANCH   5   6
ENDBRANCH   4   5
ENDBRANCH   3   4
ENDBRANCH   2   3
ENDBRANCH   1   2
BRANCH   1  10
ATOM     10  C   UNL     1      49.976  35.386  87.735  1.00  0.00     0.000 C 
BRANCH  10  11
ATOM     11  C   UNL     1      51.078  34.642  86.959  1.00  0.00    -0.000 C 
BRANCH  11  12
ATOM     12  C   UNL     1      52.394  34.548  87.749  1.00  0.00    -0.000 C 
BRANCH  12  13
ATOM     13  C   UNL     1      52.848  33.093  87.965  1.00  0.00    -0.000 C 
BRANCH  13  14
ATOM     14  C   UNL     1      52.604  32.609  89.405  1.00  0.00    -0.000 C 
BRANCH  14  15
ATOM     15  C   UNL     1      51.118  32.330  89.693  1.00  0.00    -0.000 C 
BRANCH  15  16
ATOM     16  C   UNL     1      50.833  30.838  89.918  1.00  0.00    -0.003 C 
ATOM     17  C   UNL     1      50.710  30.058  88.609  1.00  0.00     0.004 C 
ENDBRANCH  15  16
ENDBRANCH  14  15
ENDBRANCH  13  14
ENDBRANCH  12  13
ENDBRANCH  11  12
ENDBRANCH  10  11
ENDBRANCH   1  10
TORSDOF 13
ENDMDL
