MODEL 1
REMARK VINA RESULT:    -3.609      0.000      0.000
REMARK INTER + INTRA:          -7.651
REMARK INTER:                  -6.352
REMARK INTRA:                  -1.299
REMARK UNBOUND:                -1.299
REMARK SMILES CCCCCCCCCCCCCCC(=O)[O-]
REMARK SMILES IDX 9 1 10 2 11 3 12 4 13 5 14 6 15 7 16 8 17 9 8 10 7 11 6 12
REMARK SMILES IDX 5 13 4 14 3 15 2 16 1 17
REMARK H PARENT
REMARK Flexibility Score: inf
ROOT
ATOM      1  C   UNL     1      26.635  20.201  57.803  1.00  0.00     0.000 C 
ENDROOT
BRANCH   1   2
ATOM      2  C   UNL     1      26.897  21.114  56.596  1.00  0.00     0.000 C 
BRANCH   2   3
ATOM      3  C   UNL     1      26.357  20.525  55.283  1.00  0.00     0.000 C 
BRANCH   3   4
ATOM      4  C   UNL     1      24.896  20.925  55.011  1.00  0.00     0.000 C 
BRANCH   4   5
ATOM      5  C   UNL     1      24.037  19.755  54.498  1.00  0.00     0.006 C 
BRANCH   5   6
ATOM      6  C   UNL     1      22.919  19.331  55.467  1.00  0.00     0.053 C 
BRANCH   6   7
ATOM      7  C   UNL     1      23.433  18.552  56.638  1.00  0.00     0.041 C 
ATOM      8  O   UNL     1      22.875  18.651  57.764  1.00  0.00    -0.550 OA
ATOM      9  O   UNL     1      24.512  17.690  56.481  1.00  0.00    -0.550 OA
ENDBRANCH   6   7
ENDBRANCH   5   6
ENDBRANCH   4   5
ENDBRANCH   3   4
ENDBRANCH   2   3
ENDBRANCH   1   2
BRANCH   1  10
ATOM     10  C   UNL     1      26.065  21.002  58.985  1.00  0.00     0.000 C 
BRANCH  10  11
ATOM     11  C   UNL     1      24.636  21.500  58.719  1.00  0.00    -0.000 C 
BRANCH  11  12
ATOM     12  C   UNL     1      23.716  21.332  59.941  1.00  0.00    -0.000 C 
BRANCH  12  13
ATOM     13  C   UNL     1      24.401  21.774  61.252  1.00  0.00    -0.000 C 
BRANCH  13  14
ATOM     14  C   UNL     1      23.616  21.387  62.521  1.00  0.00    -0.000 C 
BRANCH  14  15
ATOM     15  C   UNL     1      24.482  21.181  63.776  1.00  0.00    -0.000 C 
BRANCH  15  16
ATOM     16  C   UNL     1      25.951  20.887  63.441  1.00  0.00    -0.003 C 
ATOM     17  C   UNL     1      26.343  19.479  63.882  1.00  0.00     0.004 C 
ENDBRANCH  15  16
ENDBRANCH  14  15
ENDBRANCH  13  14
ENDBRANCH  12  13
ENDBRANCH  11  12
ENDBRANCH  10  11
ENDBRANCH   1  10
TORSDOF 13
ENDMDL
MODEL 2
REMARK VINA RESULT:    -3.388      2.567      6.539
REMARK INTER + INTRA:          -7.262
REMARK INTER:                  -5.675
REMARK INTRA:                  -1.586
REMARK UNBOUND:                -1.299
REMARK SMILES CCCCCCCCCCCCCCC(=O)[O-]
REMARK SMILES IDX 9 1 10 2 11 3 12 4 13 5 14 6 15 7 16 8 17 9 8 10 7 11 6 12
REMARK SMILES IDX 5 13 4 14 3 15 2 16 1 17
REMARK H PARENT
REMARK Flexibility Score: inf
ROOT
ATOM      1  C   UNL     1      26.351  19.904  57.701  1.00  0.00     0.000 C 
ENDROOT
BRANCH   1   2
ATOM      2  C   UNL     1      26.498  21.101  58.651  1.00  0.00     0.000 C 
BRANCH   2   3
ATOM      3  C   UNL     1      25.208  21.397  59.432  1.00  0.00     0.000 C 
BRANCH   3   4
ATOM      4  C   UNL     1      25.479  22.041  60.803  1.00  0.00     0.000 C 
BRANCH   4   5
ATOM      5  C   UNL     1      26.729  21.472  61.498  1.00  0.00     0.006 C 
BRANCH   5   6
ATOM      6  C   UNL     1      26.618  21.413  63.032  1.00  0.00     0.053 C 
BRANCH   6   7
ATOM      7  C   UNL     1      25.521  20.504  63.498  1.00  0.00     0.041 C 
ATOM      8  O   UNL     1      25.654  19.254  63.419  1.00  0.00    -0.550 OA
ATOM      9  O   UNL     1      24.362  21.038  64.049  1.00  0.00    -0.550 OA
ENDBRANCH   6   7
ENDBRANCH   5   6
ENDBRANCH   4   5
ENDBRANCH   3   4
ENDBRANCH   2   3
ENDBRANCH   1   2
BRANCH   1  10
ATOM     10  C   UNL     1      26.984  20.206  56.334  1.00  0.00     0.000 C 
BRANCH  10  11
ATOM     11  C   UNL     1      26.727  21.650  55.876  1.00  0.00    -0.000 C 
BRANCH  11  12
ATOM     12  C   UNL     1      25.645  21.740  54.785  1.00  0.00    -0.000 C 
BRANCH  12  13
ATOM     13  C   UNL     1      24.241  21.988  55.377  1.00  0.00    -0.000 C 
BRANCH  13  14
ATOM     14  C   UNL     1      23.357  20.726  55.423  1.00  0.00    -0.000 C 
BRANCH  14  15
ATOM     15  C   UNL     1      23.851  19.561  54.548  1.00  0.00    -0.000 C 
BRANCH  15  16
ATOM     16  C   UNL     1      23.592  18.189  55.187  1.00  0.00    -0.003 C 
ATOM     17  C   UNL     1      23.181  18.335  56.650  1.00  0.00     0.004 C 
ENDBRANCH  15  16
ENDBRANCH  14  15
ENDBRANCH  13  14
ENDBRANCH  12  13
ENDBRANCH  11  12
ENDBRANCH  10  11
ENDBRANCH   1  10
TORSDOF 13
ENDMDL
MODEL 3
REMARK VINA RESULT:    -3.337      1.271      1.966
REMARK INTER + INTRA:          -7.172
REMARK INTER:                  -6.093
REMARK INTRA:                  -1.078
REMARK UNBOUND:                -1.299
REMARK SMILES CCCCCCCCCCCCCCC(=O)[O-]
REMARK SMILES IDX 9 1 10 2 11 3 12 4 13 5 14 6 15 7 16 8 17 9 8 10 7 11 6 12
REMARK SMILES IDX 5 13 4 14 3 15 2 16 1 17
REMARK H PARENT
REMARK Flexibility Score: inf
ROOT
ATOM      1  C   UNL     1      27.292  21.863  56.368  1.00  0.00     0.000 C 
ENDROOT
BRANCH   1   2
ATOM      2  C   UNL     1      26.563  21.043  55.294  1.00  0.00     0.000 C 
BRANCH   2   3
ATOM      3  C   UNL     1      25.609  21.899  54.445  1.00  0.00     0.000 C 
BRANCH   3   4
ATOM      4  C   UNL     1      24.146  21.434  54.548  1.00  0.00     0.000 C 
BRANCH   4   5
ATOM      5  C   UNL     1      23.996  19.902  54.510  1.00  0.00     0.006 C 
BRANCH   5   6
ATOM      6  C   UNL     1      22.974  19.350  55.519  1.00  0.00     0.053 C 
BRANCH   6   7
ATOM      7  C   UNL     1      23.609  18.904  56.801  1.00  0.00     0.041 C 
ATOM      8  O   UNL     1      24.627  18.163  56.783  1.00  0.00    -0.550 OA
ATOM      9  O   UNL     1      23.093  19.334  58.018  1.00  0.00    -0.550 OA
ENDBRANCH   6   7
ENDBRANCH   5   6
ENDBRANCH   4   5
ENDBRANCH   3   4
ENDBRANCH   2   3
ENDBRANCH   1   2
BRANCH   1  10
ATOM     10  C   UNL     1      26.452  21.958  57.651  1.00  0.00     0.000 C 
BRANCH  10  11
ATOM     11  C   UNL     1      26.514  20.672  58.489  1.00  0.00    -0.000 C 
BRANCH  11  12
ATOM     12  C   UNL     1      27.476  20.791  59.684  1.00  0.00    -0.000 C 
BRANCH  12  13
ATOM     13  C   UNL     1      27.197  22.050  60.533  1.00  0.00    -0.000 C 
BRANCH  13  14
ATOM     14  C   UNL     1      26.066  21.863  61.563  1.00  0.00    -0.000 C 
BRANCH  14  15
ATOM     15  C   UNL     1      26.515  21.280  62.914  1.00  0.00    -0.000 C 
BRANCH  15  16
ATOM     16  C   UNL     1      25.404  20.483  63.614  1.00  0.00    -0.003 C 
ATOM     17  C   UNL     1      25.928  19.144  64.123  1.00  0.00     0.004 C 
ENDBRANCH  15  16
ENDBRANCH  14  15
ENDBRANCH  13  14
ENDBRANCH  12  13
ENDBRANCH  11  12
ENDBRANCH  10  11
ENDBRANCH   1  10
TORSDOF 13
ENDMDL
MODEL 4
REMARK VINA RESULT:    -3.309      1.704      3.050
REMARK INTER + INTRA:          -7.122
REMARK INTER:                  -5.730
REMARK INTRA:                  -1.392
REMARK UNBOUND:                -1.299
REMARK SMILES CCCCCCCCCCCCCCC(=O)[O-]
REMARK SMILES IDX 9 1 10 2 11 3 12 4 13 5 14 6 15 7 16 8 17 9 8 10 7 11 6 12
REMARK SMILES IDX 5 13 4 14 3 15 2 16 1 17
REMARK H PARENT
REMARK Flexibility Score: inf
ROOT
ATOM      1  C   UNL     1      24.050  21.398  59.130  1.00  0.00     0.000 C 
ENDROOT
BRANCH   1   2
ATOM      2  C   UNL     1      23.352  22.092  57.951  1.00  0.00     0.000 C 
BRANCH   2   3
ATOM      3  C   UNL     1      23.051  21.126  56.793  1.00  0.00     0.000 C 
BRANCH   3   4
ATOM      4  C   UNL     1      24.017  21.303  55.608  1.00  0.00     0.000 C 
BRANCH   4   5
ATOM      5  C   UNL     1      24.706  19.991  55.192  1.00  0.00     0.006 C 
BRANCH   5   6
ATOM      6  C   UNL     1      26.227  19.983  55.429  1.00  0.00     0.053 C 
BRANCH   6   7
ATOM      7  C   UNL     1      26.586  20.080  56.881  1.00  0.00     0.041 C 
ATOM      8  O   UNL     1      27.092  21.138  57.342  1.00  0.00    -0.550 OA
ATOM      9  O   UNL     1      26.335  19.011  57.733  1.00  0.00    -0.550 OA
ENDBRANCH   6   7
ENDBRANCH   5   6
ENDBRANCH   4   5
ENDBRANCH   3   4
ENDBRANCH   2   3
ENDBRANCH   1   2
BRANCH   1  10
ATOM     10  C   UNL     1      23.067  21.158  60.286  1.00  0.00     0.000 C 
BRANCH  10  11
ATOM     11  C   UNL     1      23.296  22.125  61.459  1.00  0.00    -0.000 C 
BRANCH  11  12
ATOM     12  C   UNL     1      23.138  21.440  62.828  1.00  0.00    -0.000 C 
BRANCH  12  13
ATOM     13  C   UNL     1      24.416  21.552  63.687  1.00  0.00    -0.000 C 
BRANCH  13  14
ATOM     14  C   UNL     1      25.214  20.237  63.783  1.00  0.00    -0.000 C 
BRANCH  14  15
ATOM     15  C   UNL     1      26.488  20.192  62.921  1.00  0.00    -0.000 C 
BRANCH  15  16
ATOM     16  C   UNL     1      26.740  21.505  62.167  1.00  0.00    -0.003 C 
ATOM     17  C   UNL     1      27.291  21.236  60.769  1.00  0.00     0.004 C 
ENDBRANCH  15  16
ENDBRANCH  14  15
ENDBRANCH  13  14
ENDBRANCH  12  13
ENDBRANCH  11  12
ENDBRANCH  10  11
ENDBRANCH   1  10
TORSDOF 13
ENDMDL
MODEL 5
REMARK VINA RESULT:    -3.085      1.241      2.575
REMARK INTER + INTRA:          -6.728
REMARK INTER:                  -5.939
REMARK INTRA:                  -0.789
REMARK UNBOUND:                -1.299
REMARK SMILES CCCCCCCCCCCCCCC(=O)[O-]
REMARK SMILES IDX 9 1 10 2 11 3 12 4 13 5 14 6 15 7 16 8 17 9 8 10 7 11 6 12
REMARK SMILES IDX 5 13 4 14 3 15 2 16 1 17
REMARK H PARENT
REMARK Flexibility Score: inf
ROOT
ATOM      1  C   UNL     1      27.401  20.469  59.582  1.00  0.00     0.000 C 
ENDROOT
BRANCH   1   2
ATOM      2  C   UNL     1      26.444  20.441  58.381  1.00  0.00     0.000 C 
BRANCH   2   3
ATOM      3  C   UNL     1      27.035  21.130  57.140  1.00  0.00     0.000 C 
BRANCH   3   4
ATOM      4  C   UNL     1      26.688  20.395  55.834  1.00  0.00     0.000 C 
BRANCH   4   5
ATOM      5  C   UNL     1      25.478  21.003  55.103  1.00  0.00     0.006 C 
BRANCH   5   6
ATOM      6  C   UNL     1      24.120  20.488  55.610  1.00  0.00     0.053 C 
BRANCH   6   7
ATOM      7  C   UNL     1      24.066  18.994  55.703  1.00  0.00     0.041 C 
ATOM      8  O   UNL     1      24.168  18.287  54.665  1.00  0.00    -0.550 OA
ATOM      9  O   UNL     1      23.933  18.379  56.942  1.00  0.00    -0.550 OA
ENDBRANCH   6   7
ENDBRANCH   5   6
ENDBRANCH   4   5
ENDBRANCH   3   4
ENDBRANCH   2   3
ENDBRANCH   1   2
BRANCH   1  10
ATOM     10  C   UNL     1      27.475  21.876  60.195  1.00  0.00     0.000 C 
BRANCH  10  11
ATOM     11  C   UNL     1      26.361  22.125  61.223  1.00  0.00    -0.000 C 
BRANCH  11  12
ATOM     12  C   UNL     1      26.866  22.038  62.674  1.00  0.00    -0.000 C 
BRANCH  12  13
ATOM     13  C   UNL     1      26.565  20.666  63.314  1.00  0.00    -0.000 C 
BRANCH  13  14
ATOM     14  C   UNL     1      25.067  20.302  63.323  1.00  0.00    -0.000 C 
BRANCH  14  15
ATOM     15  C   UNL     1      24.129  21.446  63.743  1.00  0.00    -0.000 C 
BRANCH  15  16
ATOM     16  C   UNL     1      22.883  21.549  62.851  1.00  0.00    -0.003 C 
ATOM     17  C   UNL     1      23.257  21.446  61.375  1.00  0.00     0.004 C 
ENDBRANCH  15  16
ENDBRANCH  14  15
ENDBRANCH  13  14
ENDBRANCH  12  13
ENDBRANCH  11  12
ENDBRANCH  10  11
ENDBRANCH   1  10
TORSDOF 13
ENDMDL
MODEL 6
REMARK VINA RESULT:    -3.025      1.436      1.918
REMARK INTER + INTRA:          -6.623
REMARK INTER:                  -5.227
REMARK INTRA:                  -1.396
REMARK UNBOUND:                -1.299
REMARK SMILES CCCCCCCCCCCCCCC(=O)[O-]
REMARK SMILES IDX 9 1 10 2 11 3 12 4 13 5 14 6 15 7 16 8 17 9 8 10 7 11 6 12
REMARK SMILES IDX 5 13 4 14 3 15 2 16 1 17
REMARK H PARENT
REMARK Flexibility Score: inf
ROOT
ATOM      1  C   UNL     1      26.662  19.933  58.212  1.00  0.00     0.000 C 
ENDROOT
BRANCH   1   2
ATOM      2  C   UNL     1      26.150  19.903  56.765  1.00  0.00     0.000 C 
BRANCH   2   3
ATOM      3  C   UNL     1      27.089  20.634  55.791  1.00  0.00     0.000 C 
BRANCH   3   4
ATOM      4  C   UNL     1      26.345  21.635  54.891  1.00  0.00     0.000 C 
BRANCH   4   5
ATOM      5  C   UNL     1      24.836  21.704  55.184  1.00  0.00     0.006 C 
BRANCH   5   6
ATOM      6  C   UNL     1      23.949  21.344  53.980  1.00  0.00     0.053 C 
BRANCH   6   7
ATOM      7  C   UNL     1      23.426  19.942  54.045  1.00  0.00     0.041 C 
ATOM      8  O   UNL     1      23.399  19.223  53.010  1.00  0.00    -0.550 OA
ATOM      9  O   UNL     1      22.996  19.415  55.258  1.00  0.00    -0.550 OA
ENDBRANCH   6   7
ENDBRANCH   5   6
ENDBRANCH   4   5
ENDBRANCH   3   4
ENDBRANCH   2   3
ENDBRANCH   1   2
BRANCH   1  10
ATOM     10  C   UNL     1      26.612  21.359  58.783  1.00  0.00     0.000 C 
BRANCH  10  11
ATOM     11  C   UNL     1      25.182  21.917  58.840  1.00  0.00    -0.000 C 
BRANCH  11  12
ATOM     12  C   UNL     1      24.230  21.019  59.651  1.00  0.00    -0.000 C 
BRANCH  12  13
ATOM     13  C   UNL     1      23.568  21.778  60.820  1.00  0.00    -0.000 C 
BRANCH  13  14
ATOM     14  C   UNL     1      24.030  21.298  62.210  1.00  0.00    -0.000 C 
BRANCH  14  15
ATOM     15  C   UNL     1      25.369  21.890  62.684  1.00  0.00    -0.000 C 
BRANCH  15  16
ATOM     16  C   UNL     1      26.502  20.853  62.704  1.00  0.00    -0.003 C 
ATOM     17  C   UNL     1      26.248  19.785  63.764  1.00  0.00     0.004 C 
ENDBRANCH  15  16
ENDBRANCH  14  15
ENDBRANCH  13  14
ENDBRANCH  12  13
ENDBRANCH  11  12
ENDBRANCH  10  11
ENDBRANCH   1  10
TORSDOF 13
ENDMDL
MODEL 7
REMARK VINA RESULT:    -3.025      2.009      3.214
REMARK INTER + INTRA:          -6.623
REMARK INTER:                  -5.224
REMARK INTRA:                  -1.399
REMARK UNBOUND:                -1.299
REMARK SMILES CCCCCCCCCCCCCCC(=O)[O-]
REMARK SMILES IDX 9 1 10 2 11 3 12 4 13 5 14 6 15 7 16 8 17 9 8 10 7 11 6 12
REMARK SMILES IDX 5 13 4 14 3 15 2 16 1 17
REMARK H PARENT
REMARK Flexibility Score: inf
ROOT
ATOM      1  C   UNL     1      24.298  19.920  57.776  1.00  0.00     0.000 C 
ENDROOT
BRANCH   1   2
ATOM      2  C   UNL     1      23.071  19.370  57.036  1.00  0.00     0.000 C 
BRANCH   2   3
ATOM      3  C   UNL     1      23.128  19.632  55.522  1.00  0.00     0.000 C 
BRANCH   3   4
ATOM      4  C   UNL     1      23.428  21.103  55.187  1.00  0.00     0.000 C 
BRANCH   4   5
ATOM      5  C   UNL     1      24.712  21.282  54.356  1.00  0.00     0.006 C 
BRANCH   5   6
ATOM      6  C   UNL     1      25.795  22.121  55.055  1.00  0.00     0.053 C 
BRANCH   6   7
ATOM      7  C   UNL     1      27.005  21.316  55.420  1.00  0.00     0.041 C 
ATOM      8  O   UNL     1      28.054  21.889  55.817  1.00  0.00    -0.550 OA
ATOM      9  O   UNL     1      26.963  19.928  55.352  1.00  0.00    -0.550 OA
ENDBRANCH   6   7
ENDBRANCH   5   6
ENDBRANCH   4   5
ENDBRANCH   3   4
ENDBRANCH   2   3
ENDBRANCH   1   2
BRANCH   1  10
ATOM     10  C   UNL     1      23.885  20.970  58.820  1.00  0.00     0.000 C 
BRANCH  10  11
ATOM     11  C   UNL     1      25.077  21.804  59.314  1.00  0.00    -0.000 C 
BRANCH  11  12
ATOM     12  C   UNL     1      26.430  21.127  59.030  1.00  0.00    -0.000 C 
BRANCH  12  13
ATOM     13  C   UNL     1      27.314  21.041  60.292  1.00  0.00    -0.000 C 
BRANCH  13  14
ATOM     14  C   UNL     1      27.002  22.125  61.342  1.00  0.00    -0.000 C 
BRANCH  14  15
ATOM     15  C   UNL     1      26.555  21.586  62.712  1.00  0.00    -0.000 C 
BRANCH  15  16
ATOM     16  C   UNL     1      26.571  20.052  62.779  1.00  0.00    -0.003 C 
ATOM     17  C   UNL     1      25.827  19.550  64.013  1.00  0.00     0.004 C 
ENDBRANCH  15  16
ENDBRANCH  14  15
ENDBRANCH  13  14
ENDBRANCH  12  13
ENDBRANCH  11  12
ENDBRANCH  10  11
ENDBRANCH   1  10
TORSDOF 13
ENDMDL
MODEL 8
REMARK VINA RESULT:    -2.706      2.888      6.502
REMARK INTER + INTRA:          -6.061
REMARK INTER:                  -4.709
REMARK INTRA:                  -1.352
REMARK UNBOUND:                -1.299
REMARK SMILES CCCCCCCCCCCCCCC(=O)[O-]
REMARK SMILES IDX 9 1 10 2 11 3 12 4 13 5 14 6 15 7 16 8 17 9 8 10 7 11 6 12
REMARK SMILES IDX 5 13 4 14 3 15 2 16 1 17
REMARK H PARENT
REMARK Flexibility Score: inf
ROOT
ATOM      1  C   UNL     1      27.176  21.147  58.471  1.00  0.00     0.000 C 
ENDROOT
BRANCH   1   2
ATOM      2  C   UNL     1      27.482  22.036  59.685  1.00  0.00     0.000 C 
BRANCH   2   3
ATOM      3  C   UNL     1      26.905  21.470  60.992  1.00  0.00     0.000 C 
BRANCH   3   4
ATOM      4  C   UNL     1      25.564  22.119  61.378  1.00  0.00     0.000 C 
BRANCH   4   5
ATOM      5  C   UNL     1      25.244  21.994  62.878  1.00  0.00     0.006 C 
BRANCH   5   6
ATOM      6  C   UNL     1      24.712  20.610  63.289  1.00  0.00     0.053 C 
BRANCH   6   7
ATOM      7  C   UNL     1      25.760  19.757  63.937  1.00  0.00     0.041 C 
ATOM      8  O   UNL     1      26.937  20.187  64.070  1.00  0.00    -0.550 OA
ATOM      9  O   UNL     1      25.430  18.498  64.422  1.00  0.00    -0.550 OA
ENDBRANCH   6   7
ENDBRANCH   5   6
ENDBRANCH   4   5
ENDBRANCH   3   4
ENDBRANCH   2   3
ENDBRANCH   1   2
BRANCH   1  10
ATOM     10  C   UNL     1      26.378  21.921  57.410  1.00  0.00     0.000 C 
BRANCH  10  11
ATOM     11  C   UNL     1      24.860  21.751  57.581  1.00  0.00    -0.000 C 
BRANCH  11  12
ATOM     12  C   UNL     1      24.489  20.442  58.300  1.00  0.00    -0.000 C 
BRANCH  12  13
ATOM     13  C   UNL     1      23.043  19.998  57.990  1.00  0.00    -0.000 C 
BRANCH  13  14
ATOM     14  C   UNL     1      22.904  19.223  56.665  1.00  0.00    -0.000 C 
BRANCH  14  15
ATOM     15  C   UNL     1      24.157  18.435  56.244  1.00  0.00    -0.000 C 
BRANCH  15  16
ATOM     16  C   UNL     1      24.769  18.951  54.934  1.00  0.00    -0.003 C 
ATOM     17  C   UNL     1      23.884  20.021  54.300  1.00  0.00     0.004 C 
ENDBRANCH  15  16
ENDBRANCH  14  15
ENDBRANCH  13  14
ENDBRANCH  12  13
ENDBRANCH  11  12
ENDBRANCH  10  11
ENDBRANCH   1  10
TORSDOF 13
ENDMDL
MODEL 9
REMARK VINA RESULT:    -2.664      2.518      6.361
REMARK INTER + INTRA:          -5.988
REMARK INTER:                  -4.145
REMARK INTRA:                  -1.842
REMARK UNBOUND:                -1.299
REMARK SMILES CCCCCCCCCCCCCCC(=O)[O-]
REMARK SMILES IDX 9 1 10 2 11 3 12 4 13 5 14 6 15 7 16 8 17 9 8 10 7 11 6 12
REMARK SMILES IDX 5 13 4 14 3 15 2 16 1 17
REMARK H PARENT
REMARK Flexibility Score: inf
ROOT
ATOM      1  C   UNL     1      24.390  19.027  56.677  1.00  0.00     0.000 C 
ENDROOT
BRANCH   1   2
ATOM      2  C   UNL     1      23.064  19.243  57.421  1.00  0.00     0.000 C 
BRANCH   2   3
ATOM      3  C   UNL     1      23.021  20.583  58.173  1.00  0.00     0.000 C 
BRANCH   3   4
ATOM      4  C   UNL     1      24.417  21.063  58.609  1.00  0.00     0.000 C 
BRANCH   4   5
ATOM      5  C   UNL     1      24.378  22.001  59.829  1.00  0.00     0.006 C 
BRANCH   5   6
ATOM      6  C   UNL     1      23.685  21.393  61.061  1.00  0.00     0.053 C 
BRANCH   6   7
ATOM      7  C   UNL     1      24.641  21.095  62.175  1.00  0.00     0.041 C 
ATOM      8  O   UNL     1      24.233  21.037  63.365  1.00  0.00    -0.550 OA
ATOM      9  O   UNL     1      25.981  20.852  61.896  1.00  0.00    -0.550 OA
ENDBRANCH   6   7
ENDBRANCH   5   6
ENDBRANCH   4   5
ENDBRANCH   3   4
ENDBRANCH   2   3
ENDBRANCH   1   2
BRANCH   1  10
ATOM     10  C   UNL     1      24.160  18.295  55.346  1.00  0.00     0.000 C 
BRANCH  10  11
ATOM     11  C   UNL     1      22.916  18.808  54.603  1.00  0.00    -0.000 C 
BRANCH  11  12
ATOM     12  C   UNL     1      23.262  19.837  53.512  1.00  0.00    -0.000 C 
BRANCH  12  13
ATOM     13  C   UNL     1      22.876  21.273  53.924  1.00  0.00    -0.000 C 
BRANCH  13  14
ATOM     14  C   UNL     1      23.913  21.954  54.839  1.00  0.00    -0.000 C 
BRANCH  14  15
ATOM     15  C   UNL     1      25.364  21.884  54.332  1.00  0.00    -0.000 C 
BRANCH  15  16
ATOM     16  C   UNL     1      26.393  22.122  55.447  1.00  0.00    -0.003 C 
ATOM     17  C   UNL     1      27.391  20.971  55.527  1.00  0.00     0.004 C 
ENDBRANCH  15  16
ENDBRANCH  14  15
ENDBRANCH  13  14
ENDBRANCH  12  13
ENDBRANCH  11  12
ENDBRANCH  10  11
ENDBRANCH   1  10
TORSDOF 13
ENDMDL
