MODEL 1
REMARK VINA RESULT:    -3.754      0.000      0.000
REMARK INTER + INTRA:          -7.419
REMARK INTER:                  -6.607
REMARK INTRA:                  -0.812
REMARK UNBOUND:                -0.812
REMARK SMILES CCCCCCCCCCCCCCC(=O)[O-]
REMARK SMILES IDX 9 1 10 2 11 3 12 4 13 5 14 6 15 7 16 8 17 9 8 10 7 11 6 12
REMARK SMILES IDX 5 13 4 14 3 15 2 16 1 17
REMARK H PARENT
REMARK Flexibility Score: inf
ROOT
ATOM      1  C   UNL     1      51.337  47.696  15.220  1.00  0.00     0.000 C 
ENDROOT
BRANCH   1   2
ATOM      2  C   UNL     1      50.732  49.056  14.838  1.00  0.00     0.000 C 
BRANCH   2   3
ATOM      3  C   UNL     1      49.720  48.947  13.684  1.00  0.00     0.000 C 
BRANCH   3   4
ATOM      4  C   UNL     1      49.338  50.317  13.094  1.00  0.00     0.000 C 
BRANCH   4   5
ATOM      5  C   UNL     1      50.284  50.835  11.990  1.00  0.00     0.006 C 
BRANCH   5   6
ATOM      6  C   UNL     1      51.133  49.747  11.315  1.00  0.00     0.053 C 
BRANCH   6   7
ATOM      7  C   UNL     1      51.306  49.998   9.848  1.00  0.00     0.041 C 
ATOM      8  O   UNL     1      50.353  49.784   9.053  1.00  0.00    -0.550 OA
ATOM      9  O   UNL     1      52.529  50.434   9.355  1.00  0.00    -0.550 OA
ENDBRANCH   6   7
ENDBRANCH   5   6
ENDBRANCH   4   5
ENDBRANCH   3   4
ENDBRANCH   2   3
ENDBRANCH   1   2
BRANCH   1  10
ATOM     10  C   UNL     1      51.331  46.699  14.047  1.00  0.00     0.000 C 
BRANCH  10  11
ATOM     11  C   UNL     1      50.447  45.473  14.321  1.00  0.00    -0.000 C 
BRANCH  11  12
ATOM     12  C   UNL     1      49.377  45.744  15.393  1.00  0.00    -0.000 C 
BRANCH  12  13
ATOM     13  C   UNL     1      49.176  44.542  16.342  1.00  0.00    -0.000 C 
BRANCH  13  14
ATOM     14  C   UNL     1      48.768  43.243  15.621  1.00  0.00    -0.000 C 
BRANCH  14  15
ATOM     15  C   UNL     1      47.368  43.267  14.979  1.00  0.00    -0.000 C 
BRANCH  15  16
ATOM     16  C   UNL     1      46.690  41.891  14.857  1.00  0.00    -0.003 C 
ATOM     17  C   UNL     1      45.239  41.896  15.337  1.00  0.00     0.004 C 
ENDBRANCH  15  16
ENDBRANCH  14  15
ENDBRANCH  13  14
ENDBRANCH  12  13
ENDBRANCH  11  12
ENDBRANCH  10  11
ENDBRANCH   1  10
TORSDOF 13
ENDMDL
MODEL 2
REMARK VINA RESULT:    -3.725      2.117      3.880
REMARK INTER + INTRA:          -7.367
REMARK INTER:                  -6.065
REMARK INTRA:                  -1.302
REMARK UNBOUND:                -0.812
REMARK SMILES CCCCCCCCCCCCCCC(=O)[O-]
REMARK SMILES IDX 9 1 10 2 11 3 12 4 13 5 14 6 15 7 16 8 17 9 8 10 7 11 6 12
REMARK SMILES IDX 5 13 4 14 3 15 2 16 1 17
REMARK H PARENT
REMARK Flexibility Score: inf
ROOT
ATOM      1  C   UNL     1      48.961  43.845  15.763  1.00  0.00     0.000 C 
ENDROOT
BRANCH   1   2
ATOM      2  C   UNL     1      50.347  44.465  15.523  1.00  0.00     0.000 C 
BRANCH   2   3
ATOM      3  C   UNL     1      50.331  45.529  14.412  1.00  0.00     0.000 C 
BRANCH   3   4
ATOM      4  C   UNL     1      51.557  46.459  14.458  1.00  0.00     0.000 C 
BRANCH   4   5
ATOM      5  C   UNL     1      51.935  47.105  13.108  1.00  0.00     0.006 C 
BRANCH   5   6
ATOM      6  C   UNL     1      53.100  48.103  13.183  1.00  0.00     0.053 C 
BRANCH   6   7
ATOM      7  C   UNL     1      52.933  49.236  12.217  1.00  0.00     0.041 C 
ATOM      8  O   UNL     1      52.001  49.214  11.372  1.00  0.00    -0.550 OA
ATOM      9  O   UNL     1      53.828  50.298  12.230  1.00  0.00    -0.550 OA
ENDBRANCH   6   7
ENDBRANCH   5   6
ENDBRANCH   4   5
ENDBRANCH   3   4
ENDBRANCH   2   3
ENDBRANCH   1   2
BRANCH   1  10
ATOM     10  C   UNL     1      47.816  44.771  15.313  1.00  0.00     0.000 C 
BRANCH  10  11
ATOM     11  C   UNL     1      46.624  43.993  14.735  1.00  0.00    -0.000 C 
BRANCH  11  12
ATOM     12  C   UNL     1      46.999  42.562  14.315  1.00  0.00    -0.000 C 
BRANCH  12  13
ATOM     13  C   UNL     1      46.140  41.494  15.028  1.00  0.00    -0.000 C 
BRANCH  13  14
ATOM     14  C   UNL     1      45.365  42.033  16.245  1.00  0.00    -0.000 C 
BRANCH  14  15
ATOM     15  C   UNL     1      46.007  41.728  17.612  1.00  0.00    -0.000 C 
BRANCH  15  16
ATOM     16  C   UNL     1      46.281  42.964  18.487  1.00  0.00    -0.003 C 
ATOM     17  C   UNL     1      45.331  44.125  18.194  1.00  0.00     0.004 C 
ENDBRANCH  15  16
ENDBRANCH  14  15
ENDBRANCH  13  14
ENDBRANCH  12  13
ENDBRANCH  11  12
ENDBRANCH  10  11
ENDBRANCH   1  10
TORSDOF 13
ENDMDL
MODEL 3
REMARK VINA RESULT:    -3.698     13.923     15.883
REMARK INTER + INTRA:          -7.321
REMARK INTER:                  -5.427
REMARK INTRA:                  -1.894
REMARK UNBOUND:                -0.812
REMARK SMILES CCCCCCCCCCCCCCC(=O)[O-]
REMARK SMILES IDX 9 1 10 2 11 3 12 4 13 5 14 6 15 7 16 8 17 9 8 10 7 11 6 12
REMARK SMILES IDX 5 13 4 14 3 15 2 16 1 17
REMARK H PARENT
REMARK Flexibility Score: inf
ROOT
ATOM      1  C   UNL     1      59.943  32.671  12.326  1.00  0.00     0.000 C 
ENDROOT
BRANCH   1   2
ATOM      2  C   UNL     1      58.497  32.457  12.800  1.00  0.00     0.000 C 
BRANCH   2   3
ATOM      3  C   UNL     1      57.469  33.139  11.882  1.00  0.00     0.000 C 
BRANCH   3   4
ATOM      4  C   UNL     1      56.526  34.089  12.642  1.00  0.00     0.000 C 
BRANCH   4   5
ATOM      5  C   UNL     1      56.713  35.586  12.321  1.00  0.00     0.006 C 
BRANCH   5   6
ATOM      6  C   UNL     1      55.403  36.377  12.179  1.00  0.00     0.053 C 
BRANCH   6   7
ATOM      7  C   UNL     1      54.875  36.833  13.505  1.00  0.00     0.041 C 
ATOM      8  O   UNL     1      53.672  37.186  13.619  1.00  0.00    -0.550 OA
ATOM      9  O   UNL     1      55.720  36.898  14.605  1.00  0.00    -0.550 OA
ENDBRANCH   6   7
ENDBRANCH   5   6
ENDBRANCH   4   5
ENDBRANCH   3   4
ENDBRANCH   2   3
ENDBRANCH   1   2
BRANCH   1  10
ATOM     10  C   UNL     1      60.317  34.161  12.233  1.00  0.00     0.000 C 
BRANCH  10  11
ATOM     11  C   UNL     1      61.148  34.636  13.434  1.00  0.00    -0.000 C 
BRANCH  11  12
ATOM     12  C   UNL     1      61.887  33.483  14.135  1.00  0.00    -0.000 C 
BRANCH  12  13
ATOM     13  C   UNL     1      61.758  33.548  15.672  1.00  0.00    -0.000 C 
BRANCH  13  14
ATOM     14  C   UNL     1      60.390  33.074  16.200  1.00  0.00    -0.000 C 
BRANCH  14  15
ATOM     15  C   UNL     1      59.485  34.190  16.756  1.00  0.00    -0.000 C 
BRANCH  15  16
ATOM     16  C   UNL     1      58.279  34.545  15.870  1.00  0.00    -0.003 C 
ATOM     17  C   UNL     1      57.032  33.725  16.202  1.00  0.00     0.004 C 
ENDBRANCH  15  16
ENDBRANCH  14  15
ENDBRANCH  13  14
ENDBRANCH  12  13
ENDBRANCH  11  12
ENDBRANCH  10  11
ENDBRANCH   1  10
TORSDOF 13
ENDMDL
MODEL 4
REMARK VINA RESULT:    -3.669      1.727      3.112
REMARK INTER + INTRA:          -7.270
REMARK INTER:                  -6.498
REMARK INTRA:                  -0.772
REMARK UNBOUND:                -0.812
REMARK SMILES CCCCCCCCCCCCCCC(=O)[O-]
REMARK SMILES IDX 9 1 10 2 11 3 12 4 13 5 14 6 15 7 16 8 17 9 8 10 7 11 6 12
REMARK SMILES IDX 5 13 4 14 3 15 2 16 1 17
REMARK H PARENT
REMARK Flexibility Score: inf
ROOT
ATOM      1  C   UNL     1      50.352  44.723  15.338  1.00  0.00     0.000 C 
ENDROOT
BRANCH   1   2
ATOM      2  C   UNL     1      50.516  45.707  14.169  1.00  0.00     0.000 C 
BRANCH   2   3
ATOM      3  C   UNL     1      50.673  47.163  14.643  1.00  0.00     0.000 C 
BRANCH   3   4
ATOM      4  C   UNL     1      52.097  47.709  14.432  1.00  0.00     0.000 C 
BRANCH   4   5
ATOM      5  C   UNL     1      52.606  47.652  12.976  1.00  0.00     0.006 C 
BRANCH   5   6
ATOM      6  C   UNL     1      52.786  49.024  12.309  1.00  0.00     0.053 C 
BRANCH   6   7
ATOM      7  C   UNL     1      51.650  49.355  11.390  1.00  0.00     0.041 C 
ATOM      8  O   UNL     1      50.517  49.635  11.861  1.00  0.00    -0.550 OA
ATOM      9  O   UNL     1      51.836  49.322  10.014  1.00  0.00    -0.550 OA
ENDBRANCH   6   7
ENDBRANCH   5   6
ENDBRANCH   4   5
ENDBRANCH   3   4
ENDBRANCH   2   3
ENDBRANCH   1   2
BRANCH   1  10
ATOM     10  C   UNL     1      49.048  43.911  15.245  1.00  0.00     0.000 C 
BRANCH  10  11
ATOM     11  C   UNL     1      47.797  44.803  15.256  1.00  0.00    -0.000 C 
BRANCH  11  12
ATOM     12  C   UNL     1      46.523  44.040  14.855  1.00  0.00    -0.000 C 
BRANCH  12  13
ATOM     13  C   UNL     1      46.816  42.584  14.431  1.00  0.00    -0.000 C 
BRANCH  13  14
ATOM     14  C   UNL     1      45.885  41.547  15.086  1.00  0.00    -0.000 C 
BRANCH  14  15
ATOM     15  C   UNL     1      46.563  40.620  16.112  1.00  0.00    -0.000 C 
BRANCH  15  16
ATOM     16  C   UNL     1      45.910  39.234  16.261  1.00  0.00    -0.003 C 
ATOM     17  C   UNL     1      45.484  38.628  14.924  1.00  0.00     0.004 C 
ENDBRANCH  15  16
ENDBRANCH  14  15
ENDBRANCH  13  14
ENDBRANCH  12  13
ENDBRANCH  11  12
ENDBRANCH  10  11
ENDBRANCH   1  10
TORSDOF 13
ENDMDL
MODEL 5
REMARK VINA RESULT:    -3.641     13.131     15.289
REMARK INTER + INTRA:          -7.219
REMARK INTER:                  -5.170
REMARK INTRA:                  -2.049
REMARK UNBOUND:                -0.812
REMARK SMILES CCCCCCCCCCCCCCC(=O)[O-]
REMARK SMILES IDX 9 1 10 2 11 3 12 4 13 5 14 6 15 7 16 8 17 9 8 10 7 11 6 12
REMARK SMILES IDX 5 13 4 14 3 15 2 16 1 17
REMARK H PARENT
REMARK Flexibility Score: inf
ROOT
ATOM      1  C   UNL     1      56.461  34.174  12.999  1.00  0.00     0.000 C 
ENDROOT
BRANCH   1   2
ATOM      2  C   UNL     1      56.959  35.444  12.292  1.00  0.00     0.000 C 
BRANCH   2   3
ATOM      3  C   UNL     1      55.835  36.468  12.059  1.00  0.00     0.000 C 
BRANCH   3   4
ATOM      4  C   UNL     1      54.473  35.992  12.597  1.00  0.00     0.000 C 
BRANCH   4   5
ATOM      5  C   UNL     1      53.928  36.800  13.793  1.00  0.00     0.006 C 
BRANCH   5   6
ATOM      6  C   UNL     1      53.950  36.050  15.134  1.00  0.00     0.053 C 
BRANCH   6   7
ATOM      7  C   UNL     1      55.121  36.443  15.980  1.00  0.00     0.041 C 
ATOM      8  O   UNL     1      55.970  37.264  15.543  1.00  0.00    -0.550 OA
ATOM      9  O   UNL     1      55.294  35.877  17.237  1.00  0.00    -0.550 OA
ENDBRANCH   6   7
ENDBRANCH   5   6
ENDBRANCH   4   5
ENDBRANCH   3   4
ENDBRANCH   2   3
ENDBRANCH   1   2
BRANCH   1  10
ATOM     10  C   UNL     1      57.160  32.902  12.486  1.00  0.00     0.000 C 
BRANCH  10  11
ATOM     11  C   UNL     1      58.253  33.207  11.450  1.00  0.00    -0.000 C 
BRANCH  11  12
ATOM     12  C   UNL     1      59.666  32.895  11.971  1.00  0.00    -0.000 C 
BRANCH  12  13
ATOM     13  C   UNL     1      60.420  34.164  12.426  1.00  0.00    -0.000 C 
BRANCH  13  14
ATOM     14  C   UNL     1      60.471  34.340  13.956  1.00  0.00    -0.000 C 
BRANCH  14  15
ATOM     15  C   UNL     1      60.244  33.051  14.767  1.00  0.00    -0.000 C 
BRANCH  15  16
ATOM     16  C   UNL     1      59.011  33.077  15.688  1.00  0.00    -0.003 C 
ATOM     17  C   UNL     1      58.538  34.493  16.013  1.00  0.00     0.004 C 
ENDBRANCH  15  16
ENDBRANCH  14  15
ENDBRANCH  13  14
ENDBRANCH  12  13
ENDBRANCH  11  12
ENDBRANCH  10  11
ENDBRANCH   1  10
TORSDOF 13
ENDMDL
MODEL 6
REMARK VINA RESULT:    -3.623     13.278     15.341
REMARK INTER + INTRA:          -7.187
REMARK INTER:                  -5.328
REMARK INTRA:                  -1.859
REMARK UNBOUND:                -0.812
REMARK SMILES CCCCCCCCCCCCCCC(=O)[O-]
REMARK SMILES IDX 9 1 10 2 11 3 12 4 13 5 14 6 15 7 16 8 17 9 8 10 7 11 6 12
REMARK SMILES IDX 5 13 4 14 3 15 2 16 1 17
REMARK H PARENT
REMARK Flexibility Score: inf
ROOT
ATOM      1  C   UNL     1      59.497  34.264  16.586  1.00  0.00     0.000 C 
ENDROOT
BRANCH   1   2
ATOM      2  C   UNL     1      58.155  35.001  16.722  1.00  0.00     0.000 C 
BRANCH   2   3
ATOM      3  C   UNL     1      57.017  34.296  15.964  1.00  0.00     0.000 C 
BRANCH   3   4
ATOM      4  C   UNL     1      55.729  35.136  15.903  1.00  0.00     0.000 C 
BRANCH   4   5
ATOM      5  C   UNL     1      55.921  36.586  15.410  1.00  0.00     0.006 C 
BRANCH   5   6
ATOM      6  C   UNL     1      55.732  36.775  13.897  1.00  0.00     0.053 C 
BRANCH   6   7
ATOM      7  C   UNL     1      54.288  36.733  13.501  1.00  0.00     0.041 C 
ATOM      8  O   UNL     1      53.868  35.827  12.735  1.00  0.00    -0.550 OA
ATOM      9  O   UNL     1      53.413  37.713  13.952  1.00  0.00    -0.550 OA
ENDBRANCH   6   7
ENDBRANCH   5   6
ENDBRANCH   4   5
ENDBRANCH   3   4
ENDBRANCH   2   3
ENDBRANCH   1   2
BRANCH   1  10
ATOM     10  C   UNL     1      59.395  33.014  15.693  1.00  0.00     0.000 C 
BRANCH  10  11
ATOM     11  C   UNL     1      60.538  32.926  14.672  1.00  0.00    -0.000 C 
BRANCH  11  12
ATOM     12  C   UNL     1      60.911  34.296  14.081  1.00  0.00    -0.000 C 
BRANCH  12  13
ATOM     13  C   UNL     1      60.467  34.444  12.609  1.00  0.00    -0.000 C 
BRANCH  13  14
ATOM     14  C   UNL     1      60.009  33.122  11.963  1.00  0.00    -0.000 C 
BRANCH  14  15
ATOM     15  C   UNL     1      58.560  33.119  11.442  1.00  0.00    -0.000 C 
BRANCH  15  16
ATOM     16  C   UNL     1      57.578  33.977  12.260  1.00  0.00    -0.003 C 
ATOM     17  C   UNL     1      56.272  33.250  12.576  1.00  0.00     0.004 C 
ENDBRANCH  15  16
ENDBRANCH  14  15
ENDBRANCH  13  14
ENDBRANCH  12  13
ENDBRANCH  11  12
ENDBRANCH  10  11
ENDBRANCH   1  10
TORSDOF 13
ENDMDL
MODEL 7
REMARK VINA RESULT:    -3.609     12.855     14.967
REMARK INTER + INTRA:          -7.164
REMARK INTER:                  -5.550
REMARK INTRA:                  -1.614
REMARK UNBOUND:                -0.812
REMARK SMILES CCCCCCCCCCCCCCC(=O)[O-]
REMARK SMILES IDX 9 1 10 2 11 3 12 4 13 5 14 6 15 7 16 8 17 9 8 10 7 11 6 12
REMARK SMILES IDX 5 13 4 14 3 15 2 16 1 17
REMARK H PARENT
REMARK Flexibility Score: inf
ROOT
ATOM      1  C   UNL     1      59.960  34.228  12.583  1.00  0.00     0.000 C 
ENDROOT
BRANCH   1   2
ATOM      2  C   UNL     1      58.992  33.107  12.176  1.00  0.00     0.000 C 
BRANCH   2   3
ATOM      3  C   UNL     1      57.518  33.502  12.371  1.00  0.00     0.000 C 
BRANCH   3   4
ATOM      4  C   UNL     1      57.283  35.018  12.234  1.00  0.00     0.000 C 
BRANCH   4   5
ATOM      5  C   UNL     1      56.191  35.593  13.160  1.00  0.00     0.006 C 
BRANCH   5   6
ATOM      6  C   UNL     1      55.175  36.506  12.456  1.00  0.00     0.053 C 
BRANCH   6   7
ATOM      7  C   UNL     1      53.866  36.555  13.184  1.00  0.00     0.041 C 
ATOM      8  O   UNL     1      53.565  37.562  13.877  1.00  0.00    -0.550 OA
ATOM      9  O   UNL     1      52.994  35.476  13.122  1.00  0.00    -0.550 OA
ENDBRANCH   6   7
ENDBRANCH   5   6
ENDBRANCH   4   5
ENDBRANCH   3   4
ENDBRANCH   2   3
ENDBRANCH   1   2
BRANCH   1  10
ATOM     10  C   UNL     1      60.820  33.849  13.803  1.00  0.00     0.000 C 
BRANCH  10  11
ATOM     11  C   UNL     1      60.151  34.222  15.134  1.00  0.00    -0.000 C 
BRANCH  11  12
ATOM     12  C   UNL     1      59.380  33.046  15.758  1.00  0.00    -0.000 C 
BRANCH  12  13
ATOM     13  C   UNL     1      57.991  33.465  16.286  1.00  0.00    -0.000 C 
BRANCH  13  14
ATOM     14  C   UNL     1      57.759  34.988  16.281  1.00  0.00    -0.000 C 
BRANCH  14  15
ATOM     15  C   UNL     1      57.713  35.645  17.673  1.00  0.00    -0.000 C 
BRANCH  15  16
ATOM     16  C   UNL     1      56.638  36.733  17.839  1.00  0.00    -0.003 C 
ATOM     17  C   UNL     1      56.096  37.245  16.506  1.00  0.00     0.004 C 
ENDBRANCH  15  16
ENDBRANCH  14  15
ENDBRANCH  13  14
ENDBRANCH  12  13
ENDBRANCH  11  12
ENDBRANCH  10  11
ENDBRANCH   1  10
TORSDOF 13
ENDMDL
MODEL 8
REMARK VINA RESULT:    -3.608     13.080     15.229
REMARK INTER + INTRA:          -7.161
REMARK INTER:                  -5.352
REMARK INTRA:                  -1.810
REMARK UNBOUND:                -0.812
REMARK SMILES CCCCCCCCCCCCCCC(=O)[O-]
REMARK SMILES IDX 9 1 10 2 11 3 12 4 13 5 14 6 15 7 16 8 17 9 8 10 7 11 6 12
REMARK SMILES IDX 5 13 4 14 3 15 2 16 1 17
REMARK H PARENT
REMARK Flexibility Score: inf
ROOT
ATOM      1  C   UNL     1      57.562  32.582  12.769  1.00  0.00     0.000 C 
ENDROOT
BRANCH   1   2
ATOM      2  C   UNL     1      56.434  33.613  12.927  1.00  0.00     0.000 C 
BRANCH   2   3
ATOM      3  C   UNL     1      56.908  35.050  12.650  1.00  0.00     0.000 C 
BRANCH   3   4
ATOM      4  C   UNL     1      56.040  36.111  13.352  1.00  0.00     0.000 C 
BRANCH   4   5
ATOM      5  C   UNL     1      54.730  36.468  12.619  1.00  0.00     0.006 C 
BRANCH   5   6
ATOM      6  C   UNL     1      53.468  35.830  13.221  1.00  0.00     0.053 C 
BRANCH   6   7
ATOM      7  C   UNL     1      52.704  36.793  14.077  1.00  0.00     0.041 C 
ATOM      8  O   UNL     1      53.056  38.000  14.140  1.00  0.00    -0.550 OA
ATOM      9  O   UNL     1      51.625  36.350  14.831  1.00  0.00    -0.550 OA
ENDBRANCH   6   7
ENDBRANCH   5   6
ENDBRANCH   4   5
ENDBRANCH   3   4
ENDBRANCH   2   3
ENDBRANCH   1   2
BRANCH   1  10
ATOM     10  C   UNL     1      58.483  32.894  11.576  1.00  0.00     0.000 C 
BRANCH  10  11
ATOM     11  C   UNL     1      59.970  32.892  11.963  1.00  0.00    -0.000 C 
BRANCH  11  12
ATOM     12  C   UNL     1      60.474  34.283  12.381  1.00  0.00    -0.000 C 
BRANCH  12  13
ATOM     13  C   UNL     1      61.348  34.236  13.654  1.00  0.00    -0.000 C 
BRANCH  13  14
ATOM     14  C   UNL     1      60.601  33.725  14.900  1.00  0.00    -0.000 C 
BRANCH  14  15
ATOM     15  C   UNL     1      59.395  34.580  15.333  1.00  0.00    -0.000 C 
BRANCH  15  16
ATOM     16  C   UNL     1      58.356  33.841  16.194  1.00  0.00    -0.003 C 
ATOM     17  C   UNL     1      57.184  34.730  16.609  1.00  0.00     0.004 C 
ENDBRANCH  15  16
ENDBRANCH  14  15
ENDBRANCH  13  14
ENDBRANCH  12  13
ENDBRANCH  11  12
ENDBRANCH  10  11
ENDBRANCH   1  10
TORSDOF 13
ENDMDL
MODEL 9
REMARK VINA RESULT:    -3.598      4.525      7.350
REMARK INTER + INTRA:          -7.143
REMARK INTER:                  -5.494
REMARK INTRA:                  -1.649
REMARK UNBOUND:                -0.812
REMARK SMILES CCCCCCCCCCCCCCC(=O)[O-]
REMARK SMILES IDX 9 1 10 2 11 3 12 4 13 5 14 6 15 7 16 8 17 9 8 10 7 11 6 12
REMARK SMILES IDX 5 13 4 14 3 15 2 16 1 17
REMARK H PARENT
REMARK Flexibility Score: inf
ROOT
ATOM      1  C   UNL     1      52.930  47.376  13.355  1.00  0.00     0.000 C 
ENDROOT
BRANCH   1   2
ATOM      2  C   UNL     1      53.481  47.766  14.737  1.00  0.00     0.000 C 
BRANCH   2   3
ATOM      3  C   UNL     1      54.672  48.734  14.643  1.00  0.00     0.000 C 
BRANCH   3   4
ATOM      4  C   UNL     1      55.508  48.531  13.367  1.00  0.00     0.000 C 
BRANCH   4   5
ATOM      5  C   UNL     1      56.847  47.793  13.578  1.00  0.00     0.006 C 
BRANCH   5   6
ATOM      6  C   UNL     1      57.184  47.490  15.046  1.00  0.00     0.053 C 
BRANCH   6   7
ATOM      7  C   UNL     1      57.119  46.024  15.348  1.00  0.00     0.041 C 
ATOM      8  O   UNL     1      58.040  45.472  16.005  1.00  0.00    -0.550 OA
ATOM      9  O   UNL     1      56.059  45.263  14.873  1.00  0.00    -0.550 OA
ENDBRANCH   6   7
ENDBRANCH   5   6
ENDBRANCH   4   5
ENDBRANCH   3   4
ENDBRANCH   2   3
ENDBRANCH   1   2
BRANCH   1  10
ATOM     10  C   UNL     1      51.486  46.847  13.425  1.00  0.00     0.000 C 
BRANCH  10  11
ATOM     11  C   UNL     1      50.682  47.477  14.571  1.00  0.00    -0.000 C 
BRANCH  11  12
ATOM     12  C   UNL     1      49.611  48.461  14.071  1.00  0.00    -0.000 C 
BRANCH  12  13
ATOM     13  C   UNL     1      50.177  49.877  13.830  1.00  0.00    -0.000 C 
BRANCH  13  14
ATOM     14  C   UNL     1      50.244  50.274  12.343  1.00  0.00    -0.000 C 
BRANCH  14  15
ATOM     15  C   UNL     1      51.509  51.051  11.933  1.00  0.00    -0.000 C 
BRANCH  15  16
ATOM     16  C   UNL     1      52.538  50.232  11.135  1.00  0.00    -0.003 C 
ATOM     17  C   UNL     1      51.945  49.581   9.886  1.00  0.00     0.004 C 
ENDBRANCH  15  16
ENDBRANCH  14  15
ENDBRANCH  13  14
ENDBRANCH  12  13
ENDBRANCH  11  12
ENDBRANCH  10  11
ENDBRANCH   1  10
TORSDOF 13
ENDMDL
