MODEL 1
REMARK VINA RESULT:    -5.759      0.000      0.000
REMARK INTER + INTRA:          -8.747
REMARK INTER:                  -8.453
REMARK INTRA:                  -0.294
REMARK UNBOUND:                -0.294
REMARK SMILES O=C([O-])CCCCCCCC(=O)[O-]
REMARK SMILES IDX 7 1 6 2 5 3 4 4 2 5 1 6 3 7 8 8 9 9 10 10 11 11 12 12 13 13
REMARK H PARENT
REMARK Flexibility Score: inf
ROOT
ATOM      1  C   UNL     1      -3.043  27.122  56.007  1.00  0.00     0.000 C 
ENDROOT
BRANCH   1   2
ATOM      2  C   UNL     1      -4.330  27.821  55.556  1.00  0.00     0.000 C 
BRANCH   2   3
ATOM      3  C   UNL     1      -4.872  28.744  56.658  1.00  0.00     0.006 C 
BRANCH   3   4
ATOM      4  C   UNL     1      -3.819  29.748  57.146  1.00  0.00     0.053 C 
BRANCH   4   5
ATOM      5  C   UNL     1      -4.316  30.556  58.305  1.00  0.00     0.041 C 
ATOM      6  O   UNL     1      -3.934  31.746  58.457  1.00  0.00    -0.550 OA
ATOM      7  O   UNL     1      -5.176  29.984  59.235  1.00  0.00    -0.550 OA
ENDBRANCH   4   5
ENDBRANCH   3   4
ENDBRANCH   2   3
ENDBRANCH   1   2
BRANCH   1   8
ATOM      8  C   UNL     1      -2.447  26.278  54.870  1.00  0.00     0.000 C 
BRANCH   8   9
ATOM      9  C   UNL     1      -3.216  26.437  53.549  1.00  0.00     0.006 C 
BRANCH   9  10
ATOM     10  C   UNL     1      -2.345  26.149  52.319  1.00  0.00     0.053 C 
BRANCH  10  11
ATOM     11  C   UNL     1      -3.062  26.549  51.068  1.00  0.00     0.041 C 
ATOM     12  O   UNL     1      -4.232  26.140  50.850  1.00  0.00    -0.550 OA
ATOM     13  O   UNL     1      -2.455  27.413  50.166  1.00  0.00    -0.550 OA
ENDBRANCH  10  11
ENDBRANCH   9  10
ENDBRANCH   8   9
ENDBRANCH   1   8
TORSDOF 8
ENDMDL
MODEL 2
REMARK VINA RESULT:    -5.505      1.028      6.981
REMARK INTER + INTRA:          -8.373
REMARK INTER:                  -8.006
REMARK INTRA:                  -0.368
REMARK UNBOUND:                -0.294
REMARK SMILES O=C([O-])CCCCCCCC(=O)[O-]
REMARK SMILES IDX 7 1 6 2 5 3 4 4 2 5 1 6 3 7 8 8 9 9 10 10 11 11 12 12 13 13
REMARK H PARENT
REMARK Flexibility Score: inf
ROOT
ATOM      1  C   UNL     1      -4.436  27.417  55.114  1.00  0.00     0.000 C 
ENDROOT
BRANCH   1   2
ATOM      2  C   UNL     1      -3.277  26.435  55.320  1.00  0.00     0.000 C 
BRANCH   2   3
ATOM      3  C   UNL     1      -2.344  26.417  54.099  1.00  0.00     0.006 C 
BRANCH   3   4
ATOM      4  C   UNL     1      -3.118  26.338  52.777  1.00  0.00     0.053 C 
BRANCH   4   5
ATOM      5  C   UNL     1      -2.207  26.450  51.592  1.00  0.00     0.041 C 
ATOM      6  O   UNL     1      -2.543  27.146  50.600  1.00  0.00    -0.550 OA
ATOM      7  O   UNL     1      -1.002  25.758  51.573  1.00  0.00    -0.550 OA
ENDBRANCH   4   5
ENDBRANCH   3   4
ENDBRANCH   2   3
ENDBRANCH   1   2
BRANCH   1   8
ATOM      8  C   UNL     1      -4.618  28.320  56.343  1.00  0.00     0.000 C 
BRANCH   8   9
ATOM      9  C   UNL     1      -3.528  29.397  56.453  1.00  0.00     0.006 C 
BRANCH   9  10
ATOM     10  C   UNL     1      -3.134  29.693  57.906  1.00  0.00     0.053 C 
BRANCH  10  11
ATOM     11  C   UNL     1      -4.037  30.733  58.490  1.00  0.00     0.041 C 
ATOM     12  O   UNL     1      -4.274  31.794  57.857  1.00  0.00    -0.550 OA
ATOM     13  O   UNL     1      -4.658  30.506  59.712  1.00  0.00    -0.550 OA
ENDBRANCH  10  11
ENDBRANCH   9  10
ENDBRANCH   8   9
ENDBRANCH   1   8
TORSDOF 8
ENDMDL
MODEL 3
REMARK VINA RESULT:    -5.417      2.524      6.528
REMARK INTER + INTRA:          -8.245
REMARK INTER:                  -8.177
REMARK INTRA:                  -0.068
REMARK UNBOUND:                -0.294
REMARK SMILES O=C([O-])CCCCCCCC(=O)[O-]
REMARK SMILES IDX 7 1 6 2 5 3 4 4 2 5 1 6 3 7 8 8 9 9 10 10 11 11 12 12 13 13
REMARK H PARENT
REMARK Flexibility Score: inf
ROOT
ATOM      1  C   UNL     1      -4.715  27.752  55.539  1.00  0.00     0.000 C 
ENDROOT
BRANCH   1   2
ATOM      2  C   UNL     1      -3.474  26.852  55.528  1.00  0.00     0.000 C 
BRANCH   2   3
ATOM      3  C   UNL     1      -3.193  26.317  54.115  1.00  0.00     0.006 C 
BRANCH   3   4
ATOM      4  C   UNL     1      -1.705  26.393  53.749  1.00  0.00     0.053 C 
BRANCH   4   5
ATOM      5  C   UNL     1      -0.829  25.967  54.887  1.00  0.00     0.041 C 
ATOM      6  O   UNL     1      -0.420  24.779  54.961  1.00  0.00    -0.550 OA
ATOM      7  O   UNL     1      -0.493  26.875  55.884  1.00  0.00    -0.550 OA
ENDBRANCH   4   5
ENDBRANCH   3   4
ENDBRANCH   2   3
ENDBRANCH   1   2
BRANCH   1   8
ATOM      8  C   UNL     1      -4.599  28.836  56.621  1.00  0.00     0.000 C 
BRANCH   8   9
ATOM      9  C   UNL     1      -3.228  29.529  56.621  1.00  0.00     0.006 C 
BRANCH   9  10
ATOM     10  C   UNL     1      -2.875  30.142  57.982  1.00  0.00     0.053 C 
BRANCH  10  11
ATOM     11  C   UNL     1      -4.033  30.922  58.520  1.00  0.00     0.041 C 
ATOM     12  O   UNL     1      -4.325  32.043  58.028  1.00  0.00    -0.550 OA
ATOM     13  O   UNL     1      -4.821  30.387  59.531  1.00  0.00    -0.550 OA
ENDBRANCH  10  11
ENDBRANCH   9  10
ENDBRANCH   8   9
ENDBRANCH   1   8
TORSDOF 8
ENDMDL
MODEL 4
REMARK VINA RESULT:    -5.286      1.370      1.842
REMARK INTER + INTRA:          -8.052
REMARK INTER:                  -7.750
REMARK INTRA:                  -0.302
REMARK UNBOUND:                -0.294
REMARK SMILES O=C([O-])CCCCCCCC(=O)[O-]
REMARK SMILES IDX 7 1 6 2 5 3 4 4 2 5 1 6 3 7 8 8 9 9 10 10 11 11 12 12 13 13
REMARK H PARENT
REMARK Flexibility Score: inf
ROOT
ATOM      1  C   UNL     1      -3.903  26.733  54.056  1.00  0.00     0.000 C 
ENDROOT
BRANCH   1   2
ATOM      2  C   UNL     1      -4.673  27.347  55.230  1.00  0.00     0.000 C 
BRANCH   2   3
ATOM      3  C   UNL     1      -3.762  28.251  56.075  1.00  0.00     0.006 C 
BRANCH   3   4
ATOM      4  C   UNL     1      -4.559  29.157  57.023  1.00  0.00     0.053 C 
BRANCH   4   5
ATOM      5  C   UNL     1      -3.685  30.186  57.673  1.00  0.00     0.041 C 
ATOM      6  O   UNL     1      -4.176  31.279  58.060  1.00  0.00    -0.550 OA
ATOM      7  O   UNL     1      -2.324  29.951  57.822  1.00  0.00    -0.550 OA
ENDBRANCH   4   5
ENDBRANCH   3   4
ENDBRANCH   2   3
ENDBRANCH   1   2
BRANCH   1   8
ATOM      8  C   UNL     1      -2.493  26.301  54.488  1.00  0.00     0.000 C 
BRANCH   8   9
ATOM      9  C   UNL     1      -1.485  26.324  53.329  1.00  0.00     0.006 C 
BRANCH   9  10
ATOM     10  C   UNL     1      -2.118  25.934  51.987  1.00  0.00     0.053 C 
BRANCH  10  11
ATOM     11  C   UNL     1      -1.262  26.399  50.852  1.00  0.00     0.041 C 
ATOM     12  O   UNL     1      -1.519  27.484  50.267  1.00  0.00    -0.550 OA
ATOM     13  O   UNL     1      -0.150  25.659  50.471  1.00  0.00    -0.550 OA
ENDBRANCH  10  11
ENDBRANCH   9  10
ENDBRANCH   8   9
ENDBRANCH   1   8
TORSDOF 8
ENDMDL
MODEL 5
REMARK VINA RESULT:    -5.218      2.889      3.288
REMARK INTER + INTRA:          -7.952
REMARK INTER:                  -7.724
REMARK INTRA:                  -0.228
REMARK UNBOUND:                -0.294
REMARK SMILES O=C([O-])CCCCCCCC(=O)[O-]
REMARK SMILES IDX 7 1 6 2 5 3 4 4 2 5 1 6 3 7 8 8 9 9 10 10 11 11 12 12 13 13
REMARK H PARENT
REMARK Flexibility Score: inf
ROOT
ATOM      1  C   UNL     1      -3.799  26.754  54.428  1.00  0.00     0.000 C 
ENDROOT
BRANCH   1   2
ATOM      2  C   UNL     1      -4.643  27.537  55.441  1.00  0.00     0.000 C 
BRANCH   2   3
ATOM      3  C   UNL     1      -3.815  28.647  56.107  1.00  0.00     0.006 C 
BRANCH   3   4
ATOM      4  C   UNL     1      -4.611  29.405  57.178  1.00  0.00     0.053 C 
BRANCH   4   5
ATOM      5  C   UNL     1      -3.768  30.424  57.881  1.00  0.00     0.041 C 
ATOM      6  O   UNL     1      -2.538  30.218  58.052  1.00  0.00    -0.550 OA
ATOM      7  O   UNL     1      -4.348  31.585  58.376  1.00  0.00    -0.550 OA
ENDBRANCH   4   5
ENDBRANCH   3   4
ENDBRANCH   2   3
ENDBRANCH   1   2
BRANCH   1   8
ATOM      8  C   UNL     1      -2.686  25.964  55.134  1.00  0.00     0.000 C 
BRANCH   8   9
ATOM      9  C   UNL     1      -1.287  26.529  54.846  1.00  0.00     0.006 C 
BRANCH   9  10
ATOM     10  C   UNL     1      -0.567  25.781  53.717  1.00  0.00     0.053 C 
BRANCH  10  11
ATOM     11  C   UNL     1       0.644  25.079  54.244  1.00  0.00     0.041 C 
ATOM     12  O   UNL     1       1.545  25.729  54.837  1.00  0.00    -0.550 OA
ATOM     13  O   UNL     1       0.755  23.700  54.125  1.00  0.00    -0.550 OA
ENDBRANCH  10  11
ENDBRANCH   9  10
ENDBRANCH   8   9
ENDBRANCH   1   8
TORSDOF 8
ENDMDL
MODEL 6
REMARK VINA RESULT:    -5.085      2.344      6.432
REMARK INTER + INTRA:          -7.758
REMARK INTER:                  -7.298
REMARK INTRA:                  -0.460
REMARK UNBOUND:                -0.294
REMARK SMILES O=C([O-])CCCCCCCC(=O)[O-]
REMARK SMILES IDX 7 1 6 2 5 3 4 4 2 5 1 6 3 7 8 8 9 9 10 10 11 11 12 12 13 13
REMARK H PARENT
REMARK Flexibility Score: inf
ROOT
ATOM      1  C   UNL     1      -4.531  27.269  55.100  1.00  0.00     0.000 C 
ENDROOT
BRANCH   1   2
ATOM      2  C   UNL     1      -3.358  26.282  55.139  1.00  0.00     0.000 C 
BRANCH   2   3
ATOM      3  C   UNL     1      -2.452  26.453  53.909  1.00  0.00     0.006 C 
BRANCH   3   4
ATOM      4  C   UNL     1      -3.236  26.373  52.593  1.00  0.00     0.053 C 
BRANCH   4   5
ATOM      5  C   UNL     1      -2.333  26.460  51.401  1.00  0.00     0.041 C 
ATOM      6  O   UNL     1      -2.709  27.068  50.365  1.00  0.00    -0.550 OA
ATOM      7  O   UNL     1      -1.088  25.843  51.424  1.00  0.00    -0.550 OA
ENDBRANCH   4   5
ENDBRANCH   3   4
ENDBRANCH   2   3
ENDBRANCH   1   2
BRANCH   1   8
ATOM      8  C   UNL     1      -4.432  28.286  56.247  1.00  0.00     0.000 C 
BRANCH   8   9
ATOM      9  C   UNL     1      -3.253  29.256  56.079  1.00  0.00     0.006 C 
BRANCH   9  10
ATOM     10  C   UNL     1      -2.450  29.441  57.373  1.00  0.00     0.053 C 
BRANCH  10  11
ATOM     11  C   UNL     1      -1.032  29.008  57.173  1.00  0.00     0.041 C 
ATOM     12  O   UNL     1      -0.086  29.786  57.461  1.00  0.00    -0.550 OA
ATOM     13  O   UNL     1      -0.755  27.726  56.716  1.00  0.00    -0.550 OA
ENDBRANCH  10  11
ENDBRANCH   9  10
ENDBRANCH   8   9
ENDBRANCH   1   8
TORSDOF 8
ENDMDL
MODEL 7
REMARK VINA RESULT:    -5.005      2.488      3.065
REMARK INTER + INTRA:          -7.640
REMARK INTER:                  -7.358
REMARK INTRA:                  -0.282
REMARK UNBOUND:                -0.294
REMARK SMILES O=C([O-])CCCCCCCC(=O)[O-]
REMARK SMILES IDX 7 1 6 2 5 3 4 4 2 5 1 6 3 7 8 8 9 9 10 10 11 11 12 12 13 13
REMARK H PARENT
REMARK Flexibility Score: inf
ROOT
ATOM      1  C   UNL     1      -3.056  28.274  55.952  1.00  0.00     0.000 C 
ENDROOT
BRANCH   1   2
ATOM      2  C   UNL     1      -3.936  29.327  56.634  1.00  0.00     0.000 C 
BRANCH   2   3
ATOM      3  C   UNL     1      -3.153  30.080  57.721  1.00  0.00     0.006 C 
BRANCH   3   4
ATOM      4  C   UNL     1      -3.952  31.249  58.310  1.00  0.00     0.053 C 
BRANCH   4   5
ATOM      5  C   UNL     1      -4.493  30.925  59.669  1.00  0.00     0.041 C 
ATOM      6  O   UNL     1      -5.310  29.978  59.815  1.00  0.00    -0.550 OA
ATOM      7  O   UNL     1      -4.120  31.689  60.768  1.00  0.00    -0.550 OA
ENDBRANCH   4   5
ENDBRANCH   3   4
ENDBRANCH   2   3
ENDBRANCH   1   2
BRANCH   1   8
ATOM      8  C   UNL     1      -3.900  27.089  55.458  1.00  0.00     0.000 C 
BRANCH   8   9
ATOM      9  C   UNL     1      -3.042  25.945  54.895  1.00  0.00     0.006 C 
BRANCH   9  10
ATOM     10  C   UNL     1      -1.877  26.449  54.033  1.00  0.00     0.053 C 
BRANCH  10  11
ATOM     11  C   UNL     1      -0.576  25.933  54.562  1.00  0.00     0.041 C 
ATOM     12  O   UNL     1      -0.233  26.177  55.748  1.00  0.00    -0.550 OA
ATOM     13  O   UNL     1       0.235  25.141  53.759  1.00  0.00    -0.550 OA
ENDBRANCH  10  11
ENDBRANCH   9  10
ENDBRANCH   8   9
ENDBRANCH   1   8
TORSDOF 8
ENDMDL
MODEL 8
REMARK VINA RESULT:    -4.827      1.329      6.425
REMARK INTER + INTRA:          -7.378
REMARK INTER:                  -6.990
REMARK INTRA:                  -0.389
REMARK UNBOUND:                -0.294
REMARK SMILES O=C([O-])CCCCCCCC(=O)[O-]
REMARK SMILES IDX 7 1 6 2 5 3 4 4 2 5 1 6 3 7 8 8 9 9 10 10 11 11 12 12 13 13
REMARK H PARENT
REMARK Flexibility Score: inf
ROOT
ATOM      1  C   UNL     1      -1.780  26.832  56.294  1.00  0.00     0.000 C 
ENDROOT
BRANCH   1   2
ATOM      2  C   UNL     1      -0.783  26.317  55.249  1.00  0.00     0.000 C 
BRANCH   2   3
ATOM      3  C   UNL     1      -1.508  25.580  54.112  1.00  0.00     0.006 C 
BRANCH   3   4
ATOM      4  C   UNL     1      -0.956  25.955  52.730  1.00  0.00     0.053 C 
BRANCH   4   5
ATOM      5  C   UNL     1      -2.054  26.198  51.740  1.00  0.00     0.041 C 
ATOM      6  O   UNL     1      -1.788  26.303  50.514  1.00  0.00    -0.550 OA
ATOM      7  O   UNL     1      -3.365  26.342  52.176  1.00  0.00    -0.550 OA
ENDBRANCH   4   5
ENDBRANCH   3   4
ENDBRANCH   2   3
ENDBRANCH   1   2
BRANCH   1   8
ATOM      8  C   UNL     1      -3.219  26.760  55.764  1.00  0.00     0.000 C 
BRANCH   8   9
ATOM      9  C   UNL     1      -3.824  28.147  55.501  1.00  0.00     0.006 C 
BRANCH   9  10
ATOM     10  C   UNL     1      -4.602  28.692  56.706  1.00  0.00     0.053 C 
BRANCH  10  11
ATOM     11  C   UNL     1      -3.848  29.812  57.351  1.00  0.00     0.041 C 
ATOM     12  O   UNL     1      -4.469  30.746  57.922  1.00  0.00    -0.550 OA
ATOM     13  O   UNL     1      -2.459  29.797  57.365  1.00  0.00    -0.550 OA
ENDBRANCH  10  11
ENDBRANCH   9  10
ENDBRANCH   8   9
ENDBRANCH   1   8
TORSDOF 8
ENDMDL
MODEL 9
REMARK VINA RESULT:    -4.824      1.562      2.046
REMARK INTER + INTRA:          -7.374
REMARK INTER:                  -7.026
REMARK INTRA:                  -0.348
REMARK UNBOUND:                -0.294
REMARK SMILES O=C([O-])CCCCCCCC(=O)[O-]
REMARK SMILES IDX 7 1 6 2 5 3 4 4 2 5 1 6 3 7 8 8 9 9 10 10 11 11 12 12 13 13
REMARK H PARENT
REMARK Flexibility Score: inf
ROOT
ATOM      1  C   UNL     1      -0.646  27.549  56.634  1.00  0.00     0.000 C 
ENDROOT
BRANCH   1   2
ATOM      2  C   UNL     1      -2.170  27.709  56.669  1.00  0.00     0.000 C 
BRANCH   2   3
ATOM      3  C   UNL     1      -2.567  29.188  56.803  1.00  0.00     0.006 C 
BRANCH   3   4
ATOM      4  C   UNL     1      -4.075  29.369  57.016  1.00  0.00     0.053 C 
BRANCH   4   5
ATOM      5  C   UNL     1      -4.369  30.329  58.128  1.00  0.00     0.041 C 
ATOM      6  O   UNL     1      -3.910  31.501  58.089  1.00  0.00    -0.550 OA
ATOM      7  O   UNL     1      -5.121  29.920  59.222  1.00  0.00    -0.550 OA
ENDBRANCH   4   5
ENDBRANCH   3   4
ENDBRANCH   2   3
ENDBRANCH   1   2
BRANCH   1   8
ATOM      8  C   UNL     1      -0.236  26.386  55.719  1.00  0.00     0.000 C 
BRANCH   8   9
ATOM      9  C   UNL     1      -1.424  25.792  54.947  1.00  0.00     0.006 C 
BRANCH   9  10
ATOM     10  C   UNL     1      -1.484  26.275  53.492  1.00  0.00     0.053 C 
BRANCH  10  11
ATOM     11  C   UNL     1      -2.904  26.363  53.029  1.00  0.00     0.041 C 
ATOM     12  O   UNL     1      -3.196  26.105  51.832  1.00  0.00    -0.550 OA
ATOM     13  O   UNL     1      -3.910  26.681  53.931  1.00  0.00    -0.550 OA
ENDBRANCH  10  11
ENDBRANCH   9  10
ENDBRANCH   8   9
ENDBRANCH   1   8
TORSDOF 8
ENDMDL
