MODEL 1
REMARK VINA RESULT:    -2.159      0.000      0.000
REMARK INTER + INTRA:          -3.648
REMARK INTER:                  -3.801
REMARK INTRA:                   0.153
REMARK UNBOUND:                 0.153
REMARK SMILES CCCCCCCCCCCCCCC(=O)[O-]
REMARK SMILES IDX 9 1 10 2 11 3 12 4 13 5 14 6 15 7 16 8 17 9 8 10 7 11 6 12
REMARK SMILES IDX 5 13 4 14 3 15 2 16 1 17
REMARK H PARENT
REMARK Flexibility Score: inf
ROOT
ATOM      1  C   UNL     1      36.764  39.628  20.430  1.00  0.00     0.000 C 
ENDROOT
BRANCH   1   2
ATOM      2  C   UNL     1      36.606  38.103  20.515  1.00  0.00     0.000 C 
BRANCH   2   3
ATOM      3  C   UNL     1      37.954  37.359  20.522  1.00  0.00     0.000 C 
BRANCH   3   4
ATOM      4  C   UNL     1      37.848  35.823  20.533  1.00  0.00     0.000 C 
BRANCH   4   5
ATOM      5  C   UNL     1      38.749  35.153  19.480  1.00  0.00     0.006 C 
BRANCH   5   6
ATOM      6  C   UNL     1      38.555  35.759  18.084  1.00  0.00     0.053 C 
BRANCH   6   7
ATOM      7  C   UNL     1      39.864  35.972  17.386  1.00  0.00     0.041 C 
ATOM      8  O   UNL     1      39.945  35.831  16.138  1.00  0.00    -0.550 OA
ATOM      9  O   UNL     1      41.000  36.290  18.119  1.00  0.00    -0.550 OA
ENDBRANCH   6   7
ENDBRANCH   5   6
ENDBRANCH   4   5
ENDBRANCH   3   4
ENDBRANCH   2   3
ENDBRANCH   1   2
BRANCH   1  10
ATOM     10  C   UNL     1      37.533  40.032  19.165  1.00  0.00     0.000 C 
BRANCH  10  11
ATOM     11  C   UNL     1      38.939  39.412  19.156  1.00  0.00    -0.000 C 
BRANCH  11  12
ATOM     12  C   UNL     1      39.469  39.164  17.736  1.00  0.00    -0.000 C 
BRANCH  12  13
ATOM     13  C   UNL     1      40.918  39.650  17.553  1.00  0.00    -0.000 C 
BRANCH  13  14
ATOM     14  C   UNL     1      41.027  40.826  16.569  1.00  0.00    -0.000 C 
BRANCH  14  15
ATOM     15  C   UNL     1      41.124  42.185  17.277  1.00  0.00    -0.000 C 
BRANCH  15  16
ATOM     16  C   UNL     1      41.125  42.011  18.801  1.00  0.00    -0.003 C 
ATOM     17  C   UNL     1      41.068  43.360  19.510  1.00  0.00     0.004 C 
ENDBRANCH  15  16
ENDBRANCH  14  15
ENDBRANCH  13  14
ENDBRANCH  12  13
ENDBRANCH  11  12
ENDBRANCH  10  11
ENDBRANCH   1  10
TORSDOF 13
ENDMDL
MODEL 2
REMARK VINA RESULT:    -1.641     23.835     26.301
REMARK INTER + INTRA:          -2.736
REMARK INTER:                  -2.379
REMARK INTRA:                  -0.357
REMARK UNBOUND:                 0.153
REMARK SMILES CCCCCCCCCCCCCCC(=O)[O-]
REMARK SMILES IDX 9 1 10 2 11 3 12 4 13 5 14 6 15 7 16 8 17 9 8 10 7 11 6 12
REMARK SMILES IDX 5 13 4 14 3 15 2 16 1 17
REMARK H PARENT
REMARK Flexibility Score: inf
ROOT
ATOM      1  C   UNL     1      21.769  54.658  32.791  1.00  0.00     0.000 C 
ENDROOT
BRANCH   1   2
ATOM      2  C   UNL     1      20.938  54.360  34.048  1.00  0.00     0.000 C 
BRANCH   2   3
ATOM      3  C   UNL     1      21.447  53.134  34.829  1.00  0.00     0.000 C 
BRANCH   3   4
ATOM      4  C   UNL     1      22.491  53.444  35.917  1.00  0.00     0.000 C 
BRANCH   4   5
ATOM      5  C   UNL     1      22.949  54.913  35.906  1.00  0.00     0.006 C 
BRANCH   5   6
ATOM      6  C   UNL     1      24.462  55.049  36.125  1.00  0.00     0.053 C 
BRANCH   6   7
ATOM      7  C   UNL     1      25.209  55.078  34.826  1.00  0.00     0.041 C 
ATOM      8  O   UNL     1      24.582  55.078  33.735  1.00  0.00    -0.550 OA
ATOM      9  O   UNL     1      26.598  55.066  34.822  1.00  0.00    -0.550 OA
ENDBRANCH   6   7
ENDBRANCH   5   6
ENDBRANCH   4   5
ENDBRANCH   3   4
ENDBRANCH   2   3
ENDBRANCH   1   2
BRANCH   1  10
ATOM     10  C   UNL     1      20.875  54.733  31.547  1.00  0.00     0.000 C 
BRANCH  10  11
ATOM     11  C   UNL     1      21.710  55.016  30.288  1.00  0.00    -0.000 C 
BRANCH  11  12
ATOM     12  C   UNL     1      23.018  54.211  30.249  1.00  0.00    -0.000 C 
BRANCH  12  13
ATOM     13  C   UNL     1      23.355  53.698  28.838  1.00  0.00    -0.000 C 
BRANCH  13  14
ATOM     14  C   UNL     1      23.491  52.168  28.783  1.00  0.00    -0.000 C 
BRANCH  14  15
ATOM     15  C   UNL     1      23.482  51.621  27.348  1.00  0.00    -0.000 C 
BRANCH  15  16
ATOM     16  C   UNL     1      24.173  52.596  26.386  1.00  0.00    -0.003 C 
ATOM     17  C   UNL     1      24.901  51.848  25.273  1.00  0.00     0.004 C 
ENDBRANCH  15  16
ENDBRANCH  14  15
ENDBRANCH  13  14
ENDBRANCH  12  13
ENDBRANCH  11  12
ENDBRANCH  10  11
ENDBRANCH   1  10
TORSDOF 13
ENDMDL
MODEL 3
REMARK VINA RESULT:    -1.537     22.808     25.296
REMARK INTER + INTRA:          -2.553
REMARK INTER:                  -1.709
REMARK INTRA:                  -0.844
REMARK UNBOUND:                 0.153
REMARK SMILES CCCCCCCCCCCCCCC(=O)[O-]
REMARK SMILES IDX 9 1 10 2 11 3 12 4 13 5 14 6 15 7 16 8 17 9 8 10 7 11 6 12
REMARK SMILES IDX 5 13 4 14 3 15 2 16 1 17
REMARK H PARENT
REMARK Flexibility Score: inf
ROOT
ATOM      1  C   UNL     1      22.240  54.978  29.804  1.00  0.00     0.000 C 
ENDROOT
BRANCH   1   2
ATOM      2  C   UNL     1      23.457  54.121  30.183  1.00  0.00     0.000 C 
BRANCH   2   3
ATOM      3  C   UNL     1      23.807  53.068  29.116  1.00  0.00     0.000 C 
BRANCH   3   4
ATOM      4  C   UNL     1      22.624  52.607  28.246  1.00  0.00     0.000 C 
BRANCH   4   5
ATOM      5  C   UNL     1      22.959  51.380  27.380  1.00  0.00     0.006 C 
BRANCH   5   6
ATOM      6  C   UNL     1      24.470  51.224  27.160  1.00  0.00     0.053 C 
BRANCH   6   7
ATOM      7  C   UNL     1      24.891  51.737  25.816  1.00  0.00     0.041 C 
ATOM      8  O   UNL     1      24.226  52.642  25.248  1.00  0.00    -0.550 OA
ATOM      9  O   UNL     1      25.994  51.188  25.176  1.00  0.00    -0.550 OA
ENDBRANCH   6   7
ENDBRANCH   5   6
ENDBRANCH   4   5
ENDBRANCH   3   4
ENDBRANCH   2   3
ENDBRANCH   1   2
BRANCH   1  10
ATOM     10  C   UNL     1      21.121  54.836  30.844  1.00  0.00     0.000 C 
BRANCH  10  11
ATOM     11  C   UNL     1      21.697  54.803  32.268  1.00  0.00    -0.000 C 
BRANCH  11  12
ATOM     12  C   UNL     1      20.933  53.846  33.196  1.00  0.00    -0.000 C 
BRANCH  12  13
ATOM     13  C   UNL     1      21.422  53.918  34.653  1.00  0.00    -0.000 C 
BRANCH  13  14
ATOM     14  C   UNL     1      22.360  55.110  34.902  1.00  0.00    -0.000 C 
BRANCH  14  15
ATOM     15  C   UNL     1      23.561  54.746  35.786  1.00  0.00    -0.000 C 
BRANCH  15  16
ATOM     16  C   UNL     1      24.872  54.836  34.994  1.00  0.00    -0.003 C 
ATOM     17  C   UNL     1      24.708  54.264  33.589  1.00  0.00     0.004 C 
ENDBRANCH  15  16
ENDBRANCH  14  15
ENDBRANCH  13  14
ENDBRANCH  12  13
ENDBRANCH  11  12
ENDBRANCH  10  11
ENDBRANCH   1  10
TORSDOF 13
ENDMDL
MODEL 4
REMARK VINA RESULT:    -0.943      3.237      5.602
REMARK INTER + INTRA:          -1.508
REMARK INTER:                  -0.987
REMARK INTRA:                  -0.520
REMARK UNBOUND:                 0.153
REMARK SMILES CCCCCCCCCCCCCCC(=O)[O-]
REMARK SMILES IDX 9 1 10 2 11 3 12 4 13 5 14 6 15 7 16 8 17 9 8 10 7 11 6 12
REMARK SMILES IDX 5 13 4 14 3 15 2 16 1 17
REMARK H PARENT
REMARK Flexibility Score: inf
ROOT
ATOM      1  C   UNL     1      40.309  42.027  19.153  1.00  0.00     0.000 C 
ENDROOT
BRANCH   1   2
ATOM      2  C   UNL     1      40.965  41.027  18.189  1.00  0.00     0.000 C 
BRANCH   2   3
ATOM      3  C   UNL     1      39.941  40.185  17.408  1.00  0.00     0.000 C 
BRANCH   3   4
ATOM      4  C   UNL     1      40.064  38.663  17.607  1.00  0.00     0.000 C 
BRANCH   4   5
ATOM      5  C   UNL     1      39.972  38.243  19.085  1.00  0.00     0.006 C 
BRANCH   5   6
ATOM      6  C   UNL     1      38.522  38.213  19.588  1.00  0.00     0.053 C 
BRANCH   6   7
ATOM      7  C   UNL     1      38.018  36.810  19.739  1.00  0.00     0.041 C 
ATOM      8  O   UNL     1      37.651  36.388  20.866  1.00  0.00    -0.550 OA
ATOM      9  O   UNL     1      37.988  35.958  18.642  1.00  0.00    -0.550 OA
ENDBRANCH   6   7
ENDBRANCH   5   6
ENDBRANCH   4   5
ENDBRANCH   3   4
ENDBRANCH   2   3
ENDBRANCH   1   2
BRANCH   1  10
ATOM     10  C   UNL     1      41.116  43.330  19.228  1.00  0.00     0.000 C 
BRANCH  10  11
ATOM     11  C   UNL     1      41.066  43.927  20.643  1.00  0.00    -0.000 C 
BRANCH  11  12
ATOM     12  C   UNL     1      41.047  45.463  20.639  1.00  0.00    -0.000 C 
BRANCH  12  13
ATOM     13  C   UNL     1      41.125  46.059  22.056  1.00  0.00    -0.000 C 
BRANCH  13  14
ATOM     14  C   UNL     1      40.990  44.991  23.154  1.00  0.00    -0.000 C 
BRANCH  14  15
ATOM     15  C   UNL     1      39.531  44.737  23.559  1.00  0.00    -0.000 C 
BRANCH  15  16
ATOM     16  C   UNL     1      39.175  45.509  24.836  1.00  0.00    -0.003 C 
ATOM     17  C   UNL     1      37.697  45.888  24.857  1.00  0.00     0.004 C 
ENDBRANCH  15  16
ENDBRANCH  14  15
ENDBRANCH  13  14
ENDBRANCH  12  13
ENDBRANCH  11  12
ENDBRANCH  10  11
ENDBRANCH   1  10
TORSDOF 13
ENDMDL
MODEL 5
REMARK VINA RESULT:    -0.804      1.228      2.030
REMARK INTER + INTRA:          -1.262
REMARK INTER:                  -2.185
REMARK INTRA:                   0.922
REMARK UNBOUND:                 0.153
REMARK SMILES CCCCCCCCCCCCCCC(=O)[O-]
REMARK SMILES IDX 9 1 10 2 11 3 12 4 13 5 14 6 15 7 16 8 17 9 8 10 7 11 6 12
REMARK SMILES IDX 5 13 4 14 3 15 2 16 1 17
REMARK H PARENT
REMARK Flexibility Score: inf
ROOT
ATOM      1  C   UNL     1      37.715  39.220  21.111  1.00  0.00     0.000 C 
ENDROOT
BRANCH   1   2
ATOM      2  C   UNL     1      38.216  37.771  21.195  1.00  0.00     0.000 C 
BRANCH   2   3
ATOM      3  C   UNL     1      37.744  36.902  20.015  1.00  0.00     0.000 C 
BRANCH   3   4
ATOM      4  C   UNL     1      38.034  35.397  20.161  1.00  0.00     0.000 C 
BRANCH   4   5
ATOM      5  C   UNL     1      39.460  35.017  19.725  1.00  0.00     0.006 C 
BRANCH   5   6
ATOM      6  C   UNL     1      40.092  36.084  18.822  1.00  0.00     0.053 C 
BRANCH   6   7
ATOM      7  C   UNL     1      39.923  35.752  17.370  1.00  0.00     0.041 C 
ATOM      8  O   UNL     1      38.813  35.932  16.805  1.00  0.00    -0.550 OA
ATOM      9  O   UNL     1      40.981  35.210  16.652  1.00  0.00    -0.550 OA
ENDBRANCH   6   7
ENDBRANCH   5   6
ENDBRANCH   4   5
ENDBRANCH   3   4
ENDBRANCH   2   3
ENDBRANCH   1   2
BRANCH   1  10
ATOM     10  C   UNL     1      37.088  39.507  19.740  1.00  0.00     0.000 C 
BRANCH  10  11
ATOM     11  C   UNL     1      38.013  40.389  18.887  1.00  0.00    -0.000 C 
BRANCH  11  12
ATOM     12  C   UNL     1      39.095  39.581  18.155  1.00  0.00    -0.000 C 
BRANCH  12  13
ATOM     13  C   UNL     1      40.509  39.861  18.695  1.00  0.00    -0.000 C 
BRANCH  13  14
ATOM     14  C   UNL     1      41.124  41.140  18.106  1.00  0.00    -0.000 C 
BRANCH  14  15
ATOM     15  C   UNL     1      41.087  41.165  16.572  1.00  0.00    -0.000 C 
BRANCH  15  16
ATOM     16  C   UNL     1      40.245  40.006  16.024  1.00  0.00    -0.003 C 
ATOM     17  C   UNL     1      41.082  38.739  15.875  1.00  0.00     0.004 C 
ENDBRANCH  15  16
ENDBRANCH  14  15
ENDBRANCH  13  14
ENDBRANCH  12  13
ENDBRANCH  11  12
ENDBRANCH  10  11
ENDBRANCH   1  10
TORSDOF 13
ENDMDL
MODEL 6
REMARK VINA RESULT:    -0.311      4.890      7.620
REMARK INTER + INTRA:          -0.395
REMARK INTER:                   0.094
REMARK INTRA:                  -0.489
REMARK UNBOUND:                 0.153
REMARK SMILES CCCCCCCCCCCCCCC(=O)[O-]
REMARK SMILES IDX 9 1 10 2 11 3 12 4 13 5 14 6 15 7 16 8 17 9 8 10 7 11 6 12
REMARK SMILES IDX 5 13 4 14 3 15 2 16 1 17
REMARK H PARENT
REMARK Flexibility Score: inf
ROOT
ATOM      1  C   UNL     1      41.125  45.524  20.903  1.00  0.00     0.000 C 
ENDROOT
BRANCH   1   2
ATOM      2  C   UNL     1      41.125  43.989  20.892  1.00  0.00     0.000 C 
BRANCH   2   3
ATOM      3  C   UNL     1      41.106  43.397  19.471  1.00  0.00     0.000 C 
BRANCH   3   4
ATOM      4  C   UNL     1      39.950  42.420  19.189  1.00  0.00     0.000 C 
BRANCH   4   5
ATOM      5  C   UNL     1      40.436  41.002  18.844  1.00  0.00     0.006 C 
BRANCH   5   6
ATOM      6  C   UNL     1      39.271  40.045  18.555  1.00  0.00     0.053 C 
BRANCH   6   7
ATOM      7  C   UNL     1      39.745  38.638  18.357  1.00  0.00     0.041 C 
ATOM      8  O   UNL     1      39.471  37.752  19.208  1.00  0.00    -0.550 OA
ATOM      9  O   UNL     1      40.520  38.313  17.251  1.00  0.00    -0.550 OA
ENDBRANCH   6   7
ENDBRANCH   5   6
ENDBRANCH   4   5
ENDBRANCH   3   4
ENDBRANCH   2   3
ENDBRANCH   1   2
BRANCH   1  10
ATOM     10  C   UNL     1      40.466  46.066  22.179  1.00  0.00     0.000 C 
BRANCH  10  11
ATOM     11  C   UNL     1      40.133  44.924  23.152  1.00  0.00    -0.000 C 
BRANCH  11  12
ATOM     12  C   UNL     1      39.158  45.353  24.259  1.00  0.00    -0.000 C 
BRANCH  12  13
ATOM     13  C   UNL     1      37.798  45.811  23.704  1.00  0.00    -0.000 C 
BRANCH  13  14
ATOM     14  C   UNL     1      36.795  46.161  24.815  1.00  0.00    -0.000 C 
BRANCH  14  15
ATOM     15  C   UNL     1      35.433  46.609  24.265  1.00  0.00    -0.000 C 
BRANCH  15  16
ATOM     16  C   UNL     1      34.288  46.065  25.129  1.00  0.00    -0.003 C 
ATOM     17  C   UNL     1      33.737  47.144  26.057  1.00  0.00     0.004 C 
ENDBRANCH  15  16
ENDBRANCH  14  15
ENDBRANCH  13  14
ENDBRANCH  12  13
ENDBRANCH  11  12
ENDBRANCH  10  11
ENDBRANCH   1  10
TORSDOF 13
ENDMDL
MODEL 7
REMARK VINA RESULT:    -0.239     22.802     25.362
REMARK INTER + INTRA:          -0.268
REMARK INTER:                   0.551
REMARK INTRA:                  -0.819
REMARK UNBOUND:                 0.153
REMARK SMILES CCCCCCCCCCCCCCC(=O)[O-]
REMARK SMILES IDX 9 1 10 2 11 3 12 4 13 5 14 6 15 7 16 8 17 9 8 10 7 11 6 12
REMARK SMILES IDX 5 13 4 14 3 15 2 16 1 17
REMARK H PARENT
REMARK Flexibility Score: inf
ROOT
ATOM      1  C   UNL     1      23.221  54.850  30.129  1.00  0.00     0.000 C 
ENDROOT
BRANCH   1   2
ATOM      2  C   UNL     1      22.377  53.658  29.655  1.00  0.00     0.000 C 
BRANCH   2   3
ATOM      3  C   UNL     1      22.598  53.317  28.170  1.00  0.00     0.000 C 
BRANCH   3   4
ATOM      4  C   UNL     1      23.971  53.728  27.607  1.00  0.00     0.000 C 
BRANCH   4   5
ATOM      5  C   UNL     1      24.024  53.690  26.070  1.00  0.00     0.006 C 
BRANCH   5   6
ATOM      6  C   UNL     1      23.884  52.263  25.522  1.00  0.00     0.053 C 
BRANCH   6   7
ATOM      7  C   UNL     1      24.902  51.338  26.118  1.00  0.00     0.041 C 
ATOM      8  O   UNL     1      24.638  50.701  27.171  1.00  0.00    -0.550 OA
ATOM      9  O   UNL     1      26.154  51.210  25.531  1.00  0.00    -0.550 OA
ENDBRANCH   6   7
ENDBRANCH   5   6
ENDBRANCH   4   5
ENDBRANCH   3   4
ENDBRANCH   2   3
ENDBRANCH   1   2
BRANCH   1  10
ATOM     10  C   UNL     1      23.162  54.993  31.655  1.00  0.00     0.000 C 
BRANCH  10  11
ATOM     11  C   UNL     1      24.555  54.811  32.278  1.00  0.00    -0.000 C 
BRANCH  11  12
ATOM     12  C   UNL     1      24.514  54.054  33.615  1.00  0.00    -0.000 C 
BRANCH  12  13
ATOM     13  C   UNL     1      24.229  54.980  34.810  1.00  0.00    -0.000 C 
BRANCH  13  14
ATOM     14  C   UNL     1      23.304  54.333  35.852  1.00  0.00    -0.000 C 
BRANCH  14  15
ATOM     15  C   UNL     1      22.007  55.125  36.069  1.00  0.00    -0.000 C 
BRANCH  15  16
ATOM     16  C   UNL     1      21.139  55.114  34.803  1.00  0.00    -0.003 C 
ATOM     17  C   UNL     1      20.875  53.688  34.329  1.00  0.00     0.004 C 
ENDBRANCH  15  16
ENDBRANCH  14  15
ENDBRANCH  13  14
ENDBRANCH  12  13
ENDBRANCH  11  12
ENDBRANCH  10  11
ENDBRANCH   1  10
TORSDOF 13
ENDMDL
