MODEL 1
REMARK VINA RESULT:    -5.277      0.000      0.000
REMARK INTER + INTRA:          -6.215
REMARK INTER:                  -6.203
REMARK INTRA:                  -0.012
REMARK UNBOUND:                -0.012
REMARK SMILES O=C([O-])C=Cc1ccc(O)c(O)c1
REMARK SMILES IDX 6 1 13 2 7 3 11 4 8 5 9 6 5 7 4 8 2 9 1 10 3 11 12 12 10 14
REMARK H PARENT 12 13 10 15
REMARK Flexibility Score: inf
ROOT
ATOM      1  C   UNL     1       8.605  16.106 -21.279  1.00  0.00    -0.022 A 
ATOM      2  C   UNL     1       9.364  16.407 -20.139  1.00  0.00     0.058 A 
ATOM      3  C   UNL     1       8.165  14.787 -21.481  1.00  0.00     0.012 A 
ATOM      4  C   UNL     1       9.725  15.400 -19.236  1.00  0.00     0.157 A 
ATOM      5  C   UNL     1       8.523  13.779 -20.583  1.00  0.00     0.051 A 
ATOM      6  C   UNL     1       9.307  14.077 -19.460  1.00  0.00     0.157 A 
ENDROOT
BRANCH   1   7
ATOM      7  C   UNL     1       8.195  17.197 -22.185  1.00  0.00     0.010 C 
ATOM      8  C   UNL     1       8.392  17.221 -23.512  1.00  0.00     0.025 C 
BRANCH   8   9
ATOM      9  C   UNL     1       9.215  16.260 -24.272  1.00  0.00     0.064 C 
ATOM     10  O   UNL     1       8.715  15.676 -25.268  1.00  0.00    -0.545 OA
ATOM     11  O   UNL     1      10.550  16.039 -23.956  1.00  0.00    -0.545 OA
ENDBRANCH   8   9
ENDBRANCH   1   7
BRANCH   4  12
ATOM     12  O   UNL     1      10.496  15.733 -18.122  1.00  0.00    -0.504 OA
ATOM     13  H   UNL     1      10.719  16.693 -17.890  1.00  0.00     0.293 HD
ENDBRANCH   4  12
BRANCH   6  14
ATOM     14  O   UNL     1       9.665  13.069 -18.567  1.00  0.00    -0.504 OA
ATOM     15  H   UNL     1       9.064  12.807 -17.794  1.00  0.00     0.293 HD
ENDBRANCH   6  14
TORSDOF 4
ENDMDL
MODEL 2
REMARK VINA RESULT:    -5.194      9.242     12.559
REMARK INTER + INTRA:          -6.117
REMARK INTER:                  -6.180
REMARK INTRA:                   0.062
REMARK UNBOUND:                -0.012
REMARK SMILES O=C([O-])C=Cc1ccc(O)c(O)c1
REMARK SMILES IDX 6 1 13 2 7 3 11 4 8 5 9 6 5 7 4 8 2 9 1 10 3 11 12 12 10 14
REMARK H PARENT 12 13 10 15
REMARK Flexibility Score: inf
ROOT
ATOM      1  C   UNL     1       6.958   8.380 -12.372  1.00  0.00    -0.022 A 
ATOM      2  C   UNL     1       7.910   8.079 -13.356  1.00  0.00     0.058 A 
ATOM      3  C   UNL     1       6.633   9.724 -12.120  1.00  0.00     0.012 A 
ATOM      4  C   UNL     1       8.569   9.103 -14.047  1.00  0.00     0.157 A 
ATOM      5  C   UNL     1       7.289  10.749 -12.807  1.00  0.00     0.051 A 
ATOM      6  C   UNL     1       8.261  10.445 -13.768  1.00  0.00     0.157 A 
ENDROOT
BRANCH   1   7
ATOM      7  C   UNL     1       6.241   7.280 -11.697  1.00  0.00     0.010 C 
ATOM      8  C   UNL     1       6.027   7.186 -10.376  1.00  0.00     0.025 C 
BRANCH   8   9
ATOM      9  C   UNL     1       6.628   8.058  -9.348  1.00  0.00     0.064 C 
ATOM     10  O   UNL     1       5.879   8.650  -8.529  1.00  0.00    -0.545 OA
ATOM     11  O   UNL     1       8.006   8.183  -9.219  1.00  0.00    -0.545 OA
ENDBRANCH   8   9
ENDBRANCH   1   7
BRANCH   4  12
ATOM     12  O   UNL     1       9.524   8.767 -15.007  1.00  0.00    -0.504 OA
ATOM     13  H   UNL     1       9.979   7.863 -15.019  1.00  0.00     0.293 HD
ENDBRANCH   4  12
BRANCH   6  14
ATOM     14  O   UNL     1       8.916  11.469 -14.450  1.00  0.00    -0.504 OA
ATOM     15  H   UNL     1       9.927  11.543 -14.453  1.00  0.00     0.293 HD
ENDBRANCH   6  14
TORSDOF 4
ENDMDL
MODEL 3
REMARK VINA RESULT:    -4.862      1.948      2.476
REMARK INTER + INTRA:          -5.727
REMARK INTER:                  -5.785
REMARK INTRA:                   0.058
REMARK UNBOUND:                -0.012
REMARK SMILES O=C([O-])C=Cc1ccc(O)c(O)c1
REMARK SMILES IDX 6 1 13 2 7 3 11 4 8 5 9 6 5 7 4 8 2 9 1 10 3 11 12 12 10 14
REMARK H PARENT 12 13 10 15
REMARK Flexibility Score: inf
ROOT
ATOM      1  C   UNL     1       8.130  14.966 -20.578  1.00  0.00    -0.022 A 
ATOM      2  C   UNL     1       9.021  13.945 -20.939  1.00  0.00     0.058 A 
ATOM      3  C   UNL     1       6.983  14.644 -19.832  1.00  0.00     0.012 A 
ATOM      4  C   UNL     1       8.749  12.612 -20.607  1.00  0.00     0.157 A 
ATOM      5  C   UNL     1       6.709  13.315 -19.499  1.00  0.00     0.051 A 
ATOM      6  C   UNL     1       7.585  12.294 -19.888  1.00  0.00     0.157 A 
ENDROOT
BRANCH   1   7
ATOM      7  C   UNL     1       8.468  16.368 -20.895  1.00  0.00     0.010 C 
ATOM      8  C   UNL     1       8.716  16.849 -22.122  1.00  0.00     0.025 C 
BRANCH   8   9
ATOM      9  C   UNL     1       8.883  16.036 -23.342  1.00  0.00     0.064 C 
ATOM     10  O   UNL     1       7.865  15.698 -24.000  1.00  0.00    -0.545 OA
ATOM     11  O   UNL     1      10.143  15.696 -23.820  1.00  0.00    -0.545 OA
ENDBRANCH   8   9
ENDBRANCH   1   7
BRANCH   4  12
ATOM     12  O   UNL     1       9.649  11.620 -20.999  1.00  0.00    -0.504 OA
ATOM     13  H   UNL     1       9.592  10.673 -20.645  1.00  0.00     0.293 HD
ENDBRANCH   4  12
BRANCH   6  14
ATOM     14  O   UNL     1       7.308  10.969 -19.557  1.00  0.00    -0.504 OA
ATOM     15  H   UNL     1       6.747  10.377 -20.160  1.00  0.00     0.293 HD
ENDBRANCH   6  14
TORSDOF 4
ENDMDL
MODEL 4
REMARK VINA RESULT:    -4.858      0.800      1.912
REMARK INTER + INTRA:          -5.722
REMARK INTER:                  -5.753
REMARK INTRA:                   0.031
REMARK UNBOUND:                -0.012
REMARK SMILES O=C([O-])C=Cc1ccc(O)c(O)c1
REMARK SMILES IDX 6 1 13 2 7 3 11 4 8 5 9 6 5 7 4 8 2 9 1 10 3 11 12 12 10 14
REMARK H PARENT 12 13 10 15
REMARK Flexibility Score: inf
ROOT
ATOM      1  C   UNL     1       8.525  16.165 -21.183  1.00  0.00    -0.022 A 
ATOM      2  C   UNL     1       8.116  14.849 -21.443  1.00  0.00     0.058 A 
ATOM      3  C   UNL     1       9.355  16.420 -20.078  1.00  0.00     0.012 A 
ATOM      4  C   UNL     1       8.484  13.806 -20.585  1.00  0.00     0.157 A 
ATOM      5  C   UNL     1       9.724  15.382 -19.219  1.00  0.00     0.051 A 
ATOM      6  C   UNL     1       9.288  14.073 -19.464  1.00  0.00     0.157 A 
ENDROOT
BRANCH   1   7
ATOM      7  C   UNL     1       8.166  17.236 -22.134  1.00  0.00     0.010 C 
ATOM      8  C   UNL     1       8.401  17.215 -23.455  1.00  0.00     0.025 C 
BRANCH   8   9
ATOM      9  C   UNL     1       9.224  16.214 -24.161  1.00  0.00     0.064 C 
ATOM     10  O   UNL     1       8.712  15.549 -25.099  1.00  0.00    -0.545 OA
ATOM     11  O   UNL     1      10.569  16.039 -23.861  1.00  0.00    -0.545 OA
ENDBRANCH   8   9
ENDBRANCH   1   7
BRANCH   4  12
ATOM     12  O   UNL     1       8.043  12.512 -20.864  1.00  0.00    -0.504 OA
ATOM     13  H   UNL     1       8.139  12.098 -21.783  1.00  0.00     0.293 HD
ENDBRANCH   4  12
BRANCH   6  14
ATOM     14  O   UNL     1       9.656  13.040 -18.604  1.00  0.00    -0.504 OA
ATOM     15  H   UNL     1       8.975  12.571 -18.017  1.00  0.00     0.293 HD
ENDBRANCH   6  14
TORSDOF 4
ENDMDL
MODEL 5
REMARK VINA RESULT:    -4.814      8.579     10.251
REMARK INTER + INTRA:          -5.670
REMARK INTER:                  -5.388
REMARK INTRA:                  -0.283
REMARK UNBOUND:                -0.012
REMARK SMILES O=C([O-])C=Cc1ccc(O)c(O)c1
REMARK SMILES IDX 6 1 13 2 7 3 11 4 8 5 9 6 5 7 4 8 2 9 1 10 3 11 12 12 10 14
REMARK H PARENT 12 13 10 15
REMARK Flexibility Score: inf
ROOT
ATOM      1  C   UNL     1       6.641   9.669 -13.236  1.00  0.00    -0.022 A 
ATOM      2  C   UNL     1       7.495  10.547 -12.553  1.00  0.00     0.058 A 
ATOM      3  C   UNL     1       5.885  10.149 -14.319  1.00  0.00     0.012 A 
ATOM      4  C   UNL     1       7.559  11.900 -12.910  1.00  0.00     0.157 A 
ATOM      5  C   UNL     1       5.946  11.498 -14.678  1.00  0.00     0.051 A 
ATOM      6  C   UNL     1       6.777  12.380 -13.975  1.00  0.00     0.157 A 
ENDROOT
BRANCH   1   7
ATOM      7  C   UNL     1       6.633   8.238 -12.872  1.00  0.00     0.010 C 
ATOM      8  C   UNL     1       7.447   7.301 -13.382  1.00  0.00     0.025 C 
BRANCH   8   9
ATOM      9  C   UNL     1       8.358   7.492 -14.527  1.00  0.00     0.064 C 
ATOM     10  O   UNL     1       7.932   7.290 -15.693  1.00  0.00    -0.545 OA
ATOM     11  O   UNL     1       9.655   7.959 -14.351  1.00  0.00    -0.545 OA
ENDBRANCH   8   9
ENDBRANCH   1   7
BRANCH   4  12
ATOM     12  O   UNL     1       8.406  12.749 -12.197  1.00  0.00    -0.504 OA
ATOM     13  H   UNL     1       9.324  12.456 -11.887  1.00  0.00     0.293 HD
ENDBRANCH   4  12
BRANCH   6  14
ATOM     14  O   UNL     1       6.835  13.725 -14.333  1.00  0.00    -0.504 OA
ATOM     15  H   UNL     1       6.649  14.030 -15.282  1.00  0.00     0.293 HD
ENDBRANCH   6  14
TORSDOF 4
ENDMDL
MODEL 6
REMARK VINA RESULT:    -4.720      7.662     10.212
REMARK INTER + INTRA:          -5.560
REMARK INTER:                  -5.297
REMARK INTRA:                  -0.262
REMARK UNBOUND:                -0.012
REMARK SMILES O=C([O-])C=Cc1ccc(O)c(O)c1
REMARK SMILES IDX 6 1 13 2 7 3 11 4 8 5 9 6 5 7 4 8 2 9 1 10 3 11 12 12 10 14
REMARK H PARENT 12 13 10 15
REMARK Flexibility Score: inf
ROOT
ATOM      1  C   UNL     1       8.524   8.045 -15.055  1.00  0.00    -0.022 A 
ATOM      2  C   UNL     1       7.762   8.043 -16.232  1.00  0.00     0.058 A 
ATOM      3  C   UNL     1       9.788   8.658 -15.055  1.00  0.00     0.012 A 
ATOM      4  C   UNL     1       8.273   8.599 -17.411  1.00  0.00     0.157 A 
ATOM      5  C   UNL     1      10.301   9.214 -16.230  1.00  0.00     0.051 A 
ATOM      6  C   UNL     1       9.551   9.183 -17.413  1.00  0.00     0.157 A 
ENDROOT
BRANCH   1   7
ATOM      7  C   UNL     1       7.939   7.499 -13.813  1.00  0.00     0.010 C 
ATOM      8  C   UNL     1       7.108   8.157 -12.990  1.00  0.00     0.025 C 
BRANCH   8   9
ATOM      9  C   UNL     1       6.783   9.594 -13.073  1.00  0.00     0.064 C 
ATOM     10  O   UNL     1       7.387  10.405 -12.326  1.00  0.00    -0.545 OA
ATOM     11  O   UNL     1       5.875  10.080 -14.007  1.00  0.00    -0.545 OA
ENDBRANCH   8   9
ENDBRANCH   1   7
BRANCH   4  12
ATOM     12  O   UNL     1       7.495   8.563 -18.569  1.00  0.00    -0.504 OA
ATOM     13  H   UNL     1       7.515   9.309 -19.254  1.00  0.00     0.293 HD
ENDBRANCH   4  12
BRANCH   6  14
ATOM     14  O   UNL     1      10.066   9.735 -18.585  1.00  0.00    -0.504 OA
ATOM     15  H   UNL     1       9.934  10.714 -18.812  1.00  0.00     0.293 HD
ENDBRANCH   6  14
TORSDOF 4
ENDMDL
MODEL 7
REMARK VINA RESULT:    -4.614      7.667     10.191
REMARK INTER + INTRA:          -5.436
REMARK INTER:                  -5.208
REMARK INTRA:                  -0.228
REMARK UNBOUND:                -0.012
REMARK SMILES O=C([O-])C=Cc1ccc(O)c(O)c1
REMARK SMILES IDX 6 1 13 2 7 3 11 4 8 5 9 6 5 7 4 8 2 9 1 10 3 11 12 12 10 14
REMARK H PARENT 12 13 10 15
REMARK Flexibility Score: inf
ROOT
ATOM      1  C   UNL     1       8.762   8.876 -14.171  1.00  0.00    -0.022 A 
ATOM      2  C   UNL     1       8.542  10.177 -14.644  1.00  0.00     0.058 A 
ATOM      3  C   UNL     1       9.876   8.156 -14.635  1.00  0.00     0.012 A 
ATOM      4  C   UNL     1       9.391  10.739 -15.605  1.00  0.00     0.157 A 
ATOM      5  C   UNL     1      10.725   8.713 -15.594  1.00  0.00     0.051 A 
ATOM      6  C   UNL     1      10.486  10.002 -16.087  1.00  0.00     0.157 A 
ENDROOT
BRANCH   1   7
ATOM      7  C   UNL     1       7.882   8.329 -13.119  1.00  0.00     0.010 C 
ATOM      8  C   UNL     1       6.966   7.364 -13.295  1.00  0.00     0.025 C 
BRANCH   8   9
ATOM      9  C   UNL     1       6.542   6.814 -14.597  1.00  0.00     0.064 C 
ATOM     10  O   UNL     1       6.730   5.594 -14.839  1.00  0.00    -0.545 OA
ATOM     11  O   UNL     1       5.877   7.597 -15.533  1.00  0.00    -0.545 OA
ENDBRANCH   8   9
ENDBRANCH   1   7
BRANCH   4  12
ATOM     12  O   UNL     1       9.132  12.030 -16.066  1.00  0.00    -0.504 OA
ATOM     13  H   UNL     1       9.154  12.263 -17.051  1.00  0.00     0.293 HD
ENDBRANCH   4  12
BRANCH   6  14
ATOM     14  O   UNL     1      11.333  10.554 -17.047  1.00  0.00    -0.504 OA
ATOM     15  H   UNL     1      11.122  11.439 -17.494  1.00  0.00     0.293 HD
ENDBRANCH   6  14
TORSDOF 4
ENDMDL
MODEL 8
REMARK VINA RESULT:    -4.614      2.589      3.741
REMARK INTER + INTRA:          -5.436
REMARK INTER:                  -5.185
REMARK INTRA:                  -0.251
REMARK UNBOUND:                -0.012
REMARK SMILES O=C([O-])C=Cc1ccc(O)c(O)c1
REMARK SMILES IDX 6 1 13 2 7 3 11 4 8 5 9 6 5 7 4 8 2 9 1 10 3 11 12 12 10 14
REMARK H PARENT 12 13 10 15
REMARK Flexibility Score: inf
ROOT
ATOM      1  C   UNL     1       9.406  16.229 -18.312  1.00  0.00    -0.022 A 
ATOM      2  C   UNL     1       8.497  15.821 -17.325  1.00  0.00     0.058 A 
ATOM      3  C   UNL     1      10.738  15.785 -18.245  1.00  0.00     0.012 A 
ATOM      4  C   UNL     1       8.918  15.024 -16.255  1.00  0.00     0.157 A 
ATOM      5  C   UNL     1      11.162  14.989 -17.178  1.00  0.00     0.051 A 
ATOM      6  C   UNL     1      10.259  14.609 -16.176  1.00  0.00     0.157 A 
ENDROOT
BRANCH   1   7
ATOM      7  C   UNL     1       8.922  17.026 -19.458  1.00  0.00     0.010 C 
ATOM      8  C   UNL     1       8.278  16.537 -20.528  1.00  0.00     0.025 C 
BRANCH   8   9
ATOM      9  C   UNL     1       8.108  15.105 -20.844  1.00  0.00     0.064 C 
ATOM     10  O   UNL     1       8.900  14.556 -21.652  1.00  0.00    -0.545 OA
ATOM     11  O   UNL     1       7.138  14.334 -20.215  1.00  0.00    -0.545 OA
ENDBRANCH   8   9
ENDBRANCH   1   7
BRANCH   4  12
ATOM     12  O   UNL     1       7.991  14.652 -15.281  1.00  0.00    -0.504 OA
ATOM     13  H   UNL     1       7.676  15.296 -14.565  1.00  0.00     0.293 HD
ENDBRANCH   4  12
BRANCH   6  14
ATOM     14  O   UNL     1      10.685  13.818 -15.112  1.00  0.00    -0.504 OA
ATOM     15  H   UNL     1      11.624  13.895 -14.735  1.00  0.00     0.293 HD
ENDBRANCH   6  14
TORSDOF 4
ENDMDL
MODEL 9
REMARK VINA RESULT:    -4.483      6.729      9.622
REMARK INTER + INTRA:          -5.281
REMARK INTER:                  -5.014
REMARK INTRA:                  -0.267
REMARK UNBOUND:                -0.012
REMARK SMILES O=C([O-])C=Cc1ccc(O)c(O)c1
REMARK SMILES IDX 6 1 13 2 7 3 11 4 8 5 9 6 5 7 4 8 2 9 1 10 3 11 12 12 10 14
REMARK H PARENT 12 13 10 15
REMARK Flexibility Score: inf
ROOT
ATOM      1  C   UNL     1       9.020   8.583 -15.524  1.00  0.00    -0.022 A 
ATOM      2  C   UNL     1      10.127   9.443 -15.550  1.00  0.00     0.058 A 
ATOM      3  C   UNL     1       8.237   8.437 -16.681  1.00  0.00     0.012 A 
ATOM      4  C   UNL     1      10.423  10.190 -16.697  1.00  0.00     0.157 A 
ATOM      5  C   UNL     1       8.528   9.180 -17.828  1.00  0.00     0.051 A 
ATOM      6  C   UNL     1       9.617  10.062 -17.841  1.00  0.00     0.157 A 
ENDROOT
BRANCH   1   7
ATOM      7  C   UNL     1       8.764   7.769 -14.319  1.00  0.00     0.010 C 
ATOM      8  C   UNL     1       7.832   8.029 -13.389  1.00  0.00     0.025 C 
BRANCH   8   9
ATOM      9  C   UNL     1       7.032   9.265 -13.302  1.00  0.00     0.064 C 
ATOM     10  O   UNL     1       7.378  10.165 -12.494  1.00  0.00    -0.545 OA
ATOM     11  O   UNL     1       5.948   9.489 -14.142  1.00  0.00    -0.545 OA
ENDBRANCH   8   9
ENDBRANCH   1   7
BRANCH   4  12
ATOM     12  O   UNL     1      11.521  11.050 -16.681  1.00  0.00    -0.504 OA
ATOM     13  H   UNL     1      12.314  10.921 -17.298  1.00  0.00     0.293 HD
ENDBRANCH   4  12
BRANCH   6  14
ATOM     14  O   UNL     1       9.904  10.805 -18.985  1.00  0.00    -0.504 OA
ATOM     15  H   UNL     1      10.590  11.551 -18.975  1.00  0.00     0.293 HD
ENDBRANCH   6  14
TORSDOF 4
ENDMDL
