MODEL 1
REMARK VINA RESULT:    -3.694      0.000      0.000
REMARK INTER + INTRA:          -5.981
REMARK INTER:                  -5.637
REMARK INTRA:                  -0.344
REMARK UNBOUND:                -0.344
REMARK SMILES O=C([O-])CCCCCCCCC(=O)[O-]
REMARK SMILES IDX 7 1 6 2 5 3 4 4 2 5 1 6 3 7 8 8 9 9 10 10 11 11 12 12 13 13
REMARK SMILES IDX 14 14
REMARK H PARENT
REMARK Flexibility Score: inf
ROOT
ATOM      1  C   UNL     1      15.007   3.044  -1.278  1.00  0.00     0.000 C 
ENDROOT
BRANCH   1   2
ATOM      2  C   UNL     1      13.999   3.138  -2.441  1.00  0.00     0.000 C 
BRANCH   2   3
ATOM      3  C   UNL     1      13.045   4.348  -2.379  1.00  0.00     0.006 C 
BRANCH   3   4
ATOM      4  C   UNL     1      12.543   4.688  -0.967  1.00  0.00     0.053 C 
BRANCH   4   5
ATOM      5  C   UNL     1      11.209   5.369  -0.996  1.00  0.00     0.041 C 
ATOM      6  O   UNL     1      10.214   4.791  -1.506  1.00  0.00    -0.550 OA
ATOM      7  O   UNL     1      11.073   6.655  -0.490  1.00  0.00    -0.550 OA
ENDBRANCH   4   5
ENDBRANCH   3   4
ENDBRANCH   2   3
ENDBRANCH   1   2
BRANCH   1   8
ATOM      8  C   UNL     1      16.319   2.305  -1.608  1.00  0.00     0.000 C 
BRANCH   8   9
ATOM      9  C   UNL     1      16.149   1.007  -2.417  1.00  0.00     0.000 C 
BRANCH   9  10
ATOM     10  C   UNL     1      17.476   0.476  -2.979  1.00  0.00     0.006 C 
BRANCH  10  11
ATOM     11  C   UNL     1      18.507   1.602  -3.108  1.00  0.00     0.053 C 
BRANCH  11  12
ATOM     12  C   UNL     1      19.838   1.157  -2.591  1.00  0.00     0.041 C 
ATOM     13  O   UNL     1      20.712   2.007  -2.275  1.00  0.00    -0.550 OA
ATOM     14  O   UNL     1      20.098  -0.195  -2.411  1.00  0.00    -0.550 OA
ENDBRANCH  11  12
ENDBRANCH  10  11
ENDBRANCH   9  10
ENDBRANCH   8   9
ENDBRANCH   1   8
TORSDOF 9
ENDMDL
MODEL 2
REMARK VINA RESULT:    -3.586      0.721      7.960
REMARK INTER + INTRA:          -5.816
REMARK INTER:                  -5.473
REMARK INTRA:                  -0.343
REMARK UNBOUND:                -0.344
REMARK SMILES O=C([O-])CCCCCCCCC(=O)[O-]
REMARK SMILES IDX 7 1 6 2 5 3 4 4 2 5 1 6 3 7 8 8 9 9 10 10 11 11 12 12 13 13
REMARK SMILES IDX 14 14
REMARK H PARENT
REMARK Flexibility Score: inf
ROOT
ATOM      1  C   UNL     1      15.411   1.329  -1.835  1.00  0.00     0.000 C 
ENDROOT
BRANCH   1   2
ATOM      2  C   UNL     1      16.815   1.967  -1.835  1.00  0.00     0.000 C 
BRANCH   2   3
ATOM      3  C   UNL     1      17.634   1.738  -3.121  1.00  0.00     0.006 C 
BRANCH   3   4
ATOM      4  C   UNL     1      18.499   0.468  -3.105  1.00  0.00     0.053 C 
BRANCH   4   5
ATOM      5  C   UNL     1      19.846   0.715  -2.497  1.00  0.00     0.041 C 
ATOM      6  O   UNL     1      20.329   1.877  -2.477  1.00  0.00    -0.550 OA
ATOM      7  O   UNL     1      20.582  -0.345  -1.983  1.00  0.00    -0.550 OA
ENDBRANCH   4   5
ENDBRANCH   3   4
ENDBRANCH   2   3
ENDBRANCH   1   2
BRANCH   1   8
ATOM      8  C   UNL     1      14.388   1.998  -2.775  1.00  0.00     0.000 C 
BRANCH   8   9
ATOM      9  C   UNL     1      14.169   3.502  -2.532  1.00  0.00     0.000 C 
BRANCH   9  10
ATOM     10  C   UNL     1      12.697   3.857  -2.278  1.00  0.00     0.006 C 
BRANCH  10  11
ATOM     11  C   UNL     1      12.545   4.679  -0.995  1.00  0.00     0.053 C 
BRANCH  11  12
ATOM     12  C   UNL     1      11.180   5.288  -0.921  1.00  0.00     0.041 C 
ATOM     13  O   UNL     1      11.005   6.375  -0.310  1.00  0.00    -0.550 OA
ATOM     14  O   UNL     1      10.112   4.684  -1.570  1.00  0.00    -0.550 OA
ENDBRANCH  11  12
ENDBRANCH  10  11
ENDBRANCH   9  10
ENDBRANCH   8   9
ENDBRANCH   1   8
TORSDOF 9
ENDMDL
MODEL 3
REMARK VINA RESULT:    -3.578      0.769      8.219
REMARK INTER + INTRA:          -5.804
REMARK INTER:                  -5.595
REMARK INTRA:                  -0.209
REMARK UNBOUND:                -0.344
REMARK SMILES O=C([O-])CCCCCCCCC(=O)[O-]
REMARK SMILES IDX 7 1 6 2 5 3 4 4 2 5 1 6 3 7 8 8 9 9 10 10 11 11 12 12 13 13
REMARK SMILES IDX 14 14
REMARK H PARENT
REMARK Flexibility Score: inf
ROOT
ATOM      1  C   UNL     1      15.580   1.205  -2.194  1.00  0.00     0.000 C 
ENDROOT
BRANCH   1   2
ATOM      2  C   UNL     1      17.024   1.690  -1.953  1.00  0.00     0.000 C 
BRANCH   2   3
ATOM      3  C   UNL     1      18.067   1.151  -2.952  1.00  0.00     0.006 C 
BRANCH   3   4
ATOM      4  C   UNL     1      19.470   1.756  -2.793  1.00  0.00     0.053 C 
BRANCH   4   5
ATOM      5  C   UNL     1      20.457   0.756  -2.274  1.00  0.00     0.041 C 
ATOM      6  O   UNL     1      20.494  -0.407  -2.755  1.00  0.00    -0.550 OA
ATOM      7  O   UNL     1      21.311   1.097  -1.234  1.00  0.00    -0.550 OA
ENDBRANCH   4   5
ENDBRANCH   3   4
ENDBRANCH   2   3
ENDBRANCH   1   2
BRANCH   1   8
ATOM      8  C   UNL     1      14.617   2.270  -2.753  1.00  0.00     0.000 C 
BRANCH   8   9
ATOM      9  C   UNL     1      14.281   3.417  -1.783  1.00  0.00     0.000 C 
BRANCH   9  10
ATOM     10  C   UNL     1      12.883   4.008  -2.019  1.00  0.00     0.006 C 
BRANCH  10  11
ATOM     11  C   UNL     1      12.419   4.818  -0.805  1.00  0.00     0.053 C 
BRANCH  11  12
ATOM     12  C   UNL     1      11.002   5.264  -0.982  1.00  0.00     0.041 C 
ATOM     13  O   UNL     1      10.212   4.594  -1.699  1.00  0.00    -0.550 OA
ATOM     14  O   UNL     1      10.538   6.390  -0.316  1.00  0.00    -0.550 OA
ENDBRANCH  11  12
ENDBRANCH  10  11
ENDBRANCH   9  10
ENDBRANCH   8   9
ENDBRANCH   1   8
TORSDOF 9
ENDMDL
MODEL 4
REMARK VINA RESULT:    -3.450      2.440      3.963
REMARK INTER + INTRA:          -5.608
REMARK INTER:                  -5.224
REMARK INTRA:                  -0.384
REMARK UNBOUND:                -0.344
REMARK SMILES O=C([O-])CCCCCCCCC(=O)[O-]
REMARK SMILES IDX 7 1 6 2 5 3 4 4 2 5 1 6 3 7 8 8 9 9 10 10 11 11 12 12 13 13
REMARK SMILES IDX 14 14
REMARK H PARENT
REMARK Flexibility Score: inf
ROOT
ATOM      1  C   UNL     1      12.109   4.989  -0.401  1.00  0.00     0.000 C 
ENDROOT
BRANCH   1   2
ATOM      2  C   UNL     1      10.841   5.862  -0.488  1.00  0.00     0.000 C 
BRANCH   2   3
ATOM      3  C   UNL     1      10.606   6.532  -1.857  1.00  0.00     0.006 C 
BRANCH   3   4
ATOM      4  C   UNL     1       9.127   6.764  -2.205  1.00  0.00     0.053 C 
BRANCH   4   5
ATOM      5  C   UNL     1       8.588   8.007  -1.565  1.00  0.00     0.041 C 
ATOM      6  O   UNL     1       9.234   9.086  -1.634  1.00  0.00    -0.550 OA
ATOM      7  O   UNL     1       7.391   7.966  -0.863  1.00  0.00    -0.550 OA
ENDBRANCH   4   5
ENDBRANCH   3   4
ENDBRANCH   2   3
ENDBRANCH   1   2
BRANCH   1   8
ATOM      8  C   UNL     1      12.968   4.953  -1.680  1.00  0.00     0.000 C 
BRANCH   8   9
ATOM      9  C   UNL     1      12.975   3.604  -2.421  1.00  0.00     0.000 C 
BRANCH   9  10
ATOM     10  C   UNL     1      14.373   3.199  -2.911  1.00  0.00     0.006 C 
BRANCH  10  11
ATOM     11  C   UNL     1      15.263   2.777  -1.739  1.00  0.00     0.053 C 
BRANCH  11  12
ATOM     12  C   UNL     1      16.274   1.768  -2.184  1.00  0.00     0.041 C 
ATOM     13  O   UNL     1      17.501   1.970  -1.985  1.00  0.00    -0.550 OA
ATOM     14  O   UNL     1      15.859   0.581  -2.773  1.00  0.00    -0.550 OA
ENDBRANCH  11  12
ENDBRANCH  10  11
ENDBRANCH   9  10
ENDBRANCH   8   9
ENDBRANCH   1   8
TORSDOF 9
ENDMDL
MODEL 5
REMARK VINA RESULT:    -3.443      2.326      8.534
REMARK INTER + INTRA:          -5.598
REMARK INTER:                  -5.160
REMARK INTRA:                  -0.438
REMARK UNBOUND:                -0.344
REMARK SMILES O=C([O-])CCCCCCCCC(=O)[O-]
REMARK SMILES IDX 7 1 6 2 5 3 4 4 2 5 1 6 3 7 8 8 9 9 10 10 11 11 12 12 13 13
REMARK SMILES IDX 14 14
REMARK H PARENT
REMARK Flexibility Score: inf
ROOT
ATOM      1  C   UNL     1      13.223   4.634  -1.221  1.00  0.00     0.000 C 
ENDROOT
BRANCH   1   2
ATOM      2  C   UNL     1      13.227   4.081  -2.661  1.00  0.00     0.000 C 
BRANCH   2   3
ATOM      3  C   UNL     1      14.088   2.819  -2.871  1.00  0.00     0.006 C 
BRANCH   3   4
ATOM      4  C   UNL     1      15.142   2.581  -1.778  1.00  0.00     0.053 C 
BRANCH   4   5
ATOM      5  C   UNL     1      16.214   1.637  -2.230  1.00  0.00     0.041 C 
ATOM      6  O   UNL     1      15.908   0.519  -2.721  1.00  0.00    -0.550 OA
ATOM      7  O   UNL     1      17.551   1.978  -2.078  1.00  0.00    -0.550 OA
ENDBRANCH   4   5
ENDBRANCH   3   4
ENDBRANCH   2   3
ENDBRANCH   1   2
BRANCH   1   8
ATOM      8  C   UNL     1      11.840   5.046  -0.682  1.00  0.00     0.000 C 
BRANCH   8   9
ATOM      9  C   UNL     1      10.647   4.616  -1.554  1.00  0.00     0.000 C 
BRANCH   9  10
ATOM     10  C   UNL     1       9.790   5.802  -2.020  1.00  0.00     0.006 C 
BRANCH  10  11
ATOM     11  C   UNL     1      10.115   7.063  -1.213  1.00  0.00     0.053 C 
BRANCH  11  12
ATOM     12  C   UNL     1       9.051   8.097  -1.405  1.00  0.00     0.041 C 
ATOM     13  O   UNL     1       7.852   7.833  -1.124  1.00  0.00    -0.550 OA
ATOM     14  O   UNL     1       9.389   9.370  -1.847  1.00  0.00    -0.550 OA
ENDBRANCH  11  12
ENDBRANCH  10  11
ENDBRANCH   9  10
ENDBRANCH   8   9
ENDBRANCH   1   8
TORSDOF 9
ENDMDL
MODEL 6
REMARK VINA RESULT:    -3.411      2.497      7.838
REMARK INTER + INTRA:          -5.549
REMARK INTER:                  -5.125
REMARK INTRA:                  -0.424
REMARK UNBOUND:                -0.344
REMARK SMILES O=C([O-])CCCCCCCCC(=O)[O-]
REMARK SMILES IDX 7 1 6 2 5 3 4 4 2 5 1 6 3 7 8 8 9 9 10 10 11 11 12 12 13 13
REMARK SMILES IDX 14 14
REMARK H PARENT
REMARK Flexibility Score: inf
ROOT
ATOM      1  C   UNL     1      11.623   4.484  -1.934  1.00  0.00     0.000 C 
ENDROOT
BRANCH   1   2
ATOM      2  C   UNL     1      13.107   4.582  -1.526  1.00  0.00     0.000 C 
BRANCH   2   3
ATOM      3  C   UNL     1      14.019   3.495  -2.127  1.00  0.00     0.006 C 
BRANCH   3   4
ATOM      4  C   UNL     1      15.210   3.102  -1.239  1.00  0.00     0.053 C 
BRANCH   4   5
ATOM      5  C   UNL     1      15.983   1.954  -1.811  1.00  0.00     0.041 C 
ATOM      6  O   UNL     1      15.395   0.882  -2.111  1.00  0.00    -0.550 OA
ATOM      7  O   UNL     1      17.357   2.055  -1.981  1.00  0.00    -0.550 OA
ENDBRANCH   4   5
ENDBRANCH   3   4
ENDBRANCH   2   3
ENDBRANCH   1   2
BRANCH   1   8
ATOM      8  C   UNL     1      10.619   4.993  -0.880  1.00  0.00     0.000 C 
BRANCH   8   9
ATOM      9  C   UNL     1      10.750   6.485  -0.524  1.00  0.00     0.000 C 
BRANCH   9  10
ATOM     10  C   UNL     1       9.795   7.376  -1.331  1.00  0.00     0.006 C 
BRANCH  10  11
ATOM     11  C   UNL     1      10.512   8.004  -2.530  1.00  0.00     0.053 C 
BRANCH  11  12
ATOM     12  C   UNL     1      11.828   8.579  -2.112  1.00  0.00     0.041 C 
ATOM     13  O   UNL     1      11.868   9.604  -1.382  1.00  0.00    -0.550 OA
ATOM     14  O   UNL     1      13.010   7.954  -2.486  1.00  0.00    -0.550 OA
ENDBRANCH  11  12
ENDBRANCH  10  11
ENDBRANCH   9  10
ENDBRANCH   8   9
ENDBRANCH   1   8
TORSDOF 9
ENDMDL
MODEL 7
REMARK VINA RESULT:    -3.392      2.567      4.076
REMARK INTER + INTRA:          -5.520
REMARK INTER:                  -5.182
REMARK INTRA:                  -0.338
REMARK UNBOUND:                -0.344
REMARK SMILES O=C([O-])CCCCCCCCC(=O)[O-]
REMARK SMILES IDX 7 1 6 2 5 3 4 4 2 5 1 6 3 7 8 8 9 9 10 10 11 11 12 12 13 13
REMARK SMILES IDX 14 14
REMARK H PARENT
REMARK Flexibility Score: inf
ROOT
ATOM      1  C   UNL     1      11.949   4.998  -0.446  1.00  0.00     0.000 C 
ENDROOT
BRANCH   1   2
ATOM      2  C   UNL     1      10.651   5.384  -1.183  1.00  0.00     0.000 C 
BRANCH   2   3
ATOM      3  C   UNL     1      10.147   6.814  -0.908  1.00  0.00     0.006 C 
BRANCH   3   4
ATOM      4  C   UNL     1       9.347   7.439  -2.062  1.00  0.00     0.053 C 
BRANCH   4   5
ATOM      5  C   UNL     1       7.870   7.267  -1.878  1.00  0.00     0.041 C 
ATOM      6  O   UNL     1       7.244   6.406  -2.550  1.00  0.00    -0.550 OA
ATOM      7  O   UNL     1       7.180   8.082  -0.990  1.00  0.00    -0.550 OA
ENDBRANCH   4   5
ENDBRANCH   3   4
ENDBRANCH   2   3
ENDBRANCH   1   2
BRANCH   1   8
ATOM      8  C   UNL     1      13.119   4.576  -1.357  1.00  0.00     0.000 C 
BRANCH   8   9
ATOM      9  C   UNL     1      12.744   3.601  -2.487  1.00  0.00     0.000 C 
BRANCH   9  10
ATOM     10  C   UNL     1      13.909   2.689  -2.899  1.00  0.00     0.006 C 
BRANCH  10  11
ATOM     11  C   UNL     1      15.098   2.857  -1.949  1.00  0.00     0.053 C 
BRANCH  11  12
ATOM     12  C   UNL     1      16.083   1.747  -2.140  1.00  0.00     0.041 C 
ATOM     13  O   UNL     1      15.692   0.612  -2.522  1.00  0.00    -0.550 OA
ATOM     14  O   UNL     1      17.438   1.978  -1.946  1.00  0.00    -0.550 OA
ENDBRANCH  11  12
ENDBRANCH  10  11
ENDBRANCH   9  10
ENDBRANCH   8   9
ENDBRANCH   1   8
TORSDOF 9
ENDMDL
MODEL 8
REMARK VINA RESULT:    -3.379      2.394      3.877
REMARK INTER + INTRA:          -5.501
REMARK INTER:                  -4.945
REMARK INTRA:                  -0.556
REMARK UNBOUND:                -0.344
REMARK SMILES O=C([O-])CCCCCCCCC(=O)[O-]
REMARK SMILES IDX 7 1 6 2 5 3 4 4 2 5 1 6 3 7 8 8 9 9 10 10 11 11 12 12 13 13
REMARK SMILES IDX 14 14
REMARK H PARENT
REMARK Flexibility Score: inf
ROOT
ATOM      1  C   UNL     1      12.418   4.652  -0.531  1.00  0.00     0.000 C 
ENDROOT
BRANCH   1   2
ATOM      2  C   UNL     1      10.962   5.069  -0.821  1.00  0.00     0.000 C 
BRANCH   2   3
ATOM      3  C   UNL     1      10.629   6.539  -0.496  1.00  0.00     0.006 C 
BRANCH   3   4
ATOM      4  C   UNL     1      10.397   7.425  -1.729  1.00  0.00     0.053 C 
BRANCH   4   5
ATOM      5  C   UNL     1      11.487   8.438  -1.904  1.00  0.00     0.041 C 
ATOM      6  O   UNL     1      11.261   9.657  -1.685  1.00  0.00    -0.550 OA
ATOM      7  O   UNL     1      12.743   8.040  -2.342  1.00  0.00    -0.550 OA
ENDBRANCH   4   5
ENDBRANCH   3   4
ENDBRANCH   2   3
ENDBRANCH   1   2
BRANCH   1   8
ATOM      8  C   UNL     1      13.339   4.587  -1.765  1.00  0.00     0.000 C 
BRANCH   8   9
ATOM      9  C   UNL     1      12.880   3.618  -2.869  1.00  0.00     0.000 C 
BRANCH   9  10
ATOM     10  C   UNL     1      13.816   2.411  -3.030  1.00  0.00     0.006 C 
BRANCH  10  11
ATOM     11  C   UNL     1      15.281   2.856  -3.074  1.00  0.00     0.053 C 
BRANCH  11  12
ATOM     12  C   UNL     1      16.116   2.002  -2.175  1.00  0.00     0.041 C 
ATOM     13  O   UNL     1      15.574   1.321  -1.265  1.00  0.00    -0.550 OA
ATOM     14  O   UNL     1      17.488   1.917  -2.372  1.00  0.00    -0.550 OA
ENDBRANCH  11  12
ENDBRANCH  10  11
ENDBRANCH   9  10
ENDBRANCH   8   9
ENDBRANCH   1   8
TORSDOF 9
ENDMDL
MODEL 9
REMARK VINA RESULT:    -3.190      1.083      1.661
REMARK INTER + INTRA:          -5.212
REMARK INTER:                  -4.919
REMARK INTRA:                  -0.293
REMARK UNBOUND:                -0.344
REMARK SMILES O=C([O-])CCCCCCCCC(=O)[O-]
REMARK SMILES IDX 7 1 6 2 5 3 4 4 2 5 1 6 3 7 8 8 9 9 10 10 11 11 12 12 13 13
REMARK SMILES IDX 14 14
REMARK H PARENT
REMARK Flexibility Score: inf
ROOT
ATOM      1  C   UNL     1      13.117   2.642  -3.115  1.00  0.00     0.000 C 
ENDROOT
BRANCH   1   2
ATOM      2  C   UNL     1      12.143   3.693  -2.544  1.00  0.00     0.000 C 
BRANCH   2   3
ATOM      3  C   UNL     1      12.774   4.698  -1.560  1.00  0.00     0.006 C 
BRANCH   3   4
ATOM      4  C   UNL     1      12.613   6.171  -1.967  1.00  0.00     0.053 C 
BRANCH   4   5
ATOM      5  C   UNL     1      11.380   6.784  -1.375  1.00  0.00     0.041 C 
ATOM      6  O   UNL     1      10.984   7.913  -1.766  1.00  0.00    -0.550 OA
ATOM      7  O   UNL     1      10.689   6.122  -0.369  1.00  0.00    -0.550 OA
ENDBRANCH   4   5
ENDBRANCH   3   4
ENDBRANCH   2   3
ENDBRANCH   1   2
BRANCH   1   8
ATOM      8  C   UNL     1      14.555   2.715  -2.565  1.00  0.00     0.000 C 
BRANCH   8   9
ATOM      9  C   UNL     1      15.388   1.435  -2.752  1.00  0.00     0.000 C 
BRANCH   9  10
ATOM     10  C   UNL     1      16.829   1.581  -2.240  1.00  0.00     0.006 C 
BRANCH  10  11
ATOM     11  C   UNL     1      17.775   0.640  -2.992  1.00  0.00     0.053 C 
BRANCH  11  12
ATOM     12  C   UNL     1      19.200   0.954  -2.659  1.00  0.00     0.041 C 
ATOM     13  O   UNL     1      19.616   2.141  -2.715  1.00  0.00    -0.550 OA
ATOM     14  O   UNL     1      20.055  -0.055  -2.239  1.00  0.00    -0.550 OA
ENDBRANCH  11  12
ENDBRANCH  10  11
ENDBRANCH   9  10
ENDBRANCH   8   9
ENDBRANCH   1   8
TORSDOF 9
ENDMDL
