MODEL 1
REMARK VINA RESULT:    -3.181      0.000      0.000
REMARK INTER + INTRA:          -3.574
REMARK INTER:                  -3.552
REMARK INTRA:                  -0.021
REMARK UNBOUND:                -0.021
REMARK SMILES CCCC(=O)[O-]
REMARK SMILES IDX 3 1 4 2 5 3 6 4 2 5 1 6
REMARK H PARENT
REMARK Flexibility Score: inf
ROOT
ATOM      1  C   UNL     1     -40.578  20.650 -28.744  1.00  0.00     0.052 C 
ENDROOT
BRANCH   1   2
ATOM      2  C   UNL     1     -41.759  21.541 -28.504  1.00  0.00     0.041 C 
ATOM      3  O   UNL     1     -41.760  22.724 -28.936  1.00  0.00    -0.550 OA
ATOM      4  O   UNL     1     -42.844  21.075 -27.773  1.00  0.00    -0.550 OA
ENDBRANCH   1   2
BRANCH   1   5
ATOM      5  C   UNL     1     -40.328  20.432 -30.242  1.00  0.00     0.003 C 
ATOM      6  C   UNL     1     -40.744  19.037 -30.704  1.00  0.00     0.004 C 
ENDBRANCH   1   5
TORSDOF 2
ENDMDL
MODEL 2
REMARK VINA RESULT:    -3.170      2.748      3.540
REMARK INTER + INTRA:          -3.562
REMARK INTER:                  -3.535
REMARK INTRA:                  -0.027
REMARK UNBOUND:                -0.021
REMARK SMILES CCCC(=O)[O-]
REMARK SMILES IDX 3 1 4 2 5 3 6 4 2 5 1 6
REMARK H PARENT
REMARK Flexibility Score: inf
ROOT
ATOM      1  C   UNL     1     -40.421  20.570 -30.050  1.00  0.00     0.052 C 
ENDROOT
BRANCH   1   2
ATOM      2  C   UNL     1     -40.306  19.108 -30.361  1.00  0.00     0.041 C 
ATOM      3  O   UNL     1     -41.115  18.563 -31.157  1.00  0.00    -0.550 OA
ATOM      4  O   UNL     1     -39.325  18.342 -29.746  1.00  0.00    -0.550 OA
ENDBRANCH   1   2
BRANCH   1   5
ATOM      5  C   UNL     1     -40.623  20.815 -28.549  1.00  0.00     0.003 C 
ATOM      6  C   UNL     1     -42.077  21.134 -28.202  1.00  0.00     0.004 C 
ENDBRANCH   1   5
TORSDOF 2
ENDMDL
MODEL 3
REMARK VINA RESULT:    -3.146      1.248      1.397
REMARK INTER + INTRA:          -3.535
REMARK INTER:                  -3.483
REMARK INTRA:                  -0.052
REMARK UNBOUND:                -0.021
REMARK SMILES CCCC(=O)[O-]
REMARK SMILES IDX 3 1 4 2 5 3 6 4 2 5 1 6
REMARK H PARENT
REMARK Flexibility Score: inf
ROOT
ATOM      1  C   UNL     1     -40.738  21.254 -29.646  1.00  0.00     0.052 C 
ENDROOT
BRANCH   1   2
ATOM      2  C   UNL     1     -41.130  20.969 -28.228  1.00  0.00     0.041 C 
ATOM      3  O   UNL     1     -40.272  20.558 -27.402  1.00  0.00    -0.550 OA
ATOM      4  O   UNL     1     -42.451  21.124 -27.828  1.00  0.00    -0.550 OA
ENDBRANCH   1   2
BRANCH   1   5
ATOM      5  C   UNL     1     -39.914  20.107 -30.248  1.00  0.00     0.003 C 
ATOM      6  C   UNL     1     -40.793  18.976 -30.780  1.00  0.00     0.004 C 
ENDBRANCH   1   5
TORSDOF 2
ENDMDL
MODEL 4
REMARK VINA RESULT:    -3.132      2.387      3.115
REMARK INTER + INTRA:          -3.519
REMARK INTER:                  -3.477
REMARK INTRA:                  -0.042
REMARK UNBOUND:                -0.021
REMARK SMILES CCCC(=O)[O-]
REMARK SMILES IDX 3 1 4 2 5 3 6 4 2 5 1 6
REMARK H PARENT
REMARK Flexibility Score: inf
ROOT
ATOM      1  C   UNL     1     -40.130  20.232 -29.149  1.00  0.00     0.052 C 
ENDROOT
BRANCH   1   2
ATOM      2  C   UNL     1     -40.373  20.055 -30.617  1.00  0.00     0.041 C 
ATOM      3  O   UNL     1     -40.148  21.002 -31.417  1.00  0.00    -0.550 OA
ATOM      4  O   UNL     1     -40.881  18.855 -31.098  1.00  0.00    -0.550 OA
ENDBRANCH   1   2
BRANCH   1   5
ATOM      5  C   UNL     1     -40.870  21.457 -28.595  1.00  0.00     0.003 C 
ATOM      6  C   UNL     1     -42.270  21.112 -28.088  1.00  0.00     0.004 C 
ENDBRANCH   1   5
TORSDOF 2
ENDMDL
MODEL 5
REMARK VINA RESULT:    -3.022      3.103      3.523
REMARK INTER + INTRA:          -3.397
REMARK INTER:                  -3.367
REMARK INTRA:                  -0.030
REMARK UNBOUND:                -0.021
REMARK SMILES CCCC(=O)[O-]
REMARK SMILES IDX 3 1 4 2 5 3 6 4 2 5 1 6
REMARK H PARENT
REMARK Flexibility Score: inf
ROOT
ATOM      1  C   UNL     1     -39.389  19.051 -29.565  1.00  0.00     0.052 C 
ENDROOT
BRANCH   1   2
ATOM      2  C   UNL     1     -40.314  19.375 -30.698  1.00  0.00     0.041 C 
ATOM      3  O   UNL     1     -40.301  20.522 -31.220  1.00  0.00    -0.550 OA
ATOM      4  O   UNL     1     -41.214  18.421 -31.155  1.00  0.00    -0.550 OA
ENDBRANCH   1   2
BRANCH   1   5
ATOM      5  C   UNL     1     -38.041  18.517 -30.068  1.00  0.00     0.003 C 
ATOM      6  C   UNL     1     -36.885  19.466 -29.753  1.00  0.00     0.004 C 
ENDBRANCH   1   5
TORSDOF 2
ENDMDL
MODEL 6
REMARK VINA RESULT:    -2.980      2.451      3.214
REMARK INTER + INTRA:          -3.350
REMARK INTER:                  -3.312
REMARK INTRA:                  -0.038
REMARK UNBOUND:                -0.021
REMARK SMILES CCCC(=O)[O-]
REMARK SMILES IDX 3 1 4 2 5 3 6 4 2 5 1 6
REMARK H PARENT
REMARK Flexibility Score: inf
ROOT
ATOM      1  C   UNL     1     -40.112  20.644 -28.432  1.00  0.00     0.052 C 
ENDROOT
BRANCH   1   2
ATOM      2  C   UNL     1     -39.933  19.803 -29.660  1.00  0.00     0.041 C 
ATOM      3  O   UNL     1     -40.329  20.221 -30.780  1.00  0.00    -0.550 OA
ATOM      4  O   UNL     1     -39.358  18.543 -29.560  1.00  0.00    -0.550 OA
ENDBRANCH   1   2
BRANCH   1   5
ATOM      5  C   UNL     1     -41.263  21.647 -28.596  1.00  0.00     0.003 C 
ATOM      6  C   UNL     1     -42.555  21.161 -27.941  1.00  0.00     0.004 C 
ENDBRANCH   1   5
TORSDOF 2
ENDMDL
MODEL 7
REMARK VINA RESULT:    -2.940      1.211      2.068
REMARK INTER + INTRA:          -3.305
REMARK INTER:                  -3.270
REMARK INTRA:                  -0.035
REMARK UNBOUND:                -0.021
REMARK SMILES CCCC(=O)[O-]
REMARK SMILES IDX 3 1 4 2 5 3 6 4 2 5 1 6
REMARK H PARENT
REMARK Flexibility Score: inf
ROOT
ATOM      1  C   UNL     1     -40.734  20.667 -28.783  1.00  0.00     0.052 C 
ENDROOT
BRANCH   1   2
ATOM      2  C   UNL     1     -41.880  21.571 -28.441  1.00  0.00     0.041 C 
ATOM      3  O   UNL     1     -41.851  22.786 -28.770  1.00  0.00    -0.550 OA
ATOM      4  O   UNL     1     -42.965  21.077 -27.729  1.00  0.00    -0.550 OA
ENDBRANCH   1   2
BRANCH   1   5
ATOM      5  C   UNL     1     -39.711  20.593 -27.643  1.00  0.00     0.003 C 
ATOM      6  C   UNL     1     -38.439  21.381 -27.950  1.00  0.00     0.004 C 
ENDBRANCH   1   5
TORSDOF 2
ENDMDL
MODEL 8
REMARK VINA RESULT:    -2.825     16.694     17.068
REMARK INTER + INTRA:          -3.177
REMARK INTER:                  -3.171
REMARK INTRA:                  -0.005
REMARK UNBOUND:                -0.021
REMARK SMILES CCCC(=O)[O-]
REMARK SMILES IDX 3 1 4 2 5 3 6 4 2 5 1 6
REMARK H PARENT
REMARK Flexibility Score: inf
ROOT
ATOM      1  C   UNL     1     -54.829  24.185 -37.884  1.00  0.00     0.052 C 
ENDROOT
BRANCH   1   2
ATOM      2  C   UNL     1     -54.682  24.104 -39.373  1.00  0.00     0.041 C 
ATOM      3  O   UNL     1     -55.610  24.506 -40.125  1.00  0.00    -0.550 OA
ATOM      4  O   UNL     1     -53.536  23.553 -39.929  1.00  0.00    -0.550 OA
ENDBRANCH   1   2
BRANCH   1   5
ATOM      5  C   UNL     1     -55.933  23.252 -37.371  1.00  0.00     0.003 C 
ATOM      6  C   UNL     1     -55.736  22.867 -35.905  1.00  0.00     0.004 C 
ENDBRANCH   1   5
TORSDOF 2
ENDMDL
MODEL 9
REMARK VINA RESULT:    -2.758      3.286      3.809
REMARK INTER + INTRA:          -3.102
REMARK INTER:                  -3.064
REMARK INTRA:                  -0.038
REMARK UNBOUND:                -0.021
REMARK SMILES CCCC(=O)[O-]
REMARK SMILES IDX 3 1 4 2 5 3 6 4 2 5 1 6
REMARK H PARENT
REMARK Flexibility Score: inf
ROOT
ATOM      1  C   UNL     1     -40.171  19.025 -30.378  1.00  0.00     0.052 C 
ENDROOT
BRANCH   1   2
ATOM      2  C   UNL     1     -38.956  18.665 -29.579  1.00  0.00     0.041 C 
ATOM      3  O   UNL     1     -38.005  18.038 -30.116  1.00  0.00    -0.550 OA
ATOM      4  O   UNL     1     -38.890  18.992 -28.231  1.00  0.00    -0.550 OA
ENDBRANCH   1   2
BRANCH   1   5
ATOM      5  C   UNL     1     -40.574  20.491 -30.168  1.00  0.00     0.003 C 
ATOM      6  C   UNL     1     -39.942  21.422 -31.201  1.00  0.00     0.004 C 
ENDBRANCH   1   5
TORSDOF 2
ENDMDL
