MODEL 1
REMARK VINA RESULT:    -2.722      0.000      0.000
REMARK INTER + INTRA:          -4.129
REMARK INTER:                  -3.677
REMARK INTRA:                  -0.452
REMARK UNBOUND:                -0.452
REMARK SMILES CCCCCCCC=O
REMARK SMILES IDX 5 1 4 2 3 3 2 4 1 5 6 6 7 7 8 8 9 9
REMARK H PARENT
REMARK Flexibility Score: inf
ROOT
ATOM      1  C   UNL     1      -7.614  22.475  13.211  1.00  0.00     0.000 C 
ENDROOT
BRANCH   1   2
ATOM      2  C   UNL     1      -8.645  21.605  13.947  1.00  0.00     0.000 C 
BRANCH   2   3
ATOM      3  C   UNL     1      -8.782  20.202  13.336  1.00  0.00    -0.000 C 
BRANCH   3   4
ATOM      4  C   UNL     1     -10.152  19.974  12.679  1.00  0.00    -0.003 C 
ATOM      5  C   UNL     1     -10.194  20.572  11.275  1.00  0.00     0.004 C 
ENDBRANCH   3   4
ENDBRANCH   2   3
ENDBRANCH   1   2
BRANCH   1   6
ATOM      6  C   UNL     1      -6.697  21.612  12.332  1.00  0.00     0.008 C 
BRANCH   6   7
ATOM      7  C   UNL     1      -6.673  22.078  10.868  1.00  0.00     0.072 C 
BRANCH   7   8
ATOM      8  C   UNL     1      -5.621  23.119  10.617  1.00  0.00     0.224 C 
ATOM      9  O   UNL     1      -4.568  23.102  11.233  1.00  0.00    -0.303 OA
ENDBRANCH   7   8
ENDBRANCH   6   7
ENDBRANCH   1   6
TORSDOF 6
ENDMDL
MODEL 2
REMARK VINA RESULT:    -2.562      1.884      3.161
REMARK INTER + INTRA:          -3.912
REMARK INTER:                  -3.607
REMARK INTRA:                  -0.305
REMARK UNBOUND:                -0.452
REMARK SMILES CCCCCCCC=O
REMARK SMILES IDX 5 1 4 2 3 3 2 4 1 5 6 6 7 7 8 8 9 9
REMARK H PARENT
REMARK Flexibility Score: inf
ROOT
ATOM      1  C   UNL     1      -5.851  23.206  10.169  1.00  0.00     0.000 C 
ENDROOT
BRANCH   1   2
ATOM      2  C   UNL     1      -6.664  21.996  10.652  1.00  0.00     0.000 C 
BRANCH   2   3
ATOM      3  C   UNL     1      -6.473  21.712  12.150  1.00  0.00    -0.000 C 
BRANCH   3   4
ATOM      4  C   UNL     1      -7.769  21.258  12.836  1.00  0.00    -0.003 C 
ATOM      5  C   UNL     1      -8.970  21.429  11.910  1.00  0.00     0.004 C 
ENDBRANCH   3   4
ENDBRANCH   2   3
ENDBRANCH   1   2
BRANCH   1   6
ATOM      6  C   UNL     1      -4.846  23.656  11.241  1.00  0.00     0.008 C 
BRANCH   6   7
ATOM      7  C   UNL     1      -3.414  23.771  10.697  1.00  0.00     0.072 C 
BRANCH   7   8
ATOM      8  C   UNL     1      -3.383  24.001   9.214  1.00  0.00     0.224 C 
ATOM      9  O   UNL     1      -2.618  24.816   8.725  1.00  0.00    -0.303 OA
ENDBRANCH   7   8
ENDBRANCH   6   7
ENDBRANCH   1   6
TORSDOF 6
ENDMDL
MODEL 3
REMARK VINA RESULT:    -2.552      1.782      3.070
REMARK INTER + INTRA:          -3.899
REMARK INTER:                  -3.701
REMARK INTRA:                  -0.198
REMARK UNBOUND:                -0.452
REMARK SMILES CCCCCCCC=O
REMARK SMILES IDX 5 1 4 2 3 3 2 4 1 5 6 6 7 7 8 8 9 9
REMARK H PARENT
REMARK Flexibility Score: inf
ROOT
ATOM      1  C   UNL     1      -6.650  22.275   9.991  1.00  0.00     0.000 C 
ENDROOT
BRANCH   1   2
ATOM      2  C   UNL     1      -6.237  22.519  11.449  1.00  0.00     0.000 C 
BRANCH   2   3
ATOM      3  C   UNL     1      -6.773  21.443  12.407  1.00  0.00    -0.000 C 
BRANCH   3   4
ATOM      4  C   UNL     1      -8.307  21.369  12.413  1.00  0.00    -0.003 C 
ATOM      5  C   UNL     1      -8.800  20.268  13.349  1.00  0.00     0.004 C 
ENDBRANCH   3   4
ENDBRANCH   2   3
ENDBRANCH   1   2
BRANCH   1   6
ATOM      6  C   UNL     1      -5.859  23.183   9.037  1.00  0.00     0.008 C 
BRANCH   6   7
ATOM      7  C   UNL     1      -4.702  23.911   9.736  1.00  0.00     0.072 C 
BRANCH   7   8
ATOM      8  C   UNL     1      -3.447  23.913   8.912  1.00  0.00     0.224 C 
ATOM      9  O   UNL     1      -2.636  24.819   9.012  1.00  0.00    -0.303 OA
ENDBRANCH   7   8
ENDBRANCH   6   7
ENDBRANCH   1   6
TORSDOF 6
ENDMDL
MODEL 4
REMARK VINA RESULT:    -2.533      1.379      2.704
REMARK INTER + INTRA:          -3.873
REMARK INTER:                  -3.557
REMARK INTRA:                  -0.317
REMARK UNBOUND:                -0.452
REMARK SMILES CCCCCCCC=O
REMARK SMILES IDX 5 1 4 2 3 3 2 4 1 5 6 6 7 7 8 8 9 9
REMARK H PARENT
REMARK Flexibility Score: inf
ROOT
ATOM      1  C   UNL     1      -6.741  21.355  12.474  1.00  0.00     0.000 C 
ENDROOT
BRANCH   1   2
ATOM      2  C   UNL     1      -8.232  21.143  12.775  1.00  0.00     0.000 C 
BRANCH   2   3
ATOM      3  C   UNL     1      -8.646  21.705  14.144  1.00  0.00    -0.000 C 
BRANCH   3   4
ATOM      4  C   UNL     1      -8.032  23.084  14.429  1.00  0.00    -0.003 C 
ATOM      5  C   UNL     1      -7.958  23.353  15.929  1.00  0.00     0.004 C 
ENDBRANCH   3   4
ENDBRANCH   2   3
ENDBRANCH   1   2
BRANCH   1   6
ATOM      6  C   UNL     1      -6.549  22.117  11.154  1.00  0.00     0.008 C 
BRANCH   6   7
ATOM      7  C   UNL     1      -5.903  23.496  11.356  1.00  0.00     0.072 C 
BRANCH   7   8
ATOM      8  C   UNL     1      -4.560  23.599  10.693  1.00  0.00     0.224 C 
ATOM      9  O   UNL     1      -3.544  23.281  11.290  1.00  0.00    -0.303 OA
ENDBRANCH   7   8
ENDBRANCH   6   7
ENDBRANCH   1   6
TORSDOF 6
ENDMDL
MODEL 5
REMARK VINA RESULT:    -2.513      3.303      4.882
REMARK INTER + INTRA:          -3.847
REMARK INTER:                  -3.710
REMARK INTRA:                  -0.137
REMARK UNBOUND:                -0.452
REMARK SMILES CCCCCCCC=O
REMARK SMILES IDX 5 1 4 2 3 3 2 4 1 5 6 6 7 7 8 8 9 9
REMARK H PARENT
REMARK Flexibility Score: inf
ROOT
ATOM      1  C   UNL     1      -8.332  22.606  14.742  1.00  0.00     0.000 C 
ENDROOT
BRANCH   1   2
ATOM      2  C   UNL     1      -8.763  23.131  16.120  1.00  0.00     0.000 C 
BRANCH   2   3
ATOM      3  C   UNL     1      -7.615  23.815  16.880  1.00  0.00    -0.000 C 
BRANCH   3   4
ATOM      4  C   UNL     1      -7.991  24.168  18.326  1.00  0.00    -0.003 C 
ATOM      5  C   UNL     1      -8.142  25.676  18.502  1.00  0.00     0.004 C 
ENDBRANCH   3   4
ENDBRANCH   2   3
ENDBRANCH   1   2
BRANCH   1   6
ATOM      6  C   UNL     1      -9.125  21.346  14.362  1.00  0.00     0.008 C 
BRANCH   6   7
ATOM      7  C   UNL     1      -8.485  20.573  13.199  1.00  0.00     0.072 C 
BRANCH   7   8
ATOM      8  C   UNL     1      -7.321  21.306  12.599  1.00  0.00     0.224 C 
ATOM      9  O   UNL     1      -6.255  20.741  12.417  1.00  0.00    -0.303 OA
ENDBRANCH   7   8
ENDBRANCH   6   7
ENDBRANCH   1   6
TORSDOF 6
ENDMDL
MODEL 6
REMARK VINA RESULT:    -2.513      2.694      5.823
REMARK INTER + INTRA:          -3.846
REMARK INTER:                  -3.633
REMARK INTRA:                  -0.213
REMARK UNBOUND:                -0.452
REMARK SMILES CCCCCCCC=O
REMARK SMILES IDX 5 1 4 2 3 3 2 4 1 5 6 6 7 7 8 8 9 9
REMARK H PARENT
REMARK Flexibility Score: inf
ROOT
ATOM      1  C   UNL     1      -5.545  23.339  11.240  1.00  0.00     0.000 C 
ENDROOT
BRANCH   1   2
ATOM      2  C   UNL     1      -4.927  23.694   9.880  1.00  0.00     0.000 C 
BRANCH   2   3
ATOM      3  C   UNL     1      -3.401  23.863   9.947  1.00  0.00    -0.000 C 
BRANCH   3   4
ATOM      4  C   UNL     1      -2.872  23.894  11.389  1.00  0.00    -0.003 C 
ATOM      5  C   UNL     1      -1.837  25.000  11.570  1.00  0.00     0.004 C 
ENDBRANCH   3   4
ENDBRANCH   2   3
ENDBRANCH   1   2
BRANCH   1   6
ATOM      6  C   UNL     1      -6.509  22.150  11.112  1.00  0.00     0.008 C 
BRANCH   6   7
ATOM      7  C   UNL     1      -6.660  21.367  12.425  1.00  0.00     0.072 C 
BRANCH   7   8
ATOM      8  C   UNL     1      -8.086  20.994  12.706  1.00  0.00     0.224 C 
ATOM      9  O   UNL     1      -8.358  20.172  13.566  1.00  0.00    -0.303 OA
ENDBRANCH   7   8
ENDBRANCH   6   7
ENDBRANCH   1   6
TORSDOF 6
ENDMDL
MODEL 7
REMARK VINA RESULT:    -2.439      2.991      5.037
REMARK INTER + INTRA:          -3.746
REMARK INTER:                  -3.568
REMARK INTRA:                  -0.178
REMARK UNBOUND:                -0.452
REMARK SMILES CCCCCCCC=O
REMARK SMILES IDX 5 1 4 2 3 3 2 4 1 5 6 6 7 7 8 8 9 9
REMARK H PARENT
REMARK Flexibility Score: inf
ROOT
ATOM      1  C   UNL     1      -6.612  22.169   9.950  1.00  0.00     0.000 C 
ENDROOT
BRANCH   1   2
ATOM      2  C   UNL     1      -5.714  23.094   9.115  1.00  0.00     0.000 C 
BRANCH   2   3
ATOM      3  C   UNL     1      -5.826  22.826   7.606  1.00  0.00    -0.000 C 
BRANCH   3   4
ATOM      4  C   UNL     1      -6.763  21.653   7.281  1.00  0.00    -0.003 C 
ATOM      5  C   UNL     1      -6.271  20.878   6.063  1.00  0.00     0.004 C 
ENDBRANCH   3   4
ENDBRANCH   2   3
ENDBRANCH   1   2
BRANCH   1   6
ATOM      6  C   UNL     1      -6.619  22.596  11.425  1.00  0.00     0.008 C 
BRANCH   6   7
ATOM      7  C   UNL     1      -6.688  21.399  12.387  1.00  0.00     0.072 C 
BRANCH   7   8
ATOM      8  C   UNL     1      -8.091  21.108  12.835  1.00  0.00     0.224 C 
ATOM      9  O   UNL     1      -8.334  20.140  13.537  1.00  0.00    -0.303 OA
ENDBRANCH   7   8
ENDBRANCH   6   7
ENDBRANCH   1   6
TORSDOF 6
ENDMDL
MODEL 8
REMARK VINA RESULT:    -2.391      2.718      4.077
REMARK INTER + INTRA:          -3.682
REMARK INTER:                  -3.371
REMARK INTRA:                  -0.311
REMARK UNBOUND:                -0.452
REMARK SMILES CCCCCCCC=O
REMARK SMILES IDX 5 1 4 2 3 3 2 4 1 5 6 6 7 7 8 8 9 9
REMARK H PARENT
REMARK Flexibility Score: inf
ROOT
ATOM      1  C   UNL     1      -8.654  21.543  14.235  1.00  0.00     0.000 C 
ENDROOT
BRANCH   1   2
ATOM      2  C   UNL     1      -8.248  20.995  12.860  1.00  0.00     0.000 C 
BRANCH   2   3
ATOM      3  C   UNL     1      -6.809  21.371  12.472  1.00  0.00    -0.000 C 
BRANCH   3   4
ATOM      4  C   UNL     1      -6.720  22.017  11.081  1.00  0.00    -0.003 C 
ATOM      5  C   UNL     1      -8.099  22.119  10.434  1.00  0.00     0.004 C 
ENDBRANCH   3   4
ENDBRANCH   2   3
ENDBRANCH   1   2
BRANCH   1   6
ATOM      6  C   UNL     1      -8.200  23.002  14.401  1.00  0.00     0.008 C 
BRANCH   6   7
ATOM      7  C   UNL     1      -7.935  23.376  15.867  1.00  0.00     0.072 C 
BRANCH   7   8
ATOM      8  C   UNL     1      -7.596  24.829  16.032  1.00  0.00     0.224 C 
ATOM      9  O   UNL     1      -6.722  25.181  16.807  1.00  0.00    -0.303 OA
ENDBRANCH   7   8
ENDBRANCH   6   7
ENDBRANCH   1   6
TORSDOF 6
ENDMDL
MODEL 9
REMARK VINA RESULT:    -2.351      1.585      2.972
REMARK INTER + INTRA:          -3.627
REMARK INTER:                  -3.229
REMARK INTRA:                  -0.398
REMARK UNBOUND:                -0.452
REMARK SMILES CCCCCCCC=O
REMARK SMILES IDX 5 1 4 2 3 3 2 4 1 5 6 6 7 7 8 8 9 9
REMARK H PARENT
REMARK Flexibility Score: inf
ROOT
ATOM      1  C   UNL     1      -8.797  20.758  13.845  1.00  0.00     0.000 C 
ENDROOT
BRANCH   1   2
ATOM      2  C   UNL     1     -10.148  21.414  14.165  1.00  0.00     0.000 C 
BRANCH   2   3
ATOM      3  C   UNL     1      -9.998  22.750  14.910  1.00  0.00    -0.000 C 
BRANCH   3   4
ATOM      4  C   UNL     1      -8.719  22.813  15.757  1.00  0.00    -0.003 C 
ATOM      5  C   UNL     1      -7.881  24.038  15.398  1.00  0.00     0.004 C 
ENDBRANCH   3   4
ENDBRANCH   2   3
ENDBRANCH   1   2
BRANCH   1   6
ATOM      6  C   UNL     1      -8.279  21.208  12.470  1.00  0.00     0.008 C 
BRANCH   6   7
ATOM      7  C   UNL     1      -6.754  21.391  12.443  1.00  0.00     0.072 C 
BRANCH   7   8
ATOM      8  C   UNL     1      -6.338  22.602  11.661  1.00  0.00     0.224 C 
ATOM      9  O   UNL     1      -5.180  22.747  11.305  1.00  0.00    -0.303 OA
ENDBRANCH   7   8
ENDBRANCH   6   7
ENDBRANCH   1   6
TORSDOF 6
ENDMDL
