MODEL 1
REMARK VINA RESULT:    -4.407      0.000      0.000
REMARK INTER + INTRA:         -13.002
REMARK INTER:                  -9.559
REMARK INTRA:                  -3.443
REMARK UNBOUND:                -3.443
REMARK SMILES CCCCCCCCCCCCCCCCCCCCCC(=O)[O-]
REMARK SMILES IDX 12 1 11 2 10 3 9 4 8 5 7 6 6 7 5 8 4 9 3 10 2 11 1 12 13 13
REMARK SMILES IDX 14 14 15 15 16 16 17 17 18 18 19 19 20 20 21 21 22 22 23 23
REMARK SMILES IDX 24 24
REMARK H PARENT
REMARK Flexibility Score: inf
ROOT
ATOM      1  C   UNL     1      -3.812   7.468  14.244  1.00  0.00     0.000 C 
ENDROOT
BRANCH   1   2
ATOM      2  C   UNL     1      -3.095   8.108  13.041  1.00  0.00     0.000 C 
BRANCH   2   3
ATOM      3  C   UNL     1      -4.001   8.443  11.840  1.00  0.00     0.000 C 
BRANCH   3   4
ATOM      4  C   UNL     1      -3.758   7.590  10.582  1.00  0.00    -0.000 C 
BRANCH   4   5
ATOM      5  C   UNL     1      -5.063   7.136   9.908  1.00  0.00    -0.000 C 
BRANCH   5   6
ATOM      6  C   UNL     1      -6.208   7.058  10.928  1.00  0.00    -0.000 C 
BRANCH   6   7
ATOM      7  C   UNL     1      -6.575   5.612  11.306  1.00  0.00    -0.000 C 
BRANCH   7   8
ATOM      8  C   UNL     1      -5.699   4.981  12.407  1.00  0.00    -0.000 C 
BRANCH   8   9
ATOM      9  C   UNL     1      -6.458   4.549  13.675  1.00  0.00    -0.000 C 
BRANCH   9  10
ATOM     10  C   UNL     1      -7.983   4.695  13.534  1.00  0.00    -0.000 C 
BRANCH  10  11
ATOM     11  C   UNL     1      -8.544   5.839  14.390  1.00  0.00    -0.003 C 
ATOM     12  C   UNL     1     -10.040   6.063  14.169  1.00  0.00     0.004 C 
ENDBRANCH  10  11
ENDBRANCH   9  10
ENDBRANCH   8   9
ENDBRANCH   7   8
ENDBRANCH   6   7
ENDBRANCH   5   6
ENDBRANCH   4   5
ENDBRANCH   3   4
ENDBRANCH   2   3
ENDBRANCH   1   2
BRANCH   1  13
ATOM     13  C   UNL     1      -5.244   7.988  14.427  1.00  0.00     0.000 C 
BRANCH  13  14
ATOM     14  C   UNL     1      -5.285   9.168  15.406  1.00  0.00     0.000 C 
BRANCH  14  15
ATOM     15  C   UNL     1      -5.821   8.771  16.800  1.00  0.00     0.000 C 
BRANCH  15  16
ATOM     16  C   UNL     1      -6.691   7.499  16.797  1.00  0.00     0.000 C 
BRANCH  16  17
ATOM     17  C   UNL     1      -6.158   6.348  17.669  1.00  0.00     0.000 C 
BRANCH  17  18
ATOM     18  C   UNL     1      -5.104   5.470  16.957  1.00  0.00     0.000 C 
BRANCH  18  19
ATOM     19  C   UNL     1      -5.396   3.968  17.092  1.00  0.00     0.000 C 
BRANCH  19  20
ATOM     20  C   UNL     1      -4.258   3.131  16.495  1.00  0.00     0.006 C 
BRANCH  20  21
ATOM     21  C   UNL     1      -3.258   4.016  15.745  1.00  0.00     0.053 C 
BRANCH  21  22
ATOM     22  C   UNL     1      -1.855   3.618  16.081  1.00  0.00     0.041 C 
ATOM     23  O   UNL     1      -1.634   2.555  16.719  1.00  0.00    -0.550 OA
ATOM     24  O   UNL     1      -0.787   4.392  15.641  1.00  0.00    -0.550 OA
ENDBRANCH  21  22
ENDBRANCH  20  21
ENDBRANCH  19  20
ENDBRANCH  18  19
ENDBRANCH  17  18
ENDBRANCH  16  17
ENDBRANCH  15  16
ENDBRANCH  14  15
ENDBRANCH  13  14
ENDBRANCH   1  13
TORSDOF 20
ENDMDL
MODEL 2
REMARK VINA RESULT:    -4.322      3.277      5.483
REMARK INTER + INTRA:         -12.819
REMARK INTER:                 -10.308
REMARK INTRA:                  -2.511
REMARK UNBOUND:                -3.443
REMARK SMILES CCCCCCCCCCCCCCCCCCCCCC(=O)[O-]
REMARK SMILES IDX 12 1 11 2 10 3 9 4 8 5 7 6 6 7 5 8 4 9 3 10 2 11 1 12 13 13
REMARK SMILES IDX 14 14 15 15 16 16 17 17 18 18 19 19 20 20 21 21 22 22 23 23
REMARK SMILES IDX 24 24
REMARK H PARENT
REMARK Flexibility Score: inf
ROOT
ATOM      1  C   UNL     1      -4.949   5.675  17.016  1.00  0.00     0.000 C 
ENDROOT
BRANCH   1   2
ATOM      2  C   UNL     1      -6.004   6.685  17.501  1.00  0.00     0.000 C 
BRANCH   2   3
ATOM      3  C   UNL     1      -6.163   7.942  16.621  1.00  0.00     0.000 C 
BRANCH   3   4
ATOM      4  C   UNL     1      -7.255   7.845  15.540  1.00  0.00    -0.000 C 
BRANCH   4   5
ATOM      5  C   UNL     1      -8.337   6.807  15.875  1.00  0.00    -0.000 C 
BRANCH   5   6
ATOM      6  C   UNL     1      -9.166   6.459  14.632  1.00  0.00    -0.000 C 
BRANCH   6   7
ATOM      7  C   UNL     1      -8.747   5.125  13.987  1.00  0.00    -0.000 C 
BRANCH   7   8
ATOM      8  C   UNL     1      -7.245   5.000  13.661  1.00  0.00    -0.000 C 
BRANCH   8   9
ATOM      9  C   UNL     1      -6.862   5.352  12.213  1.00  0.00    -0.000 C 
BRANCH   9  10
ATOM     10  C   UNL     1      -5.539   6.133  12.120  1.00  0.00    -0.000 C 
BRANCH  10  11
ATOM     11  C   UNL     1      -4.864   6.308  13.487  1.00  0.00    -0.003 C 
ATOM     12  C   UNL     1      -3.933   7.520  13.535  1.00  0.00     0.004 C 
ENDBRANCH  10  11
ENDBRANCH   9  10
ENDBRANCH   8   9
ENDBRANCH   7   8
ENDBRANCH   6   7
ENDBRANCH   5   6
ENDBRANCH   4   5
ENDBRANCH   3   4
ENDBRANCH   2   3
ENDBRANCH   1   2
BRANCH   1  13
ATOM     13  C   UNL     1      -5.513   4.256  16.858  1.00  0.00     0.000 C 
BRANCH  13  14
ATOM     14  C   UNL     1      -4.419   3.268  16.435  1.00  0.00     0.000 C 
BRANCH  14  15
ATOM     15  C   UNL     1      -3.441   3.865  15.398  1.00  0.00     0.000 C 
BRANCH  15  16
ATOM     16  C   UNL     1      -1.958   3.762  15.805  1.00  0.00     0.000 C 
BRANCH  16  17
ATOM     17  C   UNL     1      -1.323   5.084  16.275  1.00  0.00     0.000 C 
BRANCH  17  18
ATOM     18  C   UNL     1      -0.439   4.932  17.533  1.00  0.00     0.000 C 
BRANCH  18  19
ATOM     19  C   UNL     1       0.282   6.234  17.911  1.00  0.00     0.000 C 
BRANCH  19  20
ATOM     20  C   UNL     1      -0.037   6.640  19.355  1.00  0.00     0.006 C 
BRANCH  20  21
ATOM     21  C   UNL     1       0.592   7.994  19.698  1.00  0.00     0.053 C 
BRANCH  21  22
ATOM     22  C   UNL     1       1.536   7.853  20.850  1.00  0.00     0.041 C 
ATOM     23  O   UNL     1       1.481   6.838  21.594  1.00  0.00    -0.550 OA
ATOM     24  O   UNL     1       2.515   8.816  21.071  1.00  0.00    -0.550 OA
ENDBRANCH  21  22
ENDBRANCH  20  21
ENDBRANCH  19  20
ENDBRANCH  18  19
ENDBRANCH  17  18
ENDBRANCH  16  17
ENDBRANCH  15  16
ENDBRANCH  14  15
ENDBRANCH  13  14
ENDBRANCH   1  13
TORSDOF 20
ENDMDL
MODEL 3
REMARK VINA RESULT:    -4.306      4.023      6.185
REMARK INTER + INTRA:         -12.784
REMARK INTER:                 -10.763
REMARK INTRA:                  -2.020
REMARK UNBOUND:                -3.443
REMARK SMILES CCCCCCCCCCCCCCCCCCCCCC(=O)[O-]
REMARK SMILES IDX 12 1 11 2 10 3 9 4 8 5 7 6 6 7 5 8 4 9 3 10 2 11 1 12 13 13
REMARK SMILES IDX 14 14 15 15 16 16 17 17 18 18 19 19 20 20 21 21 22 22 23 23
REMARK SMILES IDX 24 24
REMARK H PARENT
REMARK Flexibility Score: inf
ROOT
ATOM      1  C   UNL     1      -2.573   9.609  12.357  1.00  0.00     0.000 C 
ENDROOT
BRANCH   1   2
ATOM      2  C   UNL     1      -3.191   8.200  12.294  1.00  0.00     0.000 C 
BRANCH   2   3
ATOM      3  C   UNL     1      -3.557   7.583  13.659  1.00  0.00     0.000 C 
BRANCH   3   4
ATOM      4  C   UNL     1      -4.479   8.447  14.539  1.00  0.00    -0.000 C 
BRANCH   4   5
ATOM      5  C   UNL     1      -5.761   7.713  14.960  1.00  0.00    -0.000 C 
BRANCH   5   6
ATOM      6  C   UNL     1      -5.961   7.786  16.480  1.00  0.00    -0.000 C 
BRANCH   6   7
ATOM      7  C   UNL     1      -5.728   6.436  17.181  1.00  0.00    -0.000 C 
BRANCH   7   8
ATOM      8  C   UNL     1      -4.387   5.750  16.851  1.00  0.00    -0.000 C 
BRANCH   8   9
ATOM      9  C   UNL     1      -4.505   4.443  16.048  1.00  0.00    -0.000 C 
BRANCH   9  10
ATOM     10  C   UNL     1      -3.230   4.115  15.252  1.00  0.00    -0.000 C 
BRANCH  10  11
ATOM     11  C   UNL     1      -2.011   4.908  15.744  1.00  0.00    -0.003 C 
ATOM     12  C   UNL     1      -1.069   4.068  16.607  1.00  0.00     0.004 C 
ENDBRANCH  10  11
ENDBRANCH   9  10
ENDBRANCH   8   9
ENDBRANCH   7   8
ENDBRANCH   6   7
ENDBRANCH   5   6
ENDBRANCH   4   5
ENDBRANCH   3   4
ENDBRANCH   2   3
ENDBRANCH   1   2
BRANCH   1  13
ATOM     13  C   UNL     1      -1.041   9.591  12.257  1.00  0.00     0.000 C 
BRANCH  13  14
ATOM     14  C   UNL     1      -0.421  10.760  13.032  1.00  0.00     0.000 C 
BRANCH  14  15
ATOM     15  C   UNL     1      -0.683  10.677  14.553  1.00  0.00     0.000 C 
BRANCH  15  16
ATOM     16  C   UNL     1       0.245   9.696  15.295  1.00  0.00     0.000 C 
BRANCH  16  17
ATOM     17  C   UNL     1       1.522  10.328  15.879  1.00  0.00     0.000 C 
BRANCH  17  18
ATOM     18  C   UNL     1       2.076   9.578  17.111  1.00  0.00     0.000 C 
BRANCH  18  19
ATOM     19  C   UNL     1       1.143   8.456  17.589  1.00  0.00     0.000 C 
BRANCH  19  20
ATOM     20  C   UNL     1       0.997   8.475  19.115  1.00  0.00     0.006 C 
BRANCH  20  21
ATOM     21  C   UNL     1       0.273   7.221  19.615  1.00  0.00     0.053 C 
BRANCH  21  22
ATOM     22  C   UNL     1       0.512   7.030  21.079  1.00  0.00     0.041 C 
ATOM     23  O   UNL     1       1.688   6.991  21.529  1.00  0.00    -0.550 OA
ATOM     24  O   UNL     1      -0.564   6.950  21.956  1.00  0.00    -0.550 OA
ENDBRANCH  21  22
ENDBRANCH  20  21
ENDBRANCH  19  20
ENDBRANCH  18  19
ENDBRANCH  17  18
ENDBRANCH  16  17
ENDBRANCH  15  16
ENDBRANCH  14  15
ENDBRANCH  13  14
ENDBRANCH   1  13
TORSDOF 20
ENDMDL
MODEL 4
REMARK VINA RESULT:    -4.256      4.307      7.059
REMARK INTER + INTRA:         -12.674
REMARK INTER:                 -11.264
REMARK INTRA:                  -1.410
REMARK UNBOUND:                -3.443
REMARK SMILES CCCCCCCCCCCCCCCCCCCCCC(=O)[O-]
REMARK SMILES IDX 12 1 11 2 10 3 9 4 8 5 7 6 6 7 5 8 4 9 3 10 2 11 1 12 13 13
REMARK SMILES IDX 14 14 15 15 16 16 17 17 18 18 19 19 20 20 21 21 22 22 23 23
REMARK SMILES IDX 24 24
REMARK H PARENT
REMARK Flexibility Score: inf
ROOT
ATOM      1  C   UNL     1      -1.738   8.881  13.001  1.00  0.00     0.000 C 
ENDROOT
BRANCH   1   2
ATOM      2  C   UNL     1      -1.406  10.030  13.970  1.00  0.00     0.000 C 
BRANCH   2   3
ATOM      3  C   UNL     1       0.077  10.134  14.381  1.00  0.00     0.000 C 
BRANCH   3   4
ATOM      4  C   UNL     1       0.357   9.898  15.876  1.00  0.00    -0.000 C 
BRANCH   4   5
ATOM      5  C   UNL     1       1.832  10.116  16.247  1.00  0.00    -0.000 C 
BRANCH   5   6
ATOM      6  C   UNL     1       2.289   9.095  17.298  1.00  0.00    -0.000 C 
BRANCH   6   7
ATOM      7  C   UNL     1       1.113   8.410  18.018  1.00  0.00    -0.000 C 
BRANCH   7   8
ATOM      8  C   UNL     1       0.926   8.811  19.495  1.00  0.00    -0.000 C 
BRANCH   8   9
ATOM      9  C   UNL     1       0.508   7.664  20.432  1.00  0.00    -0.000 C 
BRANCH   9  10
ATOM     10  C   UNL     1       1.631   7.246  21.398  1.00  0.00    -0.000 C 
BRANCH  10  11
ATOM     11  C   UNL     1       1.090   6.749  22.746  1.00  0.00    -0.003 C 
ATOM     12  C   UNL     1      -0.437   6.688  22.784  1.00  0.00     0.004 C 
ENDBRANCH  10  11
ENDBRANCH   9  10
ENDBRANCH   8   9
ENDBRANCH   7   8
ENDBRANCH   6   7
ENDBRANCH   5   6
ENDBRANCH   4   5
ENDBRANCH   3   4
ENDBRANCH   2   3
ENDBRANCH   1   2
BRANCH   1  13
ATOM     13  C   UNL     1      -2.919   9.207  12.075  1.00  0.00     0.000 C 
BRANCH  13  14
ATOM     14  C   UNL     1      -3.970   8.090  12.102  1.00  0.00     0.000 C 
BRANCH  14  15
ATOM     15  C   UNL     1      -3.981   7.310  13.436  1.00  0.00     0.000 C 
BRANCH  15  16
ATOM     16  C   UNL     1      -4.835   7.967  14.537  1.00  0.00     0.000 C 
BRANCH  16  17
ATOM     17  C   UNL     1      -5.754   6.999  15.307  1.00  0.00     0.000 C 
BRANCH  17  18
ATOM     18  C   UNL     1      -5.324   6.775  16.774  1.00  0.00     0.000 C 
BRANCH  18  19
ATOM     19  C   UNL     1      -5.647   5.361  17.276  1.00  0.00     0.000 C 
BRANCH  19  20
ATOM     20  C   UNL     1      -5.555   4.338  16.137  1.00  0.00     0.006 C 
BRANCH  20  21
ATOM     21  C   UNL     1      -4.612   3.188  16.504  1.00  0.00     0.053 C 
BRANCH  21  22
ATOM     22  C   UNL     1      -3.198   3.547  16.173  1.00  0.00     0.041 C 
ATOM     23  O   UNL     1      -2.245   2.906  16.688  1.00  0.00    -0.550 OA
ATOM     24  O   UNL     1      -2.933   4.554  15.251  1.00  0.00    -0.550 OA
ENDBRANCH  21  22
ENDBRANCH  20  21
ENDBRANCH  19  20
ENDBRANCH  18  19
ENDBRANCH  17  18
ENDBRANCH  16  17
ENDBRANCH  15  16
ENDBRANCH  14  15
ENDBRANCH  13  14
ENDBRANCH   1  13
TORSDOF 20
ENDMDL
MODEL 5
REMARK VINA RESULT:    -4.254      1.323      4.513
REMARK INTER + INTRA:         -12.671
REMARK INTER:                  -8.572
REMARK INTRA:                  -4.100
REMARK UNBOUND:                -3.443
REMARK SMILES CCCCCCCCCCCCCCCCCCCCCC(=O)[O-]
REMARK SMILES IDX 12 1 11 2 10 3 9 4 8 5 7 6 6 7 5 8 4 9 3 10 2 11 1 12 13 13
REMARK SMILES IDX 14 14 15 15 16 16 17 17 18 18 19 19 20 20 21 21 22 22 23 23
REMARK SMILES IDX 24 24
REMARK H PARENT
REMARK Flexibility Score: inf
ROOT
ATOM      1  C   UNL     1      -7.098   6.320  16.465  1.00  0.00     0.000 C 
ENDROOT
BRANCH   1   2
ATOM      2  C   UNL     1      -6.036   7.374  16.828  1.00  0.00     0.000 C 
BRANCH   2   3
ATOM      3  C   UNL     1      -5.345   8.050  15.626  1.00  0.00     0.000 C 
BRANCH   3   4
ATOM      4  C   UNL     1      -5.485   9.582  15.569  1.00  0.00    -0.000 C 
BRANCH   4   5
ATOM      5  C   UNL     1      -5.789  10.101  14.155  1.00  0.00    -0.000 C 
BRANCH   5   6
ATOM      6  C   UNL     1      -6.400   8.994  13.285  1.00  0.00    -0.000 C 
BRANCH   6   7
ATOM      7  C   UNL     1      -5.791   8.940  11.872  1.00  0.00    -0.000 C 
BRANCH   7   8
ATOM      8  C   UNL     1      -4.731   7.841  11.658  1.00  0.00    -0.000 C 
BRANCH   8   9
ATOM      9  C   UNL     1      -3.271   8.319  11.756  1.00  0.00    -0.000 C 
BRANCH   9  10
ATOM     10  C   UNL     1      -2.679   8.139  13.165  1.00  0.00    -0.000 C 
BRANCH  10  11
ATOM     11  C   UNL     1      -2.156   9.456  13.755  1.00  0.00    -0.003 C 
ATOM     12  C   UNL     1      -2.348  10.643  12.810  1.00  0.00     0.004 C 
ENDBRANCH  10  11
ENDBRANCH   9  10
ENDBRANCH   8   9
ENDBRANCH   7   8
ENDBRANCH   6   7
ENDBRANCH   5   6
ENDBRANCH   4   5
ENDBRANCH   3   4
ENDBRANCH   2   3
ENDBRANCH   1   2
BRANCH   1  13
ATOM     13  C   UNL     1      -8.388   6.942  15.913  1.00  0.00     0.000 C 
BRANCH  13  14
ATOM     14  C   UNL     1      -8.600   6.567  14.441  1.00  0.00     0.000 C 
BRANCH  14  15
ATOM     15  C   UNL     1      -7.998   5.190  14.081  1.00  0.00     0.000 C 
BRANCH  15  16
ATOM     16  C   UNL     1      -7.200   5.181  12.763  1.00  0.00     0.000 C 
BRANCH  16  17
ATOM     17  C   UNL     1      -5.847   4.449  12.829  1.00  0.00     0.000 C 
BRANCH  17  18
ATOM     18  C   UNL     1      -4.890   5.015  13.902  1.00  0.00     0.000 C 
BRANCH  18  19
ATOM     19  C   UNL     1      -4.634   4.026  15.049  1.00  0.00     0.000 C 
BRANCH  19  20
ATOM     20  C   UNL     1      -3.528   4.537  15.979  1.00  0.00     0.006 C 
BRANCH  20  21
ATOM     21  C   UNL     1      -2.142   4.161  15.446  1.00  0.00     0.053 C 
BRANCH  21  22
ATOM     22  C   UNL     1      -1.203   3.892  16.578  1.00  0.00     0.041 C 
ATOM     23  O   UNL     1      -0.449   4.806  17.007  1.00  0.00    -0.550 OA
ATOM     24  O   UNL     1      -1.197   2.647  17.199  1.00  0.00    -0.550 OA
ENDBRANCH  21  22
ENDBRANCH  20  21
ENDBRANCH  19  20
ENDBRANCH  18  19
ENDBRANCH  17  18
ENDBRANCH  16  17
ENDBRANCH  15  16
ENDBRANCH  14  15
ENDBRANCH  13  14
ENDBRANCH   1  13
TORSDOF 20
ENDMDL
MODEL 6
REMARK VINA RESULT:    -4.201      1.297      3.741
REMARK INTER + INTRA:         -12.554
REMARK INTER:                  -8.044
REMARK INTRA:                  -4.510
REMARK UNBOUND:                -3.443
REMARK SMILES CCCCCCCCCCCCCCCCCCCCCC(=O)[O-]
REMARK SMILES IDX 12 1 11 2 10 3 9 4 8 5 7 6 6 7 5 8 4 9 3 10 2 11 1 12 13 13
REMARK SMILES IDX 14 14 15 15 16 16 17 17 18 18 19 19 20 20 21 21 22 22 23 23
REMARK SMILES IDX 24 24
REMARK H PARENT
REMARK Flexibility Score: inf
ROOT
ATOM      1  C   UNL     1      -8.077   5.046  14.119  1.00  0.00     0.000 C 
ENDROOT
BRANCH   1   2
ATOM      2  C   UNL     1      -6.890   4.734  13.190  1.00  0.00     0.000 C 
BRANCH   2   3
ATOM      3  C   UNL     1      -5.873   5.881  13.019  1.00  0.00     0.000 C 
BRANCH   3   4
ATOM      4  C   UNL     1      -5.512   6.220  11.562  1.00  0.00    -0.000 C 
BRANCH   4   5
ATOM      5  C   UNL     1      -6.552   7.126  10.886  1.00  0.00    -0.000 C 
BRANCH   5   6
ATOM      6  C   UNL     1      -6.218   8.607  11.112  1.00  0.00    -0.000 C 
BRANCH   6   7
ATOM      7  C   UNL     1      -7.076   9.253  12.215  1.00  0.00    -0.000 C 
BRANCH   7   8
ATOM      8  C   UNL     1      -6.285  10.012  13.299  1.00  0.00    -0.000 C 
BRANCH   8   9
ATOM      9  C   UNL     1      -4.755   9.952  13.149  1.00  0.00    -0.000 C 
BRANCH   9  10
ATOM     10  C   UNL     1      -4.088   9.050  14.201  1.00  0.00    -0.000 C 
BRANCH  10  11
ATOM     11  C   UNL     1      -3.035   8.115  13.590  1.00  0.00    -0.003 C 
ATOM     12  C   UNL     1      -2.603   8.548  12.189  1.00  0.00     0.004 C 
ENDBRANCH  10  11
ENDBRANCH   9  10
ENDBRANCH   8   9
ENDBRANCH   7   8
ENDBRANCH   6   7
ENDBRANCH   5   6
ENDBRANCH   4   5
ENDBRANCH   3   4
ENDBRANCH   2   3
ENDBRANCH   1   2
BRANCH   1  13
ATOM     13  C   UNL     1      -8.892   6.261  13.653  1.00  0.00     0.000 C 
BRANCH  13  14
ATOM     14  C   UNL     1      -8.987   7.321  14.758  1.00  0.00     0.000 C 
BRANCH  14  15
ATOM     15  C   UNL     1      -8.125   6.978  15.993  1.00  0.00     0.000 C 
BRANCH  15  16
ATOM     16  C   UNL     1      -6.835   7.812  16.107  1.00  0.00     0.000 C 
BRANCH  16  17
ATOM     17  C   UNL     1      -5.741   7.195  16.998  1.00  0.00     0.000 C 
BRANCH  17  18
ATOM     18  C   UNL     1      -6.036   5.737  17.418  1.00  0.00     0.000 C 
BRANCH  18  19
ATOM     19  C   UNL     1      -5.213   4.714  16.622  1.00  0.00     0.000 C 
BRANCH  19  20
ATOM     20  C   UNL     1      -3.944   5.355  16.048  1.00  0.00     0.006 C 
BRANCH  20  21
ATOM     21  C   UNL     1      -3.174   4.363  15.171  1.00  0.00     0.053 C 
BRANCH  21  22
ATOM     22  C   UNL     1      -1.995   3.817  15.914  1.00  0.00     0.041 C 
ATOM     23  O   UNL     1      -2.139   2.846  16.703  1.00  0.00    -0.550 OA
ATOM     24  O   UNL     1      -0.728   4.343  15.693  1.00  0.00    -0.550 OA
ENDBRANCH  21  22
ENDBRANCH  20  21
ENDBRANCH  19  20
ENDBRANCH  18  19
ENDBRANCH  17  18
ENDBRANCH  16  17
ENDBRANCH  15  16
ENDBRANCH  14  15
ENDBRANCH  13  14
ENDBRANCH   1  13
TORSDOF 20
ENDMDL
MODEL 7
REMARK VINA RESULT:    -4.186      3.541      6.915
REMARK INTER + INTRA:         -12.523
REMARK INTER:                  -9.581
REMARK INTRA:                  -2.941
REMARK UNBOUND:                -3.443
REMARK SMILES CCCCCCCCCCCCCCCCCCCCCC(=O)[O-]
REMARK SMILES IDX 12 1 11 2 10 3 9 4 8 5 7 6 6 7 5 8 4 9 3 10 2 11 1 12 13 13
REMARK SMILES IDX 14 14 15 15 16 16 17 17 18 18 19 19 20 20 21 21 22 22 23 23
REMARK SMILES IDX 24 24
REMARK H PARENT
REMARK Flexibility Score: inf
ROOT
ATOM      1  C   UNL     1      -6.598   7.526  16.536  1.00  0.00     0.000 C 
ENDROOT
BRANCH   1   2
ATOM      2  C   UNL     1      -5.974   6.381  17.354  1.00  0.00     0.000 C 
BRANCH   2   3
ATOM      3  C   UNL     1      -4.543   5.982  16.939  1.00  0.00     0.000 C 
BRANCH   3   4
ATOM      4  C   UNL     1      -4.433   4.645  16.184  1.00  0.00    -0.000 C 
BRANCH   4   5
ATOM      5  C   UNL     1      -3.099   4.491  15.437  1.00  0.00    -0.000 C 
BRANCH   5   6
ATOM      6  C   UNL     1      -2.246   3.378  16.062  1.00  0.00    -0.000 C 
BRANCH   6   7
ATOM      7  C   UNL     1      -1.104   3.921  16.941  1.00  0.00    -0.000 C 
BRANCH   7   8
ATOM      8  C   UNL     1      -0.844   5.435  16.815  1.00  0.00    -0.000 C 
BRANCH   8   9
ATOM      9  C   UNL     1       0.349   5.960  17.634  1.00  0.00    -0.000 C 
BRANCH   9  10
ATOM     10  C   UNL     1      -0.029   6.304  19.085  1.00  0.00    -0.000 C 
BRANCH  10  11
ATOM     11  C   UNL     1       0.500   7.678  19.520  1.00  0.00    -0.003 C 
ATOM     12  C   UNL     1       1.084   8.481  18.357  1.00  0.00     0.004 C 
ENDBRANCH  10  11
ENDBRANCH   9  10
ENDBRANCH   8   9
ENDBRANCH   7   8
ENDBRANCH   6   7
ENDBRANCH   5   6
ENDBRANCH   4   5
ENDBRANCH   3   4
ENDBRANCH   2   3
ENDBRANCH   1   2
BRANCH   1  13
ATOM     13  C   UNL     1      -5.639   8.709  16.344  1.00  0.00     0.000 C 
BRANCH  13  14
ATOM     14  C   UNL     1      -5.527   9.098  14.864  1.00  0.00     0.000 C 
BRANCH  14  15
ATOM     15  C   UNL     1      -4.173   8.692  14.238  1.00  0.00     0.000 C 
BRANCH  15  16
ATOM     16  C   UNL     1      -4.203   7.333  13.512  1.00  0.00     0.000 C 
BRANCH  16  17
ATOM     17  C   UNL     1      -5.579   6.931  12.949  1.00  0.00     0.000 C 
BRANCH  17  18
ATOM     18  C   UNL     1      -5.591   5.535  12.286  1.00  0.00     0.000 C 
BRANCH  18  19
ATOM     19  C   UNL     1      -6.768   4.667  12.755  1.00  0.00     0.000 C 
BRANCH  19  20
ATOM     20  C   UNL     1      -7.340   5.185  14.079  1.00  0.00     0.006 C 
BRANCH  20  21
ATOM     21  C   UNL     1      -8.850   5.420  13.973  1.00  0.00     0.053 C 
BRANCH  21  22
ATOM     22  C   UNL     1      -9.128   6.771  13.392  1.00  0.00     0.041 C 
ATOM     23  O   UNL     1      -9.207   6.919  12.144  1.00  0.00    -0.550 OA
ATOM     24  O   UNL     1      -9.356   7.856  14.230  1.00  0.00    -0.550 OA
ENDBRANCH  21  22
ENDBRANCH  20  21
ENDBRANCH  19  20
ENDBRANCH  18  19
ENDBRANCH  17  18
ENDBRANCH  16  17
ENDBRANCH  15  16
ENDBRANCH  14  15
ENDBRANCH  13  14
ENDBRANCH   1  13
TORSDOF 20
ENDMDL
MODEL 8
REMARK VINA RESULT:    -4.167      2.444      5.189
REMARK INTER + INTRA:         -12.481
REMARK INTER:                  -9.785
REMARK INTRA:                  -2.696
REMARK UNBOUND:                -3.443
REMARK SMILES CCCCCCCCCCCCCCCCCCCCCC(=O)[O-]
REMARK SMILES IDX 12 1 11 2 10 3 9 4 8 5 7 6 6 7 5 8 4 9 3 10 2 11 1 12 13 13
REMARK SMILES IDX 14 14 15 15 16 16 17 17 18 18 19 19 20 20 21 21 22 22 23 23
REMARK SMILES IDX 24 24
REMARK H PARENT
REMARK Flexibility Score: inf
ROOT
ATOM      1  C   UNL     1      -6.618   6.605  17.309  1.00  0.00     0.000 C 
ENDROOT
BRANCH   1   2
ATOM      2  C   UNL     1      -7.161   6.949  15.910  1.00  0.00     0.000 C 
BRANCH   2   3
ATOM      3  C   UNL     1      -8.589   6.445  15.619  1.00  0.00     0.000 C 
BRANCH   3   4
ATOM      4  C   UNL     1      -8.841   6.005  14.165  1.00  0.00    -0.000 C 
BRANCH   4   5
ATOM      5  C   UNL     1      -7.906   4.871  13.716  1.00  0.00    -0.000 C 
BRANCH   5   6
ATOM      6  C   UNL     1      -7.153   5.257  12.435  1.00  0.00    -0.000 C 
BRANCH   6   7
ATOM      7  C   UNL     1      -5.639   5.428  12.659  1.00  0.00    -0.000 C 
BRANCH   7   8
ATOM      8  C   UNL     1      -5.166   6.884  12.846  1.00  0.00    -0.000 C 
BRANCH   8   9
ATOM      9  C   UNL     1      -4.084   7.082  13.922  1.00  0.00    -0.000 C 
BRANCH   9  10
ATOM     10  C   UNL     1      -3.031   8.130  13.521  1.00  0.00    -0.000 C 
BRANCH  10  11
ATOM     11  C   UNL     1      -3.396   8.861  12.221  1.00  0.00    -0.003 C 
ATOM     12  C   UNL     1      -2.168   9.366  11.463  1.00  0.00     0.004 C 
ENDBRANCH  10  11
ENDBRANCH   9  10
ENDBRANCH   8   9
ENDBRANCH   7   8
ENDBRANCH   6   7
ENDBRANCH   5   6
ENDBRANCH   4   5
ENDBRANCH   3   4
ENDBRANCH   2   3
ENDBRANCH   1   2
BRANCH   1  13
ATOM     13  C   UNL     1      -5.310   5.804  17.258  1.00  0.00     0.000 C 
BRANCH  13  14
ATOM     14  C   UNL     1      -5.403   4.653  16.249  1.00  0.00     0.000 C 
BRANCH  14  15
ATOM     15  C   UNL     1      -4.798   3.336  16.785  1.00  0.00     0.000 C 
BRANCH  15  16
ATOM     16  C   UNL     1      -3.270   3.237  16.619  1.00  0.00     0.000 C 
BRANCH  16  17
ATOM     17  C   UNL     1      -2.706   3.953  15.378  1.00  0.00     0.000 C 
BRANCH  17  18
ATOM     18  C   UNL     1      -1.637   5.018  15.711  1.00  0.00     0.000 C 
BRANCH  18  19
ATOM     19  C   UNL     1      -0.752   4.617  16.900  1.00  0.00     0.000 C 
BRANCH  19  20
ATOM     20  C   UNL     1       0.055   5.815  17.414  1.00  0.00     0.006 C 
BRANCH  20  21
ATOM     21  C   UNL     1      -0.236   6.082  18.894  1.00  0.00     0.053 C 
BRANCH  21  22
ATOM     22  C   UNL     1       0.552   7.257  19.377  1.00  0.00     0.041 C 
ATOM     23  O   UNL     1       0.900   8.161  18.571  1.00  0.00    -0.550 OA
ATOM     24  O   UNL     1       0.857   7.385  20.728  1.00  0.00    -0.550 OA
ENDBRANCH  21  22
ENDBRANCH  20  21
ENDBRANCH  19  20
ENDBRANCH  18  19
ENDBRANCH  17  18
ENDBRANCH  16  17
ENDBRANCH  15  16
ENDBRANCH  14  15
ENDBRANCH  13  14
ENDBRANCH   1  13
TORSDOF 20
ENDMDL
MODEL 9
REMARK VINA RESULT:    -4.151      2.894      6.634
REMARK INTER + INTRA:         -12.448
REMARK INTER:                  -9.569
REMARK INTRA:                  -2.878
REMARK UNBOUND:                -3.443
REMARK SMILES CCCCCCCCCCCCCCCCCCCCCC(=O)[O-]
REMARK SMILES IDX 12 1 11 2 10 3 9 4 8 5 7 6 6 7 5 8 4 9 3 10 2 11 1 12 13 13
REMARK SMILES IDX 14 14 15 15 16 16 17 17 18 18 19 19 20 20 21 21 22 22 23 23
REMARK SMILES IDX 24 24
REMARK H PARENT
REMARK Flexibility Score: inf
ROOT
ATOM      1  C   UNL     1      -5.966   7.502  16.622  1.00  0.00     0.000 C 
ENDROOT
BRANCH   1   2
ATOM      2  C   UNL     1      -4.973   6.358  16.345  1.00  0.00     0.000 C 
BRANCH   2   3
ATOM      3  C   UNL     1      -5.393   4.978  16.889  1.00  0.00     0.000 C 
BRANCH   3   4
ATOM      4  C   UNL     1      -4.890   3.774  16.073  1.00  0.00    -0.000 C 
BRANCH   4   5
ATOM      5  C   UNL     1      -3.459   3.356  16.447  1.00  0.00    -0.000 C 
BRANCH   5   6
ATOM      6  C   UNL     1      -2.451   3.854  15.403  1.00  0.00    -0.000 C 
BRANCH   6   7
ATOM      7  C   UNL     1      -1.643   5.073  15.884  1.00  0.00    -0.000 C 
BRANCH   7   8
ATOM      8  C   UNL     1      -0.735   4.816  17.104  1.00  0.00    -0.000 C 
BRANCH   8   9
ATOM      9  C   UNL     1       0.055   6.042  17.596  1.00  0.00    -0.000 C 
BRANCH   9  10
ATOM     10  C   UNL     1       0.040   6.184  19.128  1.00  0.00    -0.000 C 
BRANCH  10  11
ATOM     11  C   UNL     1       0.414   7.600  19.589  1.00  0.00    -0.003 C 
ATOM     12  C   UNL     1       1.117   8.410  18.499  1.00  0.00     0.004 C 
ENDBRANCH  10  11
ENDBRANCH   9  10
ENDBRANCH   8   9
ENDBRANCH   7   8
ENDBRANCH   6   7
ENDBRANCH   5   6
ENDBRANCH   4   5
ENDBRANCH   3   4
ENDBRANCH   2   3
ENDBRANCH   1   2
BRANCH   1  13
ATOM     13  C   UNL     1      -7.414   7.010  16.759  1.00  0.00     0.000 C 
BRANCH  13  14
ATOM     14  C   UNL     1      -8.131   7.012  15.402  1.00  0.00     0.000 C 
BRANCH  14  15
ATOM     15  C   UNL     1      -8.527   5.595  14.932  1.00  0.00     0.000 C 
BRANCH  15  16
ATOM     16  C   UNL     1      -7.875   5.173  13.601  1.00  0.00     0.000 C 
BRANCH  16  17
ATOM     17  C   UNL     1      -6.909   6.209  12.997  1.00  0.00     0.000 C 
BRANCH  17  18
ATOM     18  C   UNL     1      -5.556   5.607  12.552  1.00  0.00     0.000 C 
BRANCH  18  19
ATOM     19  C   UNL     1      -4.568   6.673  12.058  1.00  0.00     0.000 C 
BRANCH  19  20
ATOM     20  C   UNL     1      -4.381   7.777  13.105  1.00  0.00     0.006 C 
BRANCH  20  21
ATOM     21  C   UNL     1      -2.938   7.808  13.621  1.00  0.00     0.053 C 
BRANCH  21  22
ATOM     22  C   UNL     1      -2.240   9.042  13.144  1.00  0.00     0.041 C 
ATOM     23  O   UNL     1      -2.798   9.802  12.309  1.00  0.00    -0.550 OA
ATOM     24  O   UNL     1      -0.997   9.384  13.663  1.00  0.00    -0.550 OA
ENDBRANCH  21  22
ENDBRANCH  20  21
ENDBRANCH  19  20
ENDBRANCH  18  19
ENDBRANCH  17  18
ENDBRANCH  16  17
ENDBRANCH  15  16
ENDBRANCH  14  15
ENDBRANCH  13  14
ENDBRANCH   1  13
TORSDOF 20
ENDMDL
