MODEL 1
REMARK VINA RESULT:    -3.736      0.000      0.000
REMARK INTER + INTRA:          -3.845
REMARK INTER:                  -3.845
REMARK INTRA:                   0.000
REMARK UNBOUND:                 0.000
REMARK SMILES CC1(C)[C@@H]2CC[C@@](C)(C2)[C@H]1O
REMARK SMILES IDX 1 1 2 2 4 3 5 4 6 5 7 6 9 7 10 8 8 9 3 10 11 11
REMARK H PARENT 11 12
REMARK Flexibility Score: inf
ROOT
ATOM      1  C   UNL     1     164.273 173.515 170.850  1.00  0.00     0.014 C 
ATOM      2  C   UNL     1     164.728 172.071 170.509  1.00  0.00    -0.006 C 
ATOM      3  C   UNL     1     163.493 171.104 170.532  1.00  0.00    -0.002 C 
ATOM      4  C   UNL     1     163.935 169.626 170.475  1.00  0.00     0.005 C 
ATOM      5  C   UNL     1     164.492 169.488 169.048  1.00  0.00     0.010 C 
ATOM      6  C   UNL     1     164.214 170.883 168.436  1.00  0.00    -0.006 C 
ATOM      7  C   UNL     1     162.923 171.259 169.131  1.00  0.00     0.013 C 
ATOM      8  C   UNL     1     165.236 171.897 169.035  1.00  0.00     0.126 C 
ATOM      9  C   UNL     1     164.133 170.861 166.904  1.00  0.00     0.014 C 
ATOM     10  C   UNL     1     165.830 171.687 171.527  1.00  0.00     0.014 C 
ENDROOT
BRANCH   8  11
ATOM     11  O   UNL     1     165.307 173.111 168.319  1.00  0.00    -0.392 OA
ATOM     12  H   UNL     1     165.422 172.912 167.355  1.00  0.00     0.211 HD
ENDBRANCH   8  11
TORSDOF 1
ENDMDL
MODEL 2
REMARK VINA RESULT:    -3.732      7.745      8.614
REMARK INTER + INTRA:          -3.841
REMARK INTER:                  -3.841
REMARK INTRA:                   0.000
REMARK UNBOUND:                 0.000
REMARK SMILES CC1(C)[C@@H]2CC[C@@](C)(C2)[C@H]1O
REMARK SMILES IDX 1 1 2 2 4 3 5 4 6 5 7 6 9 7 10 8 8 9 3 10 11 11
REMARK H PARENT 11 12
REMARK Flexibility Score: inf
ROOT
ATOM      1  C   UNL     1     157.686 164.293 170.860  1.00  0.00     0.014 C 
ATOM      2  C   UNL     1     159.138 164.731 170.533  1.00  0.00    -0.006 C 
ATOM      3  C   UNL     1     160.087 163.482 170.546  1.00  0.00    -0.002 C 
ATOM      4  C   UNL     1     161.571 163.902 170.503  1.00  0.00     0.005 C 
ATOM      5  C   UNL     1     161.725 164.476 169.085  1.00  0.00     0.010 C 
ATOM      6  C   UNL     1     160.331 164.227 168.461  1.00  0.00    -0.006 C 
ATOM      7  C   UNL     1     159.931 162.932 169.138  1.00  0.00     0.013 C 
ATOM      8  C   UNL     1     159.328 165.256 169.067  1.00  0.00     0.126 C 
ATOM      9  C   UNL     1     160.360 164.164 166.929  1.00  0.00     0.014 C 
ATOM     10  C   UNL     1     159.532 165.815 171.568  1.00  0.00     0.014 C 
ENDROOT
BRANCH   8  11
ATOM     11  O   UNL     1     158.119 165.354 168.345  1.00  0.00    -0.392 OA
ATOM     12  H   UNL     1     158.193 164.815 167.517  1.00  0.00     0.211 HD
ENDBRANCH   8  11
TORSDOF 1
ENDMDL
MODEL 3
REMARK VINA RESULT:    -3.723     10.570     12.198
REMARK INTER + INTRA:          -3.832
REMARK INTER:                  -3.832
REMARK INTRA:                   0.000
REMARK UNBOUND:                 0.000
REMARK SMILES CC1(C)[C@@H]2CC[C@@](C)(C2)[C@H]1O
REMARK SMILES IDX 1 1 2 2 4 3 5 4 6 5 7 6 9 7 10 8 8 9 3 10 11 11
REMARK H PARENT 11 12
REMARK Flexibility Score: inf
ROOT
ATOM      1  C   UNL     1     166.914 157.678 170.921  1.00  0.00     0.014 C 
ATOM      2  C   UNL     1     166.474 159.130 170.593  1.00  0.00    -0.006 C 
ATOM      3  C   UNL     1     167.721 160.081 170.615  1.00  0.00    -0.002 C 
ATOM      4  C   UNL     1     167.297 161.565 170.572  1.00  0.00     0.005 C 
ATOM      5  C   UNL     1     166.732 161.720 169.151  1.00  0.00     0.010 C 
ATOM      6  C   UNL     1     166.989 160.327 168.527  1.00  0.00    -0.006 C 
ATOM      7  C   UNL     1     168.281 159.930 169.211  1.00  0.00     0.013 C 
ATOM      8  C   UNL     1     165.959 159.320 169.124  1.00  0.00     0.126 C 
ATOM      9  C   UNL     1     167.061 160.359 166.995  1.00  0.00     0.014 C 
ATOM     10  C   UNL     1     165.383 159.519 171.622  1.00  0.00     0.014 C 
ENDROOT
BRANCH   8  11
ATOM     11  O   UNL     1     165.868 158.113 168.400  1.00  0.00    -0.392 OA
ATOM     12  H   UNL     1     165.024 158.110 167.881  1.00  0.00     0.211 HD
ENDBRANCH   8  11
TORSDOF 1
ENDMDL
MODEL 4
REMARK VINA RESULT:    -3.718      7.721      8.612
REMARK INTER + INTRA:          -3.826
REMARK INTER:                  -3.826
REMARK INTRA:                   0.000
REMARK UNBOUND:                 0.000
REMARK SMILES CC1(C)[C@@H]2CC[C@@](C)(C2)[C@H]1O
REMARK SMILES IDX 1 1 2 2 4 3 5 4 6 5 7 6 9 7 10 8 8 9 3 10 11 11
REMARK H PARENT 11 12
REMARK Flexibility Score: inf
ROOT
ATOM      1  C   UNL     1     173.526 166.951 170.936  1.00  0.00     0.014 C 
ATOM      2  C   UNL     1     172.077 166.496 170.619  1.00  0.00    -0.006 C 
ATOM      3  C   UNL     1     171.112 167.732 170.647  1.00  0.00    -0.002 C 
ATOM      4  C   UNL     1     169.633 167.293 170.614  1.00  0.00     0.005 C 
ATOM      5  C   UNL     1     169.474 166.725 169.194  1.00  0.00     0.010 C 
ATOM      6  C   UNL     1     170.860 166.997 168.560  1.00  0.00    -0.006 C 
ATOM      7  C   UNL     1     171.248 168.293 169.241  1.00  0.00     0.013 C 
ATOM      8  C   UNL     1     171.881 165.977 169.152  1.00  0.00     0.126 C 
ATOM      9  C   UNL     1     170.816 167.067 167.028  1.00  0.00     0.014 C 
ATOM     10  C   UNL     1     171.706 165.402 171.651  1.00  0.00     0.014 C 
ENDROOT
BRANCH   8  11
ATOM     11  O   UNL     1     173.085 165.899 168.419  1.00  0.00    -0.392 OA
ATOM     12  H   UNL     1     172.891 166.065 167.461  1.00  0.00     0.211 HD
ENDBRANCH   8  11
TORSDOF 1
ENDMDL
MODEL 5
REMARK VINA RESULT:    -3.580      1.605      2.568
REMARK INTER + INTRA:          -3.685
REMARK INTER:                  -3.685
REMARK INTRA:                   0.000
REMARK UNBOUND:                 0.000
REMARK SMILES CC1(C)[C@@H]2CC[C@@](C)(C2)[C@H]1O
REMARK SMILES IDX 1 1 2 2 4 3 5 4 6 5 7 6 9 7 10 8 8 9 3 10 11 11
REMARK H PARENT 11 12
REMARK Flexibility Score: inf
ROOT
ATOM      1  C   UNL     1     161.482 170.882 171.157  1.00  0.00     0.014 C 
ATOM      2  C   UNL     1     162.682 171.749 170.691  1.00  0.00    -0.006 C 
ATOM      3  C   UNL     1     164.017 170.944 170.860  1.00  0.00    -0.002 C 
ATOM      4  C   UNL     1     165.250 171.854 170.677  1.00  0.00     0.005 C 
ATOM      5  C   UNL     1     165.205 172.195 169.178  1.00  0.00     0.010 C 
ATOM      6  C   UNL     1     164.003 171.361 168.673  1.00  0.00    -0.006 C 
ATOM      7  C   UNL     1     164.090 170.144 169.570  1.00  0.00     0.013 C 
ATOM      8  C   UNL     1     162.688 172.050 169.152  1.00  0.00     0.126 C 
ATOM      9  C   UNL     1     164.073 171.055 167.171  1.00  0.00     0.014 C 
ATOM     10  C   UNL     1     162.644 173.060 171.515  1.00  0.00     0.014 C 
ENDROOT
BRANCH   8  11
ATOM     11  O   UNL     1     161.536 171.585 168.484  1.00  0.00    -0.392 OA
ATOM     12  H   UNL     1     160.874 172.320 168.430  1.00  0.00     0.211 HD
ENDBRANCH   8  11
TORSDOF 1
ENDMDL
MODEL 6
REMARK VINA RESULT:    -3.572      7.266      8.062
REMARK INTER + INTRA:          -3.677
REMARK INTER:                  -3.677
REMARK INTRA:                   0.000
REMARK UNBOUND:                 0.000
REMARK SMILES CC1(C)[C@@H]2CC[C@@](C)(C2)[C@H]1O
REMARK SMILES IDX 1 1 2 2 4 3 5 4 6 5 7 6 9 7 10 8 8 9 3 10 11 11
REMARK H PARENT 11 12
REMARK Flexibility Score: inf
ROOT
ATOM      1  C   UNL     1     170.971 169.749 171.189  1.00  0.00     0.014 C 
ATOM      2  C   UNL     1     171.827 168.542 170.721  1.00  0.00    -0.006 C 
ATOM      3  C   UNL     1     171.017 167.211 170.908  1.00  0.00    -0.002 C 
ATOM      4  C   UNL     1     171.919 165.973 170.721  1.00  0.00     0.005 C 
ATOM      5  C   UNL     1     172.243 166.007 169.218  1.00  0.00     0.010 C 
ATOM      6  C   UNL     1     171.408 167.210 168.715  1.00  0.00    -0.006 C 
ATOM      7  C   UNL     1     170.202 167.135 169.628  1.00  0.00     0.013 C 
ATOM      8  C   UNL     1     172.109 168.524 169.178  1.00  0.00     0.126 C 
ATOM      9  C   UNL     1     171.083 167.132 167.218  1.00  0.00     0.014 C 
ATOM     10  C   UNL     1     173.147 168.578 171.528  1.00  0.00     0.014 C 
ENDROOT
BRANCH   8  11
ATOM     11  O   UNL     1     171.641 169.675 168.509  1.00  0.00    -0.392 OA
ATOM     12  H   UNL     1     170.706 169.852 168.784  1.00  0.00     0.211 HD
ENDBRANCH   8  11
TORSDOF 1
ENDMDL
MODEL 7
REMARK VINA RESULT:    -3.566      8.521      9.706
REMARK INTER + INTRA:          -3.671
REMARK INTER:                  -3.671
REMARK INTRA:                   0.000
REMARK UNBOUND:                 0.000
REMARK SMILES CC1(C)[C@@H]2CC[C@@](C)(C2)[C@H]1O
REMARK SMILES IDX 1 1 2 2 4 3 5 4 6 5 7 6 9 7 10 8 8 9 3 10 11 11
REMARK H PARENT 11 12
REMARK Flexibility Score: inf
ROOT
ATOM      1  C   UNL     1     160.362 161.488 171.160  1.00  0.00     0.014 C 
ATOM      2  C   UNL     1     159.482 162.683 170.704  1.00  0.00    -0.006 C 
ATOM      3  C   UNL     1     160.280 164.023 170.868  1.00  0.00    -0.002 C 
ATOM      4  C   UNL     1     159.360 165.250 170.695  1.00  0.00     0.005 C 
ATOM      5  C   UNL     1     159.004 165.205 169.200  1.00  0.00     0.010 C 
ATOM      6  C   UNL     1     159.842 164.010 168.685  1.00  0.00    -0.006 C 
ATOM      7  C   UNL     1     161.067 164.103 169.571  1.00  0.00     0.013 C 
ATOM      8  C   UNL     1     159.167 162.690 169.168  1.00  0.00     0.126 C 
ATOM      9  C   UNL     1     160.134 164.085 167.181  1.00  0.00     0.014 C 
ATOM     10  C   UNL     1     158.180 162.634 171.541  1.00  0.00     0.014 C 
ENDROOT
BRANCH   8  11
ATOM     11  O   UNL     1     159.634 161.541 168.494  1.00  0.00    -0.392 OA
ATOM     12  H   UNL     1     160.276 161.818 167.792  1.00  0.00     0.211 HD
ENDBRANCH   8  11
TORSDOF 1
ENDMDL
MODEL 8
REMARK VINA RESULT:    -3.565     11.087     12.332
REMARK INTER + INTRA:          -3.670
REMARK INTER:                  -3.670
REMARK INTRA:                   0.000
REMARK UNBOUND:                 0.000
REMARK SMILES CC1(C)[C@@H]2CC[C@@](C)(C2)[C@H]1O
REMARK SMILES IDX 1 1 2 2 4 3 5 4 6 5 7 6 9 7 10 8 8 9 3 10 11 11
REMARK H PARENT 11 12
REMARK Flexibility Score: inf
ROOT
ATOM      1  C   UNL     1     169.743 160.341 171.163  1.00  0.00     0.014 C 
ATOM      2  C   UNL     1     168.540 159.468 170.718  1.00  0.00    -0.006 C 
ATOM      3  C   UNL     1     167.205 160.274 170.887  1.00  0.00    -0.002 C 
ATOM      4  C   UNL     1     165.971 159.362 170.725  1.00  0.00     0.005 C 
ATOM      5  C   UNL     1     166.005 159.001 169.231  1.00  0.00     0.010 C 
ATOM      6  C   UNL     1     167.202 159.828 168.706  1.00  0.00    -0.006 C 
ATOM      7  C   UNL     1     167.123 161.057 169.587  1.00  0.00     0.013 C 
ATOM      8  C   UNL     1     168.521 159.147 169.183  1.00  0.00     0.126 C 
ATOM      9  C   UNL     1     167.120 160.115 167.201  1.00  0.00     0.014 C 
ATOM     10  C   UNL     1     168.584 158.168 171.559  1.00  0.00     0.014 C 
ENDROOT
BRANCH   8  11
ATOM     11  O   UNL     1     169.668 159.603 168.500  1.00  0.00    -0.392 OA
ATOM     12  H   UNL     1     170.363 158.898 168.527  1.00  0.00     0.211 HD
ENDBRANCH   8  11
TORSDOF 1
ENDMDL
MODEL 9
REMARK VINA RESULT:    -3.446     10.952     12.594
REMARK INTER + INTRA:          -3.547
REMARK INTER:                  -3.547
REMARK INTRA:                   0.000
REMARK UNBOUND:                 0.000
REMARK SMILES CC1(C)[C@@H]2CC[C@@](C)(C2)[C@H]1O
REMARK SMILES IDX 1 1 2 2 4 3 5 4 6 5 7 6 9 7 10 8 8 9 3 10 11 11
REMARK H PARENT 11 12
REMARK Flexibility Score: inf
ROOT
ATOM      1  C   UNL     1     167.189 160.315 167.179  1.00  0.00     0.014 C 
ATOM      2  C   UNL     1     167.162 160.373 168.730  1.00  0.00    -0.006 C 
ATOM      3  C   UNL     1     166.149 159.312 169.284  1.00  0.00    -0.002 C 
ATOM      4  C   UNL     1     165.883 159.522 170.790  1.00  0.00     0.005 C 
ATOM      5  C   UNL     1     167.223 159.132 171.434  1.00  0.00     0.010 C 
ATOM      6  C   UNL     1     168.061 158.659 170.221  1.00  0.00    -0.006 C 
ATOM      7  C   UNL     1     166.989 158.047 169.342  1.00  0.00     0.013 C 
ATOM      8  C   UNL     1     168.501 159.913 169.405  1.00  0.00     0.126 C 
ATOM      9  C   UNL     1     169.193 157.699 170.610  1.00  0.00     0.014 C 
ATOM     10  C   UNL     1     166.809 161.828 169.126  1.00  0.00     0.014 C 
ENDROOT
BRANCH   8  11
ATOM     11  O   UNL     1     169.534 159.647 168.481  1.00  0.00    -0.392 OA
ATOM     12  H   UNL     1     169.954 160.503 168.212  1.00  0.00     0.211 HD
ENDBRANCH   8  11
TORSDOF 1
ENDMDL
