MODEL 1
REMARK VINA RESULT:    -3.314      0.000      0.000
REMARK INTER + INTRA:          -6.751
REMARK INTER:                  -5.252
REMARK INTRA:                  -1.499
REMARK UNBOUND:                -1.499
REMARK SMILES CCCCCCCCCCCC(=O)[O-]
REMARK SMILES IDX 7 1 8 2 9 3 10 4 11 5 12 6 13 7 14 8 6 9 5 10 4 11 3 12 2 13
REMARK SMILES IDX 1 14
REMARK H PARENT
REMARK Flexibility Score: inf
ROOT
ATOM      1  C   UNL     1       6.399 -30.203  13.082  1.00  0.00     0.000 C 
ENDROOT
BRANCH   1   2
ATOM      2  C   UNL     1       7.125 -31.427  13.670  1.00  0.00     0.000 C 
BRANCH   2   3
ATOM      3  C   UNL     1       7.461 -31.332  15.170  1.00  0.00     0.000 C 
BRANCH   3   4
ATOM      4  C   UNL     1       7.528 -29.904  15.743  1.00  0.00     0.006 C 
BRANCH   4   5
ATOM      5  C   UNL     1       8.787 -29.627  16.586  1.00  0.00     0.053 C 
BRANCH   5   6
ATOM      6  C   UNL     1       8.481 -29.507  18.048  1.00  0.00     0.041 C 
ATOM      7  O   UNL     1       9.138 -28.713  18.772  1.00  0.00    -0.550 OA
ATOM      8  O   UNL     1       7.445 -30.247  18.607  1.00  0.00    -0.550 OA
ENDBRANCH   5   6
ENDBRANCH   4   5
ENDBRANCH   3   4
ENDBRANCH   2   3
ENDBRANCH   1   2
BRANCH   1   9
ATOM      9  C   UNL     1       7.228 -29.471  12.017  1.00  0.00     0.000 C 
BRANCH   9  10
ATOM     10  C   UNL     1       8.629 -30.084  11.894  1.00  0.00    -0.000 C 
BRANCH  10  11
ATOM     11  C   UNL     1       9.680 -29.195  12.571  1.00  0.00    -0.000 C 
BRANCH  11  12
ATOM     12  C   UNL     1      10.696 -30.043  13.351  1.00  0.00    -0.000 C 
BRANCH  12  13
ATOM     13  C   UNL     1      10.922 -31.424  12.719  1.00  0.00    -0.003 C 
ATOM     14  C   UNL     1      10.676 -32.571  13.699  1.00  0.00     0.004 C 
ENDBRANCH  12  13
ENDBRANCH  11  12
ENDBRANCH  10  11
ENDBRANCH   9  10
ENDBRANCH   1   9
TORSDOF 10
ENDMDL
MODEL 2
REMARK VINA RESULT:    -3.219      1.236      1.812
REMARK INTER + INTRA:          -6.600
REMARK INTER:                  -5.558
REMARK INTRA:                  -1.042
REMARK UNBOUND:                -1.499
REMARK SMILES CCCCCCCCCCCC(=O)[O-]
REMARK SMILES IDX 7 1 8 2 9 3 10 4 11 5 12 6 13 7 14 8 6 9 5 10 4 11 3 12 2 13
REMARK SMILES IDX 1 14
REMARK H PARENT
REMARK Flexibility Score: inf
ROOT
ATOM      1  C   UNL     1       6.888 -31.511  14.484  1.00  0.00     0.000 C 
ENDROOT
BRANCH   1   2
ATOM      2  C   UNL     1       6.225 -31.424  15.870  1.00  0.00     0.000 C 
BRANCH   2   3
ATOM      3  C   UNL     1       6.054 -29.998  16.426  1.00  0.00     0.000 C 
BRANCH   3   4
ATOM      4  C   UNL     1       6.797 -29.709  17.745  1.00  0.00     0.006 C 
BRANCH   4   5
ATOM      5  C   UNL     1       8.283 -30.110  17.727  1.00  0.00     0.053 C 
BRANCH   5   6
ATOM      6  C   UNL     1       9.176 -29.019  18.238  1.00  0.00     0.041 C 
ATOM      7  O   UNL     1       9.229 -28.769  19.471  1.00  0.00    -0.550 OA
ATOM      8  O   UNL     1       9.977 -28.303  17.357  1.00  0.00    -0.550 OA
ENDBRANCH   5   6
ENDBRANCH   4   5
ENDBRANCH   3   4
ENDBRANCH   2   3
ENDBRANCH   1   2
BRANCH   1   9
ATOM      9  C   UNL     1       6.640 -30.265  13.622  1.00  0.00     0.000 C 
BRANCH   9  10
ATOM     10  C   UNL     1       7.956 -29.722  13.051  1.00  0.00    -0.000 C 
BRANCH  10  11
ATOM     11  C   UNL     1       9.035 -29.640  14.137  1.00  0.00    -0.000 C 
BRANCH  11  12
ATOM     12  C   UNL     1      10.393 -30.118  13.599  1.00  0.00    -0.000 C 
BRANCH  12  13
ATOM     13  C   UNL     1      10.414 -31.624  13.304  1.00  0.00    -0.003 C 
ATOM     14  C   UNL     1      11.749 -32.097  12.728  1.00  0.00     0.004 C 
ENDBRANCH  12  13
ENDBRANCH  11  12
ENDBRANCH  10  11
ENDBRANCH   9  10
ENDBRANCH   1   9
TORSDOF 10
ENDMDL
MODEL 3
REMARK VINA RESULT:    -3.199      1.153      2.122
REMARK INTER + INTRA:          -6.568
REMARK INTER:                  -5.023
REMARK INTRA:                  -1.545
REMARK UNBOUND:                -1.499
REMARK SMILES CCCCCCCCCCCC(=O)[O-]
REMARK SMILES IDX 7 1 8 2 9 3 10 4 11 5 12 6 13 7 14 8 6 9 5 10 4 11 3 12 2 13
REMARK SMILES IDX 1 14
REMARK H PARENT
REMARK Flexibility Score: inf
ROOT
ATOM      1  C   UNL     1       9.147 -32.840  14.507  1.00  0.00     0.000 C 
ENDROOT
BRANCH   1   2
ATOM      2  C   UNL     1       8.299 -32.291  15.668  1.00  0.00     0.000 C 
BRANCH   2   3
ATOM      3  C   UNL     1       7.229 -31.258  15.268  1.00  0.00     0.000 C 
BRANCH   3   4
ATOM      4  C   UNL     1       7.472 -29.824  15.778  1.00  0.00     0.006 C 
BRANCH   4   5
ATOM      5  C   UNL     1       8.733 -29.675  16.649  1.00  0.00     0.053 C 
BRANCH   5   6
ATOM      6  C   UNL     1       8.406 -29.431  18.092  1.00  0.00     0.041 C 
ATOM      7  O   UNL     1       8.992 -28.517  18.729  1.00  0.00    -0.550 OA
ATOM      8  O   UNL     1       7.428 -30.190  18.723  1.00  0.00    -0.550 OA
ENDBRANCH   5   6
ENDBRANCH   4   5
ENDBRANCH   3   4
ENDBRANCH   2   3
ENDBRANCH   1   2
BRANCH   1   9
ATOM      9  C   UNL     1       8.479 -32.651  13.137  1.00  0.00     0.000 C 
BRANCH   9  10
ATOM     10  C   UNL     1       9.353 -31.792  12.214  1.00  0.00    -0.000 C 
BRANCH  10  11
ATOM     11  C   UNL     1       8.696 -30.433  11.943  1.00  0.00    -0.000 C 
BRANCH  11  12
ATOM     12  C   UNL     1       9.514 -29.293  12.569  1.00  0.00    -0.000 C 
BRANCH  12  13
ATOM     13  C   UNL     1      10.804 -29.791  13.238  1.00  0.00    -0.003 C 
ATOM     14  C   UNL     1      11.422 -28.755  14.177  1.00  0.00     0.004 C 
ENDBRANCH  12  13
ENDBRANCH  11  12
ENDBRANCH  10  11
ENDBRANCH   9  10
ENDBRANCH   1   9
TORSDOF 10
ENDMDL
MODEL 4
REMARK VINA RESULT:    -3.180      1.569      3.041
REMARK INTER + INTRA:          -6.539
REMARK INTER:                  -5.036
REMARK INTRA:                  -1.503
REMARK UNBOUND:                -1.499
REMARK SMILES CCCCCCCCCCCC(=O)[O-]
REMARK SMILES IDX 7 1 8 2 9 3 10 4 11 5 12 6 13 7 14 8 6 9 5 10 4 11 3 12 2 13
REMARK SMILES IDX 1 14
REMARK H PARENT
REMARK Flexibility Score: inf
ROOT
ATOM      1  C   UNL     1       7.414 -33.263  15.606  1.00  0.00     0.000 C 
ENDROOT
BRANCH   1   2
ATOM      2  C   UNL     1       7.979 -32.321  16.683  1.00  0.00     0.000 C 
BRANCH   2   3
ATOM      3  C   UNL     1       6.957 -31.356  17.313  1.00  0.00     0.000 C 
BRANCH   3   4
ATOM      4  C   UNL     1       7.260 -29.857  17.126  1.00  0.00     0.006 C 
BRANCH   4   5
ATOM      5  C   UNL     1       8.705 -29.562  16.682  1.00  0.00     0.053 C 
BRANCH   5   6
ATOM      6  C   UNL     1       9.477 -28.798  17.715  1.00  0.00     0.041 C 
ATOM      7  O   UNL     1      10.340 -27.951  17.364  1.00  0.00    -0.550 OA
ATOM      8  O   UNL     1       9.217 -28.994  19.066  1.00  0.00    -0.550 OA
ENDBRANCH   5   6
ENDBRANCH   4   5
ENDBRANCH   3   4
ENDBRANCH   2   3
ENDBRANCH   1   2
BRANCH   1   9
ATOM      9  C   UNL     1       6.058 -32.797  15.056  1.00  0.00     0.000 C 
BRANCH   9  10
ATOM     10  C   UNL     1       6.215 -32.174  13.663  1.00  0.00    -0.000 C 
BRANCH  10  11
ATOM     11  C   UNL     1       5.917 -30.670  13.697  1.00  0.00    -0.000 C 
BRANCH  11  12
ATOM     12  C   UNL     1       7.007 -29.877  12.959  1.00  0.00    -0.000 C 
BRANCH  12  13
ATOM     13  C   UNL     1       8.389 -30.538  13.063  1.00  0.00    -0.003 C 
ATOM     14  C   UNL     1       9.530 -29.521  13.118  1.00  0.00     0.004 C 
ENDBRANCH  12  13
ENDBRANCH  11  12
ENDBRANCH  10  11
ENDBRANCH   9  10
ENDBRANCH   1   9
TORSDOF 10
ENDMDL
MODEL 5
REMARK VINA RESULT:    -3.144      1.439      2.341
REMARK INTER + INTRA:          -6.481
REMARK INTER:                  -4.964
REMARK INTRA:                  -1.518
REMARK UNBOUND:                -1.499
REMARK SMILES CCCCCCCCCCCC(=O)[O-]
REMARK SMILES IDX 7 1 8 2 9 3 10 4 11 5 12 6 13 7 14 8 6 9 5 10 4 11 3 12 2 13
REMARK SMILES IDX 1 14
REMARK H PARENT
REMARK Flexibility Score: inf
ROOT
ATOM      1  C   UNL     1       9.654 -29.476  14.896  1.00  0.00     0.000 C 
ENDROOT
BRANCH   1   2
ATOM      2  C   UNL     1       8.234 -29.792  14.393  1.00  0.00     0.000 C 
BRANCH   2   3
ATOM      3  C   UNL     1       7.598 -31.065  14.982  1.00  0.00     0.000 C 
BRANCH   3   4
ATOM      4  C   UNL     1       8.321 -31.660  16.205  1.00  0.00     0.006 C 
BRANCH   4   5
ATOM      5  C   UNL     1       7.546 -31.507  17.526  1.00  0.00     0.053 C 
BRANCH   5   6
ATOM      6  C   UNL     1       7.500 -30.085  18.001  1.00  0.00     0.041 C 
ATOM      7  O   UNL     1       6.402 -29.474  18.070  1.00  0.00    -0.550 OA
ATOM      8  O   UNL     1       8.668 -29.446  18.402  1.00  0.00    -0.550 OA
ENDBRANCH   5   6
ENDBRANCH   4   5
ENDBRANCH   3   4
ENDBRANCH   2   3
ENDBRANCH   1   2
BRANCH   1   9
ATOM      9  C   UNL     1      10.669 -29.311  13.756  1.00  0.00     0.000 C 
BRANCH   9  10
ATOM     10  C   UNL     1      10.080 -29.790  12.423  1.00  0.00    -0.000 C 
BRANCH  10  11
ATOM     11  C   UNL     1      10.696 -31.129  11.999  1.00  0.00    -0.000 C 
BRANCH  11  12
ATOM     12  C   UNL     1       9.629 -32.234  11.954  1.00  0.00    -0.000 C 
BRANCH  12  13
ATOM     13  C   UNL     1       9.839 -33.301  13.039  1.00  0.00    -0.003 C 
ATOM     14  C   UNL     1      11.211 -33.205  13.706  1.00  0.00     0.004 C 
ENDBRANCH  12  13
ENDBRANCH  11  12
ENDBRANCH  10  11
ENDBRANCH   9  10
ENDBRANCH   1   9
TORSDOF 10
ENDMDL
MODEL 6
REMARK VINA RESULT:    -3.136      2.605      4.931
REMARK INTER + INTRA:          -6.468
REMARK INTER:                  -5.150
REMARK INTRA:                  -1.318
REMARK UNBOUND:                -1.499
REMARK SMILES CCCCCCCCCCCC(=O)[O-]
REMARK SMILES IDX 7 1 8 2 9 3 10 4 11 5 12 6 13 7 14 8 6 9 5 10 4 11 3 12 2 13
REMARK SMILES IDX 1 14
REMARK H PARENT
REMARK Flexibility Score: inf
ROOT
ATOM      1  C   UNL     1       8.682 -32.306  15.338  1.00  0.00     0.000 C 
ENDROOT
BRANCH   1   2
ATOM      2  C   UNL     1       7.563 -32.277  14.282  1.00  0.00     0.000 C 
BRANCH   2   3
ATOM      3  C   UNL     1       7.690 -31.168  13.221  1.00  0.00     0.000 C 
BRANCH   3   4
ATOM      4  C   UNL     1       8.299 -29.843  13.719  1.00  0.00     0.006 C 
BRANCH   4   5
ATOM      5  C   UNL     1       9.431 -29.300  12.828  1.00  0.00     0.053 C 
BRANCH   5   6
ATOM      6  C   UNL     1      10.790 -29.690  13.328  1.00  0.00     0.041 C 
ATOM      7  O   UNL     1      11.244 -30.842  13.100  1.00  0.00    -0.550 OA
ATOM      8  O   UNL     1      11.570 -28.769  14.017  1.00  0.00    -0.550 OA
ENDBRANCH   5   6
ENDBRANCH   4   5
ENDBRANCH   3   4
ENDBRANCH   2   3
ENDBRANCH   1   2
BRANCH   1   9
ATOM      9  C   UNL     1       8.152 -32.188  16.774  1.00  0.00     0.000 C 
BRANCH   9  10
ATOM     10  C   UNL     1       6.837 -31.400  16.811  1.00  0.00    -0.000 C 
BRANCH  10  11
ATOM     11  C   UNL     1       7.082 -29.939  17.208  1.00  0.00    -0.000 C 
BRANCH  11  12
ATOM     12  C   UNL     1       7.835 -29.851  18.544  1.00  0.00    -0.000 C 
BRANCH  12  13
ATOM     13  C   UNL     1       9.136 -29.043  18.436  1.00  0.00    -0.003 C 
ATOM     14  C   UNL     1       9.544 -28.767  16.989  1.00  0.00     0.004 C 
ENDBRANCH  12  13
ENDBRANCH  11  12
ENDBRANCH  10  11
ENDBRANCH   9  10
ENDBRANCH   1   9
TORSDOF 10
ENDMDL
MODEL 7
REMARK VINA RESULT:    -3.128      0.849      1.913
REMARK INTER + INTRA:          -6.457
REMARK INTER:                  -5.047
REMARK INTRA:                  -1.409
REMARK UNBOUND:                -1.499
REMARK SMILES CCCCCCCCCCCC(=O)[O-]
REMARK SMILES IDX 7 1 8 2 9 3 10 4 11 5 12 6 13 7 14 8 6 9 5 10 4 11 3 12 2 13
REMARK SMILES IDX 1 14
REMARK H PARENT
REMARK Flexibility Score: inf
ROOT
ATOM      1  C   UNL     1       8.625 -29.964  12.234  1.00  0.00     0.000 C 
ENDROOT
BRANCH   1   2
ATOM      2  C   UNL     1       7.331 -29.578  12.973  1.00  0.00     0.000 C 
BRANCH   2   3
ATOM      3  C   UNL     1       6.947 -30.496  14.148  1.00  0.00     0.000 C 
BRANCH   3   4
ATOM      4  C   UNL     1       7.124 -29.882  15.550  1.00  0.00     0.006 C 
BRANCH   4   5
ATOM      5  C   UNL     1       8.499 -30.158  16.185  1.00  0.00     0.053 C 
BRANCH   5   6
ATOM      6  C   UNL     1       8.615 -29.589  17.568  1.00  0.00     0.041 C 
ATOM      7  O   UNL     1       9.471 -28.700  17.818  1.00  0.00    -0.550 OA
ATOM      8  O   UNL     1       7.754 -30.015  18.572  1.00  0.00    -0.550 OA
ENDBRANCH   5   6
ENDBRANCH   4   5
ENDBRANCH   3   4
ENDBRANCH   2   3
ENDBRANCH   1   2
BRANCH   1   9
ATOM      9  C   UNL     1       9.851 -29.179  12.723  1.00  0.00     0.000 C 
BRANCH   9  10
ATOM     10  C   UNL     1      10.932 -30.127  13.258  1.00  0.00    -0.000 C 
BRANCH  10  11
ATOM     11  C   UNL     1      11.091 -31.350  12.347  1.00  0.00    -0.000 C 
BRANCH  11  12
ATOM     12  C   UNL     1      11.263 -32.633  13.175  1.00  0.00    -0.000 C 
BRANCH  12  13
ATOM     13  C   UNL     1      10.085 -32.883  14.128  1.00  0.00    -0.003 C 
ATOM     14  C   UNL     1       8.881 -33.515  13.428  1.00  0.00     0.004 C 
ENDBRANCH  12  13
ENDBRANCH  11  12
ENDBRANCH  10  11
ENDBRANCH   9  10
ENDBRANCH   1   9
TORSDOF 10
ENDMDL
MODEL 8
REMARK VINA RESULT:    -3.072      2.045      4.697
REMARK INTER + INTRA:          -6.367
REMARK INTER:                  -5.330
REMARK INTRA:                  -1.037
REMARK UNBOUND:                -1.499
REMARK SMILES CCCCCCCCCCCC(=O)[O-]
REMARK SMILES IDX 7 1 8 2 9 3 10 4 11 5 12 6 13 7 14 8 6 9 5 10 4 11 3 12 2 13
REMARK SMILES IDX 1 14
REMARK H PARENT
REMARK Flexibility Score: inf
ROOT
ATOM      1  C   UNL     1       6.128 -31.605  14.390  1.00  0.00     0.000 C 
ENDROOT
BRANCH   1   2
ATOM      2  C   UNL     1       6.773 -31.344  13.017  1.00  0.00     0.000 C 
BRANCH   2   3
ATOM      3  C   UNL     1       6.834 -29.865  12.591  1.00  0.00     0.000 C 
BRANCH   3   4
ATOM      4  C   UNL     1       8.240 -29.332  12.255  1.00  0.00     0.006 C 
BRANCH   4   5
ATOM      5  C   UNL     1       9.386 -30.154  12.874  1.00  0.00     0.053 C 
BRANCH   5   6
ATOM      6  C   UNL     1       9.978 -29.491  14.081  1.00  0.00     0.041 C 
ATOM      7  O   UNL     1      11.145 -29.019  14.038  1.00  0.00    -0.550 OA
ATOM      8  O   UNL     1       9.228 -29.362  15.244  1.00  0.00    -0.550 OA
ENDBRANCH   5   6
ENDBRANCH   4   5
ENDBRANCH   3   4
ENDBRANCH   2   3
ENDBRANCH   1   2
BRANCH   1   9
ATOM      9  C   UNL     1       7.072 -32.321  15.367  1.00  0.00     0.000 C 
BRANCH   9  10
ATOM     10  C   UNL     1       6.943 -31.739  16.781  1.00  0.00    -0.000 C 
BRANCH  10  11
ATOM     11  C   UNL     1       6.147 -30.428  16.766  1.00  0.00    -0.000 C 
BRANCH  11  12
ATOM     12  C   UNL     1       6.538 -29.535  17.953  1.00  0.00    -0.000 C 
BRANCH  12  13
ATOM     13  C   UNL     1       7.857 -29.968  18.609  1.00  0.00    -0.003 C 
ATOM     14  C   UNL     1       8.856 -28.819  18.745  1.00  0.00     0.004 C 
ENDBRANCH  12  13
ENDBRANCH  11  12
ENDBRANCH  10  11
ENDBRANCH   9  10
ENDBRANCH   1   9
TORSDOF 10
ENDMDL
MODEL 9
REMARK VINA RESULT:    -2.958      3.003      5.501
REMARK INTER + INTRA:          -6.186
REMARK INTER:                  -5.110
REMARK INTRA:                  -1.077
REMARK UNBOUND:                -1.499
REMARK SMILES CCCCCCCCCCCC(=O)[O-]
REMARK SMILES IDX 7 1 8 2 9 3 10 4 11 5 12 6 13 7 14 8 6 9 5 10 4 11 3 12 2 13
REMARK SMILES IDX 1 14
REMARK H PARENT
REMARK Flexibility Score: inf
ROOT
ATOM      1  C   UNL     1       9.239 -28.790  18.177  1.00  0.00     0.000 C 
ENDROOT
BRANCH   1   2
ATOM      2  C   UNL     1       9.989 -28.385  16.896  1.00  0.00     0.000 C 
BRANCH   2   3
ATOM      3  C   UNL     1       9.577 -29.151  15.625  1.00  0.00     0.000 C 
BRANCH   3   4
ATOM      4  C   UNL     1      10.601 -29.121  14.474  1.00  0.00     0.006 C 
BRANCH   4   5
ATOM      5  C   UNL     1      10.005 -29.468  13.097  1.00  0.00     0.053 C 
BRANCH   5   6
ATOM      6  C   UNL     1      10.412 -30.831  12.625  1.00  0.00     0.041 C 
ATOM      7  O   UNL     1       9.649 -31.497  11.876  1.00  0.00    -0.550 OA
ATOM      8  O   UNL     1      11.649 -31.353  12.982  1.00  0.00    -0.550 OA
ENDBRANCH   5   6
ENDBRANCH   4   5
ENDBRANCH   3   4
ENDBRANCH   2   3
ENDBRANCH   1   2
BRANCH   1   9
ATOM      9  C   UNL     1       8.259 -29.951  17.955  1.00  0.00     0.000 C 
BRANCH   9  10
ATOM     10  C   UNL     1       6.819 -29.520  18.261  1.00  0.00    -0.000 C 
BRANCH  10  11
ATOM     11  C   UNL     1       5.964 -29.512  16.988  1.00  0.00    -0.000 C 
BRANCH  11  12
ATOM     12  C   UNL     1       6.070 -30.853  16.247  1.00  0.00    -0.000 C 
BRANCH  12  13
ATOM     13  C   UNL     1       6.406 -30.681  14.758  1.00  0.00    -0.003 C 
ATOM     14  C   UNL     1       6.969 -31.954  14.127  1.00  0.00     0.004 C 
ENDBRANCH  12  13
ENDBRANCH  11  12
ENDBRANCH  10  11
ENDBRANCH   9  10
ENDBRANCH   1   9
TORSDOF 10
ENDMDL
