MODEL 1
REMARK VINA RESULT:    -4.267      0.000      0.000
REMARK INTER + INTRA:          -7.407
REMARK INTER:                  -6.511
REMARK INTRA:                  -0.896
REMARK UNBOUND:                -0.896
REMARK SMILES O=C([O-])CCCCCCCCC(=O)[O-]
REMARK SMILES IDX 7 1 6 2 5 3 4 4 2 5 1 6 3 7 8 8 9 9 10 10 11 11 12 12 13 13
REMARK SMILES IDX 14 14
REMARK H PARENT
REMARK Flexibility Score: inf
ROOT
ATOM      1  C   UNL     1      -8.100  27.146  25.110  1.00  0.00     0.000 C 
ENDROOT
BRANCH   1   2
ATOM      2  C   UNL     1      -9.562  27.188  25.588  1.00  0.00     0.000 C 
BRANCH   2   3
ATOM      3  C   UNL     1     -10.378  28.304  24.907  1.00  0.00     0.006 C 
BRANCH   3   4
ATOM      4  C   UNL     1     -10.682  28.052  23.422  1.00  0.00     0.053 C 
BRANCH   4   5
ATOM      5  C   UNL     1     -10.051  29.082  22.535  1.00  0.00     0.041 C 
ATOM      6  O   UNL     1      -8.948  29.600  22.852  1.00  0.00    -0.550 OA
ATOM      7  O   UNL     1     -10.697  29.494  21.376  1.00  0.00    -0.550 OA
ENDBRANCH   4   5
ENDBRANCH   3   4
ENDBRANCH   2   3
ENDBRANCH   1   2
BRANCH   1   8
ATOM      8  C   UNL     1      -7.748  25.842  24.371  1.00  0.00     0.000 C 
BRANCH   8   9
ATOM      9  C   UNL     1      -7.625  25.966  22.842  1.00  0.00     0.000 C 
BRANCH   9  10
ATOM     10  C   UNL     1      -8.228  24.766  22.092  1.00  0.00     0.006 C 
BRANCH  10  11
ATOM     11  C   UNL     1      -8.304  25.008  20.578  1.00  0.00     0.053 C 
BRANCH  11  12
ATOM     12  C   UNL     1      -9.267  26.104  20.237  1.00  0.00     0.041 C 
ATOM     13  O   UNL     1     -10.506  25.923  20.362  1.00  0.00    -0.550 OA
ATOM     14  O   UNL     1      -8.793  27.337  19.807  1.00  0.00    -0.550 OA
ENDBRANCH  11  12
ENDBRANCH  10  11
ENDBRANCH   9  10
ENDBRANCH   8   9
ENDBRANCH   1   8
TORSDOF 9
ENDMDL
MODEL 2
REMARK VINA RESULT:    -4.241      1.708      4.605
REMARK INTER + INTRA:          -7.368
REMARK INTER:                  -6.370
REMARK INTRA:                  -0.997
REMARK UNBOUND:                -0.896
REMARK SMILES O=C([O-])CCCCCCCCC(=O)[O-]
REMARK SMILES IDX 7 1 6 2 5 3 4 4 2 5 1 6 3 7 8 8 9 9 10 10 11 11 12 12 13 13
REMARK SMILES IDX 14 14
REMARK H PARENT
REMARK Flexibility Score: inf
ROOT
ATOM      1  C   UNL     1      -7.820  25.795  24.388  1.00  0.00     0.000 C 
ENDROOT
BRANCH   1   2
ATOM      2  C   UNL     1      -7.239  26.024  22.982  1.00  0.00     0.000 C 
BRANCH   2   3
ATOM      3  C   UNL     1      -7.977  25.217  21.896  1.00  0.00     0.006 C 
BRANCH   3   4
ATOM      4  C   UNL     1      -9.260  24.524  22.381  1.00  0.00     0.053 C 
BRANCH   4   5
ATOM      5  C   UNL     1      -9.386  23.132  21.842  1.00  0.00     0.041 C 
ATOM      6  O   UNL     1     -10.174  22.892  20.890  1.00  0.00    -0.550 OA
ATOM      7  O   UNL     1      -8.659  22.095  22.413  1.00  0.00    -0.550 OA
ENDBRANCH   4   5
ENDBRANCH   3   4
ENDBRANCH   2   3
ENDBRANCH   1   2
BRANCH   1   8
ATOM      8  C   UNL     1      -8.142  27.108  25.125  1.00  0.00     0.000 C 
BRANCH   8   9
ATOM      9  C   UNL     1      -9.612  27.278  25.552  1.00  0.00     0.000 C 
BRANCH   9  10
ATOM     10  C   UNL     1     -10.349  28.361  24.747  1.00  0.00     0.006 C 
BRANCH  10  11
ATOM     11  C   UNL     1     -10.768  27.865  23.356  1.00  0.00     0.053 C 
BRANCH  11  12
ATOM     12  C   UNL     1      -9.951  28.496  22.271  1.00  0.00     0.041 C 
ATOM     13  O   UNL     1      -9.111  29.392  22.547  1.00  0.00    -0.550 OA
ATOM     14  O   UNL     1     -10.097  28.074  20.955  1.00  0.00    -0.550 OA
ENDBRANCH  11  12
ENDBRANCH  10  11
ENDBRANCH   9  10
ENDBRANCH   8   9
ENDBRANCH   1   8
TORSDOF 9
ENDMDL
MODEL 3
REMARK VINA RESULT:    -4.211      1.151      1.940
REMARK INTER + INTRA:          -7.322
REMARK INTER:                  -6.501
REMARK INTRA:                  -0.820
REMARK UNBOUND:                -0.896
REMARK SMILES O=C([O-])CCCCCCCCC(=O)[O-]
REMARK SMILES IDX 7 1 6 2 5 3 4 4 2 5 1 6 3 7 8 8 9 9 10 10 11 11 12 12 13 13
REMARK SMILES IDX 14 14
REMARK H PARENT
REMARK Flexibility Score: inf
ROOT
ATOM      1  C   UNL     1      -7.165  25.966  22.878  1.00  0.00     0.000 C 
ENDROOT
BRANCH   1   2
ATOM      2  C   UNL     1      -7.597  25.926  24.354  1.00  0.00     0.000 C 
BRANCH   2   3
ATOM      3  C   UNL     1      -8.204  27.260  24.832  1.00  0.00     0.006 C 
BRANCH   3   4
ATOM      4  C   UNL     1      -9.463  27.695  24.065  1.00  0.00     0.053 C 
BRANCH   4   5
ATOM      5  C   UNL     1      -9.312  29.057  23.461  1.00  0.00     0.041 C 
ATOM      6  O   UNL     1      -8.833  30.002  24.142  1.00  0.00    -0.550 OA
ATOM      7  O   UNL     1      -9.730  29.291  22.157  1.00  0.00    -0.550 OA
ENDBRANCH   4   5
ENDBRANCH   3   4
ENDBRANCH   2   3
ENDBRANCH   1   2
BRANCH   1   8
ATOM      8  C   UNL     1      -7.748  24.805  22.051  1.00  0.00     0.000 C 
BRANCH   8   9
ATOM      9  C   UNL     1      -9.156  24.342  22.469  1.00  0.00     0.000 C 
BRANCH   9  10
ATOM     10  C   UNL     1     -10.182  24.436  21.328  1.00  0.00     0.006 C 
BRANCH  10  11
ATOM     11  C   UNL     1     -10.504  25.890  20.957  1.00  0.00     0.053 C 
BRANCH  11  12
ATOM     12  C   UNL     1      -9.797  26.316  19.707  1.00  0.00     0.041 C 
ATOM     13  O   UNL     1     -10.065  25.765  18.607  1.00  0.00    -0.550 OA
ATOM     14  O   UNL     1      -8.861  27.341  19.752  1.00  0.00    -0.550 OA
ENDBRANCH  11  12
ENDBRANCH  10  11
ENDBRANCH   9  10
ENDBRANCH   8   9
ENDBRANCH   1   8
TORSDOF 9
ENDMDL
MODEL 4
REMARK VINA RESULT:    -4.208      1.767      2.392
REMARK INTER + INTRA:          -7.318
REMARK INTER:                  -6.523
REMARK INTRA:                  -0.795
REMARK UNBOUND:                -0.896
REMARK SMILES O=C([O-])CCCCCCCCC(=O)[O-]
REMARK SMILES IDX 7 1 6 2 5 3 4 4 2 5 1 6 3 7 8 8 9 9 10 10 11 11 12 12 13 13
REMARK SMILES IDX 14 14
REMARK H PARENT
REMARK Flexibility Score: inf
ROOT
ATOM      1  C   UNL     1      -7.352  25.993  24.395  1.00  0.00     0.000 C 
ENDROOT
BRANCH   1   2
ATOM      2  C   UNL     1      -8.858  26.166  24.654  1.00  0.00     0.000 C 
BRANCH   2   3
ATOM      3  C   UNL     1      -9.198  27.528  25.289  1.00  0.00     0.006 C 
BRANCH   3   4
ATOM      4  C   UNL     1     -10.144  28.402  24.449  1.00  0.00     0.053 C 
BRANCH   4   5
ATOM      5  C   UNL     1      -9.396  29.338  23.549  1.00  0.00     0.041 C 
ATOM      6  O   UNL     1      -8.555  30.141  24.031  1.00  0.00    -0.550 OA
ATOM      7  O   UNL     1      -9.651  29.344  22.184  1.00  0.00    -0.550 OA
ENDBRANCH   4   5
ENDBRANCH   3   4
ENDBRANCH   2   3
ENDBRANCH   1   2
BRANCH   1   8
ATOM      8  C   UNL     1      -6.995  26.004  22.897  1.00  0.00     0.000 C 
BRANCH   8   9
ATOM      9  C   UNL     1      -8.195  26.102  21.937  1.00  0.00     0.000 C 
BRANCH   9  10
ATOM     10  C   UNL     1      -8.342  24.866  21.033  1.00  0.00     0.006 C 
BRANCH  10  11
ATOM     11  C   UNL     1      -8.367  23.560  21.837  1.00  0.00     0.053 C 
BRANCH  11  12
ATOM     12  C   UNL     1      -9.753  23.006  21.957  1.00  0.00     0.041 C 
ATOM     13  O   UNL     1     -10.654  23.668  22.536  1.00  0.00    -0.550 OA
ATOM     14  O   UNL     1     -10.059  21.769  21.404  1.00  0.00    -0.550 OA
ENDBRANCH  11  12
ENDBRANCH  10  11
ENDBRANCH   9  10
ENDBRANCH   8   9
ENDBRANCH   1   8
TORSDOF 9
ENDMDL
MODEL 5
REMARK VINA RESULT:    -4.169      1.073      4.168
REMARK INTER + INTRA:          -7.257
REMARK INTER:                  -6.324
REMARK INTRA:                  -0.934
REMARK UNBOUND:                -0.896
REMARK SMILES O=C([O-])CCCCCCCCC(=O)[O-]
REMARK SMILES IDX 7 1 6 2 5 3 4 4 2 5 1 6 3 7 8 8 9 9 10 10 11 11 12 12 13 13
REMARK SMILES IDX 14 14
REMARK H PARENT
REMARK Flexibility Score: inf
ROOT
ATOM      1  C   UNL     1      -7.095  25.958  24.116  1.00  0.00     0.000 C 
ENDROOT
BRANCH   1   2
ATOM      2  C   UNL     1      -7.275  25.934  22.588  1.00  0.00     0.000 C 
BRANCH   2   3
ATOM      3  C   UNL     1      -8.324  24.903  22.129  1.00  0.00     0.006 C 
BRANCH   3   4
ATOM      4  C   UNL     1      -9.529  25.508  21.391  1.00  0.00     0.053 C 
BRANCH   4   5
ATOM      5  C   UNL     1      -9.173  25.957  20.006  1.00  0.00     0.041 C 
ATOM      6  O   UNL     1      -8.894  27.165  19.785  1.00  0.00    -0.550 OA
ATOM      7  O   UNL     1      -9.183  25.049  18.956  1.00  0.00    -0.550 OA
ENDBRANCH   4   5
ENDBRANCH   3   4
ENDBRANCH   2   3
ENDBRANCH   1   2
BRANCH   1   8
ATOM      8  C   UNL     1      -8.426  25.820  24.879  1.00  0.00     0.000 C 
BRANCH   8   9
ATOM      9  C   UNL     1      -8.853  27.060  25.685  1.00  0.00     0.000 C 
BRANCH   9  10
ATOM     10  C   UNL     1     -10.313  27.469  25.429  1.00  0.00     0.006 C 
BRANCH  10  11
ATOM     11  C   UNL     1     -10.541  27.921  23.980  1.00  0.00     0.053 C 
BRANCH  11  12
ATOM     12  C   UNL     1      -9.706  29.115  23.632  1.00  0.00     0.041 C 
ATOM     13  O   UNL     1      -9.013  29.121  22.580  1.00  0.00    -0.550 OA
ATOM     14  O   UNL     1      -9.712  30.234  24.456  1.00  0.00    -0.550 OA
ENDBRANCH  11  12
ENDBRANCH  10  11
ENDBRANCH   9  10
ENDBRANCH   8   9
ENDBRANCH   1   8
TORSDOF 9
ENDMDL
MODEL 6
REMARK VINA RESULT:    -4.108      2.070      2.914
REMARK INTER + INTRA:          -7.165
REMARK INTER:                  -6.335
REMARK INTRA:                  -0.831
REMARK UNBOUND:                -0.896
REMARK SMILES O=C([O-])CCCCCCCCC(=O)[O-]
REMARK SMILES IDX 7 1 6 2 5 3 4 4 2 5 1 6 3 7 8 8 9 9 10 10 11 11 12 12 13 13
REMARK SMILES IDX 14 14
REMARK H PARENT
REMARK Flexibility Score: inf
ROOT
ATOM      1  C   UNL     1      -8.272  25.304  23.480  1.00  0.00     0.000 C 
ENDROOT
BRANCH   1   2
ATOM      2  C   UNL     1      -7.544  26.243  24.456  1.00  0.00     0.000 C 
BRANCH   2   3
ATOM      3  C   UNL     1      -8.499  27.228  25.157  1.00  0.00     0.006 C 
BRANCH   3   4
ATOM      4  C   UNL     1      -9.635  27.755  24.266  1.00  0.00     0.053 C 
BRANCH   4   5
ATOM      5  C   UNL     1      -9.223  28.965  23.485  1.00  0.00     0.041 C 
ATOM      6  O   UNL     1      -9.314  28.970  22.230  1.00  0.00    -0.550 OA
ATOM      7  O   UNL     1      -8.708  30.076  24.143  1.00  0.00    -0.550 OA
ENDBRANCH   4   5
ENDBRANCH   3   4
ENDBRANCH   2   3
ENDBRANCH   1   2
BRANCH   1   8
ATOM      8  C   UNL     1      -7.630  25.279  22.080  1.00  0.00     0.000 C 
BRANCH   8   9
ATOM      9  C   UNL     1      -8.554  25.709  20.926  1.00  0.00     0.000 C 
BRANCH   9  10
ATOM     10  C   UNL     1      -9.978  25.143  21.054  1.00  0.00     0.006 C 
BRANCH  10  11
ATOM     11  C   UNL     1     -10.154  23.835  20.272  1.00  0.00     0.053 C 
BRANCH  11  12
ATOM     12  C   UNL     1     -10.336  22.661  21.184  1.00  0.00     0.041 C 
ATOM     13  O   UNL     1     -10.606  22.837  22.401  1.00  0.00    -0.550 OA
ATOM     14  O   UNL     1     -10.235  21.368  20.683  1.00  0.00    -0.550 OA
ENDBRANCH  11  12
ENDBRANCH  10  11
ENDBRANCH   9  10
ENDBRANCH   8   9
ENDBRANCH   1   8
TORSDOF 9
ENDMDL
MODEL 7
REMARK VINA RESULT:    -4.078      2.444      4.572
REMARK INTER + INTRA:          -7.119
REMARK INTER:                  -6.244
REMARK INTRA:                  -0.876
REMARK UNBOUND:                -0.896
REMARK SMILES O=C([O-])CCCCCCCCC(=O)[O-]
REMARK SMILES IDX 7 1 6 2 5 3 4 4 2 5 1 6 3 7 8 8 9 9 10 10 11 11 12 12 13 13
REMARK SMILES IDX 14 14
REMARK H PARENT
REMARK Flexibility Score: inf
ROOT
ATOM      1  C   UNL     1      -7.744  25.181  22.151  1.00  0.00     0.000 C 
ENDROOT
BRANCH   1   2
ATOM      2  C   UNL     1      -8.502  25.998  21.091  1.00  0.00     0.000 C 
BRANCH   2   3
ATOM      3  C   UNL     1     -10.032  25.877  21.229  1.00  0.00     0.006 C 
BRANCH   3   4
ATOM      4  C   UNL     1     -10.677  26.951  22.118  1.00  0.00     0.053 C 
BRANCH   4   5
ATOM      5  C   UNL     1     -10.242  28.333  21.737  1.00  0.00     0.041 C 
ATOM      6  O   UNL     1     -10.684  28.869  20.688  1.00  0.00    -0.550 OA
ATOM      7  O   UNL     1      -9.322  29.015  22.524  1.00  0.00    -0.550 OA
ENDBRANCH   4   5
ENDBRANCH   3   4
ENDBRANCH   2   3
ENDBRANCH   1   2
BRANCH   1   8
ATOM      8  C   UNL     1      -7.328  26.022  23.373  1.00  0.00     0.000 C 
BRANCH   8   9
ATOM      9  C   UNL     1      -8.192  25.824  24.632  1.00  0.00     0.000 C 
BRANCH   9  10
ATOM     10  C   UNL     1      -8.485  27.140  25.371  1.00  0.00     0.006 C 
BRANCH  10  11
ATOM     11  C   UNL     1      -9.986  27.342  25.621  1.00  0.00     0.053 C 
BRANCH  11  12
ATOM     12  C   UNL     1     -10.411  26.778  26.942  1.00  0.00     0.041 C 
ATOM     13  O   UNL     1     -10.491  27.523  27.955  1.00  0.00    -0.550 OA
ATOM     14  O   UNL     1     -10.745  25.434  27.051  1.00  0.00    -0.550 OA
ENDBRANCH  11  12
ENDBRANCH  10  11
ENDBRANCH   9  10
ENDBRANCH   8   9
ENDBRANCH   1   8
TORSDOF 9
ENDMDL
MODEL 8
REMARK VINA RESULT:    -4.076      1.957      3.785
REMARK INTER + INTRA:          -7.117
REMARK INTER:                  -6.191
REMARK INTRA:                  -0.926
REMARK UNBOUND:                -0.896
REMARK SMILES O=C([O-])CCCCCCCCC(=O)[O-]
REMARK SMILES IDX 7 1 6 2 5 3 4 4 2 5 1 6 3 7 8 8 9 9 10 10 11 11 12 12 13 13
REMARK SMILES IDX 14 14
REMARK H PARENT
REMARK Flexibility Score: inf
ROOT
ATOM      1  C   UNL     1      -8.811  25.176  20.612  1.00  0.00     0.000 C 
ENDROOT
BRANCH   1   2
ATOM      2  C   UNL     1      -9.165  26.673  20.605  1.00  0.00     0.000 C 
BRANCH   2   3
ATOM      3  C   UNL     1     -10.413  26.993  21.450  1.00  0.00     0.006 C 
BRANCH   3   4
ATOM      4  C   UNL     1     -10.740  28.491  21.557  1.00  0.00     0.053 C 
BRANCH   4   5
ATOM      5  C   UNL     1     -10.161  29.107  22.794  1.00  0.00     0.041 C 
ATOM      6  O   UNL     1      -8.938  29.403  22.840  1.00  0.00    -0.550 OA
ATOM      7  O   UNL     1     -10.965  29.323  23.906  1.00  0.00    -0.550 OA
ENDBRANCH   4   5
ENDBRANCH   3   4
ENDBRANCH   2   3
ENDBRANCH   1   2
BRANCH   1   8
ATOM      8  C   UNL     1      -8.066  24.742  21.888  1.00  0.00     0.000 C 
BRANCH   8   9
ATOM      9  C   UNL     1      -7.093  25.786  22.467  1.00  0.00     0.000 C 
BRANCH   9  10
ATOM     10  C   UNL     1      -7.336  26.070  23.959  1.00  0.00     0.006 C 
BRANCH  10  11
ATOM     11  C   UNL     1      -8.653  25.459  24.457  1.00  0.00     0.053 C 
BRANCH  11  12
ATOM     12  C   UNL     1      -9.296  26.308  25.510  1.00  0.00     0.041 C 
ATOM     13  O   UNL     1     -10.273  25.868  26.172  1.00  0.00    -0.550 OA
ATOM     14  O   UNL     1      -8.798  27.576  25.782  1.00  0.00    -0.550 OA
ENDBRANCH  11  12
ENDBRANCH  10  11
ENDBRANCH   9  10
ENDBRANCH   8   9
ENDBRANCH   1   8
TORSDOF 9
ENDMDL
MODEL 9
REMARK VINA RESULT:    -3.995      2.137      5.069
REMARK INTER + INTRA:          -6.992
REMARK INTER:                  -6.187
REMARK INTRA:                  -0.805
REMARK UNBOUND:                -0.896
REMARK SMILES O=C([O-])CCCCCCCCC(=O)[O-]
REMARK SMILES IDX 7 1 6 2 5 3 4 4 2 5 1 6 3 7 8 8 9 9 10 10 11 11 12 12 13 13
REMARK SMILES IDX 14 14
REMARK H PARENT
REMARK Flexibility Score: inf
ROOT
ATOM      1  C   UNL     1      -7.340  26.020  22.770  1.00  0.00     0.000 C 
ENDROOT
BRANCH   1   2
ATOM      2  C   UNL     1      -8.493  26.004  21.752  1.00  0.00     0.000 C 
BRANCH   2   3
ATOM      3  C   UNL     1      -8.621  24.654  21.020  1.00  0.00     0.006 C 
BRANCH   3   4
ATOM      4  C   UNL     1      -9.906  23.875  21.343  1.00  0.00     0.053 C 
BRANCH   4   5
ATOM      5  C   UNL     1      -9.622  22.458  21.738  1.00  0.00     0.041 C 
ATOM      6  O   UNL     1      -8.729  22.205  22.588  1.00  0.00    -0.550 OA
ATOM      7  O   UNL     1     -10.322  21.416  21.142  1.00  0.00    -0.550 OA
ENDBRANCH   4   5
ENDBRANCH   3   4
ENDBRANCH   2   3
ENDBRANCH   1   2
BRANCH   1   8
ATOM      8  C   UNL     1      -7.784  25.608  24.186  1.00  0.00     0.000 C 
BRANCH   8   9
ATOM      9  C   UNL     1      -9.223  26.004  24.564  1.00  0.00     0.000 C 
BRANCH   9  10
ATOM     10  C   UNL     1      -9.317  27.414  25.172  1.00  0.00     0.006 C 
BRANCH  10  11
ATOM     11  C   UNL     1     -10.234  28.335  24.356  1.00  0.00     0.053 C 
BRANCH  11  12
ATOM     12  C   UNL     1      -9.452  29.301  23.520  1.00  0.00     0.041 C 
ATOM     13  O   UNL     1      -9.604  29.328  22.270  1.00  0.00    -0.550 OA
ATOM     14  O   UNL     1      -8.573  30.192  24.124  1.00  0.00    -0.550 OA
ENDBRANCH  11  12
ENDBRANCH  10  11
ENDBRANCH   9  10
ENDBRANCH   8   9
ENDBRANCH   1   8
TORSDOF 9
ENDMDL
