MODEL 1
REMARK VINA RESULT:    -4.018      0.000      0.000
REMARK INTER + INTRA:          -7.829
REMARK INTER:                  -6.366
REMARK INTRA:                  -1.462
REMARK UNBOUND:                -1.462
REMARK SMILES CCCCCCCCCCCC(=O)[O-]
REMARK SMILES IDX 7 1 8 2 9 3 10 4 11 5 12 6 13 7 14 8 6 9 5 10 4 11 3 12 2 13
REMARK SMILES IDX 1 14
REMARK H PARENT
REMARK Flexibility Score: inf
ROOT
ATOM      1  C   UNL     1      49.463  36.083 -13.126  1.00  0.00     0.000 C 
ENDROOT
BRANCH   1   2
ATOM      2  C   UNL     1      47.949  35.965 -12.869  1.00  0.00     0.000 C 
BRANCH   2   3
ATOM      3  C   UNL     1      47.333  34.592 -13.197  1.00  0.00     0.000 C 
BRANCH   3   4
ATOM      4  C   UNL     1      45.825  34.661 -13.479  1.00  0.00     0.006 C 
BRANCH   4   5
ATOM      5  C   UNL     1      45.302  36.090 -13.318  1.00  0.00     0.053 C 
BRANCH   5   6
ATOM      6  C   UNL     1      44.112  36.114 -12.412  1.00  0.00     0.041 C 
ATOM      7  O   UNL     1      44.260  35.966 -11.169  1.00  0.00    -0.550 OA
ATOM      8  O   UNL     1      42.836  36.247 -12.941  1.00  0.00    -0.550 OA
ENDBRANCH   5   6
ENDBRANCH   4   5
ENDBRANCH   3   4
ENDBRANCH   2   3
ENDBRANCH   1   2
BRANCH   1   9
ATOM      9  C   UNL     1      49.809  37.134 -14.195  1.00  0.00     0.000 C 
BRANCH   9  10
ATOM     10  C   UNL     1      50.633  36.553 -15.359  1.00  0.00    -0.000 C 
BRANCH  10  11
ATOM     11  C   UNL     1      49.834  36.247 -16.642  1.00  0.00    -0.000 C 
BRANCH  11  12
ATOM     12  C   UNL     1      48.883  35.038 -16.551  1.00  0.00    -0.000 C 
BRANCH  12  13
ATOM     13  C   UNL     1      47.413  35.346 -16.890  1.00  0.00    -0.003 C 
ATOM     14  C   UNL     1      47.029  36.797 -16.605  1.00  0.00     0.004 C 
ENDBRANCH  12  13
ENDBRANCH  11  12
ENDBRANCH  10  11
ENDBRANCH   9  10
ENDBRANCH   1   9
TORSDOF 10
ENDMDL
MODEL 2
REMARK VINA RESULT:    -3.865      1.839      3.223
REMARK INTER + INTRA:          -7.587
REMARK INTER:                  -6.404
REMARK INTRA:                  -1.183
REMARK UNBOUND:                -1.462
REMARK SMILES CCCCCCCCCCCC(=O)[O-]
REMARK SMILES IDX 7 1 8 2 9 3 10 4 11 5 12 6 13 7 14 8 6 9 5 10 4 11 3 12 2 13
REMARK SMILES IDX 1 14
REMARK H PARENT
REMARK Flexibility Score: inf
ROOT
ATOM      1  C   UNL     1      45.794  37.783 -15.444  1.00  0.00     0.000 C 
ENDROOT
BRANCH   1   2
ATOM      2  C   UNL     1      45.905  37.592 -13.921  1.00  0.00     0.000 C 
BRANCH   2   3
ATOM      3  C   UNL     1      45.118  36.397 -13.350  1.00  0.00     0.000 C 
BRANCH   3   4
ATOM      4  C   UNL     1      45.937  35.099 -13.315  1.00  0.00     0.006 C 
BRANCH   4   5
ATOM      5  C   UNL     1      47.262  35.305 -12.576  1.00  0.00     0.053 C 
BRANCH   5   6
ATOM      6  C   UNL     1      47.020  35.510 -11.114  1.00  0.00     0.041 C 
ATOM      7  O   UNL     1      46.290  34.707 -10.474  1.00  0.00    -0.550 OA
ATOM      8  O   UNL     1      47.558  36.615 -10.467  1.00  0.00    -0.550 OA
ENDBRANCH   5   6
ENDBRANCH   4   5
ENDBRANCH   3   4
ENDBRANCH   2   3
ENDBRANCH   1   2
BRANCH   1   9
ATOM      9  C   UNL     1      47.138  37.608 -16.170  1.00  0.00     0.000 C 
BRANCH   9  10
ATOM     10  C   UNL     1      47.108  36.479 -17.218  1.00  0.00    -0.000 C 
BRANCH  10  11
ATOM     11  C   UNL     1      47.492  35.082 -16.691  1.00  0.00    -0.000 C 
BRANCH  11  12
ATOM     12  C   UNL     1      48.947  34.940 -16.203  1.00  0.00    -0.000 C 
BRANCH  12  13
ATOM     13  C   UNL     1      50.012  35.451 -17.190  1.00  0.00    -0.003 C 
ATOM     14  C   UNL     1      51.019  36.398 -16.540  1.00  0.00     0.004 C 
ENDBRANCH  12  13
ENDBRANCH  11  12
ENDBRANCH  10  11
ENDBRANCH   9  10
ENDBRANCH   1   9
TORSDOF 10
ENDMDL
MODEL 3
REMARK VINA RESULT:    -3.865      3.403      5.754
REMARK INTER + INTRA:          -7.586
REMARK INTER:                  -6.362
REMARK INTRA:                  -1.224
REMARK UNBOUND:                -1.462
REMARK SMILES CCCCCCCCCCCC(=O)[O-]
REMARK SMILES IDX 7 1 8 2 9 3 10 4 11 5 12 6 13 7 14 8 6 9 5 10 4 11 3 12 2 13
REMARK SMILES IDX 1 14
REMARK H PARENT
REMARK Flexibility Score: inf
ROOT
ATOM      1  C   UNL     1      46.965  37.312 -15.485  1.00  0.00     0.000 C 
ENDROOT
BRANCH   1   2
ATOM      2  C   UNL     1      47.162  36.566 -16.817  1.00  0.00     0.000 C 
BRANCH   2   3
ATOM      3  C   UNL     1      47.487  35.067 -16.689  1.00  0.00     0.000 C 
BRANCH   3   4
ATOM      4  C   UNL     1      48.951  34.798 -16.312  1.00  0.00     0.006 C 
BRANCH   4   5
ATOM      5  C   UNL     1      49.898  35.684 -17.125  1.00  0.00     0.053 C 
BRANCH   5   6
ATOM      6  C   UNL     1      50.877  36.370 -16.225  1.00  0.00     0.041 C 
ATOM      7  O   UNL     1      50.481  36.925 -15.165  1.00  0.00    -0.550 OA
ATOM      8  O   UNL     1      52.217  36.441 -16.579  1.00  0.00    -0.550 OA
ENDBRANCH   5   6
ENDBRANCH   4   5
ENDBRANCH   3   4
ENDBRANCH   2   3
ENDBRANCH   1   2
BRANCH   1   9
ATOM      9  C   UNL     1      45.605  38.024 -15.391  1.00  0.00     0.000 C 
BRANCH   9  10
ATOM     10  C   UNL     1      44.915  37.817 -14.031  1.00  0.00    -0.000 C 
BRANCH  10  11
ATOM     11  C   UNL     1      45.676  36.916 -13.037  1.00  0.00    -0.000 C 
BRANCH  11  12
ATOM     12  C   UNL     1      45.034  35.540 -12.773  1.00  0.00    -0.000 C 
BRANCH  12  13
ATOM     13  C   UNL     1      45.792  34.346 -13.381  1.00  0.00    -0.003 C 
ATOM     14  C   UNL     1      47.290  34.377 -13.079  1.00  0.00     0.004 C 
ENDBRANCH  12  13
ENDBRANCH  11  12
ENDBRANCH  10  11
ENDBRANCH   9  10
ENDBRANCH   1   9
TORSDOF 10
ENDMDL
MODEL 4
REMARK VINA RESULT:    -3.853      1.187      3.125
REMARK INTER + INTRA:          -7.567
REMARK INTER:                  -6.174
REMARK INTRA:                  -1.393
REMARK UNBOUND:                -1.462
REMARK SMILES CCCCCCCCCCCC(=O)[O-]
REMARK SMILES IDX 7 1 8 2 9 3 10 4 11 5 12 6 13 7 14 8 6 9 5 10 4 11 3 12 2 13
REMARK SMILES IDX 1 14
REMARK H PARENT
REMARK Flexibility Score: inf
ROOT
ATOM      1  C   UNL     1      47.502  35.102 -16.522  1.00  0.00     0.000 C 
ENDROOT
BRANCH   1   2
ATOM      2  C   UNL     1      47.177  36.548 -16.942  1.00  0.00     0.000 C 
BRANCH   2   3
ATOM      3  C   UNL     1      46.405  37.377 -15.899  1.00  0.00     0.000 C 
BRANCH   3   4
ATOM      4  C   UNL     1      46.418  36.746 -14.499  1.00  0.00     0.006 C 
BRANCH   4   5
ATOM      5  C   UNL     1      45.107  37.027 -13.760  1.00  0.00     0.053 C 
BRANCH   5   6
ATOM      6  C   UNL     1      44.740  35.868 -12.887  1.00  0.00     0.041 C 
ATOM      7  O   UNL     1      45.260  34.738 -13.083  1.00  0.00    -0.550 OA
ATOM      8  O   UNL     1      43.787  36.023 -11.889  1.00  0.00    -0.550 OA
ENDBRANCH   5   6
ENDBRANCH   4   5
ENDBRANCH   3   4
ENDBRANCH   2   3
ENDBRANCH   1   2
BRANCH   1   9
ATOM      9  C   UNL     1      49.011  34.809 -16.499  1.00  0.00     0.000 C 
BRANCH   9  10
ATOM     10  C   UNL     1      49.864  36.033 -16.881  1.00  0.00    -0.000 C 
BRANCH  10  11
ATOM     11  C   UNL     1      50.725  36.617 -15.743  1.00  0.00    -0.000 C 
BRANCH  11  12
ATOM     12  C   UNL     1      50.128  37.847 -15.032  1.00  0.00    -0.000 C 
BRANCH  12  13
ATOM     13  C   UNL     1      49.819  37.644 -13.538  1.00  0.00    -0.003 C 
ATOM     14  C   UNL     1      49.899  36.179 -13.109  1.00  0.00     0.004 C 
ENDBRANCH  12  13
ENDBRANCH  11  12
ENDBRANCH  10  11
ENDBRANCH   9  10
ENDBRANCH   1   9
TORSDOF 10
ENDMDL
MODEL 5
REMARK VINA RESULT:    -3.825      1.368      2.878
REMARK INTER + INTRA:          -7.524
REMARK INTER:                  -6.255
REMARK INTRA:                  -1.268
REMARK UNBOUND:                -1.462
REMARK SMILES CCCCCCCCCCCC(=O)[O-]
REMARK SMILES IDX 7 1 8 2 9 3 10 4 11 5 12 6 13 7 14 8 6 9 5 10 4 11 3 12 2 13
REMARK SMILES IDX 1 14
REMARK H PARENT
REMARK Flexibility Score: inf
ROOT
ATOM      1  C   UNL     1      46.733  38.010 -15.753  1.00  0.00     0.000 C 
ENDROOT
BRANCH   1   2
ATOM      2  C   UNL     1      45.534  37.801 -14.810  1.00  0.00     0.000 C 
BRANCH   2   3
ATOM      3  C   UNL     1      45.897  37.530 -13.338  1.00  0.00     0.000 C 
BRANCH   3   4
ATOM      4  C   UNL     1      45.249  36.252 -12.784  1.00  0.00     0.006 C 
BRANCH   4   5
ATOM      5  C   UNL     1      43.762  36.190 -13.145  1.00  0.00     0.053 C 
BRANCH   5   6
ATOM      6  C   UNL     1      42.928  36.712 -12.018  1.00  0.00     0.041 C 
ATOM      7  O   UNL     1      42.192  37.720 -12.188  1.00  0.00    -0.550 OA
ATOM      8  O   UNL     1      43.000  36.117 -10.765  1.00  0.00    -0.550 OA
ENDBRANCH   5   6
ENDBRANCH   4   5
ENDBRANCH   3   4
ENDBRANCH   2   3
ENDBRANCH   1   2
BRANCH   1   9
ATOM      9  C   UNL     1      46.783  36.980 -16.895  1.00  0.00     0.000 C 
BRANCH   9  10
ATOM     10  C   UNL     1      48.220  36.562 -17.259  1.00  0.00    -0.000 C 
BRANCH  10  11
ATOM     11  C   UNL     1      48.759  35.333 -16.499  1.00  0.00    -0.000 C 
BRANCH  11  12
ATOM     12  C   UNL     1      47.748  34.644 -15.561  1.00  0.00    -0.000 C 
BRANCH  12  13
ATOM     13  C   UNL     1      48.176  34.582 -14.084  1.00  0.00    -0.003 C 
ATOM     14  C   UNL     1      49.111  35.723 -13.687  1.00  0.00     0.004 C 
ENDBRANCH  12  13
ENDBRANCH  11  12
ENDBRANCH  10  11
ENDBRANCH   9  10
ENDBRANCH   1   9
TORSDOF 10
ENDMDL
MODEL 6
REMARK VINA RESULT:    -3.809      1.313      1.657
REMARK INTER + INTRA:          -7.499
REMARK INTER:                  -6.179
REMARK INTRA:                  -1.320
REMARK UNBOUND:                -1.462
REMARK SMILES CCCCCCCCCCCC(=O)[O-]
REMARK SMILES IDX 7 1 8 2 9 3 10 4 11 5 12 6 13 7 14 8 6 9 5 10 4 11 3 12 2 13
REMARK SMILES IDX 1 14
REMARK H PARENT
REMARK Flexibility Score: inf
ROOT
ATOM      1  C   UNL     1      48.685  37.157 -13.467  1.00  0.00     0.000 C 
ENDROOT
BRANCH   1   2
ATOM      2  C   UNL     1      49.109  35.691 -13.260  1.00  0.00     0.000 C 
BRANCH   2   3
ATOM      3  C   UNL     1      48.226  34.646 -13.966  1.00  0.00     0.000 C 
BRANCH   3   4
ATOM      4  C   UNL     1      46.730  34.992 -13.920  1.00  0.00     0.006 C 
BRANCH   4   5
ATOM      5  C   UNL     1      46.021  34.211 -12.810  1.00  0.00     0.053 C 
BRANCH   5   6
ATOM      6  C   UNL     1      45.887  35.054 -11.581  1.00  0.00     0.041 C 
ATOM      7  O   UNL     1      46.748  34.978 -10.664  1.00  0.00    -0.550 OA
ATOM      8  O   UNL     1      44.786  35.885 -11.423  1.00  0.00    -0.550 OA
ENDBRANCH   5   6
ENDBRANCH   4   5
ENDBRANCH   3   4
ENDBRANCH   2   3
ENDBRANCH   1   2
BRANCH   1   9
ATOM      9  C   UNL     1      49.702  37.965 -14.291  1.00  0.00     0.000 C 
BRANCH   9  10
ATOM     10  C   UNL     1      50.823  37.089 -14.881  1.00  0.00    -0.000 C 
BRANCH  10  11
ATOM     11  C   UNL     1      50.798  36.934 -16.415  1.00  0.00    -0.000 C 
BRANCH  11  12
ATOM     12  C   UNL     1      49.593  36.154 -16.977  1.00  0.00    -0.000 C 
BRANCH  12  13
ATOM     13  C   UNL     1      48.429  37.031 -17.472  1.00  0.00    -0.003 C 
ATOM     14  C   UNL     1      47.067  36.360 -17.305  1.00  0.00     0.004 C 
ENDBRANCH  12  13
ENDBRANCH  11  12
ENDBRANCH  10  11
ENDBRANCH   9  10
ENDBRANCH   1   9
TORSDOF 10
ENDMDL
MODEL 7
REMARK VINA RESULT:    -3.807      2.061      3.316
REMARK INTER + INTRA:          -7.495
REMARK INTER:                  -6.187
REMARK INTRA:                  -1.308
REMARK UNBOUND:                -1.462
REMARK SMILES CCCCCCCCCCCC(=O)[O-]
REMARK SMILES IDX 7 1 8 2 9 3 10 4 11 5 12 6 13 7 14 8 6 9 5 10 4 11 3 12 2 13
REMARK SMILES IDX 1 14
REMARK H PARENT
REMARK Flexibility Score: inf
ROOT
ATOM      1  C   UNL     1      47.745  34.694 -15.825  1.00  0.00     0.000 C 
ENDROOT
BRANCH   1   2
ATOM      2  C   UNL     1      47.103  34.780 -14.429  1.00  0.00     0.000 C 
BRANCH   2   3
ATOM      3  C   UNL     1      46.423  36.123 -14.100  1.00  0.00     0.000 C 
BRANCH   3   4
ATOM      4  C   UNL     1      46.646  36.571 -12.649  1.00  0.00     0.006 C 
BRANCH   4   5
ATOM      5  C   UNL     1      46.164  35.502 -11.664  1.00  0.00     0.053 C 
BRANCH   5   6
ATOM      6  C   UNL     1      47.074  35.432 -10.479  1.00  0.00     0.041 C 
ATOM      7  O   UNL     1      46.799  34.673  -9.513  1.00  0.00    -0.550 OA
ATOM      8  O   UNL     1      48.200  36.242 -10.418  1.00  0.00    -0.550 OA
ENDBRANCH   5   6
ENDBRANCH   4   5
ENDBRANCH   3   4
ENDBRANCH   2   3
ENDBRANCH   1   2
BRANCH   1   9
ATOM      9  C   UNL     1      47.425  35.911 -16.709  1.00  0.00     0.000 C 
BRANCH   9  10
ATOM     10  C   UNL     1      48.689  36.639 -17.203  1.00  0.00    -0.000 C 
BRANCH  10  11
ATOM     11  C   UNL     1      50.022  35.930 -16.889  1.00  0.00    -0.000 C 
BRANCH  11  12
ATOM     12  C   UNL     1      50.942  36.670 -15.899  1.00  0.00    -0.000 C 
BRANCH  12  13
ATOM     13  C   UNL     1      50.210  37.385 -14.748  1.00  0.00    -0.003 C 
ATOM     14  C   UNL     1      50.274  36.611 -13.432  1.00  0.00     0.004 C 
ENDBRANCH  12  13
ENDBRANCH  11  12
ENDBRANCH  10  11
ENDBRANCH   9  10
ENDBRANCH   1   9
TORSDOF 10
ENDMDL
MODEL 8
REMARK VINA RESULT:    -3.799      1.386      2.146
REMARK INTER + INTRA:          -7.482
REMARK INTER:                  -5.993
REMARK INTRA:                  -1.489
REMARK UNBOUND:                -1.462
REMARK SMILES CCCCCCCCCCCC(=O)[O-]
REMARK SMILES IDX 7 1 8 2 9 3 10 4 11 5 12 6 13 7 14 8 6 9 5 10 4 11 3 12 2 13
REMARK SMILES IDX 1 14
REMARK H PARENT
REMARK Flexibility Score: inf
ROOT
ATOM      1  C   UNL     1      50.981  37.116 -14.125  1.00  0.00     0.000 C 
ENDROOT
BRANCH   1   2
ATOM      2  C   UNL     1      49.722  36.945 -13.256  1.00  0.00     0.000 C 
BRANCH   2   3
ATOM      3  C   UNL     1      48.541  37.864 -13.621  1.00  0.00     0.000 C 
BRANCH   3   4
ATOM      4  C   UNL     1      47.186  37.142 -13.595  1.00  0.00     0.006 C 
BRANCH   4   5
ATOM      5  C   UNL     1      47.332  35.720 -13.046  1.00  0.00     0.053 C 
BRANCH   5   6
ATOM      6  C   UNL     1      45.996  35.054 -12.956  1.00  0.00     0.041 C 
ATOM      7  O   UNL     1      44.942  35.744 -12.963  1.00  0.00    -0.550 OA
ATOM      8  O   UNL     1      45.914  33.675 -12.813  1.00  0.00    -0.550 OA
ENDBRANCH   5   6
ENDBRANCH   4   5
ENDBRANCH   3   4
ENDBRANCH   2   3
ENDBRANCH   1   2
BRANCH   1   9
ATOM      9  C   UNL     1      50.656  37.382 -15.605  1.00  0.00     0.000 C 
BRANCH   9  10
ATOM     10  C   UNL     1      51.148  36.258 -16.536  1.00  0.00    -0.000 C 
BRANCH  10  11
ATOM     11  C   UNL     1      50.036  35.441 -17.225  1.00  0.00    -0.000 C 
BRANCH  11  12
ATOM     12  C   UNL     1      48.980  34.838 -16.278  1.00  0.00    -0.000 C 
BRANCH  12  13
ATOM     13  C   UNL     1      47.520  35.090 -16.696  1.00  0.00    -0.003 C 
ATOM     14  C   UNL     1      47.298  36.490 -17.266  1.00  0.00     0.004 C 
ENDBRANCH  12  13
ENDBRANCH  11  12
ENDBRANCH  10  11
ENDBRANCH   9  10
ENDBRANCH   1   9
TORSDOF 10
ENDMDL
MODEL 9
REMARK VINA RESULT:    -3.170     17.982     19.721
REMARK INTER + INTRA:          -6.486
REMARK INTER:                  -5.362
REMARK INTRA:                  -1.123
REMARK UNBOUND:                -1.462
REMARK SMILES CCCCCCCCCCCC(=O)[O-]
REMARK SMILES IDX 7 1 8 2 9 3 10 4 11 5 12 6 13 7 14 8 6 9 5 10 4 11 3 12 2 13
REMARK SMILES IDX 1 14
REMARK H PARENT
REMARK Flexibility Score: inf
ROOT
ATOM      1  C   UNL     1      38.255  21.442 -22.532  1.00  0.00     0.000 C 
ENDROOT
BRANCH   1   2
ATOM      2  C   UNL     1      37.629  21.949 -23.844  1.00  0.00     0.000 C 
BRANCH   2   3
ATOM      3  C   UNL     1      38.401  21.584 -25.125  1.00  0.00     0.000 C 
BRANCH   3   4
ATOM      4  C   UNL     1      39.925  21.647 -24.948  1.00  0.00     0.006 C 
BRANCH   4   5
ATOM      5  C   UNL     1      40.425  23.093 -25.014  1.00  0.00     0.053 C 
BRANCH   5   6
ATOM      6  C   UNL     1      41.458  23.339 -23.960  1.00  0.00     0.041 C 
ATOM      7  O   UNL     1      42.259  22.423 -23.632  1.00  0.00    -0.550 OA
ATOM      8  O   UNL     1      41.505  24.561 -23.303  1.00  0.00    -0.550 OA
ENDBRANCH   5   6
ENDBRANCH   4   5
ENDBRANCH   3   4
ENDBRANCH   2   3
ENDBRANCH   1   2
BRANCH   1   9
ATOM      9  C   UNL     1      37.347  20.457 -21.776  1.00  0.00     0.000 C 
BRANCH   9  10
ATOM     10  C   UNL     1      37.209  19.101 -22.493  1.00  0.00    -0.000 C 
BRANCH  10  11
ATOM     11  C   UNL     1      38.448  18.186 -22.415  1.00  0.00    -0.000 C 
BRANCH  11  12
ATOM     12  C   UNL     1      39.250  18.276 -21.102  1.00  0.00    -0.000 C 
BRANCH  12  13
ATOM     13  C   UNL     1      40.769  18.450 -21.283  1.00  0.00    -0.003 C 
ATOM     14  C   UNL     1      41.139  19.068 -22.631  1.00  0.00     0.004 C 
ENDBRANCH  12  13
ENDBRANCH  11  12
ENDBRANCH  10  11
ENDBRANCH   9  10
ENDBRANCH   1   9
TORSDOF 10
ENDMDL
