MODEL 1
REMARK VINA RESULT:    -3.288      0.000      0.000
REMARK INTER + INTRA:          -3.739
REMARK INTER:                  -3.672
REMARK INTRA:                  -0.067
REMARK UNBOUND:                -0.067
REMARK SMILES CCCC(=O)[O-]
REMARK SMILES IDX 3 1 4 2 5 3 6 4 2 5 1 6
REMARK H PARENT
REMARK Flexibility Score: inf
ROOT
ATOM      1  C   UNL     1       7.740   3.779  -4.055  1.00  0.00     0.052 C 
ENDROOT
BRANCH   1   2
ATOM      2  C   UNL     1       8.646   2.754  -4.666  1.00  0.00     0.041 C 
ATOM      3  O   UNL     1       9.379   3.057  -5.643  1.00  0.00    -0.550 OA
ATOM      4  O   UNL     1       8.703   1.473  -4.133  1.00  0.00    -0.550 OA
ENDBRANCH   1   2
BRANCH   1   5
ATOM      5  C   UNL     1       6.813   4.413  -5.100  1.00  0.00     0.003 C 
ATOM      6  C   UNL     1       5.802   3.414  -5.662  1.00  0.00     0.004 C 
ENDBRANCH   1   5
TORSDOF 2
ENDMDL
MODEL 2
REMARK VINA RESULT:    -3.241      0.150      1.327
REMARK INTER + INTRA:          -3.686
REMARK INTER:                  -3.617
REMARK INTRA:                  -0.069
REMARK UNBOUND:                -0.067
REMARK SMILES CCCC(=O)[O-]
REMARK SMILES IDX 3 1 4 2 5 3 6 4 2 5 1 6
REMARK H PARENT
REMARK Flexibility Score: inf
ROOT
ATOM      1  C   UNL     1       7.827   3.706  -4.052  1.00  0.00     0.052 C 
ENDROOT
BRANCH   1   2
ATOM      2  C   UNL     1       8.728   2.640  -4.596  1.00  0.00     0.041 C 
ATOM      3  O   UNL     1       8.714   1.484  -4.099  1.00  0.00    -0.550 OA
ATOM      4  O   UNL     1       9.559   2.915  -5.674  1.00  0.00    -0.550 OA
ENDBRANCH   1   2
BRANCH   1   5
ATOM      5  C   UNL     1       6.934   4.307  -5.146  1.00  0.00     0.003 C 
ATOM      6  C   UNL     1       5.878   3.320  -5.641  1.00  0.00     0.004 C 
ENDBRANCH   1   5
TORSDOF 2
ENDMDL
MODEL 3
REMARK VINA RESULT:    -3.075      1.377      1.816
REMARK INTER + INTRA:          -3.501
REMARK INTER:                  -3.464
REMARK INTRA:                  -0.037
REMARK UNBOUND:                -0.067
REMARK SMILES CCCC(=O)[O-]
REMARK SMILES IDX 3 1 4 2 5 3 6 4 2 5 1 6
REMARK H PARENT
REMARK Flexibility Score: inf
ROOT
ATOM      1  C   UNL     1       8.221   2.836  -5.725  1.00  0.00     0.052 C 
ENDROOT
BRANCH   1   2
ATOM      2  C   UNL     1       8.066   1.424  -5.251  1.00  0.00     0.041 C 
ATOM      3  O   UNL     1       8.885   0.937  -4.428  1.00  0.00    -0.550 OA
ATOM      4  O   UNL     1       6.997   0.655  -5.693  1.00  0.00    -0.550 OA
ENDBRANCH   1   2
BRANCH   1   5
ATOM      5  C   UNL     1       7.382   3.811  -4.889  1.00  0.00     0.003 C 
ATOM      6  C   UNL     1       5.993   4.041  -5.484  1.00  0.00     0.004 C 
ENDBRANCH   1   5
TORSDOF 2
ENDMDL
MODEL 4
REMARK VINA RESULT:    -2.963      1.975      2.493
REMARK INTER + INTRA:          -3.376
REMARK INTER:                  -3.331
REMARK INTRA:                  -0.045
REMARK UNBOUND:                -0.067
REMARK SMILES CCCC(=O)[O-]
REMARK SMILES IDX 3 1 4 2 5 3 6 4 2 5 1 6
REMARK H PARENT
REMARK Flexibility Score: inf
ROOT
ATOM      1  C   UNL     1       6.495   2.812  -6.891  1.00  0.00     0.052 C 
ENDROOT
BRANCH   1   2
ATOM      2  C   UNL     1       7.187   1.508  -6.637  1.00  0.00     0.041 C 
ATOM      3  O   UNL     1       8.162   1.158  -7.352  1.00  0.00    -0.550 OA
ATOM      4  O   UNL     1       6.776   0.695  -5.589  1.00  0.00    -0.550 OA
ENDBRANCH   1   2
BRANCH   1   5
ATOM      5  C   UNL     1       5.936   3.419  -5.597  1.00  0.00     0.003 C 
ATOM      6  C   UNL     1       6.954   4.312  -4.888  1.00  0.00     0.004 C 
ENDBRANCH   1   5
TORSDOF 2
ENDMDL
MODEL 5
REMARK VINA RESULT:    -2.939      1.624      2.288
REMARK INTER + INTRA:          -3.350
REMARK INTER:                  -3.313
REMARK INTRA:                  -0.037
REMARK UNBOUND:                -0.067
REMARK SMILES CCCC(=O)[O-]
REMARK SMILES IDX 3 1 4 2 5 3 6 4 2 5 1 6
REMARK H PARENT
REMARK Flexibility Score: inf
ROOT
ATOM      1  C   UNL     1       6.480   2.905  -6.360  1.00  0.00     0.052 C 
ENDROOT
BRANCH   1   2
ATOM      2  C   UNL     1       7.072   1.819  -5.515  1.00  0.00     0.041 C 
ATOM      3  O   UNL     1       6.752   0.618  -5.711  1.00  0.00    -0.550 OA
ATOM      4  O   UNL     1       8.002   2.132  -4.532  1.00  0.00    -0.550 OA
ENDBRANCH   1   2
BRANCH   1   5
ATOM      5  C   UNL     1       6.000   4.088  -5.508  1.00  0.00     0.003 C 
ATOM      6  C   UNL     1       6.750   5.380  -5.833  1.00  0.00     0.004 C 
ENDBRANCH   1   5
TORSDOF 2
ENDMDL
MODEL 6
REMARK VINA RESULT:    -2.894      2.708      3.070
REMARK INTER + INTRA:          -3.299
REMARK INTER:                  -3.255
REMARK INTRA:                  -0.045
REMARK UNBOUND:                -0.067
REMARK SMILES CCCC(=O)[O-]
REMARK SMILES IDX 3 1 4 2 5 3 6 4 2 5 1 6
REMARK H PARENT
REMARK Flexibility Score: inf
ROOT
ATOM      1  C   UNL     1       9.609   0.871  -6.453  1.00  0.00     0.052 C 
ENDROOT
BRANCH   1   2
ATOM      2  C   UNL     1       9.266   0.441  -5.061  1.00  0.00     0.041 C 
ATOM      3  O   UNL     1       8.909   1.290  -4.203  1.00  0.00    -0.550 OA
ATOM      4  O   UNL     1       9.310  -0.905  -4.719  1.00  0.00    -0.550 OA
ENDBRANCH   1   2
BRANCH   1   5
ATOM      5  C   UNL     1       8.793   2.097  -6.885  1.00  0.00     0.003 C 
ATOM      6  C   UNL     1       7.425   1.716  -7.449  1.00  0.00     0.004 C 
ENDBRANCH   1   5
TORSDOF 2
ENDMDL
MODEL 7
REMARK VINA RESULT:    -2.882     12.566     13.440
REMARK INTER + INTRA:          -3.286
REMARK INTER:                  -3.261
REMARK INTRA:                  -0.025
REMARK UNBOUND:                -0.067
REMARK SMILES CCCC(=O)[O-]
REMARK SMILES IDX 3 1 4 2 5 3 6 4 2 5 1 6
REMARK H PARENT
REMARK Flexibility Score: inf
ROOT
ATOM      1  C   UNL     1      -2.831  11.686  -8.341  1.00  0.00     0.052 C 
ENDROOT
BRANCH   1   2
ATOM      2  C   UNL     1      -1.499  11.030  -8.536  1.00  0.00     0.041 C 
ATOM      3  O   UNL     1      -1.391   9.778  -8.466  1.00  0.00    -0.550 OA
ATOM      4  O   UNL     1      -0.381  11.802  -8.827  1.00  0.00    -0.550 OA
ENDBRANCH   1   2
BRANCH   1   5
ATOM      5  C   UNL     1      -2.904  12.438  -7.005  1.00  0.00     0.003 C 
ATOM      6  C   UNL     1      -3.814  11.741  -5.994  1.00  0.00     0.004 C 
ENDBRANCH   1   5
TORSDOF 2
ENDMDL
MODEL 8
REMARK VINA RESULT:    -2.769     16.580     17.450
REMARK INTER + INTRA:          -3.159
REMARK INTER:                  -3.152
REMARK INTRA:                  -0.007
REMARK UNBOUND:                -0.067
REMARK SMILES CCCC(=O)[O-]
REMARK SMILES IDX 3 1 4 2 5 3 6 4 2 5 1 6
REMARK H PARENT
REMARK Flexibility Score: inf
ROOT
ATOM      1  C   UNL     1      -8.102  10.068  -5.432  1.00  0.00     0.052 C 
ENDROOT
BRANCH   1   2
ATOM      2  C   UNL     1      -8.603   9.188  -6.535  1.00  0.00     0.041 C 
ATOM      3  O   UNL     1      -8.549   7.936  -6.423  1.00  0.00    -0.550 OA
ATOM      4  O   UNL     1      -9.160   9.752  -7.676  1.00  0.00    -0.550 OA
ENDBRANCH   1   2
BRANCH   1   5
ATOM      5  C   UNL     1      -7.227  11.209  -5.968  1.00  0.00     0.003 C 
ATOM      6  C   UNL     1      -5.952  11.398  -5.148  1.00  0.00     0.004 C 
ENDBRANCH   1   5
TORSDOF 2
ENDMDL
MODEL 9
REMARK VINA RESULT:    -2.769      2.210      3.143
REMARK INTER + INTRA:          -3.159
REMARK INTER:                  -3.136
REMARK INTRA:                  -0.023
REMARK UNBOUND:                -0.067
REMARK SMILES CCCC(=O)[O-]
REMARK SMILES IDX 3 1 4 2 5 3 6 4 2 5 1 6
REMARK H PARENT
REMARK Flexibility Score: inf
ROOT
ATOM      1  C   UNL     1       8.006   2.973  -5.856  1.00  0.00     0.052 C 
ENDROOT
BRANCH   1   2
ATOM      2  C   UNL     1       6.938   1.923  -5.888  1.00  0.00     0.041 C 
ATOM      3  O   UNL     1       6.043   1.900  -5.003  1.00  0.00    -0.550 OA
ATOM      4  O   UNL     1       6.914   0.988  -6.915  1.00  0.00    -0.550 OA
ENDBRANCH   1   2
BRANCH   1   5
ATOM      5  C   UNL     1       8.665   3.070  -4.474  1.00  0.00     0.003 C 
ATOM      6  C   UNL     1      10.055   2.435  -4.447  1.00  0.00     0.004 C 
ENDBRANCH   1   5
TORSDOF 2
ENDMDL
