MODEL 1
REMARK VINA RESULT:    -4.444      0.000      0.000
REMARK INTER + INTRA:          -7.508
REMARK INTER:                  -6.911
REMARK INTRA:                  -0.597
REMARK UNBOUND:                -0.597
REMARK SMILES COc1cc(CNC(=O)CCCCC=CC(C)C)ccc1O
REMARK SMILES IDX 11 1 12 2 13 3 14 4 15 5 16 6 17 7 18 8 10 9 8 10 9 11 7 12
REMARK SMILES IDX 6 14 5 15 4 16 19 17 3 18 20 19 21 20 2 21 1 22 22 23
REMARK H PARENT 7 13 22 24
REMARK Flexibility Score: inf
ROOT
ATOM      1  C   UNL     1       6.115  13.524  63.427  1.00  0.00     0.010 C 
ENDROOT
BRANCH   1   2
ATOM      2  C   UNL     1       6.895  12.910  62.245  1.00  0.00     0.005 C 
BRANCH   2   3
ATOM      3  C   UNL     1       8.260  13.567  61.979  1.00  0.00     0.027 C 
BRANCH   3   4
ATOM      4  C   UNL     1       9.061  12.831  60.938  1.00  0.00    -0.031 C 
ATOM      5  C   UNL     1       9.096  11.489  60.924  1.00  0.00    -0.028 C 
BRANCH   5   6
ATOM      6  C   UNL     1       9.875  10.701  59.895  1.00  0.00     0.005 C 
ATOM      7  C   UNL     1      10.972  11.555  59.248  1.00  0.00     0.012 C 
ATOM      8  C   UNL     1       8.945  10.099  58.836  1.00  0.00     0.012 C 
ENDBRANCH   5   6
ENDBRANCH   3   4
ENDBRANCH   2   3
ENDBRANCH   1   2
BRANCH   1   9
ATOM      9  C   UNL     1       5.043  14.548  63.021  1.00  0.00     0.100 C 
BRANCH   9  10
ATOM     10  C   UNL     1       3.655  14.028  63.250  1.00  0.00     0.220 C 
ATOM     11  O   UNL     1       3.471  12.786  63.379  1.00  0.00    -0.275 OA
ATOM     12  N   UNL     1       2.541  14.929  63.278  1.00  0.00    -0.352 N 
ATOM     13  H   UNL     1       2.723  15.956  63.208  1.00  0.00     0.163 HD
BRANCH  12  14
ATOM     14  C   UNL     1       1.165  14.440  63.350  1.00  0.00     0.151 C 
BRANCH  14  15
ATOM     15  C   UNL     1       0.379  14.899  62.150  1.00  0.00    -0.025 A 
ATOM     16  C   UNL     1      -0.768  14.202  61.744  1.00  0.00     0.056 A 
ATOM     17  C   UNL     1       0.748  16.069  61.476  1.00  0.00     0.009 A 
ATOM     18  C   UNL     1      -1.533  14.641  60.655  1.00  0.00     0.160 A 
ATOM     19  C   UNL     1      -0.002  16.519  60.390  1.00  0.00     0.050 A 
ATOM     20  C   UNL     1      -1.141  15.817  59.967  1.00  0.00     0.157 A 
BRANCH  18  21
ATOM     21  O   UNL     1      -2.660  13.872  60.315  1.00  0.00    -0.493 OA
ATOM     22  C   UNL     1      -4.017  14.213  60.567  1.00  0.00     0.278 C 
ENDBRANCH  18  21
BRANCH  20  23
ATOM     23  O   UNL     1      -1.862  16.293  58.873  1.00  0.00    -0.504 OA
ATOM     24  H   UNL     1      -1.468  16.963  58.225  1.00  0.00     0.293 HD
ENDBRANCH  20  23
ENDBRANCH  14  15
ENDBRANCH  12  14
ENDBRANCH   9  10
ENDBRANCH   1   9
TORSDOF 10
ENDMDL
MODEL 2
REMARK VINA RESULT:    -4.400     13.083     15.600
REMARK INTER + INTRA:          -7.440
REMARK INTER:                  -5.529
REMARK INTRA:                  -1.912
REMARK UNBOUND:                -0.597
REMARK SMILES COc1cc(CNC(=O)CCCCC=CC(C)C)ccc1O
REMARK SMILES IDX 11 1 12 2 13 3 14 4 15 5 16 6 17 7 18 8 10 9 8 10 9 11 7 12
REMARK SMILES IDX 6 14 5 15 4 16 19 17 3 18 20 19 21 20 2 21 1 22 22 23
REMARK H PARENT 7 13 22 24
REMARK Flexibility Score: inf
ROOT
ATOM      1  C   UNL     1       0.152  14.360  75.848  1.00  0.00     0.010 C 
ENDROOT
BRANCH   1   2
ATOM      2  C   UNL     1       1.144  13.443  76.596  1.00  0.00     0.005 C 
BRANCH   2   3
ATOM      3  C   UNL     1       0.921  11.941  76.354  1.00  0.00     0.027 C 
BRANCH   3   4
ATOM      4  C   UNL     1       1.938  11.353  75.412  1.00  0.00    -0.031 C 
ATOM      5  C   UNL     1       2.873  10.499  75.859  1.00  0.00    -0.028 C 
BRANCH   5   6
ATOM      6  C   UNL     1       3.910   9.872  74.954  1.00  0.00     0.005 C 
ATOM      7  C   UNL     1       4.130  10.711  73.689  1.00  0.00     0.012 C 
ATOM      8  C   UNL     1       3.539   8.427  74.603  1.00  0.00     0.012 C 
ENDBRANCH   5   6
ENDBRANCH   3   4
ENDBRANCH   2   3
ENDBRANCH   1   2
BRANCH   1   9
ATOM      9  C   UNL     1       0.730  15.032  74.592  1.00  0.00     0.100 C 
BRANCH   9  10
ATOM     10  C   UNL     1       2.175  15.397  74.766  1.00  0.00     0.220 C 
ATOM     11  O   UNL     1       2.482  16.384  75.489  1.00  0.00    -0.275 OA
ATOM     12  N   UNL     1       3.195  14.661  74.079  1.00  0.00    -0.352 N 
ATOM     13  H   UNL     1       2.918  13.824  73.516  1.00  0.00     0.163 HD
BRANCH  12  14
ATOM     14  C   UNL     1       4.594  15.084  74.109  1.00  0.00     0.151 C 
BRANCH  14  15
ATOM     15  C   UNL     1       5.454  14.015  74.728  1.00  0.00    -0.025 A 
ATOM     16  C   UNL     1       6.627  13.588  74.088  1.00  0.00     0.056 A 
ATOM     17  C   UNL     1       5.127  13.491  75.984  1.00  0.00     0.009 A 
ATOM     18  C   UNL     1       7.459  12.623  74.672  1.00  0.00     0.160 A 
ATOM     19  C   UNL     1       5.945  12.530  76.579  1.00  0.00     0.050 A 
ATOM     20  C   UNL     1       7.109  12.085  75.936  1.00  0.00     0.157 A 
BRANCH  18  21
ATOM     21  O   UNL     1       8.607  12.251  73.950  1.00  0.00    -0.493 OA
ATOM     22  C   UNL     1       8.746  11.097  73.131  1.00  0.00     0.278 C 
ENDBRANCH  18  21
BRANCH  20  23
ATOM     23  O   UNL     1       7.899  11.119  76.557  1.00  0.00    -0.504 OA
ATOM     24  H   UNL     1       8.350  11.291  77.447  1.00  0.00     0.293 HD
ENDBRANCH  20  23
ENDBRANCH  14  15
ENDBRANCH  12  14
ENDBRANCH   9  10
ENDBRANCH   1   9
TORSDOF 10
ENDMDL
MODEL 3
REMARK VINA RESULT:    -4.375      6.529      8.532
REMARK INTER + INTRA:          -7.402
REMARK INTER:                  -5.166
REMARK INTRA:                  -2.236
REMARK UNBOUND:                -0.597
REMARK SMILES COc1cc(CNC(=O)CCCCC=CC(C)C)ccc1O
REMARK SMILES IDX 11 1 12 2 13 3 14 4 15 5 16 6 17 7 18 8 10 9 8 10 9 11 7 12
REMARK SMILES IDX 6 14 5 15 4 16 19 17 3 18 20 19 21 20 2 21 1 22 22 23
REMARK H PARENT 7 13 22 24
REMARK Flexibility Score: inf
ROOT
ATOM      1  C   UNL     1      -1.473   6.428  62.757  1.00  0.00     0.010 C 
ENDROOT
BRANCH   1   2
ATOM      2  C   UNL     1       0.015   6.584  62.377  1.00  0.00     0.005 C 
BRANCH   2   3
ATOM      3  C   UNL     1       0.449   8.033  62.100  1.00  0.00     0.027 C 
BRANCH   3   4
ATOM      4  C   UNL     1      -0.354   9.035  62.887  1.00  0.00    -0.031 C 
ATOM      5  C   UNL     1       0.034  10.318  62.960  1.00  0.00    -0.028 C 
BRANCH   5   6
ATOM      6  C   UNL     1      -0.742  11.365  63.728  1.00  0.00     0.005 C 
ATOM      7  C   UNL     1      -2.237  11.030  63.779  1.00  0.00     0.012 C 
ATOM      8  C   UNL     1      -0.507  12.765  63.149  1.00  0.00     0.012 C 
ENDBRANCH   5   6
ENDBRANCH   3   4
ENDBRANCH   2   3
ENDBRANCH   1   2
BRANCH   1   9
ATOM      9  C   UNL     1      -2.317   5.663  61.726  1.00  0.00     0.100 C 
BRANCH   9  10
ATOM     10  C   UNL     1      -3.167   6.584  60.901  1.00  0.00     0.220 C 
ATOM     11  O   UNL     1      -3.537   6.224  59.751  1.00  0.00    -0.275 OA
ATOM     12  N   UNL     1      -3.517   7.883  61.398  1.00  0.00    -0.352 N 
ATOM     13  H   UNL     1      -3.231   8.143  62.370  1.00  0.00     0.163 HD
BRANCH  12  14
ATOM     14  C   UNL     1      -4.214   8.858  60.562  1.00  0.00     0.151 C 
BRANCH  14  15
ATOM     15  C   UNL     1      -3.315  10.025  60.252  1.00  0.00    -0.025 A 
ATOM     16  C   UNL     1      -3.732  11.335  60.527  1.00  0.00     0.056 A 
ATOM     17  C   UNL     1      -2.026   9.804  59.754  1.00  0.00     0.009 A 
ATOM     18  C   UNL     1      -2.891  12.428  60.283  1.00  0.00     0.160 A 
ATOM     19  C   UNL     1      -1.176  10.882  59.504  1.00  0.00     0.050 A 
ATOM     20  C   UNL     1      -1.594  12.196  59.760  1.00  0.00     0.157 A 
BRANCH  18  21
ATOM     21  O   UNL     1      -3.400  13.705  60.580  1.00  0.00    -0.493 OA
ATOM     22  C   UNL     1      -4.625  13.985  61.246  1.00  0.00     0.278 C 
ENDBRANCH  18  21
BRANCH  20  23
ATOM     23  O   UNL     1      -0.720  13.248  59.493  1.00  0.00    -0.504 OA
ATOM     24  H   UNL     1       0.227  13.087  59.172  1.00  0.00     0.293 HD
ENDBRANCH  20  23
ENDBRANCH  14  15
ENDBRANCH  12  14
ENDBRANCH   9  10
ENDBRANCH   1   9
TORSDOF 10
ENDMDL
MODEL 4
REMARK VINA RESULT:    -4.301     14.061     15.437
REMARK INTER + INTRA:          -7.288
REMARK INTER:                  -5.969
REMARK INTRA:                  -1.319
REMARK UNBOUND:                -0.597
REMARK SMILES COc1cc(CNC(=O)CCCCC=CC(C)C)ccc1O
REMARK SMILES IDX 11 1 12 2 13 3 14 4 15 5 16 6 17 7 18 8 10 9 8 10 9 11 7 12
REMARK SMILES IDX 6 14 5 15 4 16 19 17 3 18 20 19 21 20 2 21 1 22 22 23
REMARK H PARENT 7 13 22 24
REMARK Flexibility Score: inf
ROOT
ATOM      1  C   UNL     1       7.523  11.180  75.478  1.00  0.00     0.010 C 
ENDROOT
BRANCH   1   2
ATOM      2  C   UNL     1       6.998  12.629  75.564  1.00  0.00     0.005 C 
BRANCH   2   3
ATOM      3  C   UNL     1       5.657  12.773  76.302  1.00  0.00     0.027 C 
BRANCH   3   4
ATOM      4  C   UNL     1       4.707  13.704  75.596  1.00  0.00    -0.031 C 
ATOM      5  C   UNL     1       3.962  14.578  76.291  1.00  0.00    -0.028 C 
BRANCH   5   6
ATOM      6  C   UNL     1       3.002  15.542  75.630  1.00  0.00     0.005 C 
ATOM      7  C   UNL     1       3.048  16.924  76.294  1.00  0.00     0.012 C 
ATOM      8  C   UNL     1       1.575  14.982  75.614  1.00  0.00     0.012 C 
ENDBRANCH   5   6
ENDBRANCH   3   4
ENDBRANCH   2   3
ENDBRANCH   1   2
BRANCH   1   9
ATOM      9  C   UNL     1       7.365  10.526  74.096  1.00  0.00     0.100 C 
BRANCH   9  10
ATOM     10  C   UNL     1       6.313   9.455  74.100  1.00  0.00     0.220 C 
ATOM     11  O   UNL     1       6.291   8.604  73.169  1.00  0.00    -0.275 OA
ATOM     12  N   UNL     1       5.314   9.427  75.128  1.00  0.00    -0.352 N 
ATOM     13  H   UNL     1       5.377  10.119  75.909  1.00  0.00     0.163 HD
BRANCH  12  14
ATOM     14  C   UNL     1       4.193   8.491  75.076  1.00  0.00     0.151 C 
BRANCH  14  15
ATOM     15  C   UNL     1       2.892   9.214  75.306  1.00  0.00    -0.025 A 
ATOM     16  C   UNL     1       1.674   8.522  75.242  1.00  0.00     0.056 A 
ATOM     17  C   UNL     1       2.896  10.569  75.659  1.00  0.00     0.009 A 
ATOM     18  C   UNL     1       0.459   9.173  75.494  1.00  0.00     0.160 A 
ATOM     19  C   UNL     1       1.694  11.231  75.913  1.00  0.00     0.050 A 
ATOM     20  C   UNL     1       0.471  10.549  75.832  1.00  0.00     0.157 A 
BRANCH  18  21
ATOM     21  O   UNL     1      -0.711   8.399  75.395  1.00  0.00    -0.493 OA
ATOM     22  C   UNL     1      -1.409   7.789  76.474  1.00  0.00     0.278 C 
ENDBRANCH  18  21
BRANCH  20  23
ATOM     23  O   UNL     1      -0.710  11.245  76.086  1.00  0.00    -0.504 OA
ATOM     24  H   UNL     1      -0.723  12.083  76.655  1.00  0.00     0.293 HD
ENDBRANCH  20  23
ENDBRANCH  14  15
ENDBRANCH  12  14
ENDBRANCH   9  10
ENDBRANCH   1   9
TORSDOF 10
ENDMDL
MODEL 5
REMARK VINA RESULT:    -4.297      5.659      7.776
REMARK INTER + INTRA:          -7.281
REMARK INTER:                  -5.913
REMARK INTRA:                  -1.368
REMARK UNBOUND:                -0.597
REMARK SMILES COc1cc(CNC(=O)CCCCC=CC(C)C)ccc1O
REMARK SMILES IDX 11 1 12 2 13 3 14 4 15 5 16 6 17 7 18 8 10 9 8 10 9 11 7 12
REMARK SMILES IDX 6 14 5 15 4 16 19 17 3 18 20 19 21 20 2 21 1 22 22 23
REMARK H PARENT 7 13 22 24
REMARK Flexibility Score: inf
ROOT
ATOM      1  C   UNL     1       0.382   9.407  62.137  1.00  0.00     0.010 C 
ENDROOT
BRANCH   1   2
ATOM      2  C   UNL     1      -0.436   9.022  60.886  1.00  0.00     0.005 C 
BRANCH   2   3
ATOM      3  C   UNL     1      -0.796  10.210  59.977  1.00  0.00     0.027 C 
BRANCH   3   4
ATOM      4  C   UNL     1      -2.276  10.304  59.711  1.00  0.00    -0.031 C 
ATOM      5  C   UNL     1      -3.128   9.425  60.264  1.00  0.00    -0.028 C 
BRANCH   5   6
ATOM      6  C   UNL     1      -4.622   9.482  60.038  1.00  0.00     0.005 C 
ATOM      7  C   UNL     1      -5.395   9.333  61.354  1.00  0.00     0.012 C 
ATOM      8  C   UNL     1      -5.068   8.435  59.011  1.00  0.00     0.012 C 
ENDBRANCH   5   6
ENDBRANCH   3   4
ENDBRANCH   2   3
ENDBRANCH   1   2
BRANCH   1   9
ATOM      9  C   UNL     1      -0.456   9.599  63.412  1.00  0.00     0.100 C 
BRANCH   9  10
ATOM     10  C   UNL     1      -0.577  11.045  63.791  1.00  0.00     0.220 C 
ATOM     11  O   UNL     1      -1.542  11.419  64.511  1.00  0.00    -0.275 OA
ATOM     12  N   UNL     1       0.371  12.002  63.300  1.00  0.00    -0.352 N 
ATOM     13  H   UNL     1       1.183  11.662  62.737  1.00  0.00     0.163 HD
BRANCH  12  14
ATOM     14  C   UNL     1       0.195  13.436  63.527  1.00  0.00     0.151 C 
BRANCH  14  15
ATOM     15  C   UNL     1      -0.374  14.098  62.301  1.00  0.00    -0.025 A 
ATOM     16  C   UNL     1      -1.625  13.708  61.800  1.00  0.00     0.056 A 
ATOM     17  C   UNL     1       0.309  15.159  61.696  1.00  0.00     0.009 A 
ATOM     18  C   UNL     1      -2.187  14.344  60.684  1.00  0.00     0.160 A 
ATOM     19  C   UNL     1      -0.236  15.802  60.584  1.00  0.00     0.050 A 
ATOM     20  C   UNL     1      -1.478  15.405  60.067  1.00  0.00     0.157 A 
BRANCH  18  21
ATOM     21  O   UNL     1      -3.439  13.876  60.248  1.00  0.00    -0.493 OA
ATOM     22  C   UNL     1      -4.422  13.233  61.051  1.00  0.00     0.278 C 
ENDBRANCH  18  21
BRANCH  20  23
ATOM     23  O   UNL     1      -1.989  16.065  58.951  1.00  0.00    -0.504 OA
ATOM     24  H   UNL     1      -2.901  16.506  58.963  1.00  0.00     0.293 HD
ENDBRANCH  20  23
ENDBRANCH  14  15
ENDBRANCH  12  14
ENDBRANCH   9  10
ENDBRANCH   1   9
TORSDOF 10
ENDMDL
MODEL 6
REMARK VINA RESULT:    -4.272      1.784      2.400
REMARK INTER + INTRA:          -7.242
REMARK INTER:                  -6.563
REMARK INTRA:                  -0.679
REMARK UNBOUND:                -0.597
REMARK SMILES COc1cc(CNC(=O)CCCCC=CC(C)C)ccc1O
REMARK SMILES IDX 11 1 12 2 13 3 14 4 15 5 16 6 17 7 18 8 10 9 8 10 9 11 7 12
REMARK SMILES IDX 6 14 5 15 4 16 19 17 3 18 20 19 21 20 2 21 1 22 22 23
REMARK H PARENT 7 13 22 24
REMARK Flexibility Score: inf
ROOT
ATOM      1  C   UNL     1       7.619  12.398  63.265  1.00  0.00     0.010 C 
ENDROOT
BRANCH   1   2
ATOM      2  C   UNL     1       8.886  12.075  62.444  1.00  0.00     0.005 C 
BRANCH   2   3
ATOM      3  C   UNL     1       9.196  13.093  61.333  1.00  0.00     0.027 C 
BRANCH   3   4
ATOM      4  C   UNL     1       9.734  12.440  60.088  1.00  0.00    -0.031 C 
ATOM      5  C   UNL     1       9.658  11.109  59.925  1.00  0.00    -0.028 C 
BRANCH   5   6
ATOM      6  C   UNL     1      10.173  10.405  58.689  1.00  0.00     0.005 C 
ATOM      7  C   UNL     1      10.026   8.883  58.808  1.00  0.00     0.012 C 
ATOM      8  C   UNL     1      11.624  10.799  58.390  1.00  0.00     0.012 C 
ENDBRANCH   5   6
ENDBRANCH   3   4
ENDBRANCH   2   3
ENDBRANCH   1   2
BRANCH   1   9
ATOM      9  C   UNL     1       6.395  12.786  62.420  1.00  0.00     0.100 C 
BRANCH   9  10
ATOM     10  C   UNL     1       5.867  14.141  62.788  1.00  0.00     0.220 C 
ATOM     11  O   UNL     1       6.658  15.013  63.240  1.00  0.00    -0.275 OA
ATOM     12  N   UNL     1       4.467  14.428  62.669  1.00  0.00    -0.352 N 
ATOM     13  H   UNL     1       3.839  13.703  62.255  1.00  0.00     0.163 HD
BRANCH  12  14
ATOM     14  C   UNL     1       3.901  15.685  63.158  1.00  0.00     0.151 C 
BRANCH  14  15
ATOM     15  C   UNL     1       2.674  16.052  62.368  1.00  0.00    -0.025 A 
ATOM     16  C   UNL     1       1.518  15.261  62.442  1.00  0.00     0.056 A 
ATOM     17  C   UNL     1       2.653  17.229  61.610  1.00  0.00     0.009 A 
ATOM     18  C   UNL     1       0.354  15.613  61.746  1.00  0.00     0.160 A 
ATOM     19  C   UNL     1       1.503  17.593  60.910  1.00  0.00     0.050 A 
ATOM     20  C   UNL     1       0.350  16.796  60.966  1.00  0.00     0.157 A 
BRANCH  18  21
ATOM     21  O   UNL     1      -0.750  14.752  61.873  1.00  0.00    -0.493 OA
ATOM     22  C   UNL     1      -0.722  13.416  62.360  1.00  0.00     0.278 C 
ENDBRANCH  18  21
BRANCH  20  23
ATOM     23  O   UNL     1      -0.779  17.188  60.248  1.00  0.00    -0.504 OA
ATOM     24  H   UNL     1      -0.781  17.224  59.236  1.00  0.00     0.293 HD
ENDBRANCH  20  23
ENDBRANCH  14  15
ENDBRANCH  12  14
ENDBRANCH   9  10
ENDBRANCH   1   9
TORSDOF 10
ENDMDL
MODEL 7
REMARK VINA RESULT:    -4.254      7.531      9.607
REMARK INTER + INTRA:          -7.214
REMARK INTER:                  -5.227
REMARK INTRA:                  -1.987
REMARK UNBOUND:                -0.597
REMARK SMILES COc1cc(CNC(=O)CCCCC=CC(C)C)ccc1O
REMARK SMILES IDX 11 1 12 2 13 3 14 4 15 5 16 6 17 7 18 8 10 9 8 10 9 11 7 12
REMARK SMILES IDX 6 14 5 15 4 16 19 17 3 18 20 19 21 20 2 21 1 22 22 23
REMARK H PARENT 7 13 22 24
REMARK Flexibility Score: inf
ROOT
ATOM      1  C   UNL     1      12.725   7.586  61.426  1.00  0.00     0.010 C 
ENDROOT
BRANCH   1   2
ATOM      2  C   UNL     1      13.113   9.063  61.653  1.00  0.00     0.005 C 
BRANCH   2   3
ATOM      3  C   UNL     1      12.019   9.907  62.327  1.00  0.00     0.027 C 
BRANCH   3   4
ATOM      4  C   UNL     1      10.997   9.062  63.041  1.00  0.00    -0.031 C 
ATOM      5  C   UNL     1      10.946   9.036  64.382  1.00  0.00    -0.028 C 
BRANCH   5   6
ATOM      6  C   UNL     1       9.933   8.213  65.147  1.00  0.00     0.005 C 
ATOM      7  C   UNL     1      10.550   6.912  65.673  1.00  0.00     0.012 C 
ATOM      8  C   UNL     1       8.690   7.932  64.296  1.00  0.00     0.012 C 
ENDBRANCH   5   6
ENDBRANCH   3   4
ENDBRANCH   2   3
ENDBRANCH   1   2
BRANCH   1   9
ATOM      9  C   UNL     1      12.635   7.170  59.949  1.00  0.00     0.100 C 
BRANCH   9  10
ATOM     10  C   UNL     1      11.678   8.034  59.180  1.00  0.00     0.220 C 
ATOM     11  O   UNL     1      12.102   8.714  58.206  1.00  0.00    -0.275 OA
ATOM     12  N   UNL     1      10.304   8.122  59.579  1.00  0.00    -0.352 N 
ATOM     13  H   UNL     1       9.969   7.519  60.365  1.00  0.00     0.163 HD
BRANCH  12  14
ATOM     14  C   UNL     1       9.385   9.065  58.946  1.00  0.00     0.151 C 
BRANCH  14  15
ATOM     15  C   UNL     1       9.332  10.353  59.724  1.00  0.00    -0.025 A 
ATOM     16  C   UNL     1       8.560  10.446  60.891  1.00  0.00     0.056 A 
ATOM     17  C   UNL     1      10.113  11.445  59.328  1.00  0.00     0.009 A 
ATOM     18  C   UNL     1       8.534  11.624  61.649  1.00  0.00     0.160 A 
ATOM     19  C   UNL     1      10.098  12.625  60.071  1.00  0.00     0.050 A 
ATOM     20  C   UNL     1       9.314  12.731  61.229  1.00  0.00     0.157 A 
BRANCH  18  21
ATOM     21  O   UNL     1       7.722  11.626  62.797  1.00  0.00    -0.493 OA
ATOM     22  C   UNL     1       8.174  11.643  64.145  1.00  0.00     0.278 C 
ENDBRANCH  18  21
BRANCH  20  23
ATOM     23  O   UNL     1       9.318  13.928  61.943  1.00  0.00    -0.504 OA
ATOM     24  H   UNL     1       8.608  14.140  62.633  1.00  0.00     0.293 HD
ENDBRANCH  20  23
ENDBRANCH  14  15
ENDBRANCH  12  14
ENDBRANCH   9  10
ENDBRANCH   1   9
TORSDOF 10
ENDMDL
MODEL 8
REMARK VINA RESULT:    -4.238     13.977     15.153
REMARK INTER + INTRA:          -7.189
REMARK INTER:                  -5.665
REMARK INTRA:                  -1.523
REMARK UNBOUND:                -0.597
REMARK SMILES COc1cc(CNC(=O)CCCCC=CC(C)C)ccc1O
REMARK SMILES IDX 11 1 12 2 13 3 14 4 15 5 16 6 17 7 18 8 10 9 8 10 9 11 7 12
REMARK SMILES IDX 6 14 5 15 4 16 19 17 3 18 20 19 21 20 2 21 1 22 22 23
REMARK H PARENT 7 13 22 24
REMARK Flexibility Score: inf
ROOT
ATOM      1  C   UNL     1       1.284  11.093  76.459  1.00  0.00     0.010 C 
ENDROOT
BRANCH   1   2
ATOM      2  C   UNL     1       2.545  10.470  75.823  1.00  0.00     0.005 C 
BRANCH   2   3
ATOM      3  C   UNL     1       2.972  11.121  74.497  1.00  0.00     0.027 C 
BRANCH   3   4
ATOM      4  C   UNL     1       4.242  11.919  74.630  1.00  0.00    -0.031 C 
ATOM      5  C   UNL     1       4.889  11.985  75.805  1.00  0.00    -0.028 C 
BRANCH   5   6
ATOM      6  C   UNL     1       6.173  12.763  75.989  1.00  0.00     0.005 C 
ATOM      7  C   UNL     1       6.423  13.719  74.817  1.00  0.00     0.012 C 
ATOM      8  C   UNL     1       7.365  11.823  76.202  1.00  0.00     0.012 C 
ENDBRANCH   5   6
ENDBRANCH   3   4
ENDBRANCH   2   3
ENDBRANCH   1   2
BRANCH   1   9
ATOM      9  C   UNL     1       0.065  11.159  75.525  1.00  0.00     0.100 C 
BRANCH   9  10
ATOM     10  C   UNL     1      -0.335  12.573  75.225  1.00  0.00     0.220 C 
ATOM     11  O   UNL     1      -0.836  12.851  74.101  1.00  0.00    -0.275 OA
ATOM     12  N   UNL     1      -0.109  13.608  76.190  1.00  0.00    -0.352 N 
ATOM     13  H   UNL     1       0.271  13.346  77.129  1.00  0.00     0.163 HD
BRANCH  12  14
ATOM     14  C   UNL     1      -0.350  15.015  75.872  1.00  0.00     0.151 C 
BRANCH  14  15
ATOM     15  C   UNL     1       0.953  15.764  75.778  1.00  0.00    -0.025 A 
ATOM     16  C   UNL     1       0.976  17.163  75.879  1.00  0.00     0.056 A 
ATOM     17  C   UNL     1       2.159  15.063  75.663  1.00  0.00     0.009 A 
ATOM     18  C   UNL     1       2.185  17.871  75.835  1.00  0.00     0.160 A 
ATOM     19  C   UNL     1       3.370  15.752  75.617  1.00  0.00     0.050 A 
ATOM     20  C   UNL     1       3.399  17.152  75.699  1.00  0.00     0.157 A 
BRANCH  18  21
ATOM     21  O   UNL     1       2.107  19.271  75.932  1.00  0.00    -0.493 OA
ATOM     22  C   UNL     1       1.541  20.008  77.009  1.00  0.00     0.278 C 
ENDBRANCH  18  21
BRANCH  20  23
ATOM     23  O   UNL     1       4.628  17.808  75.643  1.00  0.00    -0.504 OA
ATOM     24  H   UNL     1       5.505  17.305  75.704  1.00  0.00     0.293 HD
ENDBRANCH  20  23
ENDBRANCH  14  15
ENDBRANCH  12  14
ENDBRANCH   9  10
ENDBRANCH   1   9
TORSDOF 10
ENDMDL
MODEL 9
REMARK VINA RESULT:    -4.167      6.029      7.972
REMARK INTER + INTRA:          -7.078
REMARK INTER:                  -5.043
REMARK INTRA:                  -2.035
REMARK UNBOUND:                -0.597
REMARK SMILES COc1cc(CNC(=O)CCCCC=CC(C)C)ccc1O
REMARK SMILES IDX 11 1 12 2 13 3 14 4 15 5 16 6 17 7 18 8 10 9 8 10 9 11 7 12
REMARK SMILES IDX 6 14 5 15 4 16 19 17 3 18 20 19 21 20 2 21 1 22 22 23
REMARK H PARENT 7 13 22 24
REMARK Flexibility Score: inf
ROOT
ATOM      1  C   UNL     1      -0.800   9.166  61.738  1.00  0.00     0.010 C 
ENDROOT
BRANCH   1   2
ATOM      2  C   UNL     1      -0.308   9.722  60.384  1.00  0.00     0.005 C 
BRANCH   2   3
ATOM      3  C   UNL     1      -1.367  10.523  59.608  1.00  0.00     0.027 C 
BRANCH   3   4
ATOM      4  C   UNL     1      -2.732  10.435  60.238  1.00  0.00    -0.031 C 
ATOM      5  C   UNL     1      -3.452  11.545  60.468  1.00  0.00    -0.028 C 
BRANCH   5   6
ATOM      6  C   UNL     1      -4.831  11.511  61.088  1.00  0.00     0.005 C 
ATOM      7  C   UNL     1      -4.771  11.735  62.604  1.00  0.00     0.012 C 
ATOM      8  C   UNL     1      -5.560  10.206  60.749  1.00  0.00     0.012 C 
ENDBRANCH   5   6
ENDBRANCH   3   4
ENDBRANCH   2   3
ENDBRANCH   1   2
BRANCH   1   9
ATOM      9  C   UNL     1       0.056   9.581  62.946  1.00  0.00     0.100 C 
BRANCH   9  10
ATOM     10  C   UNL     1       0.010  11.062  63.183  1.00  0.00     0.220 C 
ATOM     11  O   UNL     1       1.082  11.687  63.410  1.00  0.00    -0.275 OA
ATOM     12  N   UNL     1      -1.245  11.753  63.197  1.00  0.00    -0.352 N 
ATOM     13  H   UNL     1      -2.115  11.221  62.968  1.00  0.00     0.163 HD
BRANCH  12  14
ATOM     14  C   UNL     1      -1.336  13.164  63.572  1.00  0.00     0.151 C 
BRANCH  14  15
ATOM     15  C   UNL     1      -1.605  14.015  62.360  1.00  0.00    -0.025 A 
ATOM     16  C   UNL     1      -2.685  14.909  62.345  1.00  0.00     0.056 A 
ATOM     17  C   UNL     1      -0.734  13.971  61.265  1.00  0.00     0.009 A 
ATOM     18  C   UNL     1      -2.923  15.738  61.241  1.00  0.00     0.160 A 
ATOM     19  C   UNL     1      -0.957  14.789  60.157  1.00  0.00     0.050 A 
ATOM     20  C   UNL     1      -2.046  15.673  60.129  1.00  0.00     0.157 A 
BRANCH  18  21
ATOM     21  O   UNL     1      -4.036  16.594  61.314  1.00  0.00    -0.493 OA
ATOM     22  C   UNL     1      -4.021  17.959  61.713  1.00  0.00     0.278 C 
ENDBRANCH  18  21
BRANCH  20  23
ATOM     23  O   UNL     1      -2.241  16.470  59.003  1.00  0.00    -0.504 OA
ATOM     24  H   UNL     1      -2.804  16.159  58.220  1.00  0.00     0.293 HD
ENDBRANCH  20  23
ENDBRANCH  14  15
ENDBRANCH  12  14
ENDBRANCH   9  10
ENDBRANCH   1   9
TORSDOF 10
ENDMDL
