MODEL 1
REMARK VINA RESULT:    -6.887      0.000      0.000
REMARK INTER + INTRA:         -12.069
REMARK INTER:                 -10.510
REMARK INTRA:                  -1.558
REMARK UNBOUND:                -1.558
REMARK SMILES CC(=O)CCC=C(C)CCC=C(C)CCC=C(C)C
REMARK SMILES IDX 10 1 11 2 12 3 13 4 14 5 15 6 16 7 18 8 17 9 19 10 9 11 7 12
REMARK SMILES IDX 6 13 8 14 5 15 4 16 2 17 3 18 1 19
REMARK H PARENT
REMARK Flexibility Score: inf
ROOT
ATOM      1  C   UNL     1      26.591  19.887   6.220  1.00  0.00     0.032 C 
ENDROOT
BRANCH   1   2
ATOM      2  C   UNL     1      25.318  20.685   6.362  1.00  0.00    -0.028 C 
ATOM      3  C   UNL     1      24.863  21.540   5.419  1.00  0.00    -0.077 C 
ATOM      4  C   UNL     1      23.562  22.259   5.671  1.00  0.00     0.039 C 
BRANCH   3   5
ATOM      5  C   UNL     1      25.616  21.817   4.129  1.00  0.00     0.034 C 
BRANCH   5   6
ATOM      6  C   UNL     1      26.187  23.242   4.086  1.00  0.00     0.032 C 
BRANCH   6   7
ATOM      7  C   UNL     1      25.442  24.117   3.107  1.00  0.00    -0.028 C 
ATOM      8  C   UNL     1      24.158  26.062   2.330  1.00  0.00     0.039 C 
ATOM      9  C   UNL     1      24.820  25.273   3.430  1.00  0.00    -0.080 C 
ATOM     10  C   UNL     1      24.756  25.778   4.851  1.00  0.00     0.039 C 
ENDBRANCH   6   7
ENDBRANCH   5   6
ENDBRANCH   3   5
ENDBRANCH   1   2
BRANCH   1  11
ATOM     11  C   UNL     1      27.638  20.308   7.256  1.00  0.00     0.034 C 
BRANCH  11  12
ATOM     12  C   UNL     1      28.829  20.939   6.570  1.00  0.00    -0.077 C 
ATOM     13  C   UNL     1      29.830  20.141   6.135  1.00  0.00    -0.028 C 
ATOM     14  C   UNL     1      28.881  22.441   6.425  1.00  0.00     0.039 C 
BRANCH  13  15
ATOM     15  C   UNL     1      31.133  20.630   5.547  1.00  0.00     0.035 C 
BRANCH  15  16
ATOM     16  C   UNL     1      32.317  20.210   6.425  1.00  0.00     0.079 C 
BRANCH  16  17
ATOM     17  C   UNL     1      32.854  21.369   7.225  1.00  0.00     0.130 C 
ATOM     18  O   UNL     1      34.024  21.696   7.099  1.00  0.00    -0.300 OA
ATOM     19  C   UNL     1      31.981  22.129   8.179  1.00  0.00     0.087 C 
ENDBRANCH  16  17
ENDBRANCH  15  16
ENDBRANCH  13  15
ENDBRANCH  11  12
ENDBRANCH   1  11
TORSDOF 9
ENDMDL
MODEL 2
REMARK VINA RESULT:    -6.882      3.028      7.736
REMARK INTER + INTRA:         -12.062
REMARK INTER:                 -10.940
REMARK INTRA:                  -1.122
REMARK UNBOUND:                -1.558
REMARK SMILES CC(=O)CCC=C(C)CCC=C(C)CCC=C(C)C
REMARK SMILES IDX 10 1 11 2 12 3 13 4 14 5 15 6 16 7 18 8 17 9 19 10 9 11 7 12
REMARK SMILES IDX 6 13 8 14 5 15 4 16 2 17 3 18 1 19
REMARK H PARENT
REMARK Flexibility Score: inf
ROOT
ATOM      1  C   UNL     1      27.760  22.096   5.343  1.00  0.00     0.032 C 
ENDROOT
BRANCH   1   2
ATOM      2  C   UNL     1      28.222  22.296   6.765  1.00  0.00    -0.028 C 
ATOM      3  C   UNL     1      29.124  21.497   7.376  1.00  0.00    -0.077 C 
ATOM      4  C   UNL     1      29.524  21.819   8.794  1.00  0.00     0.039 C 
BRANCH   3   5
ATOM      5  C   UNL     1      29.737  20.281   6.700  1.00  0.00     0.034 C 
BRANCH   5   6
ATOM      6  C   UNL     1      30.837  20.669   5.701  1.00  0.00     0.032 C 
BRANCH   6   7
ATOM      7  C   UNL     1      32.208  20.631   6.331  1.00  0.00    -0.028 C 
ATOM      8  C   UNL     1      34.168  21.479   7.546  1.00  0.00     0.039 C 
ATOM      9  C   UNL     1      32.814  21.687   6.916  1.00  0.00    -0.080 C 
ATOM     10  C   UNL     1      32.185  23.059   6.938  1.00  0.00     0.039 C 
ENDBRANCH   6   7
ENDBRANCH   5   6
ENDBRANCH   3   5
ENDBRANCH   1   2
BRANCH   1  11
ATOM     11  C   UNL     1      26.353  21.490   5.288  1.00  0.00     0.034 C 
BRANCH  11  12
ATOM     12  C   UNL     1      25.363  22.511   4.773  1.00  0.00    -0.077 C 
ATOM     13  C   UNL     1      25.795  23.465   3.918  1.00  0.00    -0.028 C 
ATOM     14  C   UNL     1      23.934  22.457   5.256  1.00  0.00     0.039 C 
BRANCH  13  15
ATOM     15  C   UNL     1      24.961  24.621   3.417  1.00  0.00     0.035 C 
BRANCH  15  16
ATOM     16  C   UNL     1      24.865  25.722   4.479  1.00  0.00     0.079 C 
BRANCH  16  17
ATOM     17  C   UNL     1      23.443  26.184   4.673  1.00  0.00     0.130 C 
ATOM     18  O   UNL     1      23.174  26.925   5.605  1.00  0.00    -0.300 OA
ATOM     19  C   UNL     1      22.348  25.748   3.745  1.00  0.00     0.087 C 
ENDBRANCH  16  17
ENDBRANCH  15  16
ENDBRANCH  13  15
ENDBRANCH  11  12
ENDBRANCH   1  11
TORSDOF 9
ENDMDL
MODEL 3
REMARK VINA RESULT:    -6.880      3.294      7.338
REMARK INTER + INTRA:         -12.059
REMARK INTER:                 -10.967
REMARK INTRA:                  -1.091
REMARK UNBOUND:                -1.558
REMARK SMILES CC(=O)CCC=C(C)CCC=C(C)CCC=C(C)C
REMARK SMILES IDX 10 1 11 2 12 3 13 4 14 5 15 6 16 7 18 8 17 9 19 10 9 11 7 12
REMARK SMILES IDX 6 13 8 14 5 15 4 16 2 17 3 18 1 19
REMARK H PARENT
REMARK Flexibility Score: inf
ROOT
ATOM      1  C   UNL     1      27.078  20.256   4.692  1.00  0.00     0.032 C 
ENDROOT
BRANCH   1   2
ATOM      2  C   UNL     1      28.577  20.234   4.521  1.00  0.00    -0.028 C 
ATOM      3  C   UNL     1      29.446  20.183   5.556  1.00  0.00    -0.077 C 
ATOM      4  C   UNL     1      30.922  20.139   5.251  1.00  0.00     0.039 C 
BRANCH   3   5
ATOM      5  C   UNL     1      28.996  20.185   7.007  1.00  0.00     0.034 C 
BRANCH   5   6
ATOM      6  C   UNL     1      28.481  21.562   7.451  1.00  0.00     0.032 C 
BRANCH   6   7
ATOM      7  C   UNL     1      29.448  22.666   7.095  1.00  0.00    -0.028 C 
ATOM      8  C   UNL     1      31.485  24.031   7.251  1.00  0.00     0.039 C 
ATOM      9  C   UNL     1      30.598  22.922   7.757  1.00  0.00    -0.080 C 
ATOM     10  C   UNL     1      31.002  22.149   8.989  1.00  0.00     0.039 C 
ENDBRANCH   6   7
ENDBRANCH   5   6
ENDBRANCH   3   5
ENDBRANCH   1   2
BRANCH   1  11
ATOM     11  C   UNL     1      26.388  20.961   3.519  1.00  0.00     0.034 C 
BRANCH  11  12
ATOM     12  C   UNL     1      25.676  22.204   4.002  1.00  0.00    -0.077 C 
ATOM     13  C   UNL     1      25.908  23.377   3.370  1.00  0.00    -0.028 C 
ATOM     14  C   UNL     1      24.757  22.107   5.196  1.00  0.00     0.039 C 
BRANCH  13  15
ATOM     15  C   UNL     1      25.372  24.720   3.810  1.00  0.00     0.035 C 
BRANCH  15  16
ATOM     16  C   UNL     1      24.049  25.034   3.105  1.00  0.00     0.079 C 
BRANCH  16  17
ATOM     17  C   UNL     1      23.099  25.777   4.010  1.00  0.00     0.130 C 
ATOM     18  O   UNL     1      21.914  25.831   3.721  1.00  0.00    -0.300 OA
ATOM     19  C   UNL     1      23.581  26.455   5.257  1.00  0.00     0.087 C 
ENDBRANCH  16  17
ENDBRANCH  15  16
ENDBRANCH  13  15
ENDBRANCH  11  12
ENDBRANCH   1  11
TORSDOF 9
ENDMDL
MODEL 4
REMARK VINA RESULT:    -6.775      1.791      2.543
REMARK INTER + INTRA:         -11.898
REMARK INTER:                 -11.134
REMARK INTRA:                  -0.764
REMARK UNBOUND:                -1.558
REMARK SMILES CC(=O)CCC=C(C)CCC=C(C)CCC=C(C)C
REMARK SMILES IDX 10 1 11 2 12 3 13 4 14 5 15 6 16 7 18 8 17 9 19 10 9 11 7 12
REMARK SMILES IDX 6 13 8 14 5 15 4 16 2 17 3 18 1 19
REMARK H PARENT
REMARK Flexibility Score: inf
ROOT
ATOM      1  C   UNL     1      28.196  21.441   5.319  1.00  0.00     0.032 C 
ENDROOT
BRANCH   1   2
ATOM      2  C   UNL     1      26.763  21.000   5.490  1.00  0.00    -0.028 C 
ATOM      3  C   UNL     1      25.783  21.290   4.606  1.00  0.00    -0.077 C 
ATOM      4  C   UNL     1      24.395  20.768   4.879  1.00  0.00     0.039 C 
BRANCH   3   5
ATOM      5  C   UNL     1      26.019  22.131   3.363  1.00  0.00     0.034 C 
BRANCH   5   6
ATOM      6  C   UNL     1      26.108  23.630   3.687  1.00  0.00     0.032 C 
BRANCH   6   7
ATOM      7  C   UNL     1      24.777  24.190   4.128  1.00  0.00    -0.028 C 
ATOM      8  C   UNL     1      22.739  25.554   3.997  1.00  0.00     0.039 C 
ATOM      9  C   UNL     1      24.079  25.130   3.454  1.00  0.00    -0.080 C 
ATOM     10  C   UNL     1      24.609  25.772   2.194  1.00  0.00     0.039 C 
ENDBRANCH   6   7
ENDBRANCH   5   6
ENDBRANCH   3   5
ENDBRANCH   1   2
BRANCH   1  11
ATOM     11  C   UNL     1      29.124  20.250   5.055  1.00  0.00     0.034 C 
BRANCH  11  12
ATOM     12  C   UNL     1      30.430  20.430   5.796  1.00  0.00    -0.077 C 
ATOM     13  C   UNL     1      30.428  21.109   6.966  1.00  0.00    -0.028 C 
ATOM     14  C   UNL     1      31.699  19.880   5.192  1.00  0.00     0.039 C 
BRANCH  13  15
ATOM     15  C   UNL     1      31.663  21.478   7.755  1.00  0.00     0.035 C 
BRANCH  15  16
ATOM     16  C   UNL     1      31.345  22.567   8.785  1.00  0.00     0.079 C 
BRANCH  16  17
ATOM     17  C   UNL     1      30.555  23.697   8.174  1.00  0.00     0.130 C 
ATOM     18  O   UNL     1      29.337  23.692   8.258  1.00  0.00    -0.300 OA
ATOM     19  C   UNL     1      31.236  24.826   7.460  1.00  0.00     0.087 C 
ENDBRANCH  16  17
ENDBRANCH  15  16
ENDBRANCH  13  15
ENDBRANCH  11  12
ENDBRANCH   1  11
TORSDOF 9
ENDMDL
MODEL 5
REMARK VINA RESULT:    -6.644      3.075      7.369
REMARK INTER + INTRA:         -11.698
REMARK INTER:                 -10.395
REMARK INTRA:                  -1.303
REMARK UNBOUND:                -1.558
REMARK SMILES CC(=O)CCC=C(C)CCC=C(C)CCC=C(C)C
REMARK SMILES IDX 10 1 11 2 12 3 13 4 14 5 15 6 16 7 18 8 17 9 19 10 9 11 7 12
REMARK SMILES IDX 6 13 8 14 5 15 4 16 2 17 3 18 1 19
REMARK H PARENT
REMARK Flexibility Score: inf
ROOT
ATOM      1  C   UNL     1      26.252  20.206   5.835  1.00  0.00     0.032 C 
ENDROOT
BRANCH   1   2
ATOM      2  C   UNL     1      26.757  21.334   6.701  1.00  0.00    -0.028 C 
ATOM      3  C   UNL     1      28.041  21.756   6.704  1.00  0.00    -0.077 C 
ATOM      4  C   UNL     1      28.413  22.913   7.597  1.00  0.00     0.039 C 
BRANCH   3   5
ATOM      5  C   UNL     1      29.122  21.104   5.859  1.00  0.00     0.034 C 
BRANCH   5   6
ATOM      6  C   UNL     1      30.076  20.245   6.703  1.00  0.00     0.032 C 
BRANCH   6   7
ATOM      7  C   UNL     1      31.516  20.658   6.519  1.00  0.00    -0.028 C 
ATOM      8  C   UNL     1      33.661  21.712   7.089  1.00  0.00     0.039 C 
ATOM      9  C   UNL     1      32.212  21.424   7.388  1.00  0.00    -0.080 C 
ATOM     10  C   UNL     1      31.577  22.007   8.628  1.00  0.00     0.039 C 
ENDBRANCH   6   7
ENDBRANCH   5   6
ENDBRANCH   3   5
ENDBRANCH   1   2
BRANCH   1  11
ATOM     11  C   UNL     1      25.199  20.692   4.833  1.00  0.00     0.034 C 
BRANCH  11  12
ATOM     12  C   UNL     1      25.738  21.856   4.032  1.00  0.00    -0.077 C 
ATOM     13  C   UNL     1      25.188  23.079   4.205  1.00  0.00    -0.028 C 
ATOM     14  C   UNL     1      26.848  21.611   3.038  1.00  0.00     0.039 C 
BRANCH  13  15
ATOM     15  C   UNL     1      25.531  24.306   3.393  1.00  0.00     0.035 C 
BRANCH  15  16
ATOM     16  C   UNL     1      24.259  25.026   2.934  1.00  0.00     0.079 C 
BRANCH  16  17
ATOM     17  C   UNL     1      23.673  25.876   4.034  1.00  0.00     0.130 C 
ATOM     18  O   UNL     1      22.462  25.912   4.184  1.00  0.00    -0.300 OA
ATOM     19  C   UNL     1      24.549  26.682   4.946  1.00  0.00     0.087 C 
ENDBRANCH  16  17
ENDBRANCH  15  16
ENDBRANCH  13  15
ENDBRANCH  11  12
ENDBRANCH   1  11
TORSDOF 9
ENDMDL
MODEL 6
REMARK VINA RESULT:    -6.613      1.251      1.825
REMARK INTER + INTRA:         -11.651
REMARK INTER:                 -10.747
REMARK INTRA:                  -0.904
REMARK UNBOUND:                -1.558
REMARK SMILES CC(=O)CCC=C(C)CCC=C(C)CCC=C(C)C
REMARK SMILES IDX 10 1 11 2 12 3 13 4 14 5 15 6 16 7 18 8 17 9 19 10 9 11 7 12
REMARK SMILES IDX 6 13 8 14 5 15 4 16 2 17 3 18 1 19
REMARK H PARENT
REMARK Flexibility Score: inf
ROOT
ATOM      1  C   UNL     1      27.695  22.400   5.547  1.00  0.00     0.032 C 
ENDROOT
BRANCH   1   2
ATOM      2  C   UNL     1      26.260  22.209   5.975  1.00  0.00    -0.028 C 
ATOM      3  C   UNL     1      25.214  22.258   5.120  1.00  0.00    -0.077 C 
ATOM      4  C   UNL     1      23.829  22.024   5.669  1.00  0.00     0.039 C 
BRANCH   3   5
ATOM      5  C   UNL     1      25.376  22.552   3.638  1.00  0.00     0.034 C 
BRANCH   5   6
ATOM      6  C   UNL     1      25.742  24.021   3.378  1.00  0.00     0.032 C 
BRANCH   6   7
ATOM      7  C   UNL     1      25.081  24.950   4.367  1.00  0.00    -0.028 C 
ATOM      8  C   UNL     1      23.435  26.573   5.199  1.00  0.00     0.039 C 
ATOM      9  C   UNL     1      24.015  25.733   4.090  1.00  0.00    -0.080 C 
ATOM     10  C   UNL     1      23.410  25.803   2.709  1.00  0.00     0.039 C 
ENDBRANCH   6   7
ENDBRANCH   5   6
ENDBRANCH   3   5
ENDBRANCH   1   2
BRANCH   1  11
ATOM     11  C   UNL     1      28.315  21.087   5.054  1.00  0.00     0.034 C 
BRANCH  11  12
ATOM     12  C   UNL     1      29.397  20.630   6.006  1.00  0.00    -0.077 C 
ATOM     13  C   UNL     1      30.691  20.765   5.636  1.00  0.00    -0.028 C 
ATOM     14  C   UNL     1      29.001  20.005   7.322  1.00  0.00     0.039 C 
BRANCH  13  15
ATOM     15  C   UNL     1      31.874  20.245   6.419  1.00  0.00     0.035 C 
BRANCH  15  16
ATOM     16  C   UNL     1      32.756  21.401   6.903  1.00  0.00     0.079 C 
BRANCH  16  17
ATOM     17  C   UNL     1      31.952  22.445   7.637  1.00  0.00     0.130 C 
ATOM     18  O   UNL     1      31.745  23.525   7.107  1.00  0.00    -0.300 OA
ATOM     19  C   UNL     1      31.405  22.184   9.009  1.00  0.00     0.087 C 
ENDBRANCH  16  17
ENDBRANCH  15  16
ENDBRANCH  13  15
ENDBRANCH  11  12
ENDBRANCH   1  11
TORSDOF 9
ENDMDL
MODEL 7
REMARK VINA RESULT:    -6.391      1.659      2.098
REMARK INTER + INTRA:         -11.312
REMARK INTER:                  -9.895
REMARK INTRA:                  -1.417
REMARK UNBOUND:                -1.558
REMARK SMILES CC(=O)CCC=C(C)CCC=C(C)CCC=C(C)C
REMARK SMILES IDX 10 1 11 2 12 3 13 4 14 5 15 6 16 7 18 8 17 9 19 10 9 11 7 12
REMARK SMILES IDX 6 13 8 14 5 15 4 16 2 17 3 18 1 19
REMARK H PARENT
REMARK Flexibility Score: inf
ROOT
ATOM      1  C   UNL     1      27.283  19.876   6.373  1.00  0.00     0.032 C 
ENDROOT
BRANCH   1   2
ATOM      2  C   UNL     1      25.863  20.384   6.445  1.00  0.00    -0.028 C 
ATOM      3  C   UNL     1      25.259  21.054   5.439  1.00  0.00    -0.077 C 
ATOM      4  C   UNL     1      23.826  21.486   5.625  1.00  0.00     0.039 C 
BRANCH   3   5
ATOM      5  C   UNL     1      25.967  21.403   4.141  1.00  0.00     0.034 C 
BRANCH   5   6
ATOM      6  C   UNL     1      26.566  22.817   4.171  1.00  0.00     0.032 C 
BRANCH   6   7
ATOM      7  C   UNL     1      25.822  23.762   3.258  1.00  0.00    -0.028 C 
ATOM      8  C   UNL     1      24.402  25.670   2.644  1.00  0.00     0.039 C 
ATOM      9  C   UNL     1      25.042  24.781   3.679  1.00  0.00    -0.080 C 
ATOM     10  C   UNL     1      24.782  25.038   5.144  1.00  0.00     0.039 C 
ENDBRANCH   6   7
ENDBRANCH   5   6
ENDBRANCH   3   5
ENDBRANCH   1   2
BRANCH   1  11
ATOM     11  C   UNL     1      28.125  20.391   7.546  1.00  0.00     0.034 C 
BRANCH  11  12
ATOM     12  C   UNL     1      29.455  20.908   7.047  1.00  0.00    -0.077 C 
ATOM     13  C   UNL     1      30.257  21.581   7.904  1.00  0.00    -0.028 C 
ATOM     14  C   UNL     1      29.832  20.690   5.602  1.00  0.00     0.039 C 
BRANCH  13  15
ATOM     15  C   UNL     1      31.551  22.262   7.524  1.00  0.00     0.035 C 
BRANCH  15  16
ATOM     16  C   UNL     1      31.810  23.476   8.423  1.00  0.00     0.079 C 
BRANCH  16  17
ATOM     17  C   UNL     1      31.549  24.772   7.698  1.00  0.00     0.130 C 
ATOM     18  O   UNL     1      31.239  24.748   6.518  1.00  0.00    -0.300 OA
ATOM     19  C   UNL     1      31.667  26.093   8.398  1.00  0.00     0.087 C 
ENDBRANCH  16  17
ENDBRANCH  15  16
ENDBRANCH  13  15
ENDBRANCH  11  12
ENDBRANCH   1  11
TORSDOF 9
ENDMDL
MODEL 8
REMARK VINA RESULT:    -6.276      3.015      7.144
REMARK INTER + INTRA:         -11.136
REMARK INTER:                 -10.340
REMARK INTRA:                  -0.796
REMARK UNBOUND:                -1.558
REMARK SMILES CC(=O)CCC=C(C)CCC=C(C)CCC=C(C)C
REMARK SMILES IDX 10 1 11 2 12 3 13 4 14 5 15 6 16 7 18 8 17 9 19 10 9 11 7 12
REMARK SMILES IDX 6 13 8 14 5 15 4 16 2 17 3 18 1 19
REMARK H PARENT
REMARK Flexibility Score: inf
ROOT
ATOM      1  C   UNL     1      28.430  21.424   5.449  1.00  0.00     0.032 C 
ENDROOT
BRANCH   1   2
ATOM      2  C   UNL     1      29.798  20.790   5.405  1.00  0.00    -0.028 C 
ATOM      3  C   UNL     1      30.604  20.677   6.485  1.00  0.00    -0.077 C 
ATOM      4  C   UNL     1      31.940  19.999   6.315  1.00  0.00     0.039 C 
BRANCH   3   5
ATOM      5  C   UNL     1      30.225  21.219   7.853  1.00  0.00     0.034 C 
BRANCH   5   6
ATOM      6  C   UNL     1      31.415  21.884   8.561  1.00  0.00     0.032 C 
BRANCH   6   7
ATOM      7  C   UNL     1      31.752  23.225   7.956  1.00  0.00    -0.028 C 
ATOM      8  C   UNL     1      31.377  25.544   7.236  1.00  0.00     0.039 C 
ATOM      9  C   UNL     1      30.877  24.246   7.816  1.00  0.00    -0.080 C 
ATOM     10  C   UNL     1      29.424  24.114   8.205  1.00  0.00     0.039 C 
ENDBRANCH   6   7
ENDBRANCH   5   6
ENDBRANCH   3   5
ENDBRANCH   1   2
BRANCH   1  11
ATOM     11  C   UNL     1      27.370  20.522   4.807  1.00  0.00     0.034 C 
BRANCH  11  12
ATOM     12  C   UNL     1      26.118  21.315   4.511  1.00  0.00    -0.077 C 
ATOM     13  C   UNL     1      26.238  22.543   3.959  1.00  0.00    -0.028 C 
ATOM     14  C   UNL     1      24.775  20.728   4.873  1.00  0.00     0.039 C 
BRANCH  13  15
ATOM     15  C   UNL     1      25.094  23.502   3.721  1.00  0.00     0.035 C 
BRANCH  15  16
ATOM     16  C   UNL     1      25.025  24.552   4.835  1.00  0.00     0.079 C 
BRANCH  16  17
ATOM     17  C   UNL     1      24.497  25.869   4.326  1.00  0.00     0.130 C 
ATOM     18  O   UNL     1      23.948  26.636   5.101  1.00  0.00    -0.300 OA
ATOM     19  C   UNL     1      24.627  26.255   2.882  1.00  0.00     0.087 C 
ENDBRANCH  16  17
ENDBRANCH  15  16
ENDBRANCH  13  15
ENDBRANCH  11  12
ENDBRANCH   1  11
TORSDOF 9
ENDMDL
MODEL 9
REMARK VINA RESULT:    -6.276      2.792      6.759
REMARK INTER + INTRA:         -11.136
REMARK INTER:                  -9.048
REMARK INTRA:                  -2.088
REMARK UNBOUND:                -1.558
REMARK SMILES CC(=O)CCC=C(C)CCC=C(C)CCC=C(C)C
REMARK SMILES IDX 10 1 11 2 12 3 13 4 14 5 15 6 16 7 18 8 17 9 19 10 9 11 7 12
REMARK SMILES IDX 6 13 8 14 5 15 4 16 2 17 3 18 1 19
REMARK H PARENT
REMARK Flexibility Score: inf
ROOT
ATOM      1  C   UNL     1      30.380  20.782   5.616  1.00  0.00     0.032 C 
ENDROOT
BRANCH   1   2
ATOM      2  C   UNL     1      31.680  20.375   6.265  1.00  0.00    -0.028 C 
ATOM      3  C   UNL     1      32.574  21.258   6.762  1.00  0.00    -0.077 C 
ATOM      4  C   UNL     1      33.826  20.722   7.411  1.00  0.00     0.039 C 
BRANCH   3   5
ATOM      5  C   UNL     1      32.378  22.762   6.679  1.00  0.00     0.034 C 
BRANCH   5   6
ATOM      6  C   UNL     1      31.819  23.345   7.985  1.00  0.00     0.032 C 
BRANCH   6   7
ATOM      7  C   UNL     1      30.422  23.890   7.806  1.00  0.00    -0.028 C 
ATOM      8  C   UNL     1      27.979  23.985   8.047  1.00  0.00     0.039 C 
ATOM      9  C   UNL     1      29.301  23.292   8.263  1.00  0.00    -0.080 C 
ATOM     10  C   UNL     1      29.334  21.953   8.961  1.00  0.00     0.039 C 
ENDBRANCH   6   7
ENDBRANCH   5   6
ENDBRANCH   3   5
ENDBRANCH   1   2
BRANCH   1  11
ATOM     11  C   UNL     1      29.224  19.875   6.052  1.00  0.00     0.034 C 
BRANCH  11  12
ATOM     12  C   UNL     1      27.906  20.440   5.573  1.00  0.00    -0.077 C 
ATOM     13  C   UNL     1      27.782  20.796   4.274  1.00  0.00    -0.028 C 
ATOM     14  C   UNL     1      26.782  20.624   6.563  1.00  0.00     0.039 C 
BRANCH  13  15
ATOM     15  C   UNL     1      26.579  21.486   3.675  1.00  0.00     0.035 C 
BRANCH  15  16
ATOM     16  C   UNL     1      26.638  22.997   3.926  1.00  0.00     0.079 C 
BRANCH  16  17
ATOM     17  C   UNL     1      25.259  23.599   4.026  1.00  0.00     0.130 C 
ATOM     18  O   UNL     1      24.921  24.462   3.231  1.00  0.00    -0.300 OA
ATOM     19  C   UNL     1      24.293  23.162   5.087  1.00  0.00     0.087 C 
ENDBRANCH  16  17
ENDBRANCH  15  16
ENDBRANCH  13  15
ENDBRANCH  11  12
ENDBRANCH   1  11
TORSDOF 9
ENDMDL
