MODEL 1
REMARK VINA RESULT:    -4.454      0.000      0.000
REMARK INTER + INTRA:          -5.082
REMARK INTER:                  -4.845
REMARK INTRA:                  -0.237
REMARK UNBOUND:                -0.237
REMARK SMILES O=C([O-])c1ccccc1O
REMARK SMILES IDX 4 1 9 2 5 3 8 4 6 5 7 6 2 7 1 8 3 9 10 10
REMARK H PARENT 10 11
REMARK Flexibility Score: inf
ROOT
ATOM      1  C   UNL     1       5.818   4.281  -9.291  1.00  0.00     0.039 A 
ATOM      2  C   UNL     1       6.073   3.289  -8.313  1.00  0.00     0.124 A 
ATOM      3  C   UNL     1       4.710   5.135  -9.120  1.00  0.00     0.014 A 
ATOM      4  C   UNL     1       5.227   3.173  -7.199  1.00  0.00     0.047 A 
ATOM      5  C   UNL     1       3.877   5.006  -8.006  1.00  0.00     0.001 A 
ATOM      6  C   UNL     1       4.134   4.027  -7.048  1.00  0.00     0.004 A 
ENDROOT
BRANCH   1   7
ATOM      7  C   UNL     1       6.682   4.445 -10.488  1.00  0.00     0.075 C 
ATOM      8  O   UNL     1       7.257   5.539 -10.729  1.00  0.00    -0.545 OA
ATOM      9  O   UNL     1       6.870   3.386 -11.368  1.00  0.00    -0.545 OA
ENDBRANCH   1   7
BRANCH   2  10
ATOM     10  O   UNL     1       7.158   2.423  -8.442  1.00  0.00    -0.507 OA
ATOM     11  H   UNL     1       7.081   1.436  -8.222  1.00  0.00     0.293 HD
ENDBRANCH   2  10
TORSDOF 2
ENDMDL
MODEL 2
REMARK VINA RESULT:    -4.362     11.531     12.219
REMARK INTER + INTRA:          -4.982
REMARK INTER:                  -4.822
REMARK INTRA:                  -0.161
REMARK UNBOUND:                -0.237
REMARK SMILES O=C([O-])c1ccccc1O
REMARK SMILES IDX 4 1 9 2 5 3 8 4 6 5 7 6 2 7 1 8 3 9 10 10
REMARK H PARENT 10 11
REMARK Flexibility Score: inf
ROOT
ATOM      1  C   UNL     1      11.382   3.858 -19.813  1.00  0.00     0.039 A 
ATOM      2  C   UNL     1      12.022   3.173 -18.752  1.00  0.00     0.124 A 
ATOM      3  C   UNL     1      11.495   5.261 -19.880  1.00  0.00     0.014 A 
ATOM      4  C   UNL     1      12.752   3.893 -17.794  1.00  0.00     0.047 A 
ATOM      5  C   UNL     1      12.225   5.965 -18.918  1.00  0.00     0.001 A 
ATOM      6  C   UNL     1      12.852   5.282 -17.878  1.00  0.00     0.004 A 
ENDROOT
BRANCH   1   7
ATOM      7  C   UNL     1      10.597   3.144 -20.852  1.00  0.00     0.075 C 
ATOM      8  O   UNL     1      11.025   3.038 -22.031  1.00  0.00    -0.545 OA
ATOM      9  O   UNL     1       9.368   2.577 -20.535  1.00  0.00    -0.545 OA
ENDBRANCH   1   7
BRANCH   2  10
ATOM     10  O   UNL     1      11.937   1.785 -18.646  1.00  0.00    -0.507 OA
ATOM     11  H   UNL     1      11.591   1.335 -17.807  1.00  0.00     0.293 HD
ENDBRANCH   2  10
TORSDOF 2
ENDMDL
MODEL 3
REMARK VINA RESULT:    -4.341     18.272     19.093
REMARK INTER + INTRA:          -4.959
REMARK INTER:                  -4.707
REMARK INTRA:                  -0.251
REMARK UNBOUND:                -0.237
REMARK SMILES O=C([O-])c1ccccc1O
REMARK SMILES IDX 4 1 9 2 5 3 8 4 6 5 7 6 2 7 1 8 3 9 10 10
REMARK H PARENT 10 11
REMARK Flexibility Score: inf
ROOT
ATOM      1  C   UNL     1      19.577   7.299 -21.634  1.00  0.00     0.039 A 
ATOM      2  C   UNL     1      19.192   6.346 -22.608  1.00  0.00     0.124 A 
ATOM      3  C   UNL     1      18.608   8.194 -21.140  1.00  0.00     0.014 A 
ATOM      4  C   UNL     1      17.865   6.308 -23.062  1.00  0.00     0.047 A 
ATOM      5  C   UNL     1      17.290   8.145 -21.602  1.00  0.00     0.001 A 
ATOM      6  C   UNL     1      16.919   7.203 -22.561  1.00  0.00     0.004 A 
ENDROOT
BRANCH   1   7
ATOM      7  C   UNL     1      20.968   7.382 -21.121  1.00  0.00     0.075 C 
ATOM      8  O   UNL     1      21.597   8.473 -21.119  1.00  0.00    -0.545 OA
ATOM      9  O   UNL     1      21.604   6.245 -20.633  1.00  0.00    -0.545 OA
ENDBRANCH   1   7
BRANCH   2  10
ATOM     10  O   UNL     1      20.118   5.440 -23.124  1.00  0.00    -0.507 OA
ATOM     11  H   UNL     1      20.177   5.246 -24.117  1.00  0.00     0.293 HD
ENDBRANCH   2  10
TORSDOF 2
ENDMDL
MODEL 4
REMARK VINA RESULT:    -4.285     10.366     11.832
REMARK INTER + INTRA:          -4.898
REMARK INTER:                  -4.647
REMARK INTRA:                  -0.251
REMARK UNBOUND:                -0.237
REMARK SMILES O=C([O-])c1ccccc1O
REMARK SMILES IDX 4 1 9 2 5 3 8 4 6 5 7 6 2 7 1 8 3 9 10 10
REMARK H PARENT 10 11
REMARK Flexibility Score: inf
ROOT
ATOM      1  C   UNL     1       8.647  -6.642  -7.692  1.00  0.00     0.039 A 
ATOM      2  C   UNL     1      10.023  -6.391  -7.472  1.00  0.00     0.124 A 
ATOM      3  C   UNL     1       8.275  -7.769  -8.451  1.00  0.00     0.014 A 
ATOM      4  C   UNL     1      10.986  -7.260  -8.008  1.00  0.00     0.047 A 
ATOM      5  C   UNL     1       9.245  -8.624  -8.979  1.00  0.00     0.001 A 
ATOM      6  C   UNL     1      10.598  -8.371  -8.758  1.00  0.00     0.004 A 
ENDROOT
BRANCH   1   7
ATOM      7  C   UNL     1       7.589  -5.754  -7.147  1.00  0.00     0.075 C 
ATOM      8  O   UNL     1       6.691  -5.280  -7.892  1.00  0.00    -0.545 OA
ATOM      9  O   UNL     1       7.575  -5.427  -5.795  1.00  0.00    -0.545 OA
ENDBRANCH   1   7
BRANCH   2  10
ATOM     10  O   UNL     1      10.437  -5.288  -6.726  1.00  0.00    -0.507 OA
ATOM     11  H   UNL     1      10.978  -4.537  -7.140  1.00  0.00     0.293 HD
ENDBRANCH   2  10
TORSDOF 2
ENDMDL
MODEL 5
REMARK VINA RESULT:    -4.269     16.324     17.468
REMARK INTER + INTRA:          -4.880
REMARK INTER:                  -4.673
REMARK INTRA:                  -0.207
REMARK UNBOUND:                -0.237
REMARK SMILES O=C([O-])c1ccccc1O
REMARK SMILES IDX 4 1 9 2 5 3 8 4 6 5 7 6 2 7 1 8 3 9 10 10
REMARK H PARENT 10 11
REMARK Flexibility Score: inf
ROOT
ATOM      1  C   UNL     1      19.105  -2.337 -18.242  1.00  0.00     0.039 A 
ATOM      2  C   UNL     1      18.858  -3.730 -18.188  1.00  0.00     0.124 A 
ATOM      3  C   UNL     1      18.727  -1.538 -17.146  1.00  0.00     0.014 A 
ATOM      4  C   UNL     1      18.247  -4.288 -17.055  1.00  0.00     0.047 A 
ATOM      5  C   UNL     1      18.118  -2.107 -16.024  1.00  0.00     0.001 A 
ATOM      6  C   UNL     1      17.879  -3.480 -15.979  1.00  0.00     0.004 A 
ENDROOT
BRANCH   1   7
ATOM      7  C   UNL     1      19.749  -1.698 -19.418  1.00  0.00     0.075 C 
ATOM      8  O   UNL     1      19.124  -0.868 -20.130  1.00  0.00    -0.545 OA
ATOM      9  O   UNL     1      21.061  -2.009 -19.754  1.00  0.00    -0.545 OA
ENDBRANCH   1   7
BRANCH   2  10
ATOM     10  O   UNL     1      19.216  -4.560 -19.250  1.00  0.00    -0.507 OA
ATOM     11  H   UNL     1      19.962  -5.240 -19.167  1.00  0.00     0.293 HD
ENDBRANCH   2  10
TORSDOF 2
ENDMDL
MODEL 6
REMARK VINA RESULT:    -4.264     10.823     11.462
REMARK INTER + INTRA:          -4.875
REMARK INTER:                  -4.627
REMARK INTRA:                  -0.247
REMARK UNBOUND:                -0.237
REMARK SMILES O=C([O-])c1ccccc1O
REMARK SMILES IDX 4 1 9 2 5 3 8 4 6 5 7 6 2 7 1 8 3 9 10 10
REMARK H PARENT 10 11
REMARK Flexibility Score: inf
ROOT
ATOM      1  C   UNL     1       8.460  -6.229  -6.578  1.00  0.00     0.039 A 
ATOM      2  C   UNL     1       9.698  -5.743  -7.064  1.00  0.00     0.124 A 
ATOM      3  C   UNL     1       7.624  -6.950  -7.454  1.00  0.00     0.014 A 
ATOM      4  C   UNL     1      10.070  -5.982  -8.395  1.00  0.00     0.047 A 
ATOM      5  C   UNL     1       8.008  -7.180  -8.778  1.00  0.00     0.001 A 
ATOM      6  C   UNL     1       9.229  -6.698  -9.247  1.00  0.00     0.004 A 
ENDROOT
BRANCH   1   7
ATOM      7  C   UNL     1       8.020  -6.002  -5.179  1.00  0.00     0.075 C 
ATOM      8  O   UNL     1       7.980  -4.843  -4.690  1.00  0.00    -0.545 OA
ATOM      9  O   UNL     1       7.643  -7.076  -4.379  1.00  0.00    -0.545 OA
ENDBRANCH   1   7
BRANCH   2  10
ATOM     10  O   UNL     1      10.557  -5.025  -6.232  1.00  0.00    -0.507 OA
ATOM     11  H   UNL     1      10.801  -4.060  -6.423  1.00  0.00     0.293 HD
ENDBRANCH   2  10
TORSDOF 2
ENDMDL
MODEL 7
REMARK VINA RESULT:    -4.241     11.346     11.989
REMARK INTER + INTRA:          -4.850
REMARK INTER:                  -4.606
REMARK INTRA:                  -0.244
REMARK UNBOUND:                -0.237
REMARK SMILES O=C([O-])c1ccccc1O
REMARK SMILES IDX 4 1 9 2 5 3 8 4 6 5 7 6 2 7 1 8 3 9 10 10
REMARK H PARENT 10 11
REMARK Flexibility Score: inf
ROOT
ATOM      1  C   UNL     1      12.550   4.119 -18.435  1.00  0.00     0.039 A 
ATOM      2  C   UNL     1      11.886   2.935 -18.838  1.00  0.00     0.124 A 
ATOM      3  C   UNL     1      12.241   5.327 -19.092  1.00  0.00     0.014 A 
ATOM      4  C   UNL     1      10.942   2.981 -19.875  1.00  0.00     0.047 A 
ATOM      5  C   UNL     1      11.298   5.357 -20.123  1.00  0.00     0.001 A 
ATOM      6  C   UNL     1      10.650   4.186 -20.513  1.00  0.00     0.004 A 
ENDROOT
BRANCH   1   7
ATOM      7  C   UNL     1      13.557   4.124 -17.344  1.00  0.00     0.075 C 
ATOM      8  O   UNL     1      13.277   3.685 -16.198  1.00  0.00    -0.545 OA
ATOM      9  O   UNL     1      14.836   4.620 -17.573  1.00  0.00    -0.545 OA
ENDBRANCH   1   7
BRANCH   2  10
ATOM     10  O   UNL     1      12.161   1.717 -18.216  1.00  0.00    -0.507 OA
ATOM     11  H   UNL     1      12.829   1.645 -17.458  1.00  0.00     0.293 HD
ENDBRANCH   2  10
TORSDOF 2
ENDMDL
MODEL 8
REMARK VINA RESULT:    -4.090      7.515      7.757
REMARK INTER + INTRA:          -4.686
REMARK INTER:                  -4.435
REMARK INTRA:                  -0.251
REMARK UNBOUND:                -0.237
REMARK SMILES O=C([O-])c1ccccc1O
REMARK SMILES IDX 4 1 9 2 5 3 8 4 6 5 7 6 2 7 1 8 3 9 10 10
REMARK H PARENT 10 11
REMARK Flexibility Score: inf
ROOT
ATOM      1  C   UNL     1      12.313   3.733  -5.023  1.00  0.00     0.039 A 
ATOM      2  C   UNL     1      11.636   2.733  -4.284  1.00  0.00     0.124 A 
ATOM      3  C   UNL     1      12.130   5.083  -4.664  1.00  0.00     0.014 A 
ATOM      4  C   UNL     1      10.802   3.097  -3.216  1.00  0.00     0.047 A 
ATOM      5  C   UNL     1      11.296   5.430  -3.598  1.00  0.00     0.001 A 
ATOM      6  C   UNL     1      10.633   4.439  -2.875  1.00  0.00     0.004 A 
ENDROOT
BRANCH   1   7
ATOM      7  C   UNL     1      13.206   3.401  -6.162  1.00  0.00     0.075 C 
ATOM      8  O   UNL     1      12.830   2.622  -7.078  1.00  0.00    -0.545 OA
ATOM      9  O   UNL     1      14.482   3.949  -6.236  1.00  0.00    -0.545 OA
ENDBRANCH   1   7
BRANCH   2  10
ATOM     10  O   UNL     1      11.788   1.384  -4.605  1.00  0.00    -0.507 OA
ATOM     11  H   UNL     1      12.681   0.913  -4.517  1.00  0.00     0.293 HD
ENDBRANCH   2  10
TORSDOF 2
ENDMDL
MODEL 9
REMARK VINA RESULT:    -4.066      9.507     10.891
REMARK INTER + INTRA:          -4.659
REMARK INTER:                  -4.471
REMARK INTRA:                  -0.189
REMARK UNBOUND:                -0.237
REMARK SMILES O=C([O-])c1ccccc1O
REMARK SMILES IDX 4 1 9 2 5 3 8 4 6 5 7 6 2 7 1 8 3 9 10 10
REMARK H PARENT 10 11
REMARK Flexibility Score: inf
ROOT
ATOM      1  C   UNL     1       8.333  -5.821  -7.353  1.00  0.00     0.039 A 
ATOM      2  C   UNL     1       7.495  -5.177  -8.295  1.00  0.00     0.124 A 
ATOM      3  C   UNL     1       9.591  -6.295  -7.775  1.00  0.00     0.014 A 
ATOM      4  C   UNL     1       7.926  -5.022  -9.622  1.00  0.00     0.047 A 
ATOM      5  C   UNL     1      10.006  -6.134  -9.099  1.00  0.00     0.001 A 
ATOM      6  C   UNL     1       9.175  -5.499 -10.021  1.00  0.00     0.004 A 
ENDROOT
BRANCH   1   7
ATOM      7  C   UNL     1       7.924  -6.011  -5.938  1.00  0.00     0.075 C 
ATOM      8  O   UNL     1       7.845  -5.034  -5.147  1.00  0.00    -0.545 OA
ATOM      9  O   UNL     1       7.622  -7.281  -5.459  1.00  0.00    -0.545 OA
ENDBRANCH   1   7
BRANCH   2  10
ATOM     10  O   UNL     1       6.242  -4.692  -7.922  1.00  0.00    -0.507 OA
ATOM     11  H   UNL     1       5.475  -4.636  -8.581  1.00  0.00     0.293 HD
ENDBRANCH   2  10
TORSDOF 2
ENDMDL
