MODEL 1
REMARK VINA RESULT:    -4.319      0.000      0.000
REMARK INTER + INTRA:          -5.262
REMARK INTER:                  -5.202
REMARK INTRA:                  -0.060
REMARK UNBOUND:                -0.060
REMARK SMILES CC[C@H](C)[C@@H]([NH3+])C(=O)[O-]
REMARK SMILES IDX 3 1 4 2 5 3 6 4 7 8 8 9 9 10 2 11 1 12
REMARK H PARENT 6 5 6 6 6 7
REMARK Flexibility Score: inf
ROOT
ATOM      1  C   UNL     1       1.202  35.696  26.516  1.00  0.00     0.050 C 
ATOM      2  C   UNL     1       1.817  34.900  27.685  1.00  0.00     0.014 C 
ENDROOT
BRANCH   1   3
ATOM      3  C   UNL     1       1.839  35.280  25.150  1.00  0.00     0.230 C 
BRANCH   3   4
ATOM      4  N   UNL     1       2.702  34.094  25.277  1.00  0.00    -0.350 N 
ATOM      5  H   UNL     1       2.257  33.271  24.811  1.00  0.00     0.345 HD
ATOM      6  H   UNL     1       3.643  34.274  24.854  1.00  0.00     0.345 HD
ATOM      7  H   UNL     1       2.825  33.843  26.285  1.00  0.00     0.345 HD
ENDBRANCH   3   4
BRANCH   3   8
ATOM      8  C   UNL     1       0.772  35.009  24.117  1.00  0.00     0.099 C 
ATOM      9  O   UNL     1      -0.371  35.525  24.230  1.00  0.00    -0.544 OA
ATOM     10  O   UNL     1       1.046  34.180  23.037  1.00  0.00    -0.544 OA
ENDBRANCH   3   8
ENDBRANCH   1   3
BRANCH   1  11
ATOM     11  C   UNL     1       1.372  37.221  26.759  1.00  0.00     0.006 C 
ATOM     12  C   UNL     1       0.508  37.750  27.905  1.00  0.00     0.004 C 
ENDBRANCH   1  11
TORSDOF 4
ENDMDL
MODEL 2
REMARK VINA RESULT:    -4.142     14.124     14.591
REMARK INTER + INTRA:          -5.049
REMARK INTER:                  -4.987
REMARK INTRA:                  -0.062
REMARK UNBOUND:                -0.060
REMARK SMILES CC[C@H](C)[C@@H]([NH3+])C(=O)[O-]
REMARK SMILES IDX 3 1 4 2 5 3 6 4 7 8 8 9 9 10 2 11 1 12
REMARK H PARENT 6 5 6 6 6 7
REMARK Flexibility Score: inf
ROOT
ATOM      1  C   UNL     1      -1.590  25.955  35.475  1.00  0.00     0.050 C 
ATOM      2  C   UNL     1      -2.880  26.074  34.640  1.00  0.00     0.014 C 
ENDROOT
BRANCH   1   3
ATOM      3  C   UNL     1      -1.011  24.502  35.419  1.00  0.00     0.230 C 
BRANCH   3   4
ATOM      4  N   UNL     1      -1.550  23.732  34.287  1.00  0.00    -0.350 N 
ATOM      5  H   UNL     1      -0.874  22.989  33.999  1.00  0.00     0.345 HD
ATOM      6  H   UNL     1      -2.468  23.297  34.539  1.00  0.00     0.345 HD
ATOM      7  H   UNL     1      -1.687  24.356  33.458  1.00  0.00     0.345 HD
ENDBRANCH   3   4
BRANCH   3   8
ATOM      8  C   UNL     1       0.496  24.525  35.331  1.00  0.00     0.099 C 
ATOM      9  O   UNL     1       1.140  25.548  35.683  1.00  0.00    -0.544 OA
ATOM     10  O   UNL     1       1.180  23.414  34.855  1.00  0.00    -0.544 OA
ENDBRANCH   3   8
ENDBRANCH   1   3
BRANCH   1  11
ATOM     11  C   UNL     1      -1.860  26.381  36.944  1.00  0.00     0.006 C 
ATOM     12  C   UNL     1      -1.202  27.711  37.318  1.00  0.00     0.004 C 
ENDBRANCH   1  11
TORSDOF 4
ENDMDL
MODEL 3
REMARK VINA RESULT:    -4.073      2.407      3.213
REMARK INTER + INTRA:          -4.966
REMARK INTER:                  -4.857
REMARK INTRA:                  -0.109
REMARK UNBOUND:                -0.060
REMARK SMILES CC[C@H](C)[C@@H]([NH3+])C(=O)[O-]
REMARK SMILES IDX 3 1 4 2 5 3 6 4 7 8 8 9 9 10 2 11 1 12
REMARK H PARENT 6 5 6 6 6 7
REMARK Flexibility Score: inf
ROOT
ATOM      1  C   UNL     1      -0.008  35.750  25.087  1.00  0.00     0.050 C 
ATOM      2  C   UNL     1      -0.386  35.110  23.736  1.00  0.00     0.014 C 
ENDROOT
BRANCH   1   3
ATOM      3  C   UNL     1       1.407  35.281  25.561  1.00  0.00     0.230 C 
BRANCH   3   4
ATOM      4  N   UNL     1       2.103  34.490  24.534  1.00  0.00    -0.350 N 
ATOM      5  H   UNL     1       1.440  34.218  23.774  1.00  0.00     0.345 HD
ATOM      6  H   UNL     1       2.903  35.032  24.129  1.00  0.00     0.345 HD
ATOM      7  H   UNL     1       2.471  33.603  24.949  1.00  0.00     0.345 HD
ENDBRANCH   3   4
BRANCH   3   8
ATOM      8  C   UNL     1       2.266  36.461  25.946  1.00  0.00     0.099 C 
ATOM      9  O   UNL     1       3.488  36.486  25.644  1.00  0.00    -0.544 OA
ATOM     10  O   UNL     1       1.710  37.526  26.643  1.00  0.00    -0.544 OA
ENDBRANCH   3   8
ENDBRANCH   1   3
BRANCH   1  11
ATOM     11  C   UNL     1      -1.084  35.418  26.157  1.00  0.00     0.006 C 
ATOM     12  C   UNL     1      -1.762  36.661  26.738  1.00  0.00     0.004 C 
ENDBRANCH   1  11
TORSDOF 4
ENDMDL
MODEL 4
REMARK VINA RESULT:    -4.030      2.101      2.555
REMARK INTER + INTRA:          -4.914
REMARK INTER:                  -4.828
REMARK INTRA:                  -0.086
REMARK UNBOUND:                -0.060
REMARK SMILES CC[C@H](C)[C@@H]([NH3+])C(=O)[O-]
REMARK SMILES IDX 3 1 4 2 5 3 6 4 7 8 8 9 9 10 2 11 1 12
REMARK H PARENT 6 5 6 6 6 7
REMARK Flexibility Score: inf
ROOT
ATOM      1  C   UNL     1       0.686  36.299  27.071  1.00  0.00     0.050 C 
ATOM      2  C   UNL     1       0.443  37.643  27.788  1.00  0.00     0.014 C 
ENDROOT
BRANCH   1   3
ATOM      3  C   UNL     1       1.518  36.497  25.761  1.00  0.00     0.230 C 
BRANCH   3   4
ATOM      4  N   UNL     1       2.623  37.452  25.944  1.00  0.00    -0.350 N 
ATOM      5  H   UNL     1       2.740  38.039  25.087  1.00  0.00     0.345 HD
ATOM      6  H   UNL     1       2.448  38.067  26.773  1.00  0.00     0.345 HD
ATOM      7  H   UNL     1       3.524  36.939  26.086  1.00  0.00     0.345 HD
ENDBRANCH   3   4
BRANCH   3   8
ATOM      8  C   UNL     1       2.073  35.183  25.271  1.00  0.00     0.099 C 
ATOM      9  O   UNL     1       3.000  34.606  25.900  1.00  0.00    -0.544 OA
ATOM     10  O   UNL     1       1.566  34.603  24.115  1.00  0.00    -0.544 OA
ENDBRANCH   3   8
ENDBRANCH   1   3
BRANCH   1  11
ATOM     11  C   UNL     1      -0.669  35.605  26.761  1.00  0.00     0.006 C 
ATOM     12  C   UNL     1      -1.857  36.569  26.766  1.00  0.00     0.004 C 
ENDBRANCH   1  11
TORSDOF 4
ENDMDL
MODEL 5
REMARK VINA RESULT:    -3.998      3.098      4.035
REMARK INTER + INTRA:          -4.876
REMARK INTER:                  -4.736
REMARK INTRA:                  -0.140
REMARK UNBOUND:                -0.060
REMARK SMILES CC[C@H](C)[C@@H]([NH3+])C(=O)[O-]
REMARK SMILES IDX 3 1 4 2 5 3 6 4 7 8 8 9 9 10 2 11 1 12
REMARK H PARENT 6 5 6 6 6 7
REMARK Flexibility Score: inf
ROOT
ATOM      1  C   UNL     1       1.491  36.655  26.271  1.00  0.00     0.050 C 
ATOM      2  C   UNL     1       3.000  36.557  25.968  1.00  0.00     0.014 C 
ENDROOT
BRANCH   1   3
ATOM      3  C   UNL     1       1.148  36.015  27.656  1.00  0.00     0.230 C 
BRANCH   3   4
ATOM      4  N   UNL     1       2.268  35.227  28.197  1.00  0.00    -0.350 N 
ATOM      5  H   UNL     1       3.110  35.330  27.588  1.00  0.00     0.345 HD
ATOM      6  H   UNL     1       2.497  35.532  29.173  1.00  0.00     0.345 HD
ATOM      7  H   UNL     1       2.022  34.210  28.208  1.00  0.00     0.345 HD
ENDBRANCH   3   4
BRANCH   3   8
ATOM      8  C   UNL     1       0.757  37.074  28.658  1.00  0.00     0.099 C 
ATOM      9  O   UNL     1       0.924  36.879  29.891  1.00  0.00    -0.544 OA
ATOM     10  O   UNL     1       0.203  38.271  28.222  1.00  0.00    -0.544 OA
ENDBRANCH   3   8
ENDBRANCH   1   3
BRANCH   1  11
ATOM     11  C   UNL     1       0.672  35.981  25.137  1.00  0.00     0.006 C 
ATOM     12  C   UNL     1      -0.762  35.639  25.549  1.00  0.00     0.004 C 
ENDBRANCH   1  11
TORSDOF 4
ENDMDL
MODEL 6
REMARK VINA RESULT:    -3.992     13.045     14.030
REMARK INTER + INTRA:          -4.869
REMARK INTER:                  -4.804
REMARK INTRA:                  -0.065
REMARK UNBOUND:                -0.060
REMARK SMILES CC[C@H](C)[C@@H]([NH3+])C(=O)[O-]
REMARK SMILES IDX 3 1 4 2 5 3 6 4 7 8 8 9 9 10 2 11 1 12
REMARK H PARENT 6 5 6 6 6 7
REMARK Flexibility Score: inf
ROOT
ATOM      1  C   UNL     1      -1.156  27.400  36.025  1.00  0.00     0.050 C 
ATOM      2  C   UNL     1      -1.503  28.598  35.119  1.00  0.00     0.014 C 
ENDROOT
BRANCH   1   3
ATOM      3  C   UNL     1      -2.124  26.198  35.772  1.00  0.00     0.230 C 
BRANCH   3   4
ATOM      4  N   UNL     1      -3.164  26.521  34.781  1.00  0.00    -0.350 N 
ATOM      5  H   UNL     1      -3.416  27.533  34.837  1.00  0.00     0.345 HD
ATOM      6  H   UNL     1      -2.837  26.290  33.813  1.00  0.00     0.345 HD
ATOM      7  H   UNL     1      -4.036  25.979  34.983  1.00  0.00     0.345 HD
ENDBRANCH   3   4
BRANCH   3   8
ATOM      8  C   UNL     1      -1.362  24.979  35.313  1.00  0.00     0.099 C 
ATOM      9  O   UNL     1      -1.914  24.123  34.571  1.00  0.00    -0.544 OA
ATOM     10  O   UNL     1      -0.045  24.792  35.712  1.00  0.00    -0.544 OA
ENDBRANCH   3   8
ENDBRANCH   1   3
BRANCH   1  11
ATOM     11  C   UNL     1      -1.193  27.829  37.518  1.00  0.00     0.006 C 
ATOM     12  C   UNL     1      -0.179  28.923  37.857  1.00  0.00     0.004 C 
ENDBRANCH   1  11
TORSDOF 4
ENDMDL
MODEL 7
REMARK VINA RESULT:    -3.990      2.672      3.668
REMARK INTER + INTRA:          -4.866
REMARK INTER:                  -4.753
REMARK INTRA:                  -0.113
REMARK UNBOUND:                -0.060
REMARK SMILES CC[C@H](C)[C@@H]([NH3+])C(=O)[O-]
REMARK SMILES IDX 3 1 4 2 5 3 6 4 7 8 8 9 9 10 2 11 1 12
REMARK H PARENT 6 5 6 6 6 7
REMARK Flexibility Score: inf
ROOT
ATOM      1  C   UNL     1       1.078  36.444  26.959  1.00  0.00     0.050 C 
ATOM      2  C   UNL     1       0.687  37.664  27.818  1.00  0.00     0.014 C 
ENDROOT
BRANCH   1   3
ATOM      3  C   UNL     1       1.385  35.197  27.853  1.00  0.00     0.230 C 
BRANCH   3   4
ATOM      4  N   UNL     1       2.058  35.566  29.109  1.00  0.00    -0.350 N 
ATOM      5  H   UNL     1       2.597  34.752  29.483  1.00  0.00     0.345 HD
ATOM      6  H   UNL     1       2.702  36.378  28.959  1.00  0.00     0.345 HD
ATOM      7  H   UNL     1       1.351  35.823  29.836  1.00  0.00     0.345 HD
ENDBRANCH   3   4
BRANCH   3   8
ATOM      8  C   UNL     1       0.121  34.437  28.172  1.00  0.00     0.099 C 
ATOM      9  O   UNL     1       0.082  33.645  29.150  1.00  0.00    -0.544 OA
ATOM     10  O   UNL     1      -1.008  34.605  27.381  1.00  0.00    -0.544 OA
ENDBRANCH   3   8
ENDBRANCH   1   3
BRANCH   1  11
ATOM     11  C   UNL     1       2.297  36.789  26.061  1.00  0.00     0.006 C 
ATOM     12  C   UNL     1       3.109  35.560  25.647  1.00  0.00     0.004 C 
ENDBRANCH   1  11
TORSDOF 4
ENDMDL
MODEL 8
REMARK VINA RESULT:    -3.976      2.982      3.596
REMARK INTER + INTRA:          -4.850
REMARK INTER:                  -4.708
REMARK INTRA:                  -0.142
REMARK UNBOUND:                -0.060
REMARK SMILES CC[C@H](C)[C@@H]([NH3+])C(=O)[O-]
REMARK SMILES IDX 3 1 4 2 5 3 6 4 7 8 8 9 9 10 2 11 1 12
REMARK H PARENT 6 5 6 6 6 7
REMARK Flexibility Score: inf
ROOT
ATOM      1  C   UNL     1       1.570  36.689  27.273  1.00  0.00     0.050 C 
ATOM      2  C   UNL     1       2.141  37.219  25.943  1.00  0.00     0.014 C 
ENDROOT
BRANCH   1   3
ATOM      3  C   UNL     1       1.703  35.133  27.367  1.00  0.00     0.230 C 
BRANCH   3   4
ATOM      4  N   UNL     1       3.076  34.675  27.097  1.00  0.00    -0.350 N 
ATOM      5  H   UNL     1       3.408  35.048  26.179  1.00  0.00     0.345 HD
ATOM      6  H   UNL     1       3.725  34.982  27.859  1.00  0.00     0.345 HD
ATOM      7  H   UNL     1       3.102  33.632  27.029  1.00  0.00     0.345 HD
ENDBRANCH   3   4
BRANCH   3   8
ATOM      8  C   UNL     1       1.273  34.635  28.726  1.00  0.00     0.099 C 
ATOM      9  O   UNL     1       0.303  33.840  28.836  1.00  0.00    -0.544 OA
ATOM     10  O   UNL     1       1.945  35.059  29.865  1.00  0.00    -0.544 OA
ENDBRANCH   3   8
ENDBRANCH   1   3
BRANCH   1  11
ATOM     11  C   UNL     1       0.086  37.122  27.431  1.00  0.00     0.006 C 
ATOM     12  C   UNL     1      -0.124  38.161  28.535  1.00  0.00     0.004 C 
ENDBRANCH   1  11
TORSDOF 4
ENDMDL
MODEL 9
REMARK VINA RESULT:    -3.943      2.336      3.128
REMARK INTER + INTRA:          -4.809
REMARK INTER:                  -4.681
REMARK INTRA:                  -0.129
REMARK UNBOUND:                -0.060
REMARK SMILES CC[C@H](C)[C@@H]([NH3+])C(=O)[O-]
REMARK SMILES IDX 3 1 4 2 5 3 6 4 7 8 8 9 9 10 2 11 1 12
REMARK H PARENT 6 5 6 6 6 7
REMARK Flexibility Score: inf
ROOT
ATOM      1  C   UNL     1       1.512  36.462  28.021  1.00  0.00     0.050 C 
ATOM      2  C   UNL     1       0.281  37.340  27.716  1.00  0.00     0.014 C 
ENDROOT
BRANCH   1   3
ATOM      3  C   UNL     1       1.547  35.196  27.104  1.00  0.00     0.230 C 
BRANCH   3   4
ATOM      4  N   UNL     1       0.281  34.999  26.379  1.00  0.00    -0.350 N 
ATOM      5  H   UNL     1       0.243  35.622  25.542  1.00  0.00     0.345 HD
ATOM      6  H   UNL     1       0.177  34.000  26.082  1.00  0.00     0.345 HD
ATOM      7  H   UNL     1      -0.528  35.258  26.989  1.00  0.00     0.345 HD
ENDBRANCH   3   4
BRANCH   3   8
ATOM      8  C   UNL     1       2.680  35.281  26.110  1.00  0.00     0.099 C 
ATOM      9  O   UNL     1       2.991  34.281  25.410  1.00  0.00    -0.544 OA
ATOM     10  O   UNL     1       3.391  36.466  25.968  1.00  0.00    -0.544 OA
ENDBRANCH   3   8
ENDBRANCH   1   3
BRANCH   1  11
ATOM     11  C   UNL     1       1.521  36.054  29.520  1.00  0.00     0.006 C 
ATOM     12  C   UNL     1       1.561  34.540  29.733  1.00  0.00     0.004 C 
ENDBRANCH   1  11
TORSDOF 4
ENDMDL
