MODEL 1
REMARK VINA RESULT:    -6.963      0.000      0.000
REMARK INTER + INTRA:         -10.784
REMARK INTER:                  -9.812
REMARK INTRA:                  -0.972
REMARK UNBOUND:                -0.972
REMARK SMILES C=C(CC[C@H](C(=O)[O-])[C@H]1[C@@H](O)C[C@@]2(C)C3=C(CC[C@]12C)[C@]1(C)CC[C@H](O)C(C)(C)[C@@H]1CC3)C(C)C
REMARK SMILES IDX 4 1 5 2 6 3 7 4 8 5 9 6 10 7 19 8 12 9 13 10 18 11 20 12
REMARK SMILES IDX 14 13 15 14 17 15 16 16 32 17 21 18 31 19 30 20 23 21 22 22
REMARK SMILES IDX 27 23 24 24 25 25 28 26 29 27 11 28 26 30 3 32 2 33 1 34
REMARK SMILES IDX 33 35 34 36 35 37
REMARK H PARENT 11 29 26 31
REMARK Flexibility Score: inf
ROOT
ATOM      1  C   UNL     1     164.520 176.746 186.655  1.00  0.00     0.014 C 
ENDROOT
BRANCH   1   2
ATOM      2  C   UNL     1     165.304 175.420 186.458  1.00  0.00     0.042 C 
BRANCH   2   3
ATOM      3  C   UNL     1     164.376 174.254 186.701  1.00  0.00     0.045 C 
ATOM      4  O   UNL     1     164.022 173.489 185.765  1.00  0.00    -0.550 OA
ATOM      5  O   UNL     1     163.918 174.000 187.989  1.00  0.00    -0.550 OA
ENDBRANCH   2   3
BRANCH   2   6
ATOM      6  C   UNL     1     166.668 175.288 187.240  1.00  0.00     0.033 C 
ATOM      7  C   UNL     1     167.437 173.956 186.944  1.00  0.00     0.119 C 
ATOM      8  C   UNL     1     167.762 176.383 187.025  1.00  0.00    -0.017 C 
ATOM      9  C   UNL     1     168.947 174.289 186.949  1.00  0.00     0.043 C 
ATOM     10  C   UNL     1     169.044 175.686 187.577  1.00  0.00    -0.003 C 
ATOM     11  C   UNL     1     167.598 177.702 187.805  1.00  0.00     0.012 C 
ATOM     12  C   UNL     1     167.869 176.716 185.494  1.00  0.00     0.013 C 
ATOM     13  C   UNL     1     169.093 175.499 189.128  1.00  0.00     0.017 C 
ATOM     14  C   UNL     1     170.264 176.523 187.225  1.00  0.00    -0.064 C 
ATOM     15  C   UNL     1     168.874 178.587 187.712  1.00  0.00     0.032 C 
ATOM     16  C   UNL     1     170.212 177.883 187.382  1.00  0.00    -0.064 C 
ATOM     17  C   UNL     1     171.591 175.862 186.957  1.00  0.00     0.032 C 
ATOM     18  C   UNL     1     171.461 178.740 187.014  1.00  0.00    -0.008 C 
ATOM     19  C   UNL     1     172.636 176.532 187.833  1.00  0.00     0.009 C 
ATOM     20  C   UNL     1     172.838 178.039 187.462  1.00  0.00     0.007 C 
ATOM     21  C   UNL     1     171.360 178.948 185.474  1.00  0.00     0.014 C 
ATOM     22  C   UNL     1     171.349 180.124 187.718  1.00  0.00     0.016 C 
ATOM     23  C   UNL     1     174.137 178.372 186.569  1.00  0.00    -0.006 C 
ATOM     24  C   UNL     1     172.625 179.499 184.833  1.00  0.00     0.033 C 
ATOM     25  C   UNL     1     173.800 178.547 185.057  1.00  0.00     0.120 C 
ATOM     26  C   UNL     1     174.826 179.672 187.084  1.00  0.00     0.014 C 
ATOM     27  C   UNL     1     175.250 177.289 186.683  1.00  0.00     0.014 C 
BRANCH   7  28
ATOM     28  O   UNL     1     167.077 173.405 185.701  1.00  0.00    -0.393 OA
ATOM     29  H   UNL     1     167.235 172.427 185.766  1.00  0.00     0.210 HD
ENDBRANCH   7  28
BRANCH  25  30
ATOM     30  O   UNL     1     173.500 177.308 184.458  1.00  0.00    -0.393 OA
ATOM     31  H   UNL     1     173.789 177.353 183.509  1.00  0.00     0.210 HD
ENDBRANCH  25  30
ENDBRANCH   2   6
ENDBRANCH   1   2
BRANCH   1  32
ATOM     32  C   UNL     1     163.471 177.127 185.577  1.00  0.00     0.031 C 
BRANCH  32  33
ATOM     33  C   UNL     1     162.010 176.932 185.962  1.00  0.00    -0.075 C 
ATOM     34  C   UNL     1     161.033 177.247 185.091  1.00  0.00     0.008 C 
BRANCH  33  35
ATOM     35  C   UNL     1     161.630 176.641 187.414  1.00  0.00     0.008 C 
ATOM     36  C   UNL     1     161.045 177.869 188.116  1.00  0.00     0.012 C 
ATOM     37  C   UNL     1     160.670 175.447 187.505  1.00  0.00     0.012 C 
ENDBRANCH  33  35
ENDBRANCH  32  33
ENDBRANCH   1  32
TORSDOF 8
ENDMDL
MODEL 2
REMARK VINA RESULT:    -6.748      2.251      4.204
REMARK INTER + INTRA:         -10.481
REMARK INTER:                  -9.450
REMARK INTRA:                  -1.031
REMARK UNBOUND:                -0.972
REMARK SMILES C=C(CC[C@H](C(=O)[O-])[C@H]1[C@@H](O)C[C@@]2(C)C3=C(CC[C@]12C)[C@]1(C)CC[C@H](O)C(C)(C)[C@@H]1CC3)C(C)C
REMARK SMILES IDX 4 1 5 2 6 3 7 4 8 5 9 6 10 7 19 8 12 9 13 10 18 11 20 12
REMARK SMILES IDX 14 13 15 14 17 15 16 16 32 17 21 18 31 19 30 20 23 21 22 22
REMARK SMILES IDX 27 23 24 24 25 25 28 26 29 27 11 28 26 30 3 32 2 33 1 34
REMARK SMILES IDX 33 35 34 36 35 37
REMARK H PARENT 11 29 26 31
REMARK Flexibility Score: inf
ROOT
ATOM      1  C   UNL     1     161.910 176.647 187.334  1.00  0.00     0.014 C 
ENDROOT
BRANCH   1   2
ATOM      2  C   UNL     1     162.229 177.241 185.935  1.00  0.00     0.042 C 
BRANCH   2   3
ATOM      3  C   UNL     1     160.987 177.184 185.077  1.00  0.00     0.045 C 
ATOM      4  O   UNL     1     160.584 176.101 184.576  1.00  0.00    -0.550 OA
ATOM      5  O   UNL     1     160.256 178.345 184.852  1.00  0.00    -0.550 OA
ENDBRANCH   2   3
BRANCH   2   6
ATOM      6  C   UNL     1     163.504 176.669 185.203  1.00  0.00     0.033 C 
ATOM      7  C   UNL     1     163.721 177.256 183.766  1.00  0.00     0.119 C 
ATOM      8  C   UNL     1     164.901 176.858 185.877  1.00  0.00    -0.017 C 
ATOM      9  C   UNL     1     165.247 177.396 183.557  1.00  0.00     0.043 C 
ATOM     10  C   UNL     1     165.881 176.586 184.694  1.00  0.00    -0.003 C 
ATOM     11  C   UNL     1     165.275 175.876 187.005  1.00  0.00     0.012 C 
ATOM     12  C   UNL     1     165.016 178.323 186.430  1.00  0.00     0.013 C 
ATOM     13  C   UNL     1     165.964 175.099 184.220  1.00  0.00     0.017 C 
ATOM     14  C   UNL     1     167.293 176.962 185.113  1.00  0.00    -0.064 C 
ATOM     15  C   UNL     1     166.774 176.001 187.400  1.00  0.00     0.032 C 
ATOM     16  C   UNL     1     167.744 176.600 186.355  1.00  0.00    -0.064 C 
ATOM     17  C   UNL     1     168.273 177.494 184.100  1.00  0.00     0.032 C 
ATOM     18  C   UNL     1     169.189 176.994 186.785  1.00  0.00    -0.008 C 
ATOM     19  C   UNL     1     169.545 176.670 184.198  1.00  0.00     0.009 C 
ATOM     20  C   UNL     1     170.250 176.836 185.585  1.00  0.00     0.007 C 
ATOM     21  C   UNL     1     169.066 178.461 187.295  1.00  0.00     0.014 C 
ATOM     22  C   UNL     1     169.630 176.084 187.969  1.00  0.00     0.016 C 
ATOM     23  C   UNL     1     171.519 177.829 185.612  1.00  0.00    -0.006 C 
ATOM     24  C   UNL     1     170.398 179.170 187.488  1.00  0.00     0.033 C 
ATOM     25  C   UNL     1     171.165 179.243 186.169  1.00  0.00     0.120 C 
ATOM     26  C   UNL     1     172.661 177.220 186.481  1.00  0.00     0.014 C 
ATOM     27  C   UNL     1     172.173 178.021 184.213  1.00  0.00     0.014 C 
BRANCH   7  28
ATOM     28  O   UNL     1     163.104 178.511 183.612  1.00  0.00    -0.393 OA
ATOM     29  H   UNL     1     163.103 178.940 184.508  1.00  0.00     0.210 HD
ENDBRANCH   7  28
BRANCH  25  30
ATOM     30  O   UNL     1     170.400 179.975 185.240  1.00  0.00    -0.393 OA
ATOM     31  H   UNL     1     169.472 180.029 185.589  1.00  0.00     0.210 HD
ENDBRANCH  25  30
ENDBRANCH   2   6
ENDBRANCH   1   2
BRANCH   1  32
ATOM     32  C   UNL     1     160.707 175.674 187.444  1.00  0.00     0.031 C 
BRANCH  32  33
ATOM     33  C   UNL     1     161.029 174.190 187.315  1.00  0.00    -0.075 C 
ATOM     34  C   UNL     1     160.082 173.268 187.574  1.00  0.00     0.008 C 
BRANCH  33  35
ATOM     35  C   UNL     1     162.478 173.728 187.160  1.00  0.00     0.008 C 
ATOM     36  C   UNL     1     162.882 172.722 188.240  1.00  0.00     0.012 C 
ATOM     37  C   UNL     1     162.729 173.158 185.757  1.00  0.00     0.012 C 
ENDBRANCH  33  35
ENDBRANCH  32  33
ENDBRANCH   1  32
TORSDOF 8
ENDMDL
MODEL 3
REMARK VINA RESULT:    -6.702      8.636     13.210
REMARK INTER + INTRA:         -10.417
REMARK INTER:                  -8.639
REMARK INTRA:                  -1.778
REMARK UNBOUND:                -0.972
REMARK SMILES C=C(CC[C@H](C(=O)[O-])[C@H]1[C@@H](O)C[C@@]2(C)C3=C(CC[C@]12C)[C@]1(C)CC[C@H](O)C(C)(C)[C@@H]1CC3)C(C)C
REMARK SMILES IDX 4 1 5 2 6 3 7 4 8 5 9 6 10 7 19 8 12 9 13 10 18 11 20 12
REMARK SMILES IDX 14 13 15 14 17 15 16 16 32 17 21 18 31 19 30 20 23 21 22 22
REMARK SMILES IDX 27 23 24 24 25 25 28 26 29 27 11 28 26 30 3 32 2 33 1 34
REMARK SMILES IDX 33 35 34 36 35 37
REMARK H PARENT 11 29 26 31
REMARK Flexibility Score: inf
ROOT
ATOM      1  C   UNL     1     164.556 162.629 186.958  1.00  0.00     0.014 C 
ENDROOT
BRANCH   1   2
ATOM      2  C   UNL     1     163.005 162.644 187.044  1.00  0.00     0.042 C 
BRANCH   2   3
ATOM      3  C   UNL     1     162.476 161.281 186.669  1.00  0.00     0.045 C 
ATOM      4  O   UNL     1     161.717 160.635 187.439  1.00  0.00    -0.550 OA
ATOM      5  O   UNL     1     162.810 160.732 185.436  1.00  0.00    -0.550 OA
ENDBRANCH   2   3
BRANCH   2   6
ATOM      6  C   UNL     1     162.271 163.816 186.285  1.00  0.00     0.033 C 
ATOM      7  C   UNL     1     160.749 163.938 186.638  1.00  0.00     0.119 C 
ATOM      8  C   UNL     1     162.796 165.275 186.474  1.00  0.00    -0.017 C 
ATOM      9  C   UNL     1     160.401 165.445 186.641  1.00  0.00     0.043 C 
ATOM     10  C   UNL     1     161.595 166.130 185.964  1.00  0.00    -0.003 C 
ATOM     11  C   UNL     1     164.027 165.690 185.645  1.00  0.00     0.012 C 
ATOM     12  C   UNL     1     163.110 165.521 187.993  1.00  0.00     0.013 C 
ATOM     13  C   UNL     1     161.348 166.087 184.421  1.00  0.00     0.017 C 
ATOM     14  C   UNL     1     161.840 167.593 186.300  1.00  0.00    -0.064 C 
ATOM     15  C   UNL     1     164.281 167.223 185.722  1.00  0.00     0.032 C 
ATOM     16  C   UNL     1     163.083 168.130 186.093  1.00  0.00    -0.064 C 
ATOM     17  C   UNL     1     160.684 168.508 186.608  1.00  0.00     0.032 C 
ATOM     18  C   UNL     1     163.334 169.627 186.446  1.00  0.00    -0.008 C 
ATOM     19  C   UNL     1     160.806 169.735 185.722  1.00  0.00     0.009 C 
ATOM     20  C   UNL     1     162.092 170.568 186.041  1.00  0.00     0.007 C 
ATOM     21  C   UNL     1     163.623 169.632 187.976  1.00  0.00     0.014 C 
ATOM     22  C   UNL     1     164.603 170.119 185.691  1.00  0.00     0.016 C 
ATOM     23  C   UNL     1     161.868 171.888 186.937  1.00  0.00    -0.006 C 
ATOM     24  C   UNL     1     163.601 171.014 188.612  1.00  0.00     0.033 C 
ATOM     25  C   UNL     1     162.229 171.665 188.438  1.00  0.00     0.120 C 
ATOM     26  C   UNL     1     162.727 173.066 186.385  1.00  0.00     0.014 C 
ATOM     27  C   UNL     1     160.409 172.426 186.876  1.00  0.00     0.014 C 
BRANCH   7  28
ATOM     28  O   UNL     1     160.455 163.382 187.896  1.00  0.00    -0.393 OA
ATOM     29  H   UNL     1     160.020 162.505 187.725  1.00  0.00     0.210 HD
ENDBRANCH   7  28
BRANCH  25  30
ATOM     30  O   UNL     1     161.263 170.863 189.077  1.00  0.00    -0.393 OA
ATOM     31  H   UNL     1     161.329 171.032 190.054  1.00  0.00     0.210 HD
ENDBRANCH  25  30
ENDBRANCH   2   6
ENDBRANCH   1   2
BRANCH   1  32
ATOM     32  C   UNL     1     165.348 162.443 188.279  1.00  0.00     0.031 C 
BRANCH  32  33
ATOM     33  C   UNL     1     166.141 163.650 188.763  1.00  0.00    -0.075 C 
ATOM     34  C   UNL     1     166.017 164.074 190.036  1.00  0.00     0.008 C 
BRANCH  33  35
ATOM     35  C   UNL     1     166.864 164.548 187.760  1.00  0.00     0.008 C 
ATOM     36  C   UNL     1     166.821 166.022 188.168  1.00  0.00     0.012 C 
ATOM     37  C   UNL     1     168.309 164.080 187.541  1.00  0.00     0.012 C 
ENDBRANCH  33  35
ENDBRANCH  32  33
ENDBRANCH   1  32
TORSDOF 8
ENDMDL
MODEL 4
REMARK VINA RESULT:    -6.517      1.649      9.026
REMARK INTER + INTRA:         -10.156
REMARK INTER:                  -9.158
REMARK INTRA:                  -0.998
REMARK UNBOUND:                -0.972
REMARK SMILES C=C(CC[C@H](C(=O)[O-])[C@H]1[C@@H](O)C[C@@]2(C)C3=C(CC[C@]12C)[C@]1(C)CC[C@H](O)C(C)(C)[C@@H]1CC3)C(C)C
REMARK SMILES IDX 4 1 5 2 6 3 7 4 8 5 9 6 10 7 19 8 12 9 13 10 18 11 20 12
REMARK SMILES IDX 14 13 15 14 17 15 16 16 32 17 21 18 31 19 30 20 23 21 22 22
REMARK SMILES IDX 27 23 24 24 25 25 28 26 29 27 11 28 26 30 3 32 2 33 1 34
REMARK SMILES IDX 33 35 34 36 35 37
REMARK H PARENT 11 29 26 31
REMARK Flexibility Score: inf
ROOT
ATOM      1  C   UNL     1     171.041 178.738 186.425  1.00  0.00     0.014 C 
ENDROOT
BRANCH   1   2
ATOM      2  C   UNL     1     170.944 177.426 187.251  1.00  0.00     0.042 C 
BRANCH   2   3
ATOM      3  C   UNL     1     172.318 176.812 187.370  1.00  0.00     0.045 C 
ATOM      4  O   UNL     1     172.899 176.711 188.484  1.00  0.00    -0.550 OA
ATOM      5  O   UNL     1     172.953 176.326 186.233  1.00  0.00    -0.550 OA
ENDBRANCH   2   3
BRANCH   2   6
ATOM      6  C   UNL     1     169.849 176.387 186.791  1.00  0.00     0.033 C 
ATOM      7  C   UNL     1     169.615 175.225 187.816  1.00  0.00     0.119 C 
ATOM      8  C   UNL     1     168.402 176.902 186.505  1.00  0.00    -0.017 C 
ATOM      9  C   UNL     1     168.107 174.886 187.785  1.00  0.00     0.043 C 
ATOM     10  C   UNL     1     167.568 175.585 186.530  1.00  0.00    -0.003 C 
ATOM     11  C   UNL     1     168.151 177.566 185.137  1.00  0.00     0.012 C 
ATOM     12  C   UNL     1     167.976 177.907 187.634  1.00  0.00     0.013 C 
ATOM     13  C   UNL     1     167.798 174.621 185.321  1.00  0.00     0.017 C 
ATOM     14  C   UNL     1     166.086 175.926 186.506  1.00  0.00    -0.064 C 
ATOM     15  C   UNL     1     166.634 177.788 184.876  1.00  0.00     0.032 C 
ATOM     16  C   UNL     1     165.635 176.899 185.654  1.00  0.00    -0.064 C 
ATOM     17  C   UNL     1     165.089 175.042 187.209  1.00  0.00     0.032 C 
ATOM     18  C   UNL     1     164.117 177.253 185.637  1.00  0.00    -0.008 C 
ATOM     19  C   UNL     1     163.993 174.689 186.218  1.00  0.00     0.009 C 
ATOM     20  C   UNL     1     163.183 175.948 185.761  1.00  0.00     0.007 C 
ATOM     21  C   UNL     1     163.928 178.248 186.820  1.00  0.00     0.014 C 
ATOM     22  C   UNL     1     163.784 177.985 184.304  1.00  0.00     0.016 C 
ATOM     23  C   UNL     1     161.750 176.155 186.467  1.00  0.00    -0.006 C 
ATOM     24  C   UNL     1     162.476 178.503 187.196  1.00  0.00     0.033 C 
ATOM     25  C   UNL     1     161.793 177.204 187.621  1.00  0.00     0.120 C 
ATOM     26  C   UNL     1     160.692 176.609 185.416  1.00  0.00     0.014 C 
ATOM     27  C   UNL     1     161.160 174.837 187.048  1.00  0.00     0.014 C 
BRANCH   7  28
ATOM     28  O   UNL     1     169.991 175.591 189.122  1.00  0.00    -0.393 OA
ATOM     29  H   UNL     1     169.850 174.791 189.693  1.00  0.00     0.210 HD
ENDBRANCH   7  28
BRANCH  25  30
ATOM     30  O   UNL     1     162.462 176.688 188.749  1.00  0.00    -0.393 OA
ATOM     31  H   UNL     1     162.138 177.185 189.545  1.00  0.00     0.210 HD
ENDBRANCH  25  30
ENDBRANCH   2   6
ENDBRANCH   1   2
BRANCH   1  32
ATOM     32  C   UNL     1     172.096 179.787 186.864  1.00  0.00     0.031 C 
BRANCH  32  33
ATOM     33  C   UNL     1     173.356 179.870 186.011  1.00  0.00    -0.075 C 
ATOM     34  C   UNL     1     173.282 179.705 184.676  1.00  0.00     0.008 C 
BRANCH  33  35
ATOM     35  C   UNL     1     174.734 179.867 186.673  1.00  0.00     0.008 C 
ATOM     36  C   UNL     1     174.642 179.781 188.198  1.00  0.00     0.012 C 
ATOM     37  C   UNL     1     175.614 178.742 186.111  1.00  0.00     0.012 C 
ENDBRANCH  33  35
ENDBRANCH  32  33
ENDBRANCH   1  32
TORSDOF 8
ENDMDL
MODEL 5
REMARK VINA RESULT:    -6.487      6.273      9.898
REMARK INTER + INTRA:         -10.114
REMARK INTER:                  -8.952
REMARK INTRA:                  -1.162
REMARK UNBOUND:                -0.972
REMARK SMILES C=C(CC[C@H](C(=O)[O-])[C@H]1[C@@H](O)C[C@@]2(C)C3=C(CC[C@]12C)[C@]1(C)CC[C@H](O)C(C)(C)[C@@H]1CC3)C(C)C
REMARK SMILES IDX 4 1 5 2 6 3 7 4 8 5 9 6 10 7 19 8 12 9 13 10 18 11 20 12
REMARK SMILES IDX 14 13 15 14 17 15 16 16 32 17 21 18 31 19 30 20 23 21 22 22
REMARK SMILES IDX 27 23 24 24 25 25 28 26 29 27 11 28 26 30 3 32 2 33 1 34
REMARK SMILES IDX 33 35 34 36 35 37
REMARK H PARENT 11 29 26 31
REMARK Flexibility Score: inf
ROOT
ATOM      1  C   UNL     1     160.689 167.404 186.624  1.00  0.00     0.014 C 
ENDROOT
BRANCH   1   2
ATOM      2  C   UNL     1     162.233 167.566 186.621  1.00  0.00     0.042 C 
BRANCH   2   3
ATOM      3  C   UNL     1     162.869 166.264 187.047  1.00  0.00     0.045 C 
ATOM      4  O   UNL     1     162.439 165.616 188.039  1.00  0.00    -0.550 OA
ATOM      5  O   UNL     1     163.937 165.752 186.319  1.00  0.00    -0.550 OA
ENDBRANCH   2   3
BRANCH   2   6
ATOM      6  C   UNL     1     162.811 168.811 187.399  1.00  0.00     0.033 C 
ATOM      7  C   UNL     1     164.332 169.070 187.130  1.00  0.00     0.119 C 
ATOM      8  C   UNL     1     162.165 170.212 187.152  1.00  0.00    -0.017 C 
ATOM      9  C   UNL     1     164.539 170.603 187.118  1.00  0.00     0.043 C 
ATOM     10  C   UNL     1     163.250 171.183 187.713  1.00  0.00    -0.003 C 
ATOM     11  C   UNL     1     160.854 170.523 187.901  1.00  0.00     0.012 C 
ATOM     12  C   UNL     1     161.920 170.407 185.613  1.00  0.00     0.013 C 
ATOM     13  C   UNL     1     163.410 171.185 189.268  1.00  0.00     0.017 C 
ATOM     14  C   UNL     1     162.891 172.611 187.335  1.00  0.00    -0.064 C 
ATOM     15  C   UNL     1     160.465 172.023 187.780  1.00  0.00     0.032 C 
ATOM     16  C   UNL     1     161.594 173.033 187.460  1.00  0.00    -0.064 C 
ATOM     17  C   UNL     1     163.974 173.626 187.076  1.00  0.00     0.032 C 
ATOM     18  C   UNL     1     161.227 174.496 187.065  1.00  0.00    -0.008 C 
ATOM     19  C   UNL     1     163.687 174.849 187.930  1.00  0.00     0.009 C 
ATOM     20  C   UNL     1     162.350 175.553 187.522  1.00  0.00     0.007 C 
ATOM     21  C   UNL     1     161.028 174.452 185.521  1.00  0.00     0.014 C 
ATOM     22  C   UNL     1     159.875 174.877 187.737  1.00  0.00     0.016 C 
ATOM     23  C   UNL     1     162.503 176.876 186.615  1.00  0.00    -0.006 C 
ATOM     24  C   UNL     1     160.960 175.821 184.861  1.00  0.00     0.033 C 
ATOM     25  C   UNL     1     162.253 176.599 185.101  1.00  0.00     0.120 C 
ATOM     26  C   UNL     1     161.509 177.976 187.095  1.00  0.00     0.014 C 
ATOM     27  C   UNL     1     163.900 177.549 186.749  1.00  0.00     0.014 C 
BRANCH   7  28
ATOM     28  O   UNL     1     164.750 168.526 185.902  1.00  0.00    -0.393 OA
ATOM     29  H   UNL     1     165.507 167.915 186.104  1.00  0.00     0.210 HD
ENDBRANCH   7  28
BRANCH  25  30
ATOM     30  O   UNL     1     163.325 175.883 184.533  1.00  0.00    -0.393 OA
ATOM     31  H   UNL     1     163.563 175.149 185.159  1.00  0.00     0.210 HD
ENDBRANCH  25  30
ENDBRANCH   2   6
ENDBRANCH   1   2
BRANCH   1  32
ATOM     32  C   UNL     1     159.957 167.463 185.258  1.00  0.00     0.031 C 
BRANCH  32  33
ATOM     33  C   UNL     1     160.264 166.334 184.282  1.00  0.00    -0.075 C 
ATOM     34  C   UNL     1     160.287 165.057 184.711  1.00  0.00     0.008 C 
BRANCH  33  35
ATOM     35  C   UNL     1     160.810 166.648 182.890  1.00  0.00     0.008 C 
ATOM     36  C   UNL     1     162.010 167.598 182.941  1.00  0.00     0.012 C 
ATOM     37  C   UNL     1     161.161 165.361 182.131  1.00  0.00     0.012 C 
ENDBRANCH  33  35
ENDBRANCH  32  33
ENDBRANCH   1  32
TORSDOF 8
ENDMDL
MODEL 6
REMARK VINA RESULT:    -6.447      7.823     12.728
REMARK INTER + INTRA:         -10.057
REMARK INTER:                  -8.411
REMARK INTRA:                  -1.646
REMARK UNBOUND:                -0.972
REMARK SMILES C=C(CC[C@H](C(=O)[O-])[C@H]1[C@@H](O)C[C@@]2(C)C3=C(CC[C@]12C)[C@]1(C)CC[C@H](O)C(C)(C)[C@@H]1CC3)C(C)C
REMARK SMILES IDX 4 1 5 2 6 3 7 4 8 5 9 6 10 7 19 8 12 9 13 10 18 11 20 12
REMARK SMILES IDX 14 13 15 14 17 15 16 16 32 17 21 18 31 19 30 20 23 21 22 22
REMARK SMILES IDX 27 23 24 24 25 25 28 26 29 27 11 28 26 30 3 32 2 33 1 34
REMARK SMILES IDX 33 35 34 36 35 37
REMARK H PARENT 11 29 26 31
REMARK Flexibility Score: inf
ROOT
ATOM      1  C   UNL     1     160.407 172.135 185.766  1.00  0.00     0.014 C 
ENDROOT
BRANCH   1   2
ATOM      2  C   UNL     1     161.436 171.627 184.721  1.00  0.00     0.042 C 
BRANCH   2   3
ATOM      3  C   UNL     1     161.598 172.667 183.639  1.00  0.00     0.045 C 
ATOM      4  O   UNL     1     162.655 173.343 183.528  1.00  0.00    -0.550 OA
ATOM      5  O   UNL     1     160.569 172.871 182.726  1.00  0.00    -0.550 OA
ENDBRANCH   2   3
BRANCH   2   6
ATOM      6  C   UNL     1     161.195 170.178 184.145  1.00  0.00     0.033 C 
ATOM      7  C   UNL     1     162.135 169.814 182.945  1.00  0.00     0.119 C 
ATOM      8  C   UNL     1     161.358 168.955 185.104  1.00  0.00    -0.017 C 
ATOM      9  C   UNL     1     162.479 168.312 183.073  1.00  0.00     0.043 C 
ATOM     10  C   UNL     1     161.485 167.763 184.105  1.00  0.00    -0.003 C 
ATOM     11  C   UNL     1     160.174 168.633 186.037  1.00  0.00     0.012 C 
ATOM     12  C   UNL     1     162.647 169.149 185.978  1.00  0.00     0.013 C 
ATOM     13  C   UNL     1     160.176 167.385 183.340  1.00  0.00     0.017 C 
ATOM     14  C   UNL     1     161.892 166.511 184.865  1.00  0.00    -0.064 C 
ATOM     15  C   UNL     1     160.353 167.256 186.736  1.00  0.00     0.032 C 
ATOM     16  C   UNL     1     161.286 166.224 186.060  1.00  0.00    -0.064 C 
ATOM     17  C   UNL     1     162.753 165.465 184.206  1.00  0.00     0.032 C 
ATOM     18  C   UNL     1     161.711 164.944 186.841  1.00  0.00    -0.008 C 
ATOM     19  C   UNL     1     162.067 164.120 184.366  1.00  0.00     0.009 C 
ATOM     20  C   UNL     1     161.961 163.687 185.867  1.00  0.00     0.007 C 
ATOM     21  C   UNL     1     162.987 165.363 187.628  1.00  0.00     0.014 C 
ATOM     22  C   UNL     1     160.590 164.576 187.857  1.00  0.00     0.016 C 
ATOM     23  C   UNL     1     163.043 162.600 186.360  1.00  0.00    -0.006 C 
ATOM     24  C   UNL     1     163.762 164.200 188.230  1.00  0.00     0.033 C 
ATOM     25  C   UNL     1     164.234 163.244 187.135  1.00  0.00     0.120 C 
ATOM     26  C   UNL     1     162.362 161.540 187.279  1.00  0.00     0.014 C 
ATOM     27  C   UNL     1     163.638 161.758 185.194  1.00  0.00     0.014 C 
BRANCH   7  28
ATOM     28  O   UNL     1     163.318 170.574 182.953  1.00  0.00    -0.393 OA
ATOM     29  H   UNL     1     163.578 170.685 183.905  1.00  0.00     0.210 HD
ENDBRANCH   7  28
BRANCH  25  30
ATOM     30  O   UNL     1     165.088 163.944 186.260  1.00  0.00    -0.393 OA
ATOM     31  H   UNL     1     165.992 163.539 186.333  1.00  0.00     0.210 HD
ENDBRANCH  25  30
ENDBRANCH   2   6
ENDBRANCH   1   2
BRANCH   1  32
ATOM     32  C   UNL     1     160.958 172.822 187.043  1.00  0.00     0.031 C 
BRANCH  32  33
ATOM     33  C   UNL     1     161.496 171.896 188.126  1.00  0.00    -0.075 C 
ATOM     34  C   UNL     1     160.655 171.108 188.823  1.00  0.00     0.008 C 
BRANCH  33  35
ATOM     35  C   UNL     1     162.936 172.045 188.618  1.00  0.00     0.008 C 
ATOM     36  C   UNL     1     163.452 170.769 189.289  1.00  0.00     0.012 C 
ATOM     37  C   UNL     1     163.867 172.481 187.479  1.00  0.00     0.012 C 
ENDBRANCH  33  35
ENDBRANCH  32  33
ENDBRANCH   1  32
TORSDOF 8
ENDMDL
MODEL 7
REMARK VINA RESULT:    -6.378      6.230     10.355
REMARK INTER + INTRA:          -9.960
REMARK INTER:                  -8.508
REMARK INTRA:                  -1.453
REMARK UNBOUND:                -0.972
REMARK SMILES C=C(CC[C@H](C(=O)[O-])[C@H]1[C@@H](O)C[C@@]2(C)C3=C(CC[C@]12C)[C@]1(C)CC[C@H](O)C(C)(C)[C@@H]1CC3)C(C)C
REMARK SMILES IDX 4 1 5 2 6 3 7 4 8 5 9 6 10 7 19 8 12 9 13 10 18 11 20 12
REMARK SMILES IDX 14 13 15 14 17 15 16 16 32 17 21 18 31 19 30 20 23 21 22 22
REMARK SMILES IDX 27 23 24 24 25 25 28 26 29 27 11 28 26 30 3 32 2 33 1 34
REMARK SMILES IDX 33 35 34 36 35 37
REMARK H PARENT 11 29 26 31
REMARK Flexibility Score: inf
ROOT
ATOM      1  C   UNL     1     160.141 175.003 177.316  1.00  0.00     0.014 C 
ENDROOT
BRANCH   1   2
ATOM      2  C   UNL     1     161.178 173.986 177.866  1.00  0.00     0.042 C 
BRANCH   2   3
ATOM      3  C   UNL     1     161.330 172.853 176.880  1.00  0.00     0.045 C 
ATOM      4  O   UNL     1     162.383 172.707 176.203  1.00  0.00    -0.550 OA
ATOM      5  O   UNL     1     160.298 171.933 176.729  1.00  0.00    -0.550 OA
ENDBRANCH   2   3
BRANCH   2   6
ATOM      6  C   UNL     1     160.953 173.484 179.344  1.00  0.00     0.033 C 
ATOM      7  C   UNL     1     161.914 172.320 179.766  1.00  0.00     0.119 C 
ATOM      8  C   UNL     1     161.106 174.509 180.514  1.00  0.00    -0.017 C 
ATOM      9  C   UNL     1     162.263 172.534 181.257  1.00  0.00     0.043 C 
ATOM     10  C   UNL     1     161.255 173.577 181.756  1.00  0.00    -0.003 C 
ATOM     11  C   UNL     1     159.909 175.439 180.792  1.00  0.00     0.012 C 
ATOM     12  C   UNL     1     162.380 175.393 180.266  1.00  0.00     0.013 C 
ATOM     13  C   UNL     1     159.960 172.812 182.181  1.00  0.00     0.017 C 
ATOM     14  C   UNL     1     161.656 174.409 182.964  1.00  0.00    -0.064 C 
ATOM     15  C   UNL     1     160.082 176.213 182.130  1.00  0.00     0.032 C 
ATOM     16  C   UNL     1     161.032 175.607 183.191  1.00  0.00    -0.064 C 
ATOM     17  C   UNL     1     162.533 173.820 184.038  1.00  0.00     0.032 C 
ATOM     18  C   UNL     1     161.450 176.462 184.425  1.00  0.00    -0.008 C 
ATOM     19  C   UNL     1     161.850 174.041 185.377  1.00  0.00     0.009 C 
ATOM     20  C   UNL     1     161.722 175.560 185.730  1.00  0.00     0.007 C 
ATOM     21  C   UNL     1     162.712 177.246 183.957  1.00  0.00     0.014 C 
ATOM     22  C   UNL     1     160.315 177.478 184.744  1.00  0.00     0.016 C 
ATOM     23  C   UNL     1     162.801 176.128 186.783  1.00  0.00    -0.006 C 
ATOM     24  C   UNL     1     163.482 177.921 185.082  1.00  0.00     0.033 C 
ATOM     25  C   UNL     1     163.976 176.887 186.092  1.00  0.00     0.120 C 
ATOM     26  C   UNL     1     162.110 177.091 187.796  1.00  0.00     0.014 C 
ATOM     27  C   UNL     1     163.419 175.018 187.683  1.00  0.00     0.014 C 
BRANCH   7  28
ATOM     28  O   UNL     1     163.093 172.307 179.000  1.00  0.00    -0.393 OA
ATOM     29  H   UNL     1     162.879 172.754 178.139  1.00  0.00     0.210 HD
ENDBRANCH   7  28
BRANCH  25  30
ATOM     30  O   UNL     1     164.841 175.989 185.435  1.00  0.00    -0.393 OA
ATOM     31  H   UNL     1     165.263 176.475 184.679  1.00  0.00     0.210 HD
ENDBRANCH  25  30
ENDBRANCH   2   6
ENDBRANCH   1   2
BRANCH   1  32
ATOM     32  C   UNL     1     160.657 176.114 176.365  1.00  0.00     0.031 C 
BRANCH  32  33
ATOM     33  C   UNL     1     161.690 177.071 176.948  1.00  0.00    -0.075 C 
ATOM     34  C   UNL     1     161.321 177.990 177.861  1.00  0.00     0.008 C 
BRANCH  33  35
ATOM     35  C   UNL     1     163.077 177.184 176.315  1.00  0.00     0.008 C 
ATOM     36  C   UNL     1     164.055 176.150 176.877  1.00  0.00     0.012 C 
ATOM     37  C   UNL     1     162.995 177.088 174.785  1.00  0.00     0.012 C 
ENDBRANCH  33  35
ENDBRANCH  32  33
ENDBRANCH   1  32
TORSDOF 8
ENDMDL
MODEL 8
REMARK VINA RESULT:    -6.370      2.409      4.495
REMARK INTER + INTRA:          -9.948
REMARK INTER:                  -8.684
REMARK INTRA:                  -1.265
REMARK UNBOUND:                -0.972
REMARK SMILES C=C(CC[C@H](C(=O)[O-])[C@H]1[C@@H](O)C[C@@]2(C)C3=C(CC[C@]12C)[C@]1(C)CC[C@H](O)C(C)(C)[C@@H]1CC3)C(C)C
REMARK SMILES IDX 4 1 5 2 6 3 7 4 8 5 9 6 10 7 19 8 12 9 13 10 18 11 20 12
REMARK SMILES IDX 14 13 15 14 17 15 16 16 32 17 21 18 31 19 30 20 23 21 22 22
REMARK SMILES IDX 27 23 24 24 25 25 28 26 29 27 11 28 26 30 3 32 2 33 1 34
REMARK SMILES IDX 33 35 34 36 35 37
REMARK H PARENT 11 29 26 31
REMARK Flexibility Score: inf
ROOT
ATOM      1  C   UNL     1     161.230 174.668 186.083  1.00  0.00     0.014 C 
ENDROOT
BRANCH   1   2
ATOM      2  C   UNL     1     161.700 175.213 184.707  1.00  0.00     0.042 C 
BRANCH   2   3
ATOM      3  C   UNL     1     160.698 174.819 183.649  1.00  0.00     0.045 C 
ATOM      4  O   UNL     1     160.572 173.623 183.275  1.00  0.00    -0.550 OA
ATOM      5  O   UNL     1     159.876 175.791 183.089  1.00  0.00    -0.550 OA
ENDBRANCH   2   3
BRANCH   2   6
ATOM      6  C   UNL     1     163.187 174.885 184.293  1.00  0.00     0.033 C 
ATOM      7  C   UNL     1     163.607 175.501 182.915  1.00  0.00     0.119 C 
ATOM      8  C   UNL     1     164.344 175.328 185.245  1.00  0.00    -0.017 C 
ATOM      9  C   UNL     1     165.090 175.919 183.034  1.00  0.00     0.043 C 
ATOM     10  C   UNL     1     165.593 175.240 184.315  1.00  0.00    -0.003 C 
ATOM     11  C   UNL     1     164.629 174.433 186.467  1.00  0.00     0.012 C 
ATOM     12  C   UNL     1     164.070 176.790 185.749  1.00  0.00     0.013 C 
ATOM     13  C   UNL     1     166.044 173.793 183.932  1.00  0.00     0.017 C 
ATOM     14  C   UNL     1     166.787 175.870 185.014  1.00  0.00    -0.064 C 
ATOM     15  C   UNL     1     165.957 174.831 187.172  1.00  0.00     0.032 C 
ATOM     16  C   UNL     1     167.011 175.598 186.338  1.00  0.00    -0.064 C 
ATOM     17  C   UNL     1     167.855 176.572 184.216  1.00  0.00     0.032 C 
ATOM     18  C   UNL     1     168.231 176.252 187.054  1.00  0.00    -0.008 C 
ATOM     19  C   UNL     1     169.201 175.996 184.621  1.00  0.00     0.009 C 
ATOM     20  C   UNL     1     169.541 176.290 186.120  1.00  0.00     0.007 C 
ATOM     21  C   UNL     1     167.737 177.671 187.464  1.00  0.00     0.014 C 
ATOM     22  C   UNL     1     168.556 175.439 188.342  1.00  0.00     0.016 C 
ATOM     23  C   UNL     1     170.573 177.499 186.380  1.00  0.00    -0.006 C 
ATOM     24  C   UNL     1     168.845 178.613 187.911  1.00  0.00     0.033 C 
ATOM     25  C   UNL     1     169.858 178.824 186.787  1.00  0.00     0.120 C 
ATOM     26  C   UNL     1     171.586 177.111 187.499  1.00  0.00     0.014 C 
ATOM     27  C   UNL     1     171.475 177.807 185.149  1.00  0.00     0.014 C 
BRANCH   7  28
ATOM     28  O   UNL     1     162.824 176.620 182.578  1.00  0.00    -0.393 OA
ATOM     29  H   UNL     1     163.448 177.388 182.493  1.00  0.00     0.210 HD
ENDBRANCH   7  28
BRANCH  25  30
ATOM     30  O   UNL     1     169.198 179.403 185.685  1.00  0.00    -0.393 OA
ATOM     31  H   UNL     1     169.382 178.835 184.892  1.00  0.00     0.210 HD
ENDBRANCH  25  30
ENDBRANCH   2   6
ENDBRANCH   1   2
BRANCH   1  32
ATOM     32  C   UNL     1     160.434 175.630 187.004  1.00  0.00     0.031 C 
BRANCH  32  33
ATOM     33  C   UNL     1     161.181 176.865 187.491  1.00  0.00    -0.075 C 
ATOM     34  C   UNL     1     161.982 176.788 188.572  1.00  0.00     0.008 C 
BRANCH  33  35
ATOM     35  C   UNL     1     160.827 178.246 186.940  1.00  0.00     0.008 C 
ATOM     36  C   UNL     1     160.246 178.172 185.526  1.00  0.00     0.012 C 
ATOM     37  C   UNL     1     159.875 178.991 187.886  1.00  0.00     0.012 C 
ENDBRANCH  33  35
ENDBRANCH  32  33
ENDBRANCH   1  32
TORSDOF 8
ENDMDL
MODEL 9
REMARK VINA RESULT:    -6.313      5.738      9.196
REMARK INTER + INTRA:          -9.868
REMARK INTER:                  -8.494
REMARK INTRA:                  -1.373
REMARK UNBOUND:                -0.972
REMARK SMILES C=C(CC[C@H](C(=O)[O-])[C@H]1[C@@H](O)C[C@@]2(C)C3=C(CC[C@]12C)[C@]1(C)CC[C@H](O)C(C)(C)[C@@H]1CC3)C(C)C
REMARK SMILES IDX 4 1 5 2 6 3 7 4 8 5 9 6 10 7 19 8 12 9 13 10 18 11 20 12
REMARK SMILES IDX 14 13 15 14 17 15 16 16 32 17 21 18 31 19 30 20 23 21 22 22
REMARK SMILES IDX 27 23 24 24 25 25 28 26 29 27 11 28 26 30 3 32 2 33 1 34
REMARK SMILES IDX 33 35 34 36 35 37
REMARK H PARENT 11 29 26 31
REMARK Flexibility Score: inf
ROOT
ATOM      1  C   UNL     1     173.543 175.993 186.673  1.00  0.00     0.014 C 
ENDROOT
BRANCH   1   2
ATOM      2  C   UNL     1     174.704 176.577 185.822  1.00  0.00     0.042 C 
BRANCH   2   3
ATOM      3  C   UNL     1     175.884 176.858 186.722  1.00  0.00     0.045 C 
ATOM      4  O   UNL     1     175.905 177.859 187.486  1.00  0.00    -0.550 OA
ATOM      5  O   UNL     1     176.964 175.982 186.729  1.00  0.00    -0.550 OA
ENDBRANCH   2   3
BRANCH   2   6
ATOM      6  C   UNL     1     174.345 177.795 184.886  1.00  0.00     0.033 C 
ATOM      7  C   UNL     1     175.597 178.587 184.377  1.00  0.00     0.119 C 
ATOM      8  C   UNL     1     173.544 177.519 183.573  1.00  0.00    -0.017 C 
ATOM      9  C   UNL     1     175.292 179.043 182.932  1.00  0.00     0.043 C 
ATOM     10  C   UNL     1     173.784 178.825 182.755  1.00  0.00    -0.003 C 
ATOM     11  C   UNL     1     172.019 177.345 183.705  1.00  0.00     0.012 C 
ATOM     12  C   UNL     1     174.133 176.247 182.864  1.00  0.00     0.013 C 
ATOM     13  C   UNL     1     173.060 180.100 183.298  1.00  0.00     0.017 C 
ATOM     14  C   UNL     1     173.270 178.634 181.337  1.00  0.00    -0.064 C 
ATOM     15  C   UNL     1     171.319 177.345 182.316  1.00  0.00     0.032 C 
ATOM     16  C   UNL     1     172.061 178.021 181.139  1.00  0.00    -0.064 C 
ATOM     17  C   UNL     1     173.942 179.329 180.182  1.00  0.00     0.032 C 
ATOM     18  C   UNL     1     171.539 177.818 179.684  1.00  0.00    -0.008 C 
ATOM     19  C   UNL     1     172.876 180.067 179.392  1.00  0.00     0.009 C 
ATOM     20  C   UNL     1     171.839 179.090 178.744  1.00  0.00     0.007 C 
ATOM     21  C   UNL     1     172.241 176.520 179.188  1.00  0.00     0.014 C 
ATOM     22  C   UNL     1     170.002 177.577 179.727  1.00  0.00     0.016 C 
ATOM     23  C   UNL     1     172.046 178.790 177.175  1.00  0.00    -0.006 C 
ATOM     24  C   UNL     1     172.126 176.280 177.690  1.00  0.00     0.033 C 
ATOM     25  C   UNL     1     172.762 177.430 176.910  1.00  0.00     0.120 C 
ATOM     26  C   UNL     1     170.669 178.782 176.442  1.00  0.00     0.014 C 
ATOM     27  C   UNL     1     172.853 179.900 176.442  1.00  0.00     0.014 C 
BRANCH   7  28
ATOM     28  O   UNL     1     176.761 177.796 184.389  1.00  0.00    -0.393 OA
ATOM     29  H   UNL     1     177.037 177.682 183.442  1.00  0.00     0.210 HD
ENDBRANCH   7  28
BRANCH  25  30
ATOM     30  O   UNL     1     174.128 177.504 177.247  1.00  0.00    -0.393 OA
ATOM     31  H   UNL     1     174.491 176.579 177.241  1.00  0.00     0.210 HD
ENDBRANCH  25  30
ENDBRANCH   2   6
ENDBRANCH   1   2
BRANCH   1  32
ATOM     32  C   UNL     1     172.945 176.892 187.786  1.00  0.00     0.031 C 
BRANCH  32  33
ATOM     33  C   UNL     1     171.591 177.523 187.487  1.00  0.00    -0.075 C 
ATOM     34  C   UNL     1     170.581 176.766 187.016  1.00  0.00     0.008 C 
BRANCH  33  35
ATOM     35  C   UNL     1     171.442 179.044 187.454  1.00  0.00     0.008 C 
ATOM     36  C   UNL     1     172.796 179.758 187.454  1.00  0.00     0.012 C 
ATOM     37  C   UNL     1     170.587 179.489 186.259  1.00  0.00     0.012 C 
ENDBRANCH  33  35
ENDBRANCH  32  33
ENDBRANCH   1  32
TORSDOF 8
ENDMDL
