MODEL 1
REMARK VINA RESULT:    -2.674      0.000      0.000
REMARK INTER + INTRA:          -3.195
REMARK INTER:                  -3.768
REMARK INTRA:                   0.574
REMARK UNBOUND:                 0.574
REMARK SMILES CC1=CCC(=C(C)C)C(=O)CC(C)=CCC1
REMARK SMILES IDX 12 1 14 2 13 3 15 4 16 5 2 6 1 7 3 8 11 10 9 11 10 12 5 13
REMARK SMILES IDX 6 14 7 15 8 16 4 17
REMARK H PARENT
REMARK Flexibility Score: 60.00
ROOT
ATOM      1  C   UNL     1      68.494 -16.115  10.785  1.00  0.00    -0.070 C 
ATOM      2  C   UNL     1      67.242 -16.054  10.272  1.00  0.00    -0.027 C 
ATOM      3  C   UNL     1      69.601 -15.461   9.995  1.00  0.00     0.039 C 
ENDROOT
BRANCH   2   4
ATOM      4  C   UNL     1      66.013 -16.724  10.837  1.00  0.00     0.032 C 
BRANCH   4   5
ATOM      5  C   UNL     1      64.907 -15.717  11.208  1.00  0.00     0.034 C 
BRANCH   5   6
ATOM      6  C   UNL     1      65.421 -14.611  12.110  1.00  0.00    -0.077 C 
ATOM      7  C   UNL     1      65.284 -13.184  11.641  1.00  0.00     0.039 C 
ATOM      8  C   UNL     1      65.972 -14.828  13.325  1.00  0.00    -0.023 CG0
ATOM      9  G   UNL     1      66.161 -16.175  13.980  1.00  0.00     0.000 G0
ENDBRANCH   5   6
ENDBRANCH   4   5
ENDBRANCH   2   4
BRANCH   1  10
ATOM     10  C   UNL     1      68.849 -16.856  12.064  1.00  0.00     0.111 C 
BRANCH  10  11
ATOM     11  C   UNL     1      68.654 -15.986  13.281  1.00  0.00     0.163 C 
ATOM     12  O   UNL     1      69.327 -14.924  13.365  1.00  0.00    -0.294 OA
BRANCH  11  13
ATOM     13  C   UNL     1      67.659 -16.325  14.345  1.00  0.00    -0.002 C 
ATOM     14  C   UNL     1      68.046 -16.816  15.562  1.00  0.00    -0.069 C 
ATOM     15  C   UNL     1      67.036 -17.121  16.647  1.00  0.00     0.039 C 
ATOM     16  C   UNL     1      69.497 -17.112  15.871  1.00  0.00     0.039 C 
BRANCH  13  17
ATOM     17  C   UNL     1      66.191 -16.173  13.992  1.00  0.00     0.066 CG0
ATOM     18  G   UNL     1      65.959 -14.834  13.333  1.00  0.00     0.000 G0
ENDBRANCH  13  17
ENDBRANCH  11  13
ENDBRANCH  10  11
ENDBRANCH   1  10
TORSDOF 0
ENDMDL
MODEL 2
REMARK VINA RESULT:    -2.292     14.831     17.274
REMARK INTER + INTRA:          -2.657
REMARK INTER:                  -3.554
REMARK INTRA:                   0.897
REMARK UNBOUND:                 0.574
REMARK SMILES CC1=CCC(=C(C)C)C(=O)CC(C)=CCC1
REMARK SMILES IDX 12 1 14 2 13 3 15 4 16 5 2 6 1 7 3 8 11 10 9 11 10 12 5 13
REMARK SMILES IDX 6 14 7 15 8 16 4 17
REMARK H PARENT
REMARK Flexibility Score: 60.00
ROOT
ATOM      1  C   UNL     1      67.528   2.632   8.509  1.00  0.00    -0.070 C 
ATOM      2  C   UNL     1      67.231   3.014   9.773  1.00  0.00    -0.027 C 
ATOM      3  C   UNL     1      66.434   2.738   7.475  1.00  0.00     0.039 C 
ENDROOT
BRANCH   2   4
ATOM      4  C   UNL     1      68.132   2.896  10.978  1.00  0.00     0.032 C 
BRANCH   4   5
ATOM      5  C   UNL     1      67.874   1.611  11.788  1.00  0.00     0.034 C 
BRANCH   5   6
ATOM      6  C   UNL     1      69.041   0.645  11.714  1.00  0.00    -0.077 C 
ATOM      7  C   UNL     1      70.116   0.740  12.768  1.00  0.00     0.039 C 
ATOM      8  C   UNL     1      69.161  -0.316  10.771  1.00  0.00    -0.023 CG0
ATOM      9  G   UNL     1      68.176  -0.589   9.660  1.00  0.00     0.000 G0
ENDBRANCH   5   6
ENDBRANCH   4   5
ENDBRANCH   2   4
BRANCH   1  10
ATOM     10  C   UNL     1      68.869   2.046   8.097  1.00  0.00     0.111 C 
BRANCH  10  11
ATOM     11  C   UNL     1      68.712   0.671   7.497  1.00  0.00     0.163 C 
ATOM     12  O   UNL     1      68.488   0.586   6.259  1.00  0.00    -0.294 OA
BRANCH  11  13
ATOM     13  C   UNL     1      68.865  -0.573   8.314  1.00  0.00    -0.002 C 
ATOM     14  C   UNL     1      69.546  -1.662   7.846  1.00  0.00    -0.069 C 
ATOM     15  C   UNL     1      69.730  -2.902   8.694  1.00  0.00     0.039 C 
ATOM     16  C   UNL     1      70.118  -1.697   6.446  1.00  0.00     0.039 C 
BRANCH  13  17
ATOM     17  C   UNL     1      68.167  -0.603   9.662  1.00  0.00     0.066 CG0
ATOM     18  G   UNL     1      69.160  -0.308  10.760  1.00  0.00     0.000 G0
ENDBRANCH  13  17
ENDBRANCH  11  13
ENDBRANCH  10  11
ENDBRANCH   1  10
TORSDOF 0
ENDMDL
MODEL 3
REMARK VINA RESULT:    -2.234     21.984     24.252
REMARK INTER + INTRA:          -2.574
REMARK INTER:                  -3.190
REMARK INTRA:                   0.615
REMARK UNBOUND:                 0.574
REMARK SMILES CC1=CCC(=C(C)C)C(=O)CC(C)=CCC1
REMARK SMILES IDX 12 1 14 2 13 3 15 4 16 5 2 6 1 7 3 8 11 10 9 11 10 12 5 13
REMARK SMILES IDX 6 14 7 15 8 16 4 17
REMARK H PARENT
REMARK Flexibility Score: 60.00
ROOT
ATOM      1  C   UNL     1      50.978   2.593  22.578  1.00  0.00    -0.070 C 
ATOM      2  C   UNL     1      50.317   1.996  21.557  1.00  0.00    -0.027 C 
ATOM      3  C   UNL     1      50.164   3.039  23.767  1.00  0.00     0.039 C 
ENDROOT
BRANCH   2   4
ATOM      4  C   UNL     1      50.911   1.569  20.237  1.00  0.00     0.032 C 
BRANCH   4   5
ATOM      5  C   UNL     1      50.808   0.049  20.005  1.00  0.00     0.034 C 
BRANCH   5   6
ATOM      6  C   UNL     1      51.242  -0.746  21.222  1.00  0.00    -0.077 C 
ATOM      7  C   UNL     1      50.235  -1.659  21.876  1.00  0.00     0.039 C 
ATOM      8  C   UNL     1      52.489  -0.703  21.741  1.00  0.00    -0.023 CG0
ATOM      9  G   UNL     1      53.638   0.119  21.208  1.00  0.00     0.000 G0
ENDBRANCH   5   6
ENDBRANCH   4   5
ENDBRANCH   2   4
BRANCH   1  10
ATOM     10  C   UNL     1      52.468   2.892  22.559  1.00  0.00     0.111 C 
BRANCH  10  11
ATOM     11  C   UNL     1      53.269   1.763  23.159  1.00  0.00     0.163 C 
ATOM     12  O   UNL     1      53.077   1.478  24.371  1.00  0.00    -0.294 OA
BRANCH  11  13
ATOM     13  C   UNL     1      54.230   0.954  22.345  1.00  0.00    -0.002 C 
ATOM     14  C   UNL     1      55.579   1.013  22.559  1.00  0.00    -0.069 C 
ATOM     15  C   UNL     1      56.542   0.163  21.757  1.00  0.00     0.039 C 
ATOM     16  C   UNL     1      56.180   1.953  23.579  1.00  0.00     0.039 C 
BRANCH  13  17
ATOM     17  C   UNL     1      53.648   0.120  21.219  1.00  0.00     0.066 CG0
ATOM     18  G   UNL     1      52.498  -0.710  21.736  1.00  0.00     0.000 G0
ENDBRANCH  13  17
ENDBRANCH  11  13
ENDBRANCH  10  11
ENDBRANCH   1  10
TORSDOF 0
ENDMDL
MODEL 4
REMARK VINA RESULT:    -2.108     22.252     24.447
REMARK INTER + INTRA:          -2.397
REMARK INTER:                  -3.236
REMARK INTRA:                   0.839
REMARK UNBOUND:                 0.574
REMARK SMILES CC1=CCC(=C(C)C)C(=O)CC(C)=CCC1
REMARK SMILES IDX 12 1 14 2 13 3 15 4 16 5 2 6 1 7 3 8 11 10 9 11 10 12 5 13
REMARK SMILES IDX 6 14 7 15 8 16 4 17
REMARK H PARENT
REMARK Flexibility Score: 60.00
ROOT
ATOM      1  C   UNL     1      51.349   0.403  20.349  1.00  0.00    -0.070 C 
ATOM      2  C   UNL     1      50.583   1.431  20.786  1.00  0.00    -0.027 C 
ATOM      3  C   UNL     1      50.646  -0.880  19.979  1.00  0.00     0.039 C 
ENDROOT
BRANCH   2   4
ATOM      4  C   UNL     1      51.081   2.759  21.303  1.00  0.00     0.032 C 
BRANCH   4   5
ATOM      5  C   UNL     1      50.584   3.063  22.729  1.00  0.00     0.034 C 
BRANCH   5   6
ATOM      6  C   UNL     1      51.157   2.102  23.752  1.00  0.00    -0.077 C 
ATOM      7  C   UNL     1      50.206   1.413  24.698  1.00  0.00     0.039 C 
ATOM      8  C   UNL     1      52.472   1.806  23.849  1.00  0.00    -0.023 CG0
ATOM      9  G   UNL     1      53.569   2.364  22.973  1.00  0.00     0.000 G0
ENDBRANCH   5   6
ENDBRANCH   4   5
ENDBRANCH   2   4
BRANCH   1  10
ATOM     10  C   UNL     1      52.867   0.452  20.276  1.00  0.00     0.111 C 
BRANCH  10  11
ATOM     11  C   UNL     1      53.496   0.171  21.618  1.00  0.00     0.163 C 
ATOM     12  O   UNL     1      53.345  -0.978  22.115  1.00  0.00    -0.294 OA
BRANCH  11  13
ATOM     13  C   UNL     1      54.323   1.191  22.335  1.00  0.00    -0.002 C 
ATOM     14  C   UNL     1      55.678   1.058  22.461  1.00  0.00    -0.069 C 
ATOM     15  C   UNL     1      56.513   2.113  23.154  1.00  0.00     0.039 C 
ATOM     16  C   UNL     1      56.405  -0.165  21.948  1.00  0.00     0.039 C 
BRANCH  13  17
ATOM     17  C   UNL     1      53.584   2.347  22.983  1.00  0.00     0.066 CG0
ATOM     18  G   UNL     1      52.477   1.818  23.863  1.00  0.00     0.000 G0
ENDBRANCH  13  17
ENDBRANCH  11  13
ENDBRANCH  10  11
ENDBRANCH   1  10
TORSDOF 0
ENDMDL
MODEL 5
REMARK VINA RESULT:    -1.670     20.330     22.629
REMARK INTER + INTRA:          -1.780
REMARK INTER:                  -2.597
REMARK INTRA:                   0.817
REMARK UNBOUND:                 0.574
REMARK SMILES CC1=CCC(=C(C)C)C(=O)CC(C)=CCC1
REMARK SMILES IDX 12 1 14 2 13 3 15 4 16 5 2 6 1 7 3 8 11 10 9 11 10 12 5 13
REMARK SMILES IDX 6 14 7 15 8 16 4 17
REMARK H PARENT
REMARK Flexibility Score: 60.00
ROOT
ATOM      1  C   UNL     1      55.725   2.260  24.233  1.00  0.00    -0.070 C 
ATOM      2  C   UNL     1      56.444   1.530  25.119  1.00  0.00    -0.027 C 
ATOM      3  C   UNL     1      54.380   2.775  24.685  1.00  0.00     0.039 C 
ENDROOT
BRANCH   2   4
ATOM      4  C   UNL     1      57.755   0.835  24.847  1.00  0.00     0.032 C 
BRANCH   4   5
ATOM      5  C   UNL     1      57.636  -0.700  24.905  1.00  0.00     0.034 C 
BRANCH   5   6
ATOM      6  C   UNL     1      57.746  -1.335  23.532  1.00  0.00    -0.077 C 
ATOM      7  C   UNL     1      59.078  -1.905  23.112  1.00  0.00     0.039 C 
ATOM      8  C   UNL     1      56.711  -1.443  22.671  1.00  0.00    -0.023 CG0
ATOM      9  G   UNL     1      55.300  -0.967  22.922  1.00  0.00     0.000 G0
ENDBRANCH   5   6
ENDBRANCH   4   5
ENDBRANCH   2   4
BRANCH   1  10
ATOM     10  C   UNL     1      56.166   2.527  22.803  1.00  0.00     0.111 C 
BRANCH  10  11
ATOM     11  C   UNL     1      56.086   1.282  21.956  1.00  0.00     0.163 C 
ATOM     12  O   UNL     1      57.011   1.068  21.126  1.00  0.00    -0.294 OA
BRANCH  11  13
ATOM     13  C   UNL     1      54.981   0.286  22.114  1.00  0.00    -0.002 C 
ATOM     14  C   UNL     1      53.730   0.514  21.611  1.00  0.00    -0.069 C 
ATOM     15  C   UNL     1      52.627  -0.515  21.742  1.00  0.00     0.039 C 
ATOM     16  C   UNL     1      53.375   1.817  20.931  1.00  0.00     0.039 C 
BRANCH  13  17
ATOM     17  C   UNL     1      55.285  -0.960  22.925  1.00  0.00     0.066 CG0
ATOM     18  G   UNL     1      56.703  -1.409  22.663  1.00  0.00     0.000 G0
ENDBRANCH  13  17
ENDBRANCH  11  13
ENDBRANCH  10  11
ENDBRANCH   1  10
TORSDOF 0
ENDMDL
MODEL 6
REMARK VINA RESULT:    -1.574     22.300     24.407
REMARK INTER + INTRA:          -1.645
REMARK INTER:                  -2.425
REMARK INTRA:                   0.781
REMARK UNBOUND:                 0.574
REMARK SMILES CC1=CCC(=C(C)C)C(=O)CC(C)=CCC1
REMARK SMILES IDX 12 1 14 2 13 3 15 4 16 5 2 6 1 7 3 8 11 10 9 11 10 12 5 13
REMARK SMILES IDX 6 14 7 15 8 16 4 17
REMARK H PARENT
REMARK Flexibility Score: 60.00
ROOT
ATOM      1  C   UNL     1      54.089  -0.319  21.861  1.00  0.00    -0.070 C 
ATOM      2  C   UNL     1      55.349  -0.389  22.351  1.00  0.00    -0.027 C 
ATOM      3  C   UNL     1      53.117  -1.393  22.285  1.00  0.00     0.039 C 
ENDROOT
BRANCH   2   4
ATOM      4  C   UNL     1      56.503   0.511  21.981  1.00  0.00     0.032 C 
BRANCH   4   5
ATOM      5  C   UNL     1      56.380   1.916  22.601  1.00  0.00     0.034 C 
BRANCH   5   6
ATOM      6  C   UNL     1      55.712   1.885  23.962  1.00  0.00    -0.077 C 
ATOM      7  C   UNL     1      56.485   1.311  25.124  1.00  0.00     0.039 C 
ATOM      8  C   UNL     1      54.472   2.365  24.201  1.00  0.00    -0.023 CG0
ATOM      9  G   UNL     1      53.562   3.006  23.180  1.00  0.00     0.000 G0
ENDBRANCH   5   6
ENDBRANCH   4   5
ENDBRANCH   2   4
BRANCH   1  10
ATOM     10  C   UNL     1      53.626   0.734  20.867  1.00  0.00     0.111 C 
BRANCH  10  11
ATOM     11  C   UNL     1      52.458   1.526  21.401  1.00  0.00     0.163 C 
ATOM     12  O   UNL     1      51.460   1.692  20.650  1.00  0.00    -0.294 OA
BRANCH  11  13
ATOM     13  C   UNL     1      52.439   2.064  22.798  1.00  0.00    -0.002 C 
ATOM     14  C   UNL     1      51.430   1.763  23.670  1.00  0.00    -0.069 C 
ATOM     15  C   UNL     1      51.437   2.280  25.092  1.00  0.00     0.039 C 
ATOM     16  C   UNL     1      50.240   0.930  23.248  1.00  0.00     0.039 C 
BRANCH  13  17
ATOM     17  C   UNL     1      53.551   3.022  23.184  1.00  0.00     0.066 CG0
ATOM     18  G   UNL     1      54.467   2.366  24.189  1.00  0.00     0.000 G0
ENDBRANCH  13  17
ENDBRANCH  11  13
ENDBRANCH  10  11
ENDBRANCH   1  10
TORSDOF 0
ENDMDL
MODEL 7
REMARK VINA RESULT:    -1.530     21.378     23.561
REMARK INTER + INTRA:          -1.582
REMARK INTER:                  -2.544
REMARK INTRA:                   0.962
REMARK UNBOUND:                 0.574
REMARK SMILES CC1=CCC(=C(C)C)C(=O)CC(C)=CCC1
REMARK SMILES IDX 12 1 14 2 13 3 15 4 16 5 2 6 1 7 3 8 11 10 9 11 10 12 5 13
REMARK SMILES IDX 6 14 7 15 8 16 4 17
REMARK H PARENT
REMARK Flexibility Score: 60.00
ROOT
ATOM      1  C   UNL     1      56.572   1.833  24.758  1.00  0.00    -0.070 C 
ATOM      2  C   UNL     1      57.150   0.644  24.462  1.00  0.00    -0.027 C 
ATOM      3  C   UNL     1      57.486   3.002  25.029  1.00  0.00     0.039 C 
ENDROOT
BRANCH   2   4
ATOM      4  C   UNL     1      56.437  -0.670  24.260  1.00  0.00     0.032 C 
BRANCH   4   5
ATOM      5  C   UNL     1      56.585  -1.211  22.825  1.00  0.00     0.034 C 
BRANCH   5   6
ATOM      6  C   UNL     1      56.367  -0.132  21.782  1.00  0.00    -0.077 C 
ATOM      7  C   UNL     1      57.555   0.337  20.979  1.00  0.00     0.039 C 
ATOM      8  C   UNL     1      55.163   0.418  21.512  1.00  0.00    -0.023 CG0
ATOM      9  G   UNL     1      53.858   0.057  22.180  1.00  0.00     0.000 G0
ENDBRANCH   5   6
ENDBRANCH   4   5
ENDBRANCH   2   4
BRANCH   1  10
ATOM     10  C   UNL     1      55.071   2.032  24.894  1.00  0.00     0.111 C 
BRANCH  10  11
ATOM     11  C   UNL     1      54.405   2.166  23.548  1.00  0.00     0.163 C 
ATOM     12  O   UNL     1      54.775   3.106  22.794  1.00  0.00    -0.294 OA
BRANCH  11  13
ATOM     13  C   UNL     1      53.370   1.194  23.075  1.00  0.00    -0.002 C 
ATOM     14  C   UNL     1      52.069   1.272  23.489  1.00  0.00    -0.069 C 
ATOM     15  C   UNL     1      51.020   0.308  22.978  1.00  0.00     0.039 C 
ATOM     16  C   UNL     1      51.620   2.299  24.505  1.00  0.00     0.039 C 
BRANCH  13  17
ATOM     17  C   UNL     1      53.841   0.069  22.173  1.00  0.00     0.066 CG0
ATOM     18  G   UNL     1      55.158   0.440  21.536  1.00  0.00     0.000 G0
ENDBRANCH  13  17
ENDBRANCH  11  13
ENDBRANCH  10  11
ENDBRANCH   1  10
TORSDOF 0
ENDMDL
MODEL 8
REMARK VINA RESULT:    -1.508     21.871     24.144
REMARK INTER + INTRA:          -1.551
REMARK INTER:                  -2.359
REMARK INTRA:                   0.808
REMARK UNBOUND:                 0.574
REMARK SMILES CC1=CCC(=C(C)C)C(=O)CC(C)=CCC1
REMARK SMILES IDX 12 1 14 2 13 3 15 4 16 5 2 6 1 7 3 8 11 10 9 11 10 12 5 13
REMARK SMILES IDX 6 14 7 15 8 16 4 17
REMARK H PARENT
REMARK Flexibility Score: 60.00
ROOT
ATOM      1  C   UNL     1      53.751   2.456  24.277  1.00  0.00    -0.070 C 
ATOM      2  C   UNL     1      54.937   2.091  24.819  1.00  0.00    -0.027 C 
ATOM      3  C   UNL     1      52.499   2.117  25.049  1.00  0.00     0.039 C 
ENDROOT
BRANCH   2   4
ATOM      4  C   UNL     1      56.295   2.235  24.177  1.00  0.00     0.032 C 
BRANCH   4   5
ATOM      5  C   UNL     1      56.366   1.576  22.787  1.00  0.00     0.034 C 
BRANCH   5   6
ATOM      6  C   UNL     1      55.875   0.142  22.808  1.00  0.00    -0.077 C 
ATOM      7  C   UNL     1      56.556  -0.834  23.737  1.00  0.00     0.039 C 
ATOM      8  C   UNL     1      54.844  -0.310  22.061  1.00  0.00    -0.023 CG0
ATOM      9  G   UNL     1      54.019   0.517  21.104  1.00  0.00     0.000 G0
ENDBRANCH   5   6
ENDBRANCH   4   5
ENDBRANCH   2   4
BRANCH   1  10
ATOM     10  C   UNL     1      53.612   3.121  22.917  1.00  0.00     0.111 C 
BRANCH  10  11
ATOM     11  C   UNL     1      52.603   2.408  22.052  1.00  0.00     0.163 C 
ATOM     12  O   UNL     1      51.665   3.087  21.553  1.00  0.00    -0.294 OA
BRANCH  11  13
ATOM     13  C   UNL     1      52.719   0.950  21.736  1.00  0.00    -0.002 C 
ATOM     14  C   UNL     1      51.741   0.059  22.083  1.00  0.00    -0.069 C 
ATOM     15  C   UNL     1      51.848  -1.408  21.727  1.00  0.00     0.039 C 
ATOM     16  C   UNL     1      50.523   0.487  22.871  1.00  0.00     0.039 C 
BRANCH  13  17
ATOM     17  C   UNL     1      54.005   0.487  21.077  1.00  0.00     0.066 CG0
ATOM     18  G   UNL     1      54.828  -0.307  22.063  1.00  0.00     0.000 G0
ENDBRANCH  13  17
ENDBRANCH  11  13
ENDBRANCH  10  11
ENDBRANCH   1  10
TORSDOF 0
ENDMDL
MODEL 9
REMARK VINA RESULT:    -1.486     21.175     23.312
REMARK INTER + INTRA:          -1.520
REMARK INTER:                  -2.776
REMARK INTRA:                   1.256
REMARK UNBOUND:                 0.574
REMARK SMILES CC1=CCC(=C(C)C)C(=O)CC(C)=CCC1
REMARK SMILES IDX 12 1 14 2 13 3 15 4 16 5 2 6 1 7 3 8 11 10 9 11 10 12 5 13
REMARK SMILES IDX 6 14 7 15 8 16 4 17
REMARK H PARENT
REMARK Flexibility Score: 60.00
ROOT
ATOM      1  C   UNL     1      53.684   2.758  23.669  1.00  0.00    -0.070 C 
ATOM      2  C   UNL     1      52.756   2.684  22.685  1.00  0.00    -0.027 C 
ATOM      3  C   UNL     1      53.188   2.944  25.081  1.00  0.00     0.039 C 
ENDROOT
BRANCH   2   4
ATOM      4  C   UNL     1      53.029   2.605  21.203  1.00  0.00     0.032 C 
BRANCH   4   5
ATOM      5  C   UNL     1      52.558   1.275  20.584  1.00  0.00     0.034 C 
BRANCH   5   6
ATOM      6  C   UNL     1      52.702   0.113  21.548  1.00  0.00    -0.077 C 
ATOM      7  C   UNL     1      51.452  -0.612  21.985  1.00  0.00     0.039 C 
ATOM      8  C   UNL     1      53.888  -0.329  22.019  1.00  0.00    -0.023 CG0
ATOM      9  G   UNL     1      55.243   0.240  21.672  1.00  0.00     0.000 G0
ENDBRANCH   5   6
ENDBRANCH   4   5
ENDBRANCH   2   4
BRANCH   1  10
ATOM     10  C   UNL     1      55.184   2.732  23.419  1.00  0.00     0.111 C 
BRANCH  10  11
ATOM     11  C   UNL     1      55.800   1.435  23.882  1.00  0.00     0.163 C 
ATOM     12  O   UNL     1      56.009   1.285  25.116  1.00  0.00    -0.294 OA
BRANCH  11  13
ATOM     13  C   UNL     1      56.115   0.324  22.931  1.00  0.00    -0.002 C 
ATOM     14  C   UNL     1      57.170  -0.521  23.137  1.00  0.00    -0.069 C 
ATOM     15  C   UNL     1      57.459  -1.667  22.190  1.00  0.00     0.039 C 
ATOM     16  C   UNL     1      58.121  -0.333  24.297  1.00  0.00     0.039 C 
BRANCH  13  17
ATOM     17  C   UNL     1      55.256   0.219  21.684  1.00  0.00     0.066 CG0
ATOM     18  G   UNL     1      53.891  -0.314  22.045  1.00  0.00     0.000 G0
ENDBRANCH  13  17
ENDBRANCH  11  13
ENDBRANCH  10  11
ENDBRANCH   1  10
TORSDOF 0
ENDMDL
