MODEL 1
REMARK VINA RESULT:    -4.864      0.000      0.000
REMARK INTER + INTRA:          -6.046
REMARK INTER:                  -5.860
REMARK INTRA:                  -0.187
REMARK UNBOUND:                -0.187
REMARK SMILES Oc1cc(O)c2c(c1)O[C@H](c1ccc(O)c(O)c1)[C@@H](O)C2
REMARK SMILES IDX 21 1 19 2 10 3 9 4 7 5 8 6 2 7 3 8 4 9 6 10 20 11 11 13
REMARK SMILES IDX 18 14 12 15 16 16 13 17 14 18 17 19 15 21 5 23 1 25
REMARK H PARENT 20 12 17 20 15 22 5 24 1 26
REMARK Flexibility Score: inf
ROOT
ATOM      1  C   UNL     1       8.900  -5.179   0.333  1.00  0.00     0.079 C 
ATOM      2  C   UNL     1      10.316  -5.350   0.913  1.00  0.00     0.164 C 
ATOM      3  C   UNL     1      10.338  -6.528   1.903  1.00  0.00     0.232 C 
ATOM      4  O   UNL     1       9.366  -6.316   2.927  1.00  0.00    -0.482 OA
ATOM      5  C   UNL     1       8.112  -5.757   2.664  1.00  0.00     0.131 A 
ATOM      6  C   UNL     1       7.145  -5.754   3.673  1.00  0.00     0.093 A 
ATOM      7  C   UNL     1       5.876  -5.215   3.432  1.00  0.00     0.122 A 
ATOM      8  C   UNL     1       5.574  -4.688   2.176  1.00  0.00     0.092 A 
ATOM      9  C   UNL     1       6.529  -4.684   1.153  1.00  0.00     0.126 A 
ATOM     10  C   UNL     1       7.828  -5.187   1.403  1.00  0.00     0.039 A 
ENDROOT
BRANCH   2  11
ATOM     11  O   UNL     1      11.231  -5.588  -0.125  1.00  0.00    -0.389 OA
ATOM     12  H   UNL     1      11.189  -4.800  -0.729  1.00  0.00     0.211 HD
ENDBRANCH   2  11
BRANCH   3  13
ATOM     13  C   UNL     1      11.704  -6.694   2.525  1.00  0.00    -0.001 A 
ATOM     14  C   UNL     1      12.518  -5.574   2.773  1.00  0.00     0.057 A 
ATOM     15  C   UNL     1      12.195  -7.975   2.820  1.00  0.00     0.012 A 
ATOM     16  C   UNL     1      13.797  -5.731   3.326  1.00  0.00     0.157 A 
ATOM     17  C   UNL     1      13.470  -8.133   3.372  1.00  0.00     0.050 A 
ATOM     18  C   UNL     1      14.273  -7.017   3.627  1.00  0.00     0.157 A 
BRANCH  16  19
ATOM     19  O   UNL     1      14.594  -4.614   3.572  1.00  0.00    -0.504 OA
ATOM     20  H   UNL     1      14.772  -3.920   2.856  1.00  0.00     0.293 HD
ENDBRANCH  16  19
BRANCH  18  21
ATOM     21  O   UNL     1      15.541  -7.206   4.179  1.00  0.00    -0.504 OA
ATOM     22  H   UNL     1      15.895  -8.126   4.410  1.00  0.00     0.293 HD
ENDBRANCH  18  21
ENDBRANCH   3  13
BRANCH   9  23
ATOM     23  O   UNL     1       6.153  -4.184  -0.096  1.00  0.00    -0.507 OA
ATOM     24  H   UNL     1       6.732  -4.257  -0.922  1.00  0.00     0.293 HD
ENDBRANCH   9  23
BRANCH   7  25
ATOM     25  O   UNL     1       4.908  -5.206   4.433  1.00  0.00    -0.508 OA
ATOM     26  H   UNL     1       4.738  -6.020   5.013  1.00  0.00     0.293 HD
ENDBRANCH   7  25
TORSDOF 6
ENDMDL
MODEL 2
REMARK VINA RESULT:    -4.635      1.880      3.081
REMARK INTER + INTRA:          -5.770
REMARK INTER:                  -5.425
REMARK INTRA:                  -0.345
REMARK UNBOUND:                -0.187
REMARK SMILES Oc1cc(O)c2c(c1)O[C@H](c1ccc(O)c(O)c1)[C@@H](O)C2
REMARK SMILES IDX 21 1 19 2 10 3 9 4 7 5 8 6 2 7 3 8 4 9 6 10 20 11 11 13
REMARK SMILES IDX 18 14 12 15 16 16 13 17 14 18 17 19 15 21 5 23 1 25
REMARK H PARENT 20 12 17 20 15 22 5 24 1 26
REMARK Flexibility Score: inf
ROOT
ATOM      1  C   UNL     1       7.551  -8.268   3.605  1.00  0.00     0.079 C 
ATOM      2  C   UNL     1       8.873  -8.144   2.824  1.00  0.00     0.164 C 
ATOM      3  C   UNL     1       9.475  -6.745   3.033  1.00  0.00     0.232 C 
ATOM      4  O   UNL     1       8.531  -5.749   2.639  1.00  0.00    -0.482 OA
ATOM      5  C   UNL     1       7.163  -5.873   2.895  1.00  0.00     0.131 A 
ATOM      6  C   UNL     1       6.325  -4.781   2.653  1.00  0.00     0.093 A 
ATOM      7  C   UNL     1       4.953  -4.873   2.915  1.00  0.00     0.122 A 
ATOM      8  C   UNL     1       4.423  -6.058   3.429  1.00  0.00     0.092 A 
ATOM      9  C   UNL     1       5.247  -7.161   3.678  1.00  0.00     0.126 A 
ATOM     10  C   UNL     1       6.628  -7.089   3.374  1.00  0.00     0.039 A 
ENDROOT
BRANCH   2  11
ATOM     11  O   UNL     1       9.780  -9.120   3.267  1.00  0.00    -0.389 OA
ATOM     12  H   UNL     1      10.019  -9.668   2.473  1.00  0.00     0.211 HD
ENDBRANCH   2  11
BRANCH   3  13
ATOM     13  C   UNL     1      10.751  -6.575   2.243  1.00  0.00    -0.001 A 
ATOM     14  C   UNL     1      11.916  -6.087   2.861  1.00  0.00     0.057 A 
ATOM     15  C   UNL     1      10.774  -6.858   0.868  1.00  0.00     0.012 A 
ATOM     16  C   UNL     1      13.093  -5.904   2.121  1.00  0.00     0.157 A 
ATOM     17  C   UNL     1      11.947  -6.676   0.129  1.00  0.00     0.050 A 
ATOM     18  C   UNL     1      13.107  -6.201   0.748  1.00  0.00     0.157 A 
BRANCH  16  19
ATOM     19  O   UNL     1      14.244  -5.424   2.744  1.00  0.00    -0.504 OA
ATOM     20  H   UNL     1      14.690  -4.565   2.447  1.00  0.00     0.293 HD
ENDBRANCH  16  19
BRANCH  18  21
ATOM     21  O   UNL     1      14.262  -6.030  -0.015  1.00  0.00    -0.504 OA
ATOM     22  H   UNL     1      15.188  -6.092   0.390  1.00  0.00     0.293 HD
ENDBRANCH  18  21
ENDBRANCH   3  13
BRANCH   9  23
ATOM     23  O   UNL     1       4.666  -8.303   4.235  1.00  0.00    -0.507 OA
ATOM     24  H   UNL     1       4.932  -8.680   5.134  1.00  0.00     0.293 HD
ENDBRANCH   9  23
BRANCH   7  25
ATOM     25  O   UNL     1       4.111  -3.790   2.675  1.00  0.00    -0.508 OA
ATOM     26  H   UNL     1       4.421  -2.836   2.820  1.00  0.00     0.293 HD
ENDBRANCH   7  25
TORSDOF 6
ENDMDL
MODEL 3
REMARK VINA RESULT:    -4.619      2.354      4.452
REMARK INTER + INTRA:          -5.751
REMARK INTER:                  -5.386
REMARK INTRA:                  -0.366
REMARK UNBOUND:                -0.187
REMARK SMILES Oc1cc(O)c2c(c1)O[C@H](c1ccc(O)c(O)c1)[C@@H](O)C2
REMARK SMILES IDX 21 1 19 2 10 3 9 4 7 5 8 6 2 7 3 8 4 9 6 10 20 11 11 13
REMARK SMILES IDX 18 14 12 15 16 16 13 17 14 18 17 19 15 21 5 23 1 25
REMARK H PARENT 20 12 17 20 15 22 5 24 1 26
REMARK Flexibility Score: inf
ROOT
ATOM      1  C   UNL     1       4.455  -4.543   2.457  1.00  0.00     0.079 C 
ATOM      2  C   UNL     1       5.988  -4.582   2.313  1.00  0.00     0.164 C 
ATOM      3  C   UNL     1       6.478  -6.041   2.317  1.00  0.00     0.232 C 
ATOM      4  O   UNL     1       6.040  -6.693   3.509  1.00  0.00    -0.482 OA
ATOM      5  C   UNL     1       4.777  -6.466   4.065  1.00  0.00     0.131 A 
ATOM      6  C   UNL     1       4.344  -7.276   5.119  1.00  0.00     0.093 A 
ATOM      7  C   UNL     1       3.079  -7.082   5.684  1.00  0.00     0.122 A 
ATOM      8  C   UNL     1       2.243  -6.081   5.185  1.00  0.00     0.092 A 
ATOM      9  C   UNL     1       2.659  -5.261   4.129  1.00  0.00     0.126 A 
ATOM     10  C   UNL     1       3.955  -5.424   3.583  1.00  0.00     0.039 A 
ENDROOT
BRANCH   2  11
ATOM     11  O   UNL     1       6.370  -3.959   1.113  1.00  0.00    -0.389 OA
ATOM     12  H   UNL     1       7.363  -3.954   1.098  1.00  0.00     0.211 HD
ENDBRANCH   2  11
BRANCH   3  13
ATOM     13  C   UNL     1       7.983  -6.113   2.223  1.00  0.00    -0.001 A 
ATOM     14  C   UNL     1       8.603  -6.660   1.086  1.00  0.00     0.057 A 
ATOM     15  C   UNL     1       8.780  -5.677   3.294  1.00  0.00     0.012 A 
ATOM     16  C   UNL     1      10.001  -6.752   1.011  1.00  0.00     0.157 A 
ATOM     17  C   UNL     1      10.173  -5.767   3.220  1.00  0.00     0.050 A 
ATOM     18  C   UNL     1      10.788  -6.302   2.083  1.00  0.00     0.157 A 
BRANCH  16  19
ATOM     19  O   UNL     1      10.606  -7.291  -0.123  1.00  0.00    -0.504 OA
ATOM     20  H   UNL     1      11.566  -7.076  -0.366  1.00  0.00     0.293 HD
ENDBRANCH  16  19
BRANCH  18  21
ATOM     21  O   UNL     1      12.180  -6.378   2.038  1.00  0.00    -0.504 OA
ATOM     22  H   UNL     1      12.715  -5.997   1.268  1.00  0.00     0.293 HD
ENDBRANCH  18  21
ENDBRANCH   3  13
BRANCH   9  23
ATOM     23  O   UNL     1       1.762  -4.308   3.644  1.00  0.00    -0.507 OA
ATOM     24  H   UNL     1       1.837  -3.320   3.844  1.00  0.00     0.293 HD
ENDBRANCH   9  23
BRANCH   7  25
ATOM     25  O   UNL     1       2.641  -7.882   6.735  1.00  0.00    -0.508 OA
ATOM     26  H   UNL     1       1.659  -7.954   6.973  1.00  0.00     0.293 HD
ENDBRANCH   7  25
TORSDOF 6
ENDMDL
MODEL 4
REMARK VINA RESULT:    -4.477      3.110      8.101
REMARK INTER + INTRA:          -5.579
REMARK INTER:                  -5.421
REMARK INTRA:                  -0.159
REMARK UNBOUND:                -0.187
REMARK SMILES Oc1cc(O)c2c(c1)O[C@H](c1ccc(O)c(O)c1)[C@@H](O)C2
REMARK SMILES IDX 21 1 19 2 10 3 9 4 7 5 8 6 2 7 3 8 4 9 6 10 20 11 11 13
REMARK SMILES IDX 18 14 12 15 16 16 13 17 14 18 17 19 15 21 5 23 1 25
REMARK H PARENT 20 12 17 20 15 22 5 24 1 26
REMARK Flexibility Score: inf
ROOT
ATOM      1  C   UNL     1       4.966  -4.338   1.581  1.00  0.00     0.079 C 
ATOM      2  C   UNL     1       3.992  -5.261   2.337  1.00  0.00     0.164 C 
ATOM      3  C   UNL     1       4.428  -5.391   3.806  1.00  0.00     0.232 C 
ATOM      4  O   UNL     1       5.772  -5.870   3.871  1.00  0.00    -0.482 OA
ATOM      5  C   UNL     1       6.758  -5.453   2.972  1.00  0.00     0.131 A 
ATOM      6  C   UNL     1       8.087  -5.813   3.208  1.00  0.00     0.093 A 
ATOM      7  C   UNL     1       9.097  -5.396   2.333  1.00  0.00     0.122 A 
ATOM      8  C   UNL     1       8.774  -4.611   1.225  1.00  0.00     0.092 A 
ATOM      9  C   UNL     1       7.448  -4.240   0.973  1.00  0.00     0.126 A 
ATOM     10  C   UNL     1       6.417  -4.694   1.830  1.00  0.00     0.039 A 
ENDROOT
BRANCH   2  11
ATOM     11  O   UNL     1       2.692  -4.735   2.274  1.00  0.00    -0.389 OA
ATOM     12  H   UNL     1       2.230  -5.015   3.108  1.00  0.00     0.211 HD
ENDBRANCH   2  11
BRANCH   3  13
ATOM     13  C   UNL     1       3.519  -6.328   4.565  1.00  0.00    -0.001 A 
ATOM     14  C   UNL     1       2.342  -5.850   5.169  1.00  0.00     0.057 A 
ATOM     15  C   UNL     1       3.865  -7.680   4.718  1.00  0.00     0.012 A 
ATOM     16  C   UNL     1       1.512  -6.714   5.897  1.00  0.00     0.157 A 
ATOM     17  C   UNL     1       3.038  -8.543   5.443  1.00  0.00     0.050 A 
ATOM     18  C   UNL     1       1.863  -8.068   6.033  1.00  0.00     0.157 A 
BRANCH  16  19
ATOM     19  O   UNL     1       0.345  -6.232   6.487  1.00  0.00    -0.504 OA
ATOM     20  H   UNL     1      -0.320  -5.671   5.968  1.00  0.00     0.293 HD
ENDBRANCH  16  19
BRANCH  18  21
ATOM     21  O   UNL     1       1.058  -8.953   6.750  1.00  0.00    -0.504 OA
ATOM     22  H   UNL     1       0.107  -8.724   7.011  1.00  0.00     0.293 HD
ENDBRANCH  18  21
ENDBRANCH   3  13
BRANCH   9  23
ATOM     23  O   UNL     1       7.193  -3.415  -0.125  1.00  0.00    -0.507 OA
ATOM     24  H   UNL     1       6.308  -2.950  -0.277  1.00  0.00     0.293 HD
ENDBRANCH   9  23
BRANCH   7  25
ATOM     25  O   UNL     1      10.424  -5.753   2.560  1.00  0.00    -0.508 OA
ATOM     26  H   UNL     1      10.829  -6.581   2.140  1.00  0.00     0.293 HD
ENDBRANCH   7  25
TORSDOF 6
ENDMDL
MODEL 5
REMARK VINA RESULT:    -4.445      2.068      2.875
REMARK INTER + INTRA:          -5.541
REMARK INTER:                  -5.195
REMARK INTRA:                  -0.346
REMARK UNBOUND:                -0.187
REMARK SMILES Oc1cc(O)c2c(c1)O[C@H](c1ccc(O)c(O)c1)[C@@H](O)C2
REMARK SMILES IDX 21 1 19 2 10 3 9 4 7 5 8 6 2 7 3 8 4 9 6 10 20 11 11 13
REMARK SMILES IDX 18 14 12 15 16 16 13 17 14 18 17 19 15 21 5 23 1 25
REMARK H PARENT 20 12 17 20 15 22 5 24 1 26
REMARK Flexibility Score: inf
ROOT
ATOM      1  C   UNL     1       6.692  -4.870   2.170  1.00  0.00     0.079 C 
ATOM      2  C   UNL     1       8.214  -4.967   1.959  1.00  0.00     0.164 C 
ATOM      3  C   UNL     1       8.595  -6.400   1.549  1.00  0.00     0.232 C 
ATOM      4  O   UNL     1       8.136  -7.323   2.536  1.00  0.00    -0.482 OA
ATOM      5  C   UNL     1       6.906  -7.176   3.184  1.00  0.00     0.131 A 
ATOM      6  C   UNL     1       6.437  -8.212   3.996  1.00  0.00     0.093 A 
ATOM      7  C   UNL     1       5.202  -8.098   4.643  1.00  0.00     0.122 A 
ATOM      8  C   UNL     1       4.432  -6.947   4.468  1.00  0.00     0.092 A 
ATOM      9  C   UNL     1       4.884  -5.899   3.657  1.00  0.00     0.126 A 
ATOM     10  C   UNL     1       6.153  -5.991   3.035  1.00  0.00     0.039 A 
ENDROOT
BRANCH   2  11
ATOM     11  O   UNL     1       8.615  -4.067   0.958  1.00  0.00    -0.389 OA
ATOM     12  H   UNL     1       9.110  -4.597   0.279  1.00  0.00     0.211 HD
ENDBRANCH   2  11
BRANCH   3  13
ATOM     13  C   UNL     1      10.089  -6.541   1.378  1.00  0.00    -0.001 A 
ATOM     14  C   UNL     1      10.967  -6.132   2.397  1.00  0.00     0.057 A 
ATOM     15  C   UNL     1      10.620  -7.039   0.177  1.00  0.00     0.012 A 
ATOM     16  C   UNL     1      12.355  -6.238   2.227  1.00  0.00     0.157 A 
ATOM     17  C   UNL     1      12.003  -7.145   0.006  1.00  0.00     0.050 A 
ATOM     18  C   UNL     1      12.874  -6.748   1.026  1.00  0.00     0.157 A 
BRANCH  16  19
ATOM     19  O   UNL     1      13.218  -5.835   3.245  1.00  0.00    -0.504 OA
ATOM     20  H   UNL     1      14.219  -5.970   3.178  1.00  0.00     0.293 HD
ENDBRANCH  16  19
BRANCH  18  21
ATOM     21  O   UNL     1      14.250  -6.867   0.826  1.00  0.00    -0.504 OA
ATOM     22  H   UNL     1      14.916  -6.278   1.311  1.00  0.00     0.293 HD
ENDBRANCH  18  21
ENDBRANCH   3  13
BRANCH   9  23
ATOM     23  O   UNL     1       4.049  -4.793   3.484  1.00  0.00    -0.507 OA
ATOM     24  H   UNL     1       3.464  -4.417   4.219  1.00  0.00     0.293 HD
ENDBRANCH   9  23
BRANCH   7  25
ATOM     25  O   UNL     1       4.729  -9.125   5.455  1.00  0.00    -0.508 OA
ATOM     26  H   UNL     1       4.905 -10.098   5.235  1.00  0.00     0.293 HD
ENDBRANCH   7  25
TORSDOF 6
ENDMDL
MODEL 6
REMARK VINA RESULT:    -4.430      1.588      6.786
REMARK INTER + INTRA:          -5.524
REMARK INTER:                  -5.152
REMARK INTRA:                  -0.372
REMARK UNBOUND:                -0.187
REMARK SMILES Oc1cc(O)c2c(c1)O[C@H](c1ccc(O)c(O)c1)[C@@H](O)C2
REMARK SMILES IDX 21 1 19 2 10 3 9 4 7 5 8 6 2 7 3 8 4 9 6 10 20 11 11 13
REMARK SMILES IDX 18 14 12 15 16 16 13 17 14 18 17 19 15 21 5 23 1 25
REMARK H PARENT 20 12 17 20 15 22 5 24 1 26
REMARK Flexibility Score: inf
ROOT
ATOM      1  C   UNL     1       9.769  -5.390   0.884  1.00  0.00     0.079 C 
ATOM      2  C   UNL     1       8.362  -5.848   1.313  1.00  0.00     0.164 C 
ATOM      3  C   UNL     1       8.242  -5.804   2.846  1.00  0.00     0.232 C 
ATOM      4  O   UNL     1       9.265  -6.608   3.434  1.00  0.00    -0.482 OA
ATOM      5  C   UNL     1      10.564  -6.659   2.920  1.00  0.00     0.131 A 
ATOM      6  C   UNL     1      11.558  -7.314   3.651  1.00  0.00     0.093 A 
ATOM      7  C   UNL     1      12.870  -7.367   3.169  1.00  0.00     0.122 A 
ATOM      8  C   UNL     1      13.188  -6.753   1.956  1.00  0.00     0.092 A 
ATOM      9  C   UNL     1      12.206  -6.092   1.210  1.00  0.00     0.126 A 
ATOM     10  C   UNL     1      10.867  -6.073   1.671  1.00  0.00     0.039 A 
ENDROOT
BRANCH   2  11
ATOM     11  O   UNL     1       7.393  -5.010   0.738  1.00  0.00    -0.389 OA
ATOM     12  H   UNL     1       7.841  -4.145   0.545  1.00  0.00     0.211 HD
ENDBRANCH   2  11
BRANCH   3  13
ATOM     13  C   UNL     1       6.888  -6.292   3.302  1.00  0.00    -0.001 A 
ATOM     14  C   UNL     1       6.013  -5.433   3.991  1.00  0.00     0.057 A 
ATOM     15  C   UNL     1       6.506  -7.625   3.086  1.00  0.00     0.012 A 
ATOM     16  C   UNL     1       4.767  -5.893   4.439  1.00  0.00     0.157 A 
ATOM     17  C   UNL     1       5.264  -8.086   3.531  1.00  0.00     0.050 A 
ATOM     18  C   UNL     1       4.392  -7.227   4.206  1.00  0.00     0.157 A 
BRANCH  16  19
ATOM     19  O   UNL     1       3.904  -5.032   5.116  1.00  0.00    -0.504 OA
ATOM     20  H   UNL     1       3.550  -4.188   4.684  1.00  0.00     0.293 HD
ENDBRANCH  16  19
BRANCH  18  21
ATOM     21  O   UNL     1       3.158  -7.715   4.639  1.00  0.00    -0.504 OA
ATOM     22  H   UNL     1       2.458  -7.114   5.055  1.00  0.00     0.293 HD
ENDBRANCH  18  21
ENDBRANCH   3  13
BRANCH   9  23
ATOM     23  O   UNL     1      12.593  -5.459   0.027  1.00  0.00    -0.507 OA
ATOM     24  H   UNL     1      13.488  -5.002  -0.093  1.00  0.00     0.293 HD
ENDBRANCH   9  23
BRANCH   7  25
ATOM     25  O   UNL     1      13.866  -8.019   3.891  1.00  0.00    -0.508 OA
ATOM     26  H   UNL     1      13.691  -8.393   4.816  1.00  0.00     0.293 HD
ENDBRANCH   7  25
TORSDOF 6
ENDMDL
MODEL 7
REMARK VINA RESULT:    -4.409      2.333      7.611
REMARK INTER + INTRA:          -5.498
REMARK INTER:                  -5.140
REMARK INTRA:                  -0.357
REMARK UNBOUND:                -0.187
REMARK SMILES Oc1cc(O)c2c(c1)O[C@H](c1ccc(O)c(O)c1)[C@@H](O)C2
REMARK SMILES IDX 21 1 19 2 10 3 9 4 7 5 8 6 2 7 3 8 4 9 6 10 20 11 11 13
REMARK SMILES IDX 18 14 12 15 16 16 13 17 14 18 17 19 15 21 5 23 1 25
REMARK H PARENT 20 12 17 20 15 22 5 24 1 26
REMARK Flexibility Score: inf
ROOT
ATOM      1  C   UNL     1       6.995  -7.682   3.452  1.00  0.00     0.079 C 
ATOM      2  C   UNL     1       5.995  -6.559   3.122  1.00  0.00     0.164 C 
ATOM      3  C   UNL     1       6.339  -5.936   1.758  1.00  0.00     0.232 C 
ATOM      4  O   UNL     1       7.685  -5.461   1.770  1.00  0.00    -0.482 OA
ATOM      5  C   UNL     1       8.718  -6.156   2.407  1.00  0.00     0.131 A 
ATOM      6  C   UNL     1      10.037  -5.735   2.219  1.00  0.00     0.093 A 
ATOM      7  C   UNL     1      11.091  -6.422   2.830  1.00  0.00     0.122 A 
ATOM      8  C   UNL     1      10.823  -7.538   3.624  1.00  0.00     0.092 A 
ATOM      9  C   UNL     1       9.508  -7.975   3.823  1.00  0.00     0.126 A 
ATOM     10  C   UNL     1       8.434  -7.259   3.242  1.00  0.00     0.039 A 
ENDROOT
BRANCH   2  11
ATOM     11  O   UNL     1       4.690  -7.078   3.089  1.00  0.00    -0.389 OA
ATOM     12  H   UNL     1       4.561  -7.578   3.937  1.00  0.00     0.211 HD
ENDBRANCH   2  11
BRANCH   3  13
ATOM     13  C   UNL     1       5.403  -4.799   1.425  1.00  0.00    -0.001 A 
ATOM     14  C   UNL     1       5.232  -3.727   2.319  1.00  0.00     0.057 A 
ATOM     15  C   UNL     1       4.654  -4.824   0.237  1.00  0.00     0.012 A 
ATOM     16  C   UNL     1       4.343  -2.685   2.022  1.00  0.00     0.157 A 
ATOM     17  C   UNL     1       3.768  -3.785  -0.061  1.00  0.00     0.050 A 
ATOM     18  C   UNL     1       3.608  -2.715   0.825  1.00  0.00     0.157 A 
BRANCH  16  19
ATOM     19  O   UNL     1       4.185  -1.624   2.912  1.00  0.00    -0.504 OA
ATOM     20  H   UNL     1       4.851  -0.862   2.954  1.00  0.00     0.293 HD
ENDBRANCH  16  19
BRANCH  18  21
ATOM     21  O   UNL     1       2.716  -1.693   0.499  1.00  0.00    -0.504 OA
ATOM     22  H   UNL     1       3.000  -0.722   0.464  1.00  0.00     0.293 HD
ENDBRANCH  18  21
ENDBRANCH   3  13
BRANCH   9  23
ATOM     23  O   UNL     1       9.306  -9.125   4.590  1.00  0.00    -0.507 OA
ATOM     24  H   UNL     1       9.332  -9.131   5.601  1.00  0.00     0.293 HD
ENDBRANCH   9  23
BRANCH   7  25
ATOM     25  O   UNL     1      12.408  -6.006   2.650  1.00  0.00    -0.508 OA
ATOM     26  H   UNL     1      12.711  -5.569   1.788  1.00  0.00     0.293 HD
ENDBRANCH   7  25
TORSDOF 6
ENDMDL
MODEL 8
REMARK VINA RESULT:    -4.377      2.658      3.939
REMARK INTER + INTRA:          -5.460
REMARK INTER:                  -5.139
REMARK INTRA:                  -0.321
REMARK UNBOUND:                -0.187
REMARK SMILES Oc1cc(O)c2c(c1)O[C@H](c1ccc(O)c(O)c1)[C@@H](O)C2
REMARK SMILES IDX 21 1 19 2 10 3 9 4 7 5 8 6 2 7 3 8 4 9 6 10 20 11 11 13
REMARK SMILES IDX 18 14 12 15 16 16 13 17 14 18 17 19 15 21 5 23 1 25
REMARK H PARENT 20 12 17 20 15 22 5 24 1 26
REMARK Flexibility Score: inf
ROOT
ATOM      1  C   UNL     1       5.800  -5.155   3.047  1.00  0.00     0.079 C 
ATOM      2  C   UNL     1       7.263  -5.636   3.047  1.00  0.00     0.164 C 
ATOM      3  C   UNL     1       7.315  -7.152   2.787  1.00  0.00     0.232 C 
ATOM      4  O   UNL     1       6.531  -7.837   3.764  1.00  0.00    -0.482 OA
ATOM      5  C   UNL     1       5.313  -7.335   4.231  1.00  0.00     0.131 A 
ATOM      6  C   UNL     1       4.510  -8.143   5.040  1.00  0.00     0.093 A 
ATOM      7  C   UNL     1       3.278  -7.673   5.507  1.00  0.00     0.122 A 
ATOM      8  C   UNL     1       2.846  -6.393   5.155  1.00  0.00     0.092 A 
ATOM      9  C   UNL     1       3.636  -5.569   4.345  1.00  0.00     0.126 A 
ATOM     10  C   UNL     1       4.902  -6.023   3.905  1.00  0.00     0.039 A 
ENDROOT
BRANCH   2  11
ATOM     11  O   UNL     1       7.987  -4.961   2.052  1.00  0.00    -0.389 OA
ATOM     12  H   UNL     1       8.852  -5.439   1.954  1.00  0.00     0.211 HD
ENDBRANCH   2  11
BRANCH   3  13
ATOM     13  C   UNL     1       8.736  -7.664   2.827  1.00  0.00    -0.001 A 
ATOM     14  C   UNL     1       9.413  -7.801   4.051  1.00  0.00     0.057 A 
ATOM     15  C   UNL     1       9.412  -7.965   1.634  1.00  0.00     0.012 A 
ATOM     16  C   UNL     1      10.740  -8.251   4.086  1.00  0.00     0.157 A 
ATOM     17  C   UNL     1      10.735  -8.414   1.666  1.00  0.00     0.050 A 
ATOM     18  C   UNL     1      11.403  -8.560   2.887  1.00  0.00     0.157 A 
BRANCH  16  19
ATOM     19  O   UNL     1      11.401  -8.389   5.305  1.00  0.00    -0.504 OA
ATOM     20  H   UNL     1      10.895  -8.439   6.181  1.00  0.00     0.293 HD
ENDBRANCH  16  19
BRANCH  18  21
ATOM     21  O   UNL     1      12.723  -9.011   2.887  1.00  0.00    -0.504 OA
ATOM     22  H   UNL     1      13.188  -9.316   2.041  1.00  0.00     0.293 HD
ENDBRANCH  18  21
ENDBRANCH   3  13
BRANCH   9  23
ATOM     23  O   UNL     1       3.130  -4.316   3.989  1.00  0.00    -0.507 OA
ATOM     24  H   UNL     1       3.381  -3.460   4.464  1.00  0.00     0.293 HD
ENDBRANCH   9  23
BRANCH   7  25
ATOM     25  O   UNL     1       2.474  -8.472   6.316  1.00  0.00    -0.508 OA
ATOM     26  H   UNL     1       2.564  -8.464   7.325  1.00  0.00     0.293 HD
ENDBRANCH   7  25
TORSDOF 6
ENDMDL
MODEL 9
REMARK VINA RESULT:    -4.356     12.819     15.192
REMARK INTER + INTRA:          -5.434
REMARK INTER:                  -5.328
REMARK INTRA:                  -0.107
REMARK UNBOUND:                -0.187
REMARK SMILES Oc1cc(O)c2c(c1)O[C@H](c1ccc(O)c(O)c1)[C@@H](O)C2
REMARK SMILES IDX 21 1 19 2 10 3 9 4 7 5 8 6 2 7 3 8 4 9 6 10 20 11 11 13
REMARK SMILES IDX 18 14 12 15 16 16 13 17 14 18 17 19 15 21 5 23 1 25
REMARK H PARENT 20 12 17 20 15 22 5 24 1 26
REMARK Flexibility Score: inf
ROOT
ATOM      1  C   UNL     1      15.536  -6.309  13.565  1.00  0.00     0.079 C 
ATOM      2  C   UNL     1      16.069  -4.885  13.812  1.00  0.00     0.164 C 
ATOM      3  C   UNL     1      17.205  -4.923  14.849  1.00  0.00     0.232 C 
ATOM      4  O   UNL     1      16.739  -5.532  16.053  1.00  0.00    -0.482 OA
ATOM      5  C   UNL     1      15.872  -6.629  16.050  1.00  0.00     0.131 A 
ATOM      6  C   UNL     1      15.608  -7.290  17.252  1.00  0.00     0.093 A 
ATOM      7  C   UNL     1      14.758  -8.401  17.275  1.00  0.00     0.122 A 
ATOM      8  C   UNL     1      14.178  -8.854  16.089  1.00  0.00     0.092 A 
ATOM      9  C   UNL     1      14.431  -8.206  14.875  1.00  0.00     0.126 A 
ATOM     10  C   UNL     1      15.256  -7.056  14.852  1.00  0.00     0.039 A 
ENDROOT
BRANCH   2  11
ATOM     11  O   UNL     1      16.545  -4.339  12.609  1.00  0.00    -0.389 OA
ATOM     12  H   UNL     1      17.401  -3.882  12.822  1.00  0.00     0.211 HD
ENDBRANCH   2  11
BRANCH   3  13
ATOM     13  C   UNL     1      17.719  -3.535  15.148  1.00  0.00    -0.001 A 
ATOM     14  C   UNL     1      17.228  -2.813  16.251  1.00  0.00     0.057 A 
ATOM     15  C   UNL     1      18.660  -2.931  14.299  1.00  0.00     0.012 A 
ATOM     16  C   UNL     1      17.686  -1.514  16.513  1.00  0.00     0.157 A 
ATOM     17  C   UNL     1      19.117  -1.636  14.559  1.00  0.00     0.050 A 
ATOM     18  C   UNL     1      18.636  -0.924  15.663  1.00  0.00     0.157 A 
BRANCH  16  19
ATOM     19  O   UNL     1      17.198  -0.808  17.612  1.00  0.00    -0.504 OA
ATOM     20  H   UNL     1      17.266   0.201  17.668  1.00  0.00     0.293 HD
ENDBRANCH  16  19
BRANCH  18  21
ATOM     21  O   UNL     1      19.112   0.366  15.897  1.00  0.00    -0.504 OA
ATOM     22  H   UNL     1      18.501   1.120  16.187  1.00  0.00     0.293 HD
ENDBRANCH  18  21
ENDBRANCH   3  13
BRANCH   9  23
ATOM     23  O   UNL     1      13.858  -8.734  13.716  1.00  0.00    -0.507 OA
ATOM     24  H   UNL     1      13.684  -8.187  12.883  1.00  0.00     0.293 HD
ENDBRANCH   9  23
BRANCH   7  25
ATOM     25  O   UNL     1      14.488  -9.064  18.470  1.00  0.00    -0.508 OA
ATOM     26  H   UNL     1      14.579  -8.599  19.365  1.00  0.00     0.293 HD
ENDBRANCH   7  25
TORSDOF 6
ENDMDL
