MODEL 1
REMARK VINA RESULT:    -3.709      0.000      0.000
REMARK INTER + INTRA:          -4.430
REMARK INTER:                  -4.359
REMARK INTRA:                  -0.070
REMARK UNBOUND:                -0.070
REMARK SMILES O=C([O-])CCC(=O)[O-]
REMARK SMILES IDX 4 1 2 2 1 3 3 4 5 5 6 6 7 7 8 8
REMARK H PARENT
REMARK Flexibility Score: inf
ROOT
ATOM      1  C   UNL     1       7.269  56.635  20.079  1.00  0.00     0.059 C 
ENDROOT
BRANCH   1   2
ATOM      2  C   UNL     1       6.346  56.276  21.203  1.00  0.00     0.042 C 
ATOM      3  O   UNL     1       5.377  57.027  21.493  1.00  0.00    -0.550 OA
ATOM      4  O   UNL     1       6.580  55.133  21.957  1.00  0.00    -0.550 OA
ENDBRANCH   1   2
BRANCH   1   5
ATOM      5  C   UNL     1       7.985  55.401  19.521  1.00  0.00     0.059 C 
BRANCH   5   6
ATOM      6  C   UNL     1       7.434  55.000  18.187  1.00  0.00     0.042 C 
ATOM      7  O   UNL     1       7.160  53.794  17.950  1.00  0.00    -0.550 OA
ATOM      8  O   UNL     1       7.186  55.965  17.218  1.00  0.00    -0.550 OA
ENDBRANCH   5   6
ENDBRANCH   1   5
TORSDOF 3
ENDMDL
MODEL 2
REMARK VINA RESULT:    -3.690      3.585      4.495
REMARK INTER + INTRA:          -4.408
REMARK INTER:                  -4.379
REMARK INTRA:                  -0.029
REMARK UNBOUND:                -0.070
REMARK SMILES O=C([O-])CCC(=O)[O-]
REMARK SMILES IDX 4 1 2 2 1 3 3 4 5 5 6 6 7 7 8 8
REMARK H PARENT
REMARK Flexibility Score: inf
ROOT
ATOM      1  C   UNL     1       9.955  53.621  21.280  1.00  0.00     0.059 C 
ENDROOT
BRANCH   1   2
ATOM      2  C   UNL     1      10.568  53.031  22.513  1.00  0.00     0.042 C 
ATOM      3  O   UNL     1      10.677  51.782  22.632  1.00  0.00    -0.550 OA
ATOM      4  O   UNL     1      10.981  53.859  23.549  1.00  0.00    -0.550 OA
ENDBRANCH   1   2
BRANCH   1   5
ATOM      5  C   UNL     1       9.059  54.819  21.613  1.00  0.00     0.059 C 
BRANCH   5   6
ATOM      6  C   UNL     1       8.173  55.183  20.461  1.00  0.00     0.042 C 
ATOM      7  O   UNL     1       8.391  56.233  19.801  1.00  0.00    -0.550 OA
ATOM      8  O   UNL     1       7.131  54.341  20.092  1.00  0.00    -0.550 OA
ENDBRANCH   5   6
ENDBRANCH   1   5
TORSDOF 3
ENDMDL
MODEL 3
REMARK VINA RESULT:    -3.674      3.573      4.263
REMARK INTER + INTRA:          -4.389
REMARK INTER:                  -4.358
REMARK INTRA:                  -0.031
REMARK UNBOUND:                -0.070
REMARK SMILES O=C([O-])CCC(=O)[O-]
REMARK SMILES IDX 4 1 2 2 1 3 3 4 5 5 6 6 7 7 8 8
REMARK H PARENT
REMARK Flexibility Score: inf
ROOT
ATOM      1  C   UNL     1       9.995  53.615  21.238  1.00  0.00     0.059 C 
ENDROOT
BRANCH   1   2
ATOM      2  C   UNL     1      10.571  53.044  22.497  1.00  0.00     0.042 C 
ATOM      3  O   UNL     1      10.985  53.808  23.408  1.00  0.00    -0.550 OA
ATOM      4  O   UNL     1      10.689  51.668  22.645  1.00  0.00    -0.550 OA
ENDBRANCH   1   2
BRANCH   1   5
ATOM      5  C   UNL     1       9.002  54.745  21.534  1.00  0.00     0.059 C 
BRANCH   5   6
ATOM      6  C   UNL     1       8.252  55.156  20.305  1.00  0.00     0.042 C 
ATOM      7  O   UNL     1       7.463  54.350  19.744  1.00  0.00    -0.550 OA
ATOM      8  O   UNL     1       8.391  56.444  19.802  1.00  0.00    -0.550 OA
ENDBRANCH   5   6
ENDBRANCH   1   5
TORSDOF 3
ENDMDL
MODEL 4
REMARK VINA RESULT:    -3.672      3.538      4.747
REMARK INTER + INTRA:          -4.386
REMARK INTER:                  -4.359
REMARK INTRA:                  -0.027
REMARK UNBOUND:                -0.070
REMARK SMILES O=C([O-])CCC(=O)[O-]
REMARK SMILES IDX 4 1 2 2 1 3 3 4 5 5 6 6 7 7 8 8
REMARK H PARENT
REMARK Flexibility Score: inf
ROOT
ATOM      1  C   UNL     1       8.615  54.288  21.482  1.00  0.00     0.059 C 
ENDROOT
BRANCH   1   2
ATOM      2  C   UNL     1       8.069  54.933  20.244  1.00  0.00     0.042 C 
ATOM      3  O   UNL     1       8.490  56.062  19.879  1.00  0.00    -0.550 OA
ATOM      4  O   UNL     1       7.066  54.304  19.518  1.00  0.00    -0.550 OA
ENDBRANCH   1   2
BRANCH   1   5
ATOM      5  C   UNL     1      10.088  53.901  21.314  1.00  0.00     0.059 C 
BRANCH   5   6
ATOM      6  C   UNL     1      10.604  53.162  22.510  1.00  0.00     0.042 C 
ATOM      7  O   UNL     1      10.916  53.790  23.557  1.00  0.00    -0.550 OA
ATOM      8  O   UNL     1      10.704  51.777  22.483  1.00  0.00    -0.550 OA
ENDBRANCH   5   6
ENDBRANCH   1   5
TORSDOF 3
ENDMDL
MODEL 5
REMARK VINA RESULT:    -3.668      3.565      4.660
REMARK INTER + INTRA:          -4.382
REMARK INTER:                  -4.356
REMARK INTRA:                  -0.026
REMARK UNBOUND:                -0.070
REMARK SMILES O=C([O-])CCC(=O)[O-]
REMARK SMILES IDX 4 1 2 2 1 3 3 4 5 5 6 6 7 7 8 8
REMARK H PARENT
REMARK Flexibility Score: inf
ROOT
ATOM      1  C   UNL     1       8.653  54.353  21.570  1.00  0.00     0.059 C 
ENDROOT
BRANCH   1   2
ATOM      2  C   UNL     1       8.106  55.018  20.344  1.00  0.00     0.042 C 
ATOM      3  O   UNL     1       8.497  56.170  20.019  1.00  0.00    -0.550 OA
ATOM      4  O   UNL     1       7.133  54.381  19.583  1.00  0.00    -0.550 OA
ENDBRANCH   1   2
BRANCH   1   5
ATOM      5  C   UNL     1       9.981  53.645  21.283  1.00  0.00     0.059 C 
BRANCH   5   6
ATOM      6  C   UNL     1      10.536  52.993  22.511  1.00  0.00     0.042 C 
ATOM      7  O   UNL     1      10.653  51.740  22.566  1.00  0.00    -0.550 OA
ATOM      8  O   UNL     1      10.962  53.771  23.581  1.00  0.00    -0.550 OA
ENDBRANCH   5   6
ENDBRANCH   1   5
TORSDOF 3
ENDMDL
MODEL 6
REMARK VINA RESULT:    -3.664      0.076      3.848
REMARK INTER + INTRA:          -4.377
REMARK INTER:                  -4.303
REMARK INTRA:                  -0.074
REMARK UNBOUND:                -0.070
REMARK SMILES O=C([O-])CCC(=O)[O-]
REMARK SMILES IDX 4 1 2 2 1 3 3 4 5 5 6 6 7 7 8 8
REMARK H PARENT
REMARK Flexibility Score: inf
ROOT
ATOM      1  C   UNL     1       8.011  55.476  19.543  1.00  0.00     0.059 C 
ENDROOT
BRANCH   1   2
ATOM      2  C   UNL     1       7.456  55.068  18.212  1.00  0.00     0.042 C 
ATOM      3  O   UNL     1       7.222  55.936  17.329  1.00  0.00    -0.550 OA
ATOM      4  O   UNL     1       7.158  53.734  17.962  1.00  0.00    -0.550 OA
ENDBRANCH   1   2
BRANCH   1   5
ATOM      5  C   UNL     1       7.287  56.705  20.103  1.00  0.00     0.059 C 
BRANCH   5   6
ATOM      6  C   UNL     1       6.360  56.338  21.220  1.00  0.00     0.042 C 
ATOM      7  O   UNL     1       5.381  57.079  21.500  1.00  0.00    -0.550 OA
ATOM      8  O   UNL     1       6.554  55.157  21.926  1.00  0.00    -0.550 OA
ENDBRANCH   5   6
ENDBRANCH   1   5
TORSDOF 3
ENDMDL
MODEL 7
REMARK VINA RESULT:    -3.611      2.865      3.470
REMARK INTER + INTRA:          -4.314
REMARK INTER:                  -4.214
REMARK INTRA:                  -0.101
REMARK UNBOUND:                -0.070
REMARK SMILES O=C([O-])CCC(=O)[O-]
REMARK SMILES IDX 4 1 2 2 1 3 3 4 5 5 6 6 7 7 8 8
REMARK H PARENT
REMARK Flexibility Score: inf
ROOT
ATOM      1  C   UNL     1       9.509  53.971  21.223  1.00  0.00     0.059 C 
ENDROOT
BRANCH   1   2
ATOM      2  C   UNL     1       9.917  54.406  22.597  1.00  0.00     0.042 C 
ATOM      3  O   UNL     1       9.373  55.406  23.135  1.00  0.00    -0.550 OA
ATOM      4  O   UNL     1      10.929  53.730  23.268  1.00  0.00    -0.550 OA
ENDBRANCH   1   2
BRANCH   1   5
ATOM      5  C   UNL     1       8.095  54.451  20.876  1.00  0.00     0.059 C 
BRANCH   5   6
ATOM      6  C   UNL     1       8.089  55.306  19.647  1.00  0.00     0.042 C 
ATOM      7  O   UNL     1       8.372  56.531  19.725  1.00  0.00    -0.550 OA
ATOM      8  O   UNL     1       7.809  54.742  18.408  1.00  0.00    -0.550 OA
ENDBRANCH   5   6
ENDBRANCH   1   5
TORSDOF 3
ENDMDL
MODEL 8
REMARK VINA RESULT:    -3.570      2.906      4.066
REMARK INTER + INTRA:          -4.266
REMARK INTER:                  -4.167
REMARK INTRA:                  -0.099
REMARK UNBOUND:                -0.070
REMARK SMILES O=C([O-])CCC(=O)[O-]
REMARK SMILES IDX 4 1 2 2 1 3 3 4 5 5 6 6 7 7 8 8
REMARK H PARENT
REMARK Flexibility Score: inf
ROOT
ATOM      1  C   UNL     1       8.437  54.734  20.332  1.00  0.00     0.059 C 
ENDROOT
BRANCH   1   2
ATOM      2  C   UNL     1       7.963  56.153  20.404  1.00  0.00     0.042 C 
ATOM      3  O   UNL     1       7.601  56.646  21.505  1.00  0.00    -0.550 OA
ATOM      4  O   UNL     1       7.882  56.918  19.248  1.00  0.00    -0.550 OA
ENDBRANCH   1   2
BRANCH   1   5
ATOM      5  C   UNL     1       8.597  54.121  21.728  1.00  0.00     0.059 C 
BRANCH   5   6
ATOM      6  C   UNL     1      10.000  54.258  22.234  1.00  0.00     0.042 C 
ATOM      7  O   UNL     1      10.958  53.752  21.592  1.00  0.00    -0.550 OA
ATOM      8  O   UNL     1      10.254  54.981  23.393  1.00  0.00    -0.550 OA
ENDBRANCH   5   6
ENDBRANCH   1   5
TORSDOF 3
ENDMDL
MODEL 9
REMARK VINA RESULT:    -3.489      2.888      3.946
REMARK INTER + INTRA:          -4.171
REMARK INTER:                  -4.077
REMARK INTRA:                  -0.095
REMARK UNBOUND:                -0.070
REMARK SMILES O=C([O-])CCC(=O)[O-]
REMARK SMILES IDX 4 1 2 2 1 3 3 4 5 5 6 6 7 7 8 8
REMARK H PARENT
REMARK Flexibility Score: inf
ROOT
ATOM      1  C   UNL     1       8.944  54.125  21.219  1.00  0.00     0.059 C 
ENDROOT
BRANCH   1   2
ATOM      2  C   UNL     1       9.976  54.312  22.288  1.00  0.00     0.042 C 
ATOM      3  O   UNL     1      11.044  53.644  22.263  1.00  0.00    -0.550 OA
ATOM      4  O   UNL     1       9.741  55.193  23.336  1.00  0.00    -0.550 OA
ENDBRANCH   1   2
BRANCH   1   5
ATOM      5  C   UNL     1       7.647  54.870  21.550  1.00  0.00     0.059 C 
BRANCH   5   6
ATOM      6  C   UNL     1       7.516  56.131  20.752  1.00  0.00     0.042 C 
ATOM      7  O   UNL     1       8.339  56.388  19.834  1.00  0.00    -0.550 OA
ATOM      8  O   UNL     1       6.461  57.002  20.995  1.00  0.00    -0.550 OA
ENDBRANCH   5   6
ENDBRANCH   1   5
TORSDOF 3
ENDMDL
