MODEL 1
REMARK VINA RESULT:    -5.839      0.000      0.000
REMARK INTER + INTRA:          -7.134
REMARK INTER:                  -6.863
REMARK INTRA:                  -0.271
REMARK UNBOUND:                -0.271
REMARK SMILES O=c1c(O)c(-c2ccc(O)cc2)oc2cc(O)cc(O)c12
REMARK SMILES IDX 5 1 3 2 2 3 1 4 21 5 19 6 18 7 16 8 15 9 14 10 13 11 6 12
REMARK SMILES IDX 7 13 8 14 9 15 12 16 11 17 10 18 4 20 20 22 17 24
REMARK H PARENT 10 19 4 21 20 23 17 25
REMARK Flexibility Score: inf
ROOT
ATOM      1  C   UNL     1      23.211   5.392 -22.303  1.00  0.00     0.180 A 
ATOM      2  C   UNL     1      24.358   5.428 -23.115  1.00  0.00     0.208 A 
ATOM      3  C   UNL     1      24.363   4.703 -24.318  1.00  0.00     0.238 A 
ATOM      4  O   UNL     1      25.412   4.695 -25.013  1.00  0.00    -0.285 OA
ATOM      5  C   UNL     1      23.217   3.967 -24.702  1.00  0.00     0.111 A 
ATOM      6  C   UNL     1      23.097   3.231 -25.919  1.00  0.00     0.134 A 
ATOM      7  C   UNL     1      21.966   2.432 -26.134  1.00  0.00     0.093 A 
ATOM      8  C   UNL     1      20.922   2.397 -25.207  1.00  0.00     0.123 A 
ATOM      9  C   UNL     1      21.003   3.160 -24.045  1.00  0.00     0.094 A 
ATOM     10  C   UNL     1      22.135   3.937 -23.783  1.00  0.00     0.146 A 
ATOM     11  O   UNL     1      22.176   4.640 -22.658  1.00  0.00    -0.452 OA
ENDROOT
BRANCH   1  12
ATOM     12  C   UNL     1      23.120   6.149 -21.033  1.00  0.00     0.021 A 
ATOM     13  C   UNL     1      22.850   7.530 -21.021  1.00  0.00     0.016 A 
ATOM     14  C   UNL     1      22.745   8.219 -19.808  1.00  0.00     0.047 A 
ATOM     15  C   UNL     1      22.895   7.535 -18.594  1.00  0.00     0.115 A 
ATOM     16  C   UNL     1      23.248   5.468 -19.811  1.00  0.00     0.016 A 
ATOM     17  C   UNL     1      23.144   6.159 -18.601  1.00  0.00     0.047 A 
BRANCH  15  18
ATOM     18  O   UNL     1      22.794   8.211 -17.381  1.00  0.00    -0.508 OA
ATOM     19  H   UNL     1      23.253   7.869 -16.545  1.00  0.00     0.293 HD
ENDBRANCH  15  18
ENDBRANCH   1  12
BRANCH   2  20
ATOM     20  O   UNL     1      25.486   6.142 -22.705  1.00  0.00    -0.502 OA
ATOM     21  H   UNL     1      25.604   6.478 -21.757  1.00  0.00     0.293 HD
ENDBRANCH   2  20
BRANCH   6  22
ATOM     22  O   UNL     1      24.040   3.269 -26.950  1.00  0.00    -0.507 OA
ATOM     23  H   UNL     1      24.924   3.752 -26.903  1.00  0.00     0.293 HD
ENDBRANCH   6  22
BRANCH   8  24
ATOM     24  O   UNL     1      19.793   1.613 -25.438  1.00  0.00    -0.508 OA
ATOM     25  H   UNL     1      18.876   1.897 -25.114  1.00  0.00     0.293 HD
ENDBRANCH   8  24
TORSDOF 5
ENDMDL
MODEL 2
REMARK VINA RESULT:    -5.455      2.922      3.884
REMARK INTER + INTRA:          -6.682
REMARK INTER:                  -6.406
REMARK INTRA:                  -0.277
REMARK UNBOUND:                -0.271
REMARK SMILES O=c1c(O)c(-c2ccc(O)cc2)oc2cc(O)cc(O)c12
REMARK SMILES IDX 5 1 3 2 2 3 1 4 21 5 19 6 18 7 16 8 15 9 14 10 13 11 6 12
REMARK SMILES IDX 7 13 8 14 9 15 12 16 11 17 10 18 4 20 20 22 17 24
REMARK H PARENT 10 19 4 21 20 23 17 25
REMARK Flexibility Score: inf
ROOT
ATOM      1  C   UNL     1      24.469   7.280 -21.766  1.00  0.00     0.180 A 
ATOM      2  C   UNL     1      25.729   7.904 -21.776  1.00  0.00     0.208 A 
ATOM      3  C   UNL     1      26.413   8.036 -22.995  1.00  0.00     0.238 A 
ATOM      4  O   UNL     1      27.564   8.545 -22.989  1.00  0.00    -0.285 OA
ATOM      5  C   UNL     1      25.822   7.560 -24.189  1.00  0.00     0.111 A 
ATOM      6  C   UNL     1      26.407   7.678 -25.486  1.00  0.00     0.134 A 
ATOM      7  C   UNL     1      25.794   7.053 -26.580  1.00  0.00     0.093 A 
ATOM      8  C   UNL     1      24.584   6.372 -26.436  1.00  0.00     0.123 A 
ATOM      9  C   UNL     1      23.974   6.303 -25.185  1.00  0.00     0.094 A 
ATOM     10  C   UNL     1      24.580   6.884 -24.067  1.00  0.00     0.146 A 
ATOM     11  O   UNL     1      23.970   6.785 -22.892  1.00  0.00    -0.452 OA
ENDROOT
BRANCH   1  12
ATOM     12  C   UNL     1      23.676   7.126 -20.524  1.00  0.00     0.021 A 
ATOM     13  C   UNL     1      22.918   8.190 -20.002  1.00  0.00     0.016 A 
ATOM     14  C   UNL     1      22.158   8.014 -18.841  1.00  0.00     0.047 A 
ATOM     15  C   UNL     1      22.134   6.769 -18.197  1.00  0.00     0.115 A 
ATOM     16  C   UNL     1      23.629   5.876 -19.883  1.00  0.00     0.016 A 
ATOM     17  C   UNL     1      22.869   5.703 -18.724  1.00  0.00     0.047 A 
BRANCH  15  18
ATOM     18  O   UNL     1      21.382   6.583 -17.040  1.00  0.00    -0.508 OA
ATOM     19  H   UNL     1      21.748   6.822 -16.126  1.00  0.00     0.293 HD
ENDBRANCH  15  18
ENDBRANCH   1  12
BRANCH   2  20
ATOM     20  O   UNL     1      26.303   8.346 -20.581  1.00  0.00    -0.502 OA
ATOM     21  H   UNL     1      26.320   7.779 -19.742  1.00  0.00     0.293 HD
ENDBRANCH   2  20
BRANCH   6  22
ATOM     22  O   UNL     1      27.566   8.412 -25.755  1.00  0.00    -0.507 OA
ATOM     23  H   UNL     1      28.107   8.342 -26.603  1.00  0.00     0.293 HD
ENDBRANCH   6  22
BRANCH   8  24
ATOM     24  O   UNL     1      23.972   5.769 -27.532  1.00  0.00    -0.508 OA
ATOM     25  H   UNL     1      24.069   6.147 -28.467  1.00  0.00     0.293 HD
ENDBRANCH   8  24
TORSDOF 5
ENDMDL
MODEL 3
REMARK VINA RESULT:    -5.290      2.845      6.611
REMARK INTER + INTRA:          -6.489
REMARK INTER:                  -6.198
REMARK INTRA:                  -0.291
REMARK UNBOUND:                -0.271
REMARK SMILES O=c1c(O)c(-c2ccc(O)cc2)oc2cc(O)cc(O)c12
REMARK SMILES IDX 5 1 3 2 2 3 1 4 21 5 19 6 18 7 16 8 15 9 14 10 13 11 6 12
REMARK SMILES IDX 7 13 8 14 9 15 12 16 11 17 10 18 4 20 20 22 17 24
REMARK H PARENT 10 19 4 21 20 23 17 25
REMARK Flexibility Score: inf
ROOT
ATOM      1  C   UNL     1      24.415   6.030 -22.696  1.00  0.00     0.180 A 
ATOM      2  C   UNL     1      24.507   4.728 -22.174  1.00  0.00     0.208 A 
ATOM      3  C   UNL     1      24.037   4.482 -20.873  1.00  0.00     0.238 A 
ATOM      4  O   UNL     1      24.174   3.327 -20.391  1.00  0.00    -0.285 OA
ATOM      5  C   UNL     1      23.467   5.535 -20.119  1.00  0.00     0.111 A 
ATOM      6  C   UNL     1      22.922   5.389 -18.808  1.00  0.00     0.134 A 
ATOM      7  C   UNL     1      22.503   6.525 -18.104  1.00  0.00     0.093 A 
ATOM      8  C   UNL     1      22.547   7.793 -18.690  1.00  0.00     0.123 A 
ATOM      9  C   UNL     1      23.020   7.936 -19.992  1.00  0.00     0.094 A 
ATOM     10  C   UNL     1      23.481   6.827 -20.706  1.00  0.00     0.146 A 
ATOM     11  O   UNL     1      23.934   7.010 -21.940  1.00  0.00    -0.452 OA
ENDROOT
BRANCH   1  12
ATOM     12  C   UNL     1      24.865   6.363 -24.068  1.00  0.00     0.021 A 
ATOM     13  C   UNL     1      24.033   6.154 -25.183  1.00  0.00     0.016 A 
ATOM     14  C   UNL     1      24.471   6.498 -26.466  1.00  0.00     0.047 A 
ATOM     15  C   UNL     1      25.738   7.068 -26.648  1.00  0.00     0.115 A 
ATOM     16  C   UNL     1      26.125   6.954 -24.258  1.00  0.00     0.016 A 
ATOM     17  C   UNL     1      26.560   7.297 -25.541  1.00  0.00     0.047 A 
BRANCH  15  18
ATOM     18  O   UNL     1      26.185   7.413 -27.921  1.00  0.00    -0.508 OA
ATOM     19  H   UNL     1      25.787   6.994 -28.754  1.00  0.00     0.293 HD
ENDBRANCH  15  18
ENDBRANCH   1  12
BRANCH   2  20
ATOM     20  O   UNL     1      25.095   3.709 -22.927  1.00  0.00    -0.502 OA
ATOM     21  H   UNL     1      26.059   3.749 -23.238  1.00  0.00     0.293 HD
ENDBRANCH   2  20
BRANCH   6  22
ATOM     22  O   UNL     1      22.750   4.159 -18.167  1.00  0.00    -0.507 OA
ATOM     23  H   UNL     1      22.026   3.492 -18.389  1.00  0.00     0.293 HD
ENDBRANCH   6  22
BRANCH   8  24
ATOM     24  O   UNL     1      22.111   8.915 -17.989  1.00  0.00    -0.508 OA
ATOM     25  H   UNL     1      22.171   9.844 -18.387  1.00  0.00     0.293 HD
ENDBRANCH   8  24
TORSDOF 5
ENDMDL
MODEL 4
REMARK VINA RESULT:    -5.281     10.317     13.253
REMARK INTER + INTRA:          -6.478
REMARK INTER:                  -6.328
REMARK INTRA:                  -0.151
REMARK UNBOUND:                -0.271
REMARK SMILES O=c1c(O)c(-c2ccc(O)cc2)oc2cc(O)cc(O)c12
REMARK SMILES IDX 5 1 3 2 2 3 1 4 21 5 19 6 18 7 16 8 15 9 14 10 13 11 6 12
REMARK SMILES IDX 7 13 8 14 9 15 12 16 11 17 10 18 4 20 20 22 17 24
REMARK H PARENT 10 19 4 21 20 23 17 25
REMARK Flexibility Score: inf
ROOT
ATOM      1  C   UNL     1      26.728  -5.119 -28.608  1.00  0.00     0.180 A 
ATOM      2  C   UNL     1      27.770  -4.176 -28.656  1.00  0.00     0.208 A 
ATOM      3  C   UNL     1      28.858  -4.408 -29.513  1.00  0.00     0.238 A 
ATOM      4  O   UNL     1      29.813  -3.588 -29.511  1.00  0.00    -0.285 OA
ATOM      5  C   UNL     1      28.883  -5.569 -30.322  1.00  0.00     0.111 A 
ATOM      6  C   UNL     1      29.916  -5.884 -31.255  1.00  0.00     0.134 A 
ATOM      7  C   UNL     1      29.903  -7.124 -31.907  1.00  0.00     0.093 A 
ATOM      8  C   UNL     1      28.861  -8.032 -31.708  1.00  0.00     0.123 A 
ATOM      9  C   UNL     1      27.817  -7.708 -30.845  1.00  0.00     0.094 A 
ATOM     10  C   UNL     1      27.820  -6.495 -30.151  1.00  0.00     0.146 A 
ATOM     11  O   UNL     1      26.812  -6.230 -29.329  1.00  0.00    -0.452 OA
ENDROOT
BRANCH   1  12
ATOM     12  C   UNL     1      25.536  -4.932 -27.749  1.00  0.00     0.021 A 
ATOM     13  C   UNL     1      24.645  -3.863 -27.954  1.00  0.00     0.016 A 
ATOM     14  C   UNL     1      23.512  -3.721 -27.145  1.00  0.00     0.047 A 
ATOM     15  C   UNL     1      23.250  -4.653 -26.132  1.00  0.00     0.115 A 
ATOM     16  C   UNL     1      25.253  -5.873 -26.744  1.00  0.00     0.016 A 
ATOM     17  C   UNL     1      24.121  -5.729 -25.937  1.00  0.00     0.047 A 
BRANCH  15  18
ATOM     18  O   UNL     1      22.126  -4.521 -25.320  1.00  0.00    -0.508 OA
ATOM     19  H   UNL     1      21.453  -5.272 -25.220  1.00  0.00     0.293 HD
ENDBRANCH  15  18
ENDBRANCH   1  12
BRANCH   2  20
ATOM     20  O   UNL     1      27.736  -3.048 -27.832  1.00  0.00    -0.502 OA
ATOM     21  H   UNL     1      28.381  -2.917 -27.063  1.00  0.00     0.293 HD
ENDBRANCH   2  20
BRANCH   6  22
ATOM     22  O   UNL     1      30.954  -5.011 -31.595  1.00  0.00    -0.507 OA
ATOM     23  H   UNL     1      30.825  -4.088 -31.981  1.00  0.00     0.293 HD
ENDBRANCH   6  22
BRANCH   8  24
ATOM     24  O   UNL     1      28.847  -9.256 -32.373  1.00  0.00    -0.508 OA
ATOM     25  H   UNL     1      29.593  -9.932 -32.255  1.00  0.00     0.293 HD
ENDBRANCH   8  24
TORSDOF 5
ENDMDL
MODEL 5
REMARK VINA RESULT:    -5.272     15.637     16.718
REMARK INTER + INTRA:          -6.467
REMARK INTER:                  -6.167
REMARK INTRA:                  -0.300
REMARK UNBOUND:                -0.271
REMARK SMILES O=c1c(O)c(-c2ccc(O)cc2)oc2cc(O)cc(O)c12
REMARK SMILES IDX 5 1 3 2 2 3 1 4 21 5 19 6 18 7 16 8 15 9 14 10 13 11 6 12
REMARK SMILES IDX 7 13 8 14 9 15 12 16 11 17 10 18 4 20 20 22 17 24
REMARK H PARENT 10 19 4 21 20 23 17 25
REMARK Flexibility Score: inf
ROOT
ATOM      1  C   UNL     1      31.736  -8.406 -27.321  1.00  0.00     0.180 A 
ATOM      2  C   UNL     1      32.896  -8.507 -28.108  1.00  0.00     0.208 A 
ATOM      3  C   UNL     1      32.793  -8.329 -29.498  1.00  0.00     0.238 A 
ATOM      4  O   UNL     1      33.826  -8.476 -30.203  1.00  0.00    -0.285 OA
ATOM      5  C   UNL     1      31.537  -8.037 -30.080  1.00  0.00     0.111 A 
ATOM      6  C   UNL     1      31.324  -7.797 -31.471  1.00  0.00     0.134 A 
ATOM      7  C   UNL     1      30.018  -7.647 -31.954  1.00  0.00     0.093 A 
ATOM      8  C   UNL     1      28.923  -7.660 -31.087  1.00  0.00     0.123 A 
ATOM      9  C   UNL     1      29.126  -7.833 -29.720  1.00  0.00     0.094 A 
ATOM     10  C   UNL     1      30.413  -8.023 -29.212  1.00  0.00     0.146 A 
ATOM     11  O   UNL     1      30.561  -8.196 -27.904  1.00  0.00    -0.452 OA
ENDROOT
BRANCH   1  12
ATOM     12  C   UNL     1      31.768  -8.556 -25.848  1.00  0.00     0.021 A 
ATOM     13  C   UNL     1      31.985  -7.452 -25.003  1.00  0.00     0.016 A 
ATOM     14  C   UNL     1      31.987  -7.614 -23.614  1.00  0.00     0.047 A 
ATOM     15  C   UNL     1      31.757  -8.877 -23.052  1.00  0.00     0.115 A 
ATOM     16  C   UNL     1      31.517  -9.814 -25.275  1.00  0.00     0.016 A 
ATOM     17  C   UNL     1      31.520  -9.973 -23.886  1.00  0.00     0.047 A 
BRANCH  15  18
ATOM     18  O   UNL     1      31.758  -9.050 -21.671  1.00  0.00    -0.508 OA
ATOM     19  H   UNL     1      31.881  -8.267 -21.039  1.00  0.00     0.293 HD
ENDBRANCH  15  18
ENDBRANCH   1  12
BRANCH   2  20
ATOM     20  O   UNL     1      34.122  -8.820 -27.516  1.00  0.00    -0.502 OA
ATOM     21  H   UNL     1      35.005  -8.705 -27.999  1.00  0.00     0.293 HD
ENDBRANCH   2  20
BRANCH   6  22
ATOM     22  O   UNL     1      32.354  -7.674 -32.408  1.00  0.00    -0.507 OA
ATOM     23  H   UNL     1      32.384  -8.152 -33.295  1.00  0.00     0.293 HD
ENDBRANCH   6  22
BRANCH   8  24
ATOM     24  O   UNL     1      27.629  -7.492 -31.574  1.00  0.00    -0.508 OA
ATOM     25  H   UNL     1      26.963  -6.885 -31.111  1.00  0.00     0.293 HD
ENDBRANCH   8  24
TORSDOF 5
ENDMDL
MODEL 6
REMARK VINA RESULT:    -4.992     15.234     16.773
REMARK INTER + INTRA:          -6.138
REMARK INTER:                  -5.896
REMARK INTRA:                  -0.242
REMARK UNBOUND:                -0.271
REMARK SMILES O=c1c(O)c(-c2ccc(O)cc2)oc2cc(O)cc(O)c12
REMARK SMILES IDX 5 1 3 2 2 3 1 4 21 5 19 6 18 7 16 8 15 9 14 10 13 11 6 12
REMARK SMILES IDX 7 13 8 14 9 15 12 16 11 17 10 18 4 20 20 22 17 24
REMARK H PARENT 10 19 4 21 20 23 17 25
REMARK Flexibility Score: inf
ROOT
ATOM      1  C   UNL     1      31.410  -8.122 -27.060  1.00  0.00     0.180 A 
ATOM      2  C   UNL     1      30.107  -7.624 -27.233  1.00  0.00     0.208 A 
ATOM      3  C   UNL     1      29.641  -7.374 -28.534  1.00  0.00     0.238 A 
ATOM      4  O   UNL     1      28.494  -6.876 -28.679  1.00  0.00    -0.285 OA
ATOM      5  C   UNL     1      30.477  -7.641 -29.645  1.00  0.00     0.111 A 
ATOM      6  C   UNL     1      30.094  -7.463 -31.008  1.00  0.00     0.134 A 
ATOM      7  C   UNL     1      31.046  -7.634 -32.021  1.00  0.00     0.093 A 
ATOM      8  C   UNL     1      32.349  -8.040 -31.724  1.00  0.00     0.123 A 
ATOM      9  C   UNL     1      32.715  -8.274 -30.401  1.00  0.00     0.094 A 
ATOM     10  C   UNL     1      31.799  -8.076 -29.365  1.00  0.00     0.146 A 
ATOM     11  O   UNL     1      32.193  -8.300 -28.117  1.00  0.00    -0.452 OA
ENDROOT
BRANCH   1  12
ATOM     12  C   UNL     1      31.963  -8.434 -25.722  1.00  0.00     0.021 A 
ATOM     13  C   UNL     1      31.554  -9.575 -25.007  1.00  0.00     0.016 A 
ATOM     14  C   UNL     1      32.108  -9.862 -23.755  1.00  0.00     0.047 A 
ATOM     15  C   UNL     1      33.087  -9.021 -23.209  1.00  0.00     0.115 A 
ATOM     16  C   UNL     1      32.960  -7.609 -25.175  1.00  0.00     0.016 A 
ATOM     17  C   UNL     1      33.512  -7.897 -23.924  1.00  0.00     0.047 A 
BRANCH  15  18
ATOM     18  O   UNL     1      33.644  -9.296 -21.963  1.00  0.00    -0.508 OA
ATOM     19  H   UNL     1      33.185  -9.017 -21.104  1.00  0.00     0.293 HD
ENDBRANCH  15  18
ENDBRANCH   1  12
BRANCH   2  20
ATOM     20  O   UNL     1      29.308  -7.346 -26.121  1.00  0.00    -0.502 OA
ATOM     21  H   UNL     1      29.316  -7.921 -25.288  1.00  0.00     0.293 HD
ENDBRANCH   2  20
BRANCH   6  22
ATOM     22  O   UNL     1      28.795  -7.147 -31.419  1.00  0.00    -0.507 OA
ATOM     23  H   UNL     1      27.958  -7.379 -30.906  1.00  0.00     0.293 HD
ENDBRANCH   6  22
BRANCH   8  24
ATOM     24  O   UNL     1      33.285  -8.224 -32.740  1.00  0.00    -0.508 OA
ATOM     25  H   UNL     1      33.027  -8.153 -33.717  1.00  0.00     0.293 HD
ENDBRANCH   8  24
TORSDOF 5
ENDMDL
MODEL 7
REMARK VINA RESULT:    -4.983     11.952     15.036
REMARK INTER + INTRA:          -6.128
REMARK INTER:                  -5.828
REMARK INTRA:                  -0.300
REMARK UNBOUND:                -0.271
REMARK SMILES O=c1c(O)c(-c2ccc(O)cc2)oc2cc(O)cc(O)c12
REMARK SMILES IDX 5 1 3 2 2 3 1 4 21 5 19 6 18 7 16 8 15 9 14 10 13 11 6 12
REMARK SMILES IDX 7 13 8 14 9 15 12 16 11 17 10 18 4 20 20 22 17 24
REMARK H PARENT 10 19 4 21 20 23 17 25
REMARK Flexibility Score: inf
ROOT
ATOM      1  C   UNL     1      28.025  -6.633 -28.869  1.00  0.00     0.180 A 
ATOM      2  C   UNL     1      27.923  -7.383 -30.054  1.00  0.00     0.208 A 
ATOM      3  C   UNL     1      29.093  -7.693 -30.766  1.00  0.00     0.238 A 
ATOM      4  O   UNL     1      28.989  -8.316 -31.855  1.00  0.00    -0.285 OA
ATOM      5  C   UNL     1      30.350  -7.265 -30.277  1.00  0.00     0.111 A 
ATOM      6  C   UNL     1      31.603  -7.557 -30.896  1.00  0.00     0.134 A 
ATOM      7  C   UNL     1      32.773  -6.972 -30.396  1.00  0.00     0.093 A 
ATOM      8  C   UNL     1      32.744  -6.159 -29.261  1.00  0.00     0.123 A 
ATOM      9  C   UNL     1      31.534  -5.917 -28.615  1.00  0.00     0.094 A 
ATOM     10  C   UNL     1      30.344  -6.455 -29.111  1.00  0.00     0.146 A 
ATOM     11  O   UNL     1      29.212  -6.191 -28.471  1.00  0.00    -0.452 OA
ENDROOT
BRANCH   1  12
ATOM     12  C   UNL     1      26.840  -6.289 -28.050  1.00  0.00     0.021 A 
ATOM     13  C   UNL     1      26.385  -7.139 -27.026  1.00  0.00     0.016 A 
ATOM     14  C   UNL     1      25.278  -6.781 -26.250  1.00  0.00     0.047 A 
ATOM     15  C   UNL     1      24.622  -5.564 -26.477  1.00  0.00     0.115 A 
ATOM     16  C   UNL     1      26.189  -5.061 -28.257  1.00  0.00     0.016 A 
ATOM     17  C   UNL     1      25.083  -4.706 -27.480  1.00  0.00     0.047 A 
BRANCH  15  18
ATOM     18  O   UNL     1      23.518  -5.198 -25.711  1.00  0.00    -0.508 OA
ATOM     19  H   UNL     1      22.709  -5.801 -25.627  1.00  0.00     0.293 HD
ENDBRANCH  15  18
ENDBRANCH   1  12
BRANCH   2  20
ATOM     20  O   UNL     1      26.670  -7.775 -30.531  1.00  0.00    -0.502 OA
ATOM     21  H   UNL     1      26.557  -8.345 -31.361  1.00  0.00     0.293 HD
ENDBRANCH   2  20
BRANCH   6  22
ATOM     22  O   UNL     1      31.753  -8.429 -31.978  1.00  0.00    -0.507 OA
ATOM     23  H   UNL     1      31.195  -9.255 -32.133  1.00  0.00     0.293 HD
ENDBRANCH   6  22
BRANCH   8  24
ATOM     24  O   UNL     1      33.915  -5.594 -28.761  1.00  0.00    -0.508 OA
ATOM     25  H   UNL     1      34.765  -6.137 -28.664  1.00  0.00     0.293 HD
ENDBRANCH   8  24
TORSDOF 5
ENDMDL
MODEL 8
REMARK VINA RESULT:    -4.898      1.905      4.010
REMARK INTER + INTRA:          -6.028
REMARK INTER:                  -5.951
REMARK INTRA:                  -0.078
REMARK UNBOUND:                -0.271
REMARK SMILES O=c1c(O)c(-c2ccc(O)cc2)oc2cc(O)cc(O)c12
REMARK SMILES IDX 5 1 3 2 2 3 1 4 21 5 19 6 18 7 16 8 15 9 14 10 13 11 6 12
REMARK SMILES IDX 7 13 8 14 9 15 12 16 11 17 10 18 4 20 20 22 17 24
REMARK H PARENT 10 19 4 21 20 23 17 25
REMARK Flexibility Score: inf
ROOT
ATOM      1  C   UNL     1      23.909   6.155 -22.394  1.00  0.00     0.180 A 
ATOM      2  C   UNL     1      23.382   5.016 -23.026  1.00  0.00     0.208 A 
ATOM      3  C   UNL     1      23.915   4.614 -24.262  1.00  0.00     0.238 A 
ATOM      4  O   UNL     1      23.401   3.626 -24.849  1.00  0.00    -0.285 OA
ATOM      5  C   UNL     1      24.979   5.346 -24.841  1.00  0.00     0.111 A 
ATOM      6  C   UNL     1      25.623   5.006 -26.068  1.00  0.00     0.134 A 
ATOM      7  C   UNL     1      26.577   5.875 -26.612  1.00  0.00     0.093 A 
ATOM      8  C   UNL     1      26.958   7.038 -25.940  1.00  0.00     0.123 A 
ATOM      9  C   UNL     1      26.379   7.348 -24.711  1.00  0.00     0.094 A 
ATOM     10  C   UNL     1      25.397   6.520 -24.161  1.00  0.00     0.146 A 
ATOM     11  O   UNL     1      24.863   6.858 -22.994  1.00  0.00    -0.452 OA
ENDROOT
BRANCH   1  12
ATOM     12  C   UNL     1      23.417   6.626 -21.079  1.00  0.00     0.021 A 
ATOM     13  C   UNL     1      23.430   5.788 -19.949  1.00  0.00     0.016 A 
ATOM     14  C   UNL     1      22.982   6.262 -18.712  1.00  0.00     0.047 A 
ATOM     15  C   UNL     1      22.530   7.583 -18.586  1.00  0.00     0.115 A 
ATOM     16  C   UNL     1      22.981   7.954 -20.938  1.00  0.00     0.016 A 
ATOM     17  C   UNL     1      22.534   8.425 -19.701  1.00  0.00     0.047 A 
BRANCH  15  18
ATOM     18  O   UNL     1      22.080   8.065 -17.360  1.00  0.00    -0.508 OA
ATOM     19  H   UNL     1      21.097   8.050 -17.112  1.00  0.00     0.293 HD
ENDBRANCH  15  18
ENDBRANCH   1  12
BRANCH   2  20
ATOM     20  O   UNL     1      22.316   4.322 -22.448  1.00  0.00    -0.502 OA
ATOM     21  H   UNL     1      22.198   4.242 -21.445  1.00  0.00     0.293 HD
ENDBRANCH   2  20
BRANCH   6  22
ATOM     22  O   UNL     1      25.382   3.823 -26.774  1.00  0.00    -0.507 OA
ATOM     23  H   UNL     1      25.351   3.749 -27.779  1.00  0.00     0.293 HD
ENDBRANCH   6  22
BRANCH   8  24
ATOM     24  O   UNL     1      27.921   7.889 -26.480  1.00  0.00    -0.508 OA
ATOM     25  H   UNL     1      27.751   8.407 -27.333  1.00  0.00     0.293 HD
ENDBRANCH   8  24
TORSDOF 5
ENDMDL
MODEL 9
REMARK VINA RESULT:    -4.844      9.767     12.443
REMARK INTER + INTRA:          -5.964
REMARK INTER:                  -5.771
REMARK INTRA:                  -0.193
REMARK UNBOUND:                -0.271
REMARK SMILES O=c1c(O)c(-c2ccc(O)cc2)oc2cc(O)cc(O)c12
REMARK SMILES IDX 5 1 3 2 2 3 1 4 21 5 19 6 18 7 16 8 15 9 14 10 13 11 6 12
REMARK SMILES IDX 7 13 8 14 9 15 12 16 11 17 10 18 4 20 20 22 17 24
REMARK H PARENT 10 19 4 21 20 23 17 25
REMARK Flexibility Score: inf
ROOT
ATOM      1  C   UNL     1      27.649  -3.216 -28.786  1.00  0.00     0.180 A 
ATOM      2  C   UNL     1      26.897  -3.691 -27.698  1.00  0.00     0.208 A 
ATOM      3  C   UNL     1      26.615  -5.064 -27.614  1.00  0.00     0.238 A 
ATOM      4  O   UNL     1      25.893  -5.475 -26.667  1.00  0.00    -0.285 OA
ATOM      5  C   UNL     1      27.102  -5.946 -28.608  1.00  0.00     0.111 A 
ATOM      6  C   UNL     1      26.910  -7.360 -28.601  1.00  0.00     0.134 A 
ATOM      7  C   UNL     1      27.324  -8.119 -29.703  1.00  0.00     0.093 A 
ATOM      8  C   UNL     1      27.981  -7.523 -30.782  1.00  0.00     0.123 A 
ATOM      9  C   UNL     1      28.226  -6.152 -30.771  1.00  0.00     0.094 A 
ATOM     10  C   UNL     1      27.792  -5.363 -29.702  1.00  0.00     0.146 A 
ATOM     11  O   UNL     1      28.037  -4.058 -29.737  1.00  0.00    -0.452 OA
ENDROOT
BRANCH   1  12
ATOM     12  C   UNL     1      28.009  -1.786 -28.931  1.00  0.00     0.021 A 
ATOM     13  C   UNL     1      29.336  -1.344 -28.773  1.00  0.00     0.016 A 
ATOM     14  C   UNL     1      29.655   0.007 -28.939  1.00  0.00     0.047 A 
ATOM     15  C   UNL     1      28.657   0.930 -29.278  1.00  0.00     0.115 A 
ATOM     16  C   UNL     1      27.019  -0.857 -29.292  1.00  0.00     0.016 A 
ATOM     17  C   UNL     1      27.341   0.493 -29.457  1.00  0.00     0.047 A 
BRANCH  15  18
ATOM     18  O   UNL     1      28.963   2.278 -29.444  1.00  0.00    -0.508 OA
ATOM     19  H   UNL     1      28.267   2.945 -29.756  1.00  0.00     0.293 HD
ENDBRANCH  15  18
ENDBRANCH   1  12
BRANCH   2  20
ATOM     20  O   UNL     1      26.406  -2.799 -26.741  1.00  0.00    -0.502 OA
ATOM     21  H   UNL     1      27.009  -2.175 -26.219  1.00  0.00     0.293 HD
ENDBRANCH   2  20
BRANCH   6  22
ATOM     22  O   UNL     1      26.348  -8.066 -27.533  1.00  0.00    -0.507 OA
ATOM     23  H   UNL     1      26.870  -8.620 -26.871  1.00  0.00     0.293 HD
ENDBRANCH   6  22
BRANCH   8  24
ATOM     24  O   UNL     1      28.404  -8.288 -31.867  1.00  0.00    -0.508 OA
ATOM     25  H   UNL     1      28.613  -9.274 -31.770  1.00  0.00     0.293 HD
ENDBRANCH   8  24
TORSDOF 5
ENDMDL
