MODEL 1
REMARK VINA RESULT:    -2.628      0.000      0.000
REMARK INTER + INTRA:          -7.925
REMARK INTER:                  -6.622
REMARK INTRA:                  -1.302
REMARK UNBOUND:                -1.302
REMARK SMILES CCCCCCCCCCCCCCCCCCCCCCCCCCCC(=O)[O-]
REMARK SMILES IDX 15 1 16 2 17 3 18 4 19 5 20 6 21 7 22 8 23 9 24 10 25 11
REMARK SMILES IDX 26 12 27 13 28 14 29 15 30 16 14 17 13 18 12 19 11 20 10 21
REMARK SMILES IDX 9 22 8 23 7 24 6 25 5 26 4 27 3 28 2 29 1 30
REMARK H PARENT
REMARK Flexibility Score: inf
ROOT
ATOM      1  C   UNL     1      31.304  25.637  70.244  1.00  0.00     0.000 C 
ENDROOT
BRANCH   1   2
ATOM      2  C   UNL     1      32.295  26.215  71.269  1.00  0.00     0.000 C 
BRANCH   2   3
ATOM      3  C   UNL     1      33.573  26.776  70.618  1.00  0.00     0.000 C 
BRANCH   3   4
ATOM      4  C   UNL     1      34.834  25.911  70.805  1.00  0.00     0.000 C 
BRANCH   4   5
ATOM      5  C   UNL     1      35.083  24.951  69.629  1.00  0.00     0.000 C 
BRANCH   5   6
ATOM      6  C   UNL     1      36.135  23.876  69.945  1.00  0.00     0.000 C 
BRANCH   6   7
ATOM      7  C   UNL     1      37.551  24.290  69.510  1.00  0.00     0.000 C 
BRANCH   7   8
ATOM      8  C   UNL     1      38.369  24.921  70.652  1.00  0.00     0.000 C 
BRANCH   8   9
ATOM      9  C   UNL     1      39.153  23.919  71.521  1.00  0.00     0.000 C 
BRANCH   9  10
ATOM     10  C   UNL     1      39.020  24.204  73.027  1.00  0.00     0.000 C 
BRANCH  10  11
ATOM     11  C   UNL     1      40.184  25.042  73.578  1.00  0.00     0.000 C 
BRANCH  11  12
ATOM     12  C   UNL     1      39.823  25.770  74.882  1.00  0.00     0.006 C 
BRANCH  12  13
ATOM     13  C   UNL     1      39.419  27.223  74.603  1.00  0.00     0.053 C 
BRANCH  13  14
ATOM     14  C   UNL     1      39.787  28.114  75.750  1.00  0.00     0.041 C 
ATOM     15  O   UNL     1      40.492  29.140  75.557  1.00  0.00    -0.550 OA
ATOM     16  O   UNL     1      39.320  27.829  77.028  1.00  0.00    -0.550 OA
ENDBRANCH  13  14
ENDBRANCH  12  13
ENDBRANCH  11  12
ENDBRANCH  10  11
ENDBRANCH   9  10
ENDBRANCH   8   9
ENDBRANCH   7   8
ENDBRANCH   6   7
ENDBRANCH   5   6
ENDBRANCH   4   5
ENDBRANCH   3   4
ENDBRANCH   2   3
ENDBRANCH   1   2
BRANCH   1  17
ATOM     17  C   UNL     1      31.770  24.294  69.658  1.00  0.00     0.000 C 
BRANCH  17  18
ATOM     18  C   UNL     1      31.473  24.163  68.154  1.00  0.00     0.000 C 
BRANCH  18  19
ATOM     19  C   UNL     1      32.751  24.105  67.298  1.00  0.00     0.000 C 
BRANCH  19  20
ATOM     20  C   UNL     1      32.523  23.911  65.784  1.00  0.00     0.000 C 
BRANCH  20  21
ATOM     21  C   UNL     1      32.167  25.191  65.007  1.00  0.00     0.000 C 
BRANCH  21  22
ATOM     22  C   UNL     1      31.679  24.961  63.564  1.00  0.00    -0.000 C 
BRANCH  22  23
ATOM     23  C   UNL     1      30.188  24.577  63.464  1.00  0.00    -0.000 C 
BRANCH  23  24
ATOM     24  C   UNL     1      29.461  25.316  62.325  1.00  0.00    -0.000 C 
BRANCH  24  25
ATOM     25  C   UNL     1      28.015  25.684  62.691  1.00  0.00    -0.000 C 
BRANCH  25  26
ATOM     26  C   UNL     1      26.979  24.855  61.912  1.00  0.00    -0.000 C 
BRANCH  26  27
ATOM     27  C   UNL     1      25.535  25.167  62.340  1.00  0.00    -0.000 C 
BRANCH  27  28
ATOM     28  C   UNL     1      24.797  23.923  62.864  1.00  0.00    -0.000 C 
BRANCH  28  29
ATOM     29  C   UNL     1      23.269  24.059  62.773  1.00  0.00    -0.003 C 
ATOM     30  C   UNL     1      22.625  24.423  64.111  1.00  0.00     0.004 C 
ENDBRANCH  28  29
ENDBRANCH  27  28
ENDBRANCH  26  27
ENDBRANCH  25  26
ENDBRANCH  24  25
ENDBRANCH  23  24
ENDBRANCH  22  23
ENDBRANCH  21  22
ENDBRANCH  20  21
ENDBRANCH  19  20
ENDBRANCH  18  19
ENDBRANCH  17  18
ENDBRANCH   1  17
TORSDOF 26
ENDMDL
MODEL 2
REMARK VINA RESULT:    -1.988      5.808     12.483
REMARK INTER + INTRA:          -6.312
REMARK INTER:                  -7.393
REMARK INTRA:                   1.080
REMARK UNBOUND:                -1.302
REMARK SMILES CCCCCCCCCCCCCCCCCCCCCCCCCCCC(=O)[O-]
REMARK SMILES IDX 15 1 16 2 17 3 18 4 19 5 20 6 21 7 22 8 23 9 24 10 25 11
REMARK SMILES IDX 26 12 27 13 28 14 29 15 30 16 14 17 13 18 12 19 11 20 10 21
REMARK SMILES IDX 9 22 8 23 7 24 6 25 5 26 4 27 3 28 2 29 1 30
REMARK H PARENT
REMARK Flexibility Score: inf
ROOT
ATOM      1  C   UNL     1      32.569  24.714  65.987  1.00  0.00     0.000 C 
ENDROOT
BRANCH   1   2
ATOM      2  C   UNL     1      33.470  23.976  64.982  1.00  0.00     0.000 C 
BRANCH   2   3
ATOM      3  C   UNL     1      33.517  24.659  63.603  1.00  0.00     0.000 C 
BRANCH   3   4
ATOM      4  C   UNL     1      32.170  25.219  63.107  1.00  0.00     0.000 C 
BRANCH   4   5
ATOM      5  C   UNL     1      31.432  26.042  64.177  1.00  0.00     0.000 C 
BRANCH   5   6
ATOM      6  C   UNL     1      29.904  26.017  64.004  1.00  0.00     0.000 C 
BRANCH   6   7
ATOM      7  C   UNL     1      29.463  25.183  62.789  1.00  0.00     0.000 C 
BRANCH   7   8
ATOM      8  C   UNL     1      28.217  25.757  62.090  1.00  0.00     0.000 C 
BRANCH   8   9
ATOM      9  C   UNL     1      26.881  25.115  62.510  1.00  0.00     0.000 C 
BRANCH   9  10
ATOM     10  C   UNL     1      26.423  24.006  61.546  1.00  0.00     0.000 C 
BRANCH  10  11
ATOM     11  C   UNL     1      25.148  24.380  60.774  1.00  0.00     0.000 C 
BRANCH  11  12
ATOM     12  C   UNL     1      23.926  24.537  61.692  1.00  0.00     0.006 C 
BRANCH  12  13
ATOM     13  C   UNL     1      24.359  24.783  63.142  1.00  0.00     0.053 C 
BRANCH  13  14
ATOM     14  C   UNL     1      23.171  24.970  64.035  1.00  0.00     0.041 C 
ATOM     15  O   UNL     1      22.183  25.648  63.645  1.00  0.00    -0.550 OA
ATOM     16  O   UNL     1      23.141  24.364  65.286  1.00  0.00    -0.550 OA
ENDBRANCH  13  14
ENDBRANCH  12  13
ENDBRANCH  11  12
ENDBRANCH  10  11
ENDBRANCH   9  10
ENDBRANCH   8   9
ENDBRANCH   7   8
ENDBRANCH   6   7
ENDBRANCH   5   6
ENDBRANCH   4   5
ENDBRANCH   3   4
ENDBRANCH   2   3
ENDBRANCH   1   2
BRANCH   1  17
ATOM     17  C   UNL     1      32.277  23.884  67.248  1.00  0.00     0.000 C 
BRANCH  17  18
ATOM     18  C   UNL     1      33.364  24.031  68.326  1.00  0.00     0.000 C 
BRANCH  18  19
ATOM     19  C   UNL     1      34.789  23.973  67.746  1.00  0.00     0.000 C 
BRANCH  19  20
ATOM     20  C   UNL     1      35.753  25.068  68.252  1.00  0.00     0.000 C 
BRANCH  20  21
ATOM     21  C   UNL     1      37.162  24.575  68.628  1.00  0.00     0.000 C 
BRANCH  21  22
ATOM     22  C   UNL     1      37.334  24.161  70.102  1.00  0.00    -0.000 C 
BRANCH  22  23
ATOM     23  C   UNL     1      36.022  24.183  70.914  1.00  0.00    -0.000 C 
BRANCH  23  24
ATOM     24  C   UNL     1      35.468  25.608  71.103  1.00  0.00    -0.000 C 
BRANCH  24  25
ATOM     25  C   UNL     1      33.988  25.613  71.518  1.00  0.00    -0.000 C 
BRANCH  25  26
ATOM     26  C   UNL     1      33.152  26.623  70.712  1.00  0.00    -0.000 C 
BRANCH  26  27
ATOM     27  C   UNL     1      31.650  26.297  70.743  1.00  0.00    -0.000 C 
BRANCH  27  28
ATOM     28  C   UNL     1      31.264  25.422  71.948  1.00  0.00    -0.000 C 
BRANCH  28  29
ATOM     29  C   UNL     1      30.939  23.975  71.547  1.00  0.00    -0.003 C 
ATOM     30  C   UNL     1      29.784  23.881  70.550  1.00  0.00     0.004 C 
ENDBRANCH  28  29
ENDBRANCH  27  28
ENDBRANCH  26  27
ENDBRANCH  25  26
ENDBRANCH  24  25
ENDBRANCH  23  24
ENDBRANCH  22  23
ENDBRANCH  21  22
ENDBRANCH  20  21
ENDBRANCH  19  20
ENDBRANCH  18  19
ENDBRANCH  17  18
ENDBRANCH   1  17
TORSDOF 26
ENDMDL
MODEL 3
REMARK VINA RESULT:    -1.447      3.564      6.935
REMARK INTER + INTRA:          -4.948
REMARK INTER:                  -4.514
REMARK INTRA:                  -0.434
REMARK UNBOUND:                -1.302
REMARK SMILES CCCCCCCCCCCCCCCCCCCCCCCCCCCC(=O)[O-]
REMARK SMILES IDX 15 1 16 2 17 3 18 4 19 5 20 6 21 7 22 8 23 9 24 10 25 11
REMARK SMILES IDX 26 12 27 13 28 14 29 15 30 16 14 17 13 18 12 19 11 20 10 21
REMARK SMILES IDX 9 22 8 23 7 24 6 25 5 26 4 27 3 28 2 29 1 30
REMARK H PARENT
REMARK Flexibility Score: inf
ROOT
ATOM      1  C   UNL     1      31.740  26.894  61.993  1.00  0.00     0.000 C 
ENDROOT
BRANCH   1   2
ATOM      2  C   UNL     1      32.809  26.384  62.975  1.00  0.00     0.000 C 
BRANCH   2   3
ATOM      3  C   UNL     1      33.120  24.886  62.798  1.00  0.00     0.000 C 
BRANCH   3   4
ATOM      4  C   UNL     1      32.721  23.992  63.989  1.00  0.00     0.000 C 
BRANCH   4   5
ATOM      5  C   UNL     1      33.522  24.302  65.265  1.00  0.00     0.000 C 
BRANCH   5   6
ATOM      6  C   UNL     1      32.691  24.137  66.548  1.00  0.00     0.000 C 
BRANCH   6   7
ATOM      7  C   UNL     1      31.249  24.648  66.386  1.00  0.00     0.000 C 
BRANCH   7   8
ATOM      8  C   UNL     1      30.295  24.099  67.463  1.00  0.00     0.000 C 
BRANCH   8   9
ATOM      9  C   UNL     1      30.933  23.876  68.847  1.00  0.00     0.000 C 
BRANCH   9  10
ATOM     10  C   UNL     1      32.427  24.242  68.880  1.00  0.00     0.000 C 
BRANCH  10  11
ATOM     11  C   UNL     1      32.877  24.774  70.250  1.00  0.00     0.000 C 
BRANCH  11  12
ATOM     12  C   UNL     1      34.117  24.044  70.789  1.00  0.00     0.006 C 
BRANCH  12  13
ATOM     13  C   UNL     1      35.357  24.943  70.714  1.00  0.00     0.053 C 
BRANCH  13  14
ATOM     14  C   UNL     1      36.328  24.438  69.692  1.00  0.00     0.041 C 
ATOM     15  O   UNL     1      37.531  24.232  70.005  1.00  0.00    -0.550 OA
ATOM     16  O   UNL     1      35.894  24.161  68.400  1.00  0.00    -0.550 OA
ENDBRANCH  13  14
ENDBRANCH  12  13
ENDBRANCH  11  12
ENDBRANCH  10  11
ENDBRANCH   9  10
ENDBRANCH   8   9
ENDBRANCH   7   8
ENDBRANCH   6   7
ENDBRANCH   5   6
ENDBRANCH   4   5
ENDBRANCH   3   4
ENDBRANCH   2   3
ENDBRANCH   1   2
BRANCH   1  17
ATOM     17  C   UNL     1      30.675  27.769  62.673  1.00  0.00     0.000 C 
BRANCH  17  18
ATOM     18  C   UNL     1      30.000  27.070  63.866  1.00  0.00     0.000 C 
BRANCH  18  19
ATOM     19  C   UNL     1      29.505  25.653  63.522  1.00  0.00     0.000 C 
BRANCH  19  20
ATOM     20  C   UNL     1      28.719  25.531  62.199  1.00  0.00     0.000 C 
BRANCH  20  21
ATOM     21  C   UNL     1      27.980  24.196  61.998  1.00  0.00     0.000 C 
BRANCH  21  22
ATOM     22  C   UNL     1      26.464  24.246  62.268  1.00  0.00    -0.000 C 
BRANCH  22  23
ATOM     23  C   UNL     1      25.643  24.844  61.105  1.00  0.00    -0.000 C 
BRANCH  23  24
ATOM     24  C   UNL     1      24.326  25.485  61.579  1.00  0.00    -0.000 C 
BRANCH  24  25
ATOM     25  C   UNL     1      23.865  26.630  60.663  1.00  0.00    -0.000 C 
BRANCH  25  26
ATOM     26  C   UNL     1      24.536  26.585  59.279  1.00  0.00    -0.000 C 
BRANCH  26  27
ATOM     27  C   UNL     1      24.215  27.827  58.431  1.00  0.00    -0.000 C 
BRANCH  27  28
ATOM     28  C   UNL     1      23.493  28.918  59.241  1.00  0.00    -0.000 C 
BRANCH  28  29
ATOM     29  C   UNL     1      23.324  30.226  58.451  1.00  0.00    -0.003 C 
ATOM     30  C   UNL     1      24.658  30.895  58.120  1.00  0.00     0.004 C 
ENDBRANCH  28  29
ENDBRANCH  27  28
ENDBRANCH  26  27
ENDBRANCH  25  26
ENDBRANCH  24  25
ENDBRANCH  23  24
ENDBRANCH  22  23
ENDBRANCH  21  22
ENDBRANCH  20  21
ENDBRANCH  19  20
ENDBRANCH  18  19
ENDBRANCH  17  18
ENDBRANCH   1  17
TORSDOF 26
ENDMDL
MODEL 4
REMARK VINA RESULT:    -1.202      5.994     12.185
REMARK INTER + INTRA:          -4.330
REMARK INTER:                  -3.712
REMARK INTRA:                  -0.619
REMARK UNBOUND:                -1.302
REMARK SMILES CCCCCCCCCCCCCCCCCCCCCCCCCCCC(=O)[O-]
REMARK SMILES IDX 15 1 16 2 17 3 18 4 19 5 20 6 21 7 22 8 23 9 24 10 25 11
REMARK SMILES IDX 26 12 27 13 28 14 29 15 30 16 14 17 13 18 12 19 11 20 10 21
REMARK SMILES IDX 9 22 8 23 7 24 6 25 5 26 4 27 3 28 2 29 1 30
REMARK H PARENT
REMARK Flexibility Score: inf
ROOT
ATOM      1  C   UNL     1      32.050  24.947  65.334  1.00  0.00     0.000 C 
ENDROOT
BRANCH   1   2
ATOM      2  C   UNL     1      33.296  24.413  64.606  1.00  0.00     0.000 C 
BRANCH   2   3
ATOM      3  C   UNL     1      33.276  24.701  63.093  1.00  0.00     0.000 C 
BRANCH   3   4
ATOM      4  C   UNL     1      32.168  25.665  62.627  1.00  0.00     0.000 C 
BRANCH   4   5
ATOM      5  C   UNL     1      32.330  27.085  63.196  1.00  0.00     0.000 C 
BRANCH   5   6
ATOM      6  C   UNL     1      31.369  28.100  62.556  1.00  0.00     0.000 C 
BRANCH   6   7
ATOM      7  C   UNL     1      30.277  27.424  61.708  1.00  0.00     0.000 C 
BRANCH   7   8
ATOM      8  C   UNL     1      28.916  27.362  62.424  1.00  0.00     0.000 C 
BRANCH   8   9
ATOM      9  C   UNL     1      28.731  26.160  63.369  1.00  0.00     0.000 C 
BRANCH   9  10
ATOM     10  C   UNL     1      28.559  24.830  62.616  1.00  0.00     0.000 C 
BRANCH  10  11
ATOM     11  C   UNL     1      27.364  24.846  61.649  1.00  0.00     0.000 C 
BRANCH  11  12
ATOM     12  C   UNL     1      26.185  24.000  62.153  1.00  0.00     0.006 C 
BRANCH  12  13
ATOM     13  C   UNL     1      24.851  24.576  61.665  1.00  0.00     0.053 C 
BRANCH  13  14
ATOM     14  C   UNL     1      23.832  24.580  62.763  1.00  0.00     0.041 C 
ATOM     15  O   UNL     1      24.074  25.165  63.852  1.00  0.00    -0.550 OA
ATOM     16  O   UNL     1      22.598  23.968  62.568  1.00  0.00    -0.550 OA
ENDBRANCH  13  14
ENDBRANCH  12  13
ENDBRANCH  11  12
ENDBRANCH  10  11
ENDBRANCH   9  10
ENDBRANCH   8   9
ENDBRANCH   7   8
ENDBRANCH   6   7
ENDBRANCH   5   6
ENDBRANCH   4   5
ENDBRANCH   3   4
ENDBRANCH   2   3
ENDBRANCH   1   2
BRANCH   1  17
ATOM     17  C   UNL     1      31.453  23.928  66.318  1.00  0.00     0.000 C 
BRANCH  17  18
ATOM     18  C   UNL     1      31.677  24.317  67.790  1.00  0.00     0.000 C 
BRANCH  18  19
ATOM     19  C   UNL     1      33.055  23.876  68.319  1.00  0.00     0.000 C 
BRANCH  19  20
ATOM     20  C   UNL     1      34.257  24.684  67.784  1.00  0.00     0.000 C 
BRANCH  20  21
ATOM     21  C   UNL     1      35.636  24.200  68.266  1.00  0.00     0.000 C 
BRANCH  21  22
ATOM     22  C   UNL     1      35.928  24.453  69.757  1.00  0.00    -0.000 C 
BRANCH  22  23
ATOM     23  C   UNL     1      35.075  25.580  70.378  1.00  0.00    -0.000 C 
BRANCH  23  24
ATOM     24  C   UNL     1      33.750  25.063  70.967  1.00  0.00    -0.000 C 
BRANCH  24  25
ATOM     25  C   UNL     1      32.587  26.045  70.751  1.00  0.00    -0.000 C 
BRANCH  25  26
ATOM     26  C   UNL     1      31.352  25.693  71.600  1.00  0.00    -0.000 C 
BRANCH  26  27
ATOM     27  C   UNL     1      30.823  24.279  71.308  1.00  0.00    -0.000 C 
BRANCH  27  28
ATOM     28  C   UNL     1      29.666  23.882  72.241  1.00  0.00    -0.000 C 
BRANCH  28  29
ATOM     29  C   UNL     1      30.074  23.882  73.722  1.00  0.00    -0.003 C 
ATOM     30  C   UNL     1      29.133  24.711  74.597  1.00  0.00     0.004 C 
ENDBRANCH  28  29
ENDBRANCH  27  28
ENDBRANCH  26  27
ENDBRANCH  25  26
ENDBRANCH  24  25
ENDBRANCH  23  24
ENDBRANCH  22  23
ENDBRANCH  21  22
ENDBRANCH  20  21
ENDBRANCH  19  20
ENDBRANCH  18  19
ENDBRANCH  17  18
ENDBRANCH   1  17
TORSDOF 26
ENDMDL
MODEL 5
REMARK VINA RESULT:    -1.060      6.621     11.454
REMARK INTER + INTRA:          -3.974
REMARK INTER:                  -2.362
REMARK INTRA:                  -1.611
REMARK UNBOUND:                -1.302
REMARK SMILES CCCCCCCCCCCCCCCCCCCCCCCCCCCC(=O)[O-]
REMARK SMILES IDX 15 1 16 2 17 3 18 4 19 5 20 6 21 7 22 8 23 9 24 10 25 11
REMARK SMILES IDX 26 12 27 13 28 14 29 15 30 16 14 17 13 18 12 19 11 20 10 21
REMARK SMILES IDX 9 22 8 23 7 24 6 25 5 26 4 27 3 28 2 29 1 30
REMARK H PARENT
REMARK Flexibility Score: inf
ROOT
ATOM      1  C   UNL     1      32.688  26.074  63.482  1.00  0.00     0.000 C 
ENDROOT
BRANCH   1   2
ATOM      2  C   UNL     1      33.045  25.844  62.003  1.00  0.00     0.000 C 
BRANCH   2   3
ATOM      3  C   UNL     1      34.047  24.692  61.800  1.00  0.00     0.000 C 
BRANCH   3   4
ATOM      4  C   UNL     1      34.302  24.300  60.332  1.00  0.00     0.000 C 
BRANCH   4   5
ATOM      5  C   UNL     1      35.757  23.875  60.069  1.00  0.00     0.000 C 
BRANCH   5   6
ATOM      6  C   UNL     1      36.579  24.963  59.359  1.00  0.00     0.000 C 
BRANCH   6   7
ATOM      7  C   UNL     1      37.733  24.380  58.525  1.00  0.00     0.000 C 
BRANCH   7   8
ATOM      8  C   UNL     1      39.061  24.318  59.301  1.00  0.00     0.000 C 
BRANCH   8   9
ATOM      9  C   UNL     1      40.285  24.865  58.542  1.00  0.00     0.000 C 
BRANCH   9  10
ATOM     10  C   UNL     1      40.311  26.402  58.483  1.00  0.00     0.000 C 
BRANCH  10  11
ATOM     11  C   UNL     1      39.734  27.055  59.748  1.00  0.00     0.000 C 
BRANCH  11  12
ATOM     12  C   UNL     1      39.005  28.374  59.453  1.00  0.00     0.006 C 
BRANCH  12  13
ATOM     13  C   UNL     1      39.852  29.576  59.888  1.00  0.00     0.053 C 
BRANCH  13  14
ATOM     14  C   UNL     1      38.992  30.775  60.149  1.00  0.00     0.041 C 
ATOM     15  O   UNL     1      39.246  31.540  61.118  1.00  0.00    -0.550 OA
ATOM     16  O   UNL     1      37.930  31.066  59.300  1.00  0.00    -0.550 OA
ENDBRANCH  13  14
ENDBRANCH  12  13
ENDBRANCH  11  12
ENDBRANCH  10  11
ENDBRANCH   9  10
ENDBRANCH   8   9
ENDBRANCH   7   8
ENDBRANCH   6   7
ENDBRANCH   5   6
ENDBRANCH   4   5
ENDBRANCH   3   4
ENDBRANCH   2   3
ENDBRANCH   1   2
BRANCH   1  17
ATOM     17  C   UNL     1      31.185  25.919  63.762  1.00  0.00     0.000 C 
BRANCH  17  18
ATOM     18  C   UNL     1      30.716  24.455  63.716  1.00  0.00     0.000 C 
BRANCH  18  19
ATOM     19  C   UNL     1      30.245  23.936  65.087  1.00  0.00     0.000 C 
BRANCH  19  20
ATOM     20  C   UNL     1      30.836  24.673  66.309  1.00  0.00     0.000 C 
BRANCH  20  21
ATOM     21  C   UNL     1      30.568  24.002  67.668  1.00  0.00     0.000 C 
BRANCH  21  22
ATOM     22  C   UNL     1      31.753  24.031  68.652  1.00  0.00    -0.000 C 
BRANCH  22  23
ATOM     23  C   UNL     1      31.342  24.287  70.117  1.00  0.00    -0.000 C 
BRANCH  23  24
ATOM     24  C   UNL     1      31.531  25.757  70.536  1.00  0.00    -0.000 C 
BRANCH  24  25
ATOM     25  C   UNL     1      32.344  25.899  71.833  1.00  0.00    -0.000 C 
BRANCH  25  26
ATOM     26  C   UNL     1      33.776  25.351  71.695  1.00  0.00    -0.000 C 
BRANCH  26  27
ATOM     27  C   UNL     1      34.532  25.976  70.511  1.00  0.00    -0.000 C 
BRANCH  27  28
ATOM     28  C   UNL     1      35.547  25.003  69.885  1.00  0.00    -0.000 C 
BRANCH  28  29
ATOM     29  C   UNL     1      36.635  24.565  70.878  1.00  0.00    -0.003 C 
ATOM     30  C   UNL     1      37.955  24.210  70.192  1.00  0.00     0.004 C 
ENDBRANCH  28  29
ENDBRANCH  27  28
ENDBRANCH  26  27
ENDBRANCH  25  26
ENDBRANCH  24  25
ENDBRANCH  23  24
ENDBRANCH  22  23
ENDBRANCH  21  22
ENDBRANCH  20  21
ENDBRANCH  19  20
ENDBRANCH  18  19
ENDBRANCH  17  18
ENDBRANCH   1  17
TORSDOF 26
ENDMDL
MODEL 6
REMARK VINA RESULT:    -0.828      5.994     11.244
REMARK INTER + INTRA:          -3.389
REMARK INTER:                  -3.234
REMARK INTRA:                  -0.155
REMARK UNBOUND:                -1.302
REMARK SMILES CCCCCCCCCCCCCCCCCCCCCCCCCCCC(=O)[O-]
REMARK SMILES IDX 15 1 16 2 17 3 18 4 19 5 20 6 21 7 22 8 23 9 24 10 25 11
REMARK SMILES IDX 26 12 27 13 28 14 29 15 30 16 14 17 13 18 12 19 11 20 10 21
REMARK SMILES IDX 9 22 8 23 7 24 6 25 5 26 4 27 3 28 2 29 1 30
REMARK H PARENT
REMARK Flexibility Score: inf
ROOT
ATOM      1  C   UNL     1      29.774  27.676  64.112  1.00  0.00     0.000 C 
ENDROOT
BRANCH   1   2
ATOM      2  C   UNL     1      30.617  27.968  62.858  1.00  0.00     0.000 C 
BRANCH   2   3
ATOM      3  C   UNL     1      32.120  27.707  63.072  1.00  0.00     0.000 C 
BRANCH   3   4
ATOM      4  C   UNL     1      32.791  26.837  61.992  1.00  0.00     0.000 C 
BRANCH   4   5
ATOM      5  C   UNL     1      33.279  25.481  62.532  1.00  0.00     0.000 C 
BRANCH   5   6
ATOM      6  C   UNL     1      33.057  24.327  61.541  1.00  0.00     0.000 C 
BRANCH   6   7
ATOM      7  C   UNL     1      34.360  23.876  60.859  1.00  0.00     0.000 C 
BRANCH   7   8
ATOM      8  C   UNL     1      35.575  24.730  61.266  1.00  0.00     0.000 C 
BRANCH   8   9
ATOM      9  C   UNL     1      36.117  25.657  60.162  1.00  0.00     0.000 C 
BRANCH   9  10
ATOM     10  C   UNL     1      35.850  25.118  58.745  1.00  0.00     0.000 C 
BRANCH  10  11
ATOM     11  C   UNL     1      36.884  24.070  58.305  1.00  0.00     0.000 C 
BRANCH  11  12
ATOM     12  C   UNL     1      38.197  24.166  59.096  1.00  0.00     0.006 C 
BRANCH  12  13
ATOM     13  C   UNL     1      39.403  24.226  58.151  1.00  0.00     0.053 C 
BRANCH  13  14
ATOM     14  C   UNL     1      40.277  25.401  58.464  1.00  0.00     0.041 C 
ATOM     15  O   UNL     1      39.893  26.277  59.284  1.00  0.00    -0.550 OA
ATOM     16  O   UNL     1      41.532  25.510  57.875  1.00  0.00    -0.550 OA
ENDBRANCH  13  14
ENDBRANCH  12  13
ENDBRANCH  11  12
ENDBRANCH  10  11
ENDBRANCH   9  10
ENDBRANCH   8   9
ENDBRANCH   7   8
ENDBRANCH   6   7
ENDBRANCH   5   6
ENDBRANCH   4   5
ENDBRANCH   3   4
ENDBRANCH   2   3
ENDBRANCH   1   2
BRANCH   1  17
ATOM     17  C   UNL     1      28.781  26.521  63.906  1.00  0.00     0.000 C 
BRANCH  17  18
ATOM     18  C   UNL     1      28.599  26.145  62.426  1.00  0.00     0.000 C 
BRANCH  18  19
ATOM     19  C   UNL     1      29.340  24.851  62.044  1.00  0.00     0.000 C 
BRANCH  19  20
ATOM     20  C   UNL     1      30.367  24.348  63.081  1.00  0.00     0.000 C 
BRANCH  20  21
ATOM     21  C   UNL     1      29.768  23.878  64.419  1.00  0.00     0.000 C 
BRANCH  21  22
ATOM     22  C   UNL     1      30.022  24.820  65.612  1.00  0.00    -0.000 C 
BRANCH  22  23
ATOM     23  C   UNL     1      31.435  24.690  66.219  1.00  0.00    -0.000 C 
BRANCH  23  24
ATOM     24  C   UNL     1      31.417  24.100  67.641  1.00  0.00    -0.000 C 
BRANCH  24  25
ATOM     25  C   UNL     1      32.826  23.955  68.237  1.00  0.00    -0.000 C 
BRANCH  25  26
ATOM     26  C   UNL     1      33.087  24.947  69.385  1.00  0.00    -0.000 C 
BRANCH  26  27
ATOM     27  C   UNL     1      34.539  25.453  69.404  1.00  0.00    -0.000 C 
BRANCH  27  28
ATOM     28  C   UNL     1      35.228  25.203  70.757  1.00  0.00    -0.000 C 
BRANCH  28  29
ATOM     29  C   UNL     1      36.268  24.074  70.691  1.00  0.00    -0.003 C 
ATOM     30  C   UNL     1      37.034  24.050  69.369  1.00  0.00     0.004 C 
ENDBRANCH  28  29
ENDBRANCH  27  28
ENDBRANCH  26  27
ENDBRANCH  25  26
ENDBRANCH  24  25
ENDBRANCH  23  24
ENDBRANCH  22  23
ENDBRANCH  21  22
ENDBRANCH  20  21
ENDBRANCH  19  20
ENDBRANCH  18  19
ENDBRANCH  17  18
ENDBRANCH   1  17
TORSDOF 26
ENDMDL
MODEL 7
REMARK VINA RESULT:    -0.777      5.878     14.123
REMARK INTER + INTRA:          -3.262
REMARK INTER:                  -2.513
REMARK INTRA:                  -0.749
REMARK UNBOUND:                -1.302
REMARK SMILES CCCCCCCCCCCCCCCCCCCCCCCCCCCC(=O)[O-]
REMARK SMILES IDX 15 1 16 2 17 3 18 4 19 5 20 6 21 7 22 8 23 9 24 10 25 11
REMARK SMILES IDX 26 12 27 13 28 14 29 15 30 16 14 17 13 18 12 19 11 20 10 21
REMARK SMILES IDX 9 22 8 23 7 24 6 25 5 26 4 27 3 28 2 29 1 30
REMARK H PARENT
REMARK Flexibility Score: inf
ROOT
ATOM      1  C   UNL     1      32.612  25.218  69.870  1.00  0.00     0.000 C 
ENDROOT
BRANCH   1   2
ATOM      2  C   UNL     1      31.819  23.935  69.565  1.00  0.00     0.000 C 
BRANCH   2   3
ATOM      3  C   UNL     1      31.254  23.906  68.132  1.00  0.00     0.000 C 
BRANCH   3   4
ATOM      4  C   UNL     1      31.940  24.866  67.141  1.00  0.00     0.000 C 
BRANCH   4   5
ATOM      5  C   UNL     1      32.158  24.240  65.753  1.00  0.00     0.000 C 
BRANCH   5   6
ATOM      6  C   UNL     1      32.477  25.282  64.669  1.00  0.00     0.000 C 
BRANCH   6   7
ATOM      7  C   UNL     1      32.497  24.676  63.256  1.00  0.00     0.000 C 
BRANCH   7   8
ATOM      8  C   UNL     1      31.093  24.313  62.739  1.00  0.00     0.000 C 
BRANCH   8   9
ATOM      9  C   UNL     1      29.950  25.182  63.297  1.00  0.00     0.000 C 
BRANCH   9  10
ATOM     10  C   UNL     1      28.734  25.244  62.356  1.00  0.00     0.000 C 
BRANCH  10  11
ATOM     11  C   UNL     1      28.061  23.875  62.166  1.00  0.00     0.000 C 
BRANCH  11  12
ATOM     12  C   UNL     1      26.542  23.986  61.969  1.00  0.00     0.006 C 
BRANCH  12  13
ATOM     13  C   UNL     1      26.115  25.450  61.814  1.00  0.00     0.053 C 
BRANCH  13  14
ATOM     14  C   UNL     1      24.742  25.552  61.223  1.00  0.00     0.041 C 
ATOM     15  O   UNL     1      24.475  26.457  60.388  1.00  0.00    -0.550 OA
ATOM     16  O   UNL     1      23.766  24.624  61.570  1.00  0.00    -0.550 OA
ENDBRANCH  13  14
ENDBRANCH  12  13
ENDBRANCH  11  12
ENDBRANCH  10  11
ENDBRANCH   9  10
ENDBRANCH   8   9
ENDBRANCH   7   8
ENDBRANCH   6   7
ENDBRANCH   5   6
ENDBRANCH   4   5
ENDBRANCH   3   4
ENDBRANCH   2   3
ENDBRANCH   1   2
BRANCH   1  17
ATOM     17  C   UNL     1      33.991  25.241  69.192  1.00  0.00     0.000 C 
BRANCH  17  18
ATOM     18  C   UNL     1      34.715  23.885  69.262  1.00  0.00     0.000 C 
BRANCH  18  19
ATOM     19  C   UNL     1      36.093  23.911  68.576  1.00  0.00     0.000 C 
BRANCH  19  20
ATOM     20  C   UNL     1      37.303  24.025  69.528  1.00  0.00     0.000 C 
BRANCH  20  21
ATOM     21  C   UNL     1      38.379  25.039  69.098  1.00  0.00     0.000 C 
BRANCH  21  22
ATOM     22  C   UNL     1      39.661  25.027  69.953  1.00  0.00    -0.000 C 
BRANCH  22  23
ATOM     23  C   UNL     1      39.585  24.092  71.178  1.00  0.00    -0.000 C 
BRANCH  23  24
ATOM     24  C   UNL     1      40.247  24.700  72.428  1.00  0.00    -0.000 C 
BRANCH  24  25
ATOM     25  C   UNL     1      39.392  24.521  73.693  1.00  0.00    -0.000 C 
BRANCH  25  26
ATOM     26  C   UNL     1      39.899  25.369  74.873  1.00  0.00    -0.000 C 
BRANCH  26  27
ATOM     27  C   UNL     1      39.492  26.847  74.752  1.00  0.00    -0.000 C 
BRANCH  27  28
ATOM     28  C   UNL     1      40.183  27.734  75.802  1.00  0.00    -0.000 C 
BRANCH  28  29
ATOM     29  C   UNL     1      39.200  28.662  76.532  1.00  0.00    -0.003 C 
ATOM     30  C   UNL     1      39.862  29.940  77.047  1.00  0.00     0.004 C 
ENDBRANCH  28  29
ENDBRANCH  27  28
ENDBRANCH  26  27
ENDBRANCH  25  26
ENDBRANCH  24  25
ENDBRANCH  23  24
ENDBRANCH  22  23
ENDBRANCH  21  22
ENDBRANCH  20  21
ENDBRANCH  19  20
ENDBRANCH  18  19
ENDBRANCH  17  18
ENDBRANCH   1  17
TORSDOF 26
ENDMDL
MODEL 8
REMARK VINA RESULT:    -0.634      4.094      7.193
REMARK INTER + INTRA:          -2.901
REMARK INTER:                  -4.036
REMARK INTRA:                   1.135
REMARK UNBOUND:                -1.302
REMARK SMILES CCCCCCCCCCCCCCCCCCCCCCCCCCCC(=O)[O-]
REMARK SMILES IDX 15 1 16 2 17 3 18 4 19 5 20 6 21 7 22 8 23 9 24 10 25 11
REMARK SMILES IDX 26 12 27 13 28 14 29 15 30 16 14 17 13 18 12 19 11 20 10 21
REMARK SMILES IDX 9 22 8 23 7 24 6 25 5 26 4 27 3 28 2 29 1 30
REMARK H PARENT
REMARK Flexibility Score: inf
ROOT
ATOM      1  C   UNL     1      32.648  24.127  67.245  1.00  0.00     0.000 C 
ENDROOT
BRANCH   1   2
ATOM      2  C   UNL     1      32.614  24.088  68.783  1.00  0.00     0.000 C 
BRANCH   2   3
ATOM      3  C   UNL     1      31.718  25.182  69.392  1.00  0.00     0.000 C 
BRANCH   3   4
ATOM      4  C   UNL     1      32.313  25.907  70.615  1.00  0.00     0.000 C 
BRANCH   4   5
ATOM      5  C   UNL     1      33.286  27.035  70.228  1.00  0.00     0.000 C 
BRANCH   5   6
ATOM      6  C   UNL     1      34.568  27.037  71.077  1.00  0.00     0.000 C 
BRANCH   6   7
ATOM      7  C   UNL     1      35.086  25.618  71.366  1.00  0.00     0.000 C 
BRANCH   7   8
ATOM      8  C   UNL     1      34.825  24.638  70.207  1.00  0.00     0.000 C 
BRANCH   8   9
ATOM      9  C   UNL     1      36.072  23.899  69.686  1.00  0.00     0.000 C 
BRANCH   9  10
ATOM     10  C   UNL     1      37.359  24.734  69.818  1.00  0.00     0.000 C 
BRANCH  10  11
ATOM     11  C   UNL     1      38.591  23.875  70.143  1.00  0.00     0.000 C 
BRANCH  11  12
ATOM     12  C   UNL     1      39.849  24.720  70.396  1.00  0.00     0.006 C 
BRANCH  12  13
ATOM     13  C   UNL     1      40.490  24.359  71.741  1.00  0.00     0.053 C 
BRANCH  13  14
ATOM     14  C   UNL     1      39.552  24.637  72.876  1.00  0.00     0.041 C 
ATOM     15  O   UNL     1      38.335  24.324  72.787  1.00  0.00    -0.550 OA
ATOM     16  O   UNL     1      40.032  25.211  74.048  1.00  0.00    -0.550 OA
ENDBRANCH  13  14
ENDBRANCH  12  13
ENDBRANCH  11  12
ENDBRANCH  10  11
ENDBRANCH   9  10
ENDBRANCH   8   9
ENDBRANCH   7   8
ENDBRANCH   6   7
ENDBRANCH   5   6
ENDBRANCH   4   5
ENDBRANCH   3   4
ENDBRANCH   2   3
ENDBRANCH   1   2
BRANCH   1  17
ATOM     17  C   UNL     1      31.247  24.044  66.617  1.00  0.00     0.000 C 
BRANCH  17  18
ATOM     18  C   UNL     1      31.005  25.125  65.550  1.00  0.00     0.000 C 
BRANCH  18  19
ATOM     19  C   UNL     1      30.375  24.560  64.263  1.00  0.00     0.000 C 
BRANCH  19  20
ATOM     20  C   UNL     1      30.471  25.476  63.024  1.00  0.00     0.000 C 
BRANCH  20  21
ATOM     21  C   UNL     1      31.669  25.198  62.098  1.00  0.00     0.000 C 
BRANCH  21  22
ATOM     22  C   UNL     1      33.001  24.924  62.822  1.00  0.00    -0.000 C 
BRANCH  22  23
ATOM     23  C   UNL     1      33.975  24.034  62.021  1.00  0.00    -0.000 C 
BRANCH  23  24
ATOM     24  C   UNL     1      34.315  24.623  60.640  1.00  0.00    -0.000 C 
BRANCH  24  25
ATOM     25  C   UNL     1      35.526  23.936  59.989  1.00  0.00    -0.000 C 
BRANCH  25  26
ATOM     26  C   UNL     1      36.399  24.916  59.184  1.00  0.00    -0.000 C 
BRANCH  26  27
ATOM     27  C   UNL     1      37.757  25.179  59.856  1.00  0.00    -0.000 C 
BRANCH  27  28
ATOM     28  C   UNL     1      38.942  24.839  58.934  1.00  0.00    -0.000 C 
BRANCH  28  29
ATOM     29  C   UNL     1      39.928  26.007  58.785  1.00  0.00    -0.003 C 
ATOM     30  C   UNL     1      41.110  25.673  57.875  1.00  0.00     0.004 C 
ENDBRANCH  28  29
ENDBRANCH  27  28
ENDBRANCH  26  27
ENDBRANCH  25  26
ENDBRANCH  24  25
ENDBRANCH  23  24
ENDBRANCH  22  23
ENDBRANCH  21  22
ENDBRANCH  20  21
ENDBRANCH  19  20
ENDBRANCH  18  19
ENDBRANCH  17  18
ENDBRANCH   1  17
TORSDOF 26
ENDMDL
