MODEL 1
REMARK VINA RESULT:    -3.494      0.000      0.000
REMARK INTER + INTRA:          -3.830
REMARK INTER:                  -3.800
REMARK INTRA:                  -0.029
REMARK UNBOUND:                -0.029
REMARK SMILES O=C([O-])c1ccc(O)cc1
REMARK SMILES IDX 4 1 5 2 10 3 6 4 9 5 7 6 2 7 1 8 3 9 8 10
REMARK H PARENT 8 11
REMARK Flexibility Score: inf
ROOT
ATOM      1  C   UNL     1       4.676   2.261 -16.935  1.00  0.00    -0.003 A 
ATOM      2  C   UNL     1       5.846   2.970 -17.264  1.00  0.00     0.014 A 
ATOM      3  C   UNL     1       4.321   2.125 -15.581  1.00  0.00     0.014 A 
ATOM      4  C   UNL     1       6.643   3.528 -16.260  1.00  0.00     0.047 A 
ATOM      5  C   UNL     1       5.120   2.685 -14.579  1.00  0.00     0.047 A 
ATOM      6  C   UNL     1       6.281   3.387 -14.914  1.00  0.00     0.115 A 
ENDROOT
BRANCH   1   7
ATOM      7  C   UNL     1       3.829   1.668 -17.993  1.00  0.00     0.071 C 
ATOM      8  O   UNL     1       3.356   2.387 -18.913  1.00  0.00    -0.545 OA
ATOM      9  O   UNL     1       3.544   0.307 -17.986  1.00  0.00    -0.545 OA
ENDBRANCH   1   7
BRANCH   6  10
ATOM     10  O   UNL     1       7.067   3.940 -13.905  1.00  0.00    -0.508 OA
ATOM     11  H   UNL     1       6.666   4.229 -13.021  1.00  0.00     0.293 HD
ENDBRANCH   6  10
TORSDOF 2
ENDMDL
MODEL 2
REMARK VINA RESULT:    -3.482      1.657      4.416
REMARK INTER + INTRA:          -3.817
REMARK INTER:                  -3.781
REMARK INTRA:                  -0.036
REMARK UNBOUND:                -0.029
REMARK SMILES O=C([O-])c1ccc(O)cc1
REMARK SMILES IDX 4 1 5 2 10 3 6 4 9 5 7 6 2 7 1 8 3 9 8 10
REMARK H PARENT 8 11
REMARK Flexibility Score: inf
ROOT
ATOM      1  C   UNL     1       4.817   2.044 -16.583  1.00  0.00    -0.003 A 
ATOM      2  C   UNL     1       3.946   1.061 -17.086  1.00  0.00     0.014 A 
ATOM      3  C   UNL     1       5.029   3.215 -17.332  1.00  0.00     0.014 A 
ATOM      4  C   UNL     1       3.302   1.246 -18.313  1.00  0.00     0.047 A 
ATOM      5  C   UNL     1       4.383   3.398 -18.559  1.00  0.00     0.047 A 
ATOM      6  C   UNL     1       3.519   2.416 -19.053  1.00  0.00     0.115 A 
ENDROOT
BRANCH   1   7
ATOM      7  C   UNL     1       5.502   1.853 -15.284  1.00  0.00     0.071 C 
ATOM      8  O   UNL     1       5.485   0.733 -14.710  1.00  0.00    -0.545 OA
ATOM      9  O   UNL     1       6.174   2.910 -14.681  1.00  0.00    -0.545 OA
ENDBRANCH   1   7
BRANCH   6  10
ATOM     10  O   UNL     1       2.882   2.612 -20.276  1.00  0.00    -0.508 OA
ATOM     11  H   UNL     1       2.787   3.536 -20.681  1.00  0.00     0.293 HD
ENDBRANCH   6  10
TORSDOF 2
ENDMDL
MODEL 3
REMARK VINA RESULT:    -3.256      1.442      4.387
REMARK INTER + INTRA:          -3.571
REMARK INTER:                  -3.544
REMARK INTRA:                  -0.027
REMARK UNBOUND:                -0.029
REMARK SMILES O=C([O-])c1ccc(O)cc1
REMARK SMILES IDX 4 1 5 2 10 3 6 4 9 5 7 6 2 7 1 8 3 9 8 10
REMARK H PARENT 8 11
REMARK Flexibility Score: inf
ROOT
ATOM      1  C   UNL     1       5.070   2.437 -16.493  1.00  0.00    -0.003 A 
ATOM      2  C   UNL     1       5.078   1.083 -16.113  1.00  0.00     0.014 A 
ATOM      3  C   UNL     1       4.333   2.822 -17.628  1.00  0.00     0.014 A 
ATOM      4  C   UNL     1       4.364   0.135 -16.853  1.00  0.00     0.047 A 
ATOM      5  C   UNL     1       3.620   1.873 -18.366  1.00  0.00     0.047 A 
ATOM      6  C   UNL     1       3.633   0.528 -17.982  1.00  0.00     0.115 A 
ENDROOT
BRANCH   1   7
ATOM      7  C   UNL     1       5.824   3.445 -15.714  1.00  0.00     0.071 C 
ATOM      8  O   UNL     1       6.955   3.840 -16.102  1.00  0.00    -0.545 OA
ATOM      9  O   UNL     1       5.292   3.968 -14.541  1.00  0.00    -0.545 OA
ENDBRANCH   1   7
BRANCH   6  10
ATOM     10  O   UNL     1       2.918  -0.407 -18.726  1.00  0.00    -0.508 OA
ATOM     11  H   UNL     1       2.211  -0.995 -18.299  1.00  0.00     0.293 HD
ENDBRANCH   6  10
TORSDOF 2
ENDMDL
MODEL 4
REMARK VINA RESULT:    -3.095      1.559      4.329
REMARK INTER + INTRA:          -3.396
REMARK INTER:                  -3.368
REMARK INTRA:                  -0.028
REMARK UNBOUND:                -0.029
REMARK SMILES O=C([O-])c1ccc(O)cc1
REMARK SMILES IDX 4 1 5 2 10 3 6 4 9 5 7 6 2 7 1 8 3 9 8 10
REMARK H PARENT 8 11
REMARK Flexibility Score: inf
ROOT
ATOM      1  C   UNL     1       4.477   2.239 -15.710  1.00  0.00    -0.003 A 
ATOM      2  C   UNL     1       3.783   2.719 -16.836  1.00  0.00     0.014 A 
ATOM      3  C   UNL     1       4.788   0.870 -15.633  1.00  0.00     0.014 A 
ATOM      4  C   UNL     1       3.409   1.847 -17.862  1.00  0.00     0.047 A 
ATOM      5  C   UNL     1       4.413  -0.000 -16.661  1.00  0.00     0.047 A 
ATOM      6  C   UNL     1       3.724   0.484 -17.777  1.00  0.00     0.115 A 
ENDROOT
BRANCH   1   7
ATOM      7  C   UNL     1       4.875   3.159 -14.620  1.00  0.00     0.071 C 
ATOM      8  O   UNL     1       4.007   3.685 -13.875  1.00  0.00    -0.545 OA
ATOM      9  O   UNL     1       6.217   3.455 -14.405  1.00  0.00    -0.545 OA
ENDBRANCH   1   7
BRANCH   6  10
ATOM     10  O   UNL     1       3.356  -0.395 -18.794  1.00  0.00    -0.508 OA
ATOM     11  H   UNL     1       2.385  -0.532 -19.049  1.00  0.00     0.293 HD
ENDBRANCH   6  10
TORSDOF 2
ENDMDL
MODEL 5
REMARK VINA RESULT:    -2.671      3.065      3.747
REMARK INTER + INTRA:          -2.934
REMARK INTER:                  -2.898
REMARK INTRA:                  -0.036
REMARK UNBOUND:                -0.029
REMARK SMILES O=C([O-])c1ccc(O)cc1
REMARK SMILES IDX 4 1 5 2 10 3 6 4 9 5 7 6 2 7 1 8 3 9 8 10
REMARK H PARENT 8 11
REMARK Flexibility Score: inf
ROOT
ATOM      1  C   UNL     1       2.994   0.680 -19.227  1.00  0.00    -0.003 A 
ATOM      2  C   UNL     1       2.879   2.082 -19.206  1.00  0.00     0.014 A 
ATOM      3  C   UNL     1       3.185  -0.007 -18.015  1.00  0.00     0.014 A 
ATOM      4  C   UNL     1       2.956   2.780 -17.997  1.00  0.00     0.047 A 
ATOM      5  C   UNL     1       3.261   0.695 -16.807  1.00  0.00     0.047 A 
ATOM      6  C   UNL     1       3.147   2.088 -16.794  1.00  0.00     0.115 A 
ENDROOT
BRANCH   1   7
ATOM      7  C   UNL     1       2.913  -0.065 -20.504  1.00  0.00     0.071 C 
ATOM      8  O   UNL     1       2.875  -1.324 -20.510  1.00  0.00    -0.545 OA
ATOM      9  O   UNL     1       2.879   0.617 -21.715  1.00  0.00    -0.545 OA
ENDBRANCH   1   7
BRANCH   6  10
ATOM     10  O   UNL     1       3.224   2.773 -15.584  1.00  0.00    -0.508 OA
ATOM     11  H   UNL     1       2.913   3.734 -15.499  1.00  0.00     0.293 HD
ENDBRANCH   6  10
TORSDOF 2
ENDMDL
MODEL 6
REMARK VINA RESULT:    -2.629      1.883      2.704
REMARK INTER + INTRA:          -2.889
REMARK INTER:                  -2.853
REMARK INTRA:                  -0.036
REMARK UNBOUND:                -0.029
REMARK SMILES O=C([O-])c1ccc(O)cc1
REMARK SMILES IDX 4 1 5 2 10 3 6 4 9 5 7 6 2 7 1 8 3 9 8 10
REMARK H PARENT 8 11
REMARK Flexibility Score: inf
ROOT
ATOM      1  C   UNL     1       3.460   1.536 -18.256  1.00  0.00    -0.003 A 
ATOM      2  C   UNL     1       3.807   0.741 -17.149  1.00  0.00     0.014 A 
ATOM      3  C   UNL     1       3.501   2.936 -18.129  1.00  0.00     0.014 A 
ATOM      4  C   UNL     1       4.185   1.335 -15.941  1.00  0.00     0.047 A 
ATOM      5  C   UNL     1       3.880   3.527 -16.920  1.00  0.00     0.047 A 
ATOM      6  C   UNL     1       4.223   2.731 -15.824  1.00  0.00     0.115 A 
ENDROOT
BRANCH   1   7
ATOM      7  C   UNL     1       3.058   0.912 -19.537  1.00  0.00     0.071 C 
ATOM      8  O   UNL     1       2.878  -0.331 -19.616  1.00  0.00    -0.545 OA
ATOM      9  O   UNL     1       2.875   1.694 -20.672  1.00  0.00    -0.545 OA
ENDBRANCH   1   7
BRANCH   6  10
ATOM     10  O   UNL     1       4.599   3.334 -14.626  1.00  0.00    -0.508 OA
ATOM     11  H   UNL     1       3.988   3.331 -13.817  1.00  0.00     0.293 HD
ENDBRANCH   6  10
TORSDOF 2
ENDMDL
MODEL 7
REMARK VINA RESULT:    -2.277      3.073      5.489
REMARK INTER + INTRA:          -2.506
REMARK INTER:                  -2.471
REMARK INTRA:                  -0.036
REMARK UNBOUND:                -0.029
REMARK SMILES O=C([O-])c1ccc(O)cc1
REMARK SMILES IDX 4 1 5 2 10 3 6 4 9 5 7 6 2 7 1 8 3 9 8 10
REMARK H PARENT 8 11
REMARK Flexibility Score: inf
ROOT
ATOM      1  C   UNL     1       3.040   1.364 -18.350  1.00  0.00    -0.003 A 
ATOM      2  C   UNL     1       3.087  -0.028 -18.550  1.00  0.00     0.014 A 
ATOM      3  C   UNL     1       2.937   2.210 -19.469  1.00  0.00     0.014 A 
ATOM      4  C   UNL     1       3.033  -0.560 -19.842  1.00  0.00     0.047 A 
ATOM      5  C   UNL     1       2.883   1.675 -20.760  1.00  0.00     0.047 A 
ATOM      6  C   UNL     1       2.930   0.291 -20.951  1.00  0.00     0.115 A 
ENDROOT
BRANCH   1   7
ATOM      7  C   UNL     1       3.097   1.933 -16.985  1.00  0.00     0.071 C 
ATOM      8  O   UNL     1       2.924   3.166 -16.797  1.00  0.00    -0.545 OA
ATOM      9  O   UNL     1       3.344   1.112 -15.891  1.00  0.00    -0.545 OA
ENDBRANCH   1   7
BRANCH   6  10
ATOM     10  O   UNL     1       2.875  -0.229 -22.242  1.00  0.00    -0.508 OA
ATOM     11  H   UNL     1       2.834   0.376 -23.054  1.00  0.00     0.293 HD
ENDBRANCH   6  10
TORSDOF 2
ENDMDL
