MODEL 1
REMARK VINA RESULT:    -3.528      0.000      0.000
REMARK INTER + INTRA:          -5.229
REMARK INTER:                  -4.972
REMARK INTRA:                  -0.257
REMARK UNBOUND:                -0.257
REMARK SMILES C=CCCCCCCC(=O)[O-]
REMARK SMILES IDX 6 1 7 2 8 3 9 4 10 5 11 6 5 7 4 8 3 9 2 10 1 11
REMARK H PARENT
REMARK Flexibility Score: inf
ROOT
ATOM      1  C   UNL     1      45.852 -25.255  -2.839  1.00  0.00     0.000 C 
ENDROOT
BRANCH   1   2
ATOM      2  C   UNL     1      46.125 -24.380  -4.072  1.00  0.00     0.006 C 
BRANCH   2   3
ATOM      3  C   UNL     1      45.501 -24.951  -5.351  1.00  0.00     0.053 C 
BRANCH   3   4
ATOM      4  C   UNL     1      45.750 -24.036  -6.509  1.00  0.00     0.041 C 
ATOM      5  O   UNL     1      46.078 -24.507  -7.630  1.00  0.00    -0.550 OA
ATOM      6  O   UNL     1      45.571 -22.666  -6.363  1.00  0.00    -0.550 OA
ENDBRANCH   3   4
ENDBRANCH   2   3
ENDBRANCH   1   2
BRANCH   1   7
ATOM      7  C   UNL     1      45.032 -24.525  -1.765  1.00  0.00     0.000 C 
BRANCH   7   8
ATOM      8  C   UNL     1      45.914 -23.563  -0.959  1.00  0.00     0.004 C 
BRANCH   8   9
ATOM      9  C   UNL     1      45.860 -23.890   0.538  1.00  0.00     0.027 C 
BRANCH   9  10
ATOM     10  C   UNL     1      45.807 -25.375   0.770  1.00  0.00    -0.035 C 
ATOM     11  C   UNL     1      45.472 -25.889   1.957  1.00  0.00     0.004 C 
ENDBRANCH   9  10
ENDBRANCH   8   9
ENDBRANCH   7   8
ENDBRANCH   1   7
TORSDOF 7
ENDMDL
MODEL 2
REMARK VINA RESULT:    -3.214      5.272      7.268
REMARK INTER + INTRA:          -4.787
REMARK INTER:                  -4.501
REMARK INTRA:                  -0.286
REMARK UNBOUND:                -0.257
REMARK SMILES C=CCCCCCCC(=O)[O-]
REMARK SMILES IDX 6 1 7 2 8 3 9 4 10 5 11 6 5 7 4 8 3 9 2 10 1 11
REMARK H PARENT
REMARK Flexibility Score: inf
ROOT
ATOM      1  C   UNL     1      45.086 -26.006   1.470  1.00  0.00     0.000 C 
ENDROOT
BRANCH   1   2
ATOM      2  C   UNL     1      45.752 -27.045   2.385  1.00  0.00     0.006 C 
BRANCH   2   3
ATOM      3  C   UNL     1      46.124 -28.335   1.643  1.00  0.00     0.053 C 
BRANCH   3   4
ATOM      4  C   UNL     1      46.052 -29.510   2.567  1.00  0.00     0.041 C 
ATOM      5  O   UNL     1      46.125 -29.341   3.813  1.00  0.00    -0.550 OA
ATOM      6  O   UNL     1      45.853 -30.785   2.055  1.00  0.00    -0.550 OA
ENDBRANCH   3   4
ENDBRANCH   2   3
ENDBRANCH   1   2
BRANCH   1   7
ATOM      7  C   UNL     1      46.106 -25.123   0.736  1.00  0.00     0.000 C 
BRANCH   7   8
ATOM      8  C   UNL     1      45.477 -23.789   0.318  1.00  0.00     0.004 C 
BRANCH   8   9
ATOM      9  C   UNL     1      45.520 -23.612  -1.204  1.00  0.00     0.027 C 
BRANCH   9  10
ATOM     10  C   UNL     1      45.932 -24.886  -1.889  1.00  0.00    -0.035 C 
ATOM     11  C   UNL     1      45.927 -25.003  -3.220  1.00  0.00     0.004 C 
ENDBRANCH   9  10
ENDBRANCH   8   9
ENDBRANCH   7   8
ENDBRANCH   1   7
TORSDOF 7
ENDMDL
MODEL 3
REMARK VINA RESULT:    -2.982      4.573      6.936
REMARK INTER + INTRA:          -4.459
REMARK INTER:                  -4.292
REMARK INTRA:                  -0.167
REMARK UNBOUND:                -0.257
REMARK SMILES C=CCCCCCCC(=O)[O-]
REMARK SMILES IDX 6 1 7 2 8 3 9 4 10 5 11 6 5 7 4 8 3 9 2 10 1 11
REMARK H PARENT
REMARK Flexibility Score: inf
ROOT
ATOM      1  C   UNL     1      45.493 -24.398   0.198  1.00  0.00     0.000 C 
ENDROOT
BRANCH   1   2
ATOM      2  C   UNL     1      46.078 -25.713   0.737  1.00  0.00     0.006 C 
BRANCH   2   3
ATOM      3  C   UNL     1      45.386 -26.184   2.022  1.00  0.00     0.053 C 
BRANCH   3   4
ATOM      4  C   UNL     1      45.852 -27.557   2.394  1.00  0.00     0.041 C 
ATOM      5  O   UNL     1      46.089 -28.409   1.497  1.00  0.00    -0.550 OA
ATOM      6  O   UNL     1      46.074 -27.879   3.726  1.00  0.00    -0.550 OA
ENDBRANCH   3   4
ENDBRANCH   2   3
ENDBRANCH   1   2
BRANCH   1   7
ATOM      7  C   UNL     1      46.080 -24.004  -1.166  1.00  0.00     0.000 C 
BRANCH   7   8
ATOM      8  C   UNL     1      45.403 -24.783  -2.300  1.00  0.00     0.004 C 
BRANCH   8   9
ATOM      9  C   UNL     1      46.125 -24.553  -3.633  1.00  0.00     0.027 C 
BRANCH   9  10
ATOM     10  C   UNL     1      45.392 -25.209  -4.771  1.00  0.00    -0.035 C 
ATOM     11  C   UNL     1      45.407 -24.697  -6.005  1.00  0.00     0.004 C 
ENDBRANCH   9  10
ENDBRANCH   8   9
ENDBRANCH   7   8
ENDBRANCH   1   7
TORSDOF 7
ENDMDL
MODEL 4
REMARK VINA RESULT:    -2.849      2.080      3.267
REMARK INTER + INTRA:          -4.272
REMARK INTER:                  -3.996
REMARK INTRA:                  -0.276
REMARK UNBOUND:                -0.257
REMARK SMILES C=CCCCCCCC(=O)[O-]
REMARK SMILES IDX 6 1 7 2 8 3 9 4 10 5 11 6 5 7 4 8 3 9 2 10 1 11
REMARK H PARENT
REMARK Flexibility Score: inf
ROOT
ATOM      1  C   UNL     1      45.461 -23.777  -0.098  1.00  0.00     0.000 C 
ENDROOT
BRANCH   1   2
ATOM      2  C   UNL     1      46.101 -24.658  -1.183  1.00  0.00     0.006 C 
BRANCH   2   3
ATOM      3  C   UNL     1      46.121 -23.979  -2.559  1.00  0.00     0.053 C 
BRANCH   3   4
ATOM      4  C   UNL     1      45.370 -24.801  -3.559  1.00  0.00     0.041 C 
ATOM      5  O   UNL     1      45.542 -24.611  -4.792  1.00  0.00    -0.550 OA
ATOM      6  O   UNL     1      44.520 -25.812  -3.130  1.00  0.00    -0.550 OA
ENDBRANCH   3   4
ENDBRANCH   2   3
ENDBRANCH   1   2
BRANCH   1   7
ATOM      7  C   UNL     1      45.574 -24.391   1.305  1.00  0.00     0.000 C 
BRANCH   7   8
ATOM      8  C   UNL     1      45.598 -25.923   1.234  1.00  0.00     0.004 C 
BRANCH   8   9
ATOM      9  C   UNL     1      45.025 -26.543   2.514  1.00  0.00     0.027 C 
BRANCH   9  10
ATOM     10  C   UNL     1      46.121 -27.040   3.416  1.00  0.00    -0.035 C 
ATOM     11  C   UNL     1      46.084 -26.851   4.738  1.00  0.00     0.004 C 
ENDBRANCH   9  10
ENDBRANCH   8   9
ENDBRANCH   7   8
ENDBRANCH   1   7
TORSDOF 7
ENDMDL
MODEL 5
REMARK VINA RESULT:    -2.630      2.825      4.831
REMARK INTER + INTRA:          -3.964
REMARK INTER:                  -3.750
REMARK INTRA:                  -0.214
REMARK UNBOUND:                -0.257
REMARK SMILES C=CCCCCCCC(=O)[O-]
REMARK SMILES IDX 6 1 7 2 8 3 9 4 10 5 11 6 5 7 4 8 3 9 2 10 1 11
REMARK H PARENT
REMARK Flexibility Score: inf
ROOT
ATOM      1  C   UNL     1      45.851 -25.693   1.599  1.00  0.00     0.000 C 
ENDROOT
BRANCH   1   2
ATOM      2  C   UNL     1      45.832 -25.749   0.064  1.00  0.00     0.006 C 
BRANCH   2   3
ATOM      3  C   UNL     1      45.206 -24.497  -0.566  1.00  0.00     0.053 C 
BRANCH   3   4
ATOM      4  C   UNL     1      45.300 -24.559  -2.058  1.00  0.00     0.041 C 
ATOM      5  O   UNL     1      46.125 -23.831  -2.671  1.00  0.00    -0.550 OA
ATOM      6  O   UNL     1      44.514 -25.457  -2.767  1.00  0.00    -0.550 OA
ENDBRANCH   3   4
ENDBRANCH   2   3
ENDBRANCH   1   2
BRANCH   1   7
ATOM      7  C   UNL     1      45.122 -26.881   2.244  1.00  0.00     0.000 C 
BRANCH   7   8
ATOM      8  C   UNL     1      46.122 -27.893   2.817  1.00  0.00     0.004 C 
BRANCH   8   9
ATOM      9  C   UNL     1      45.908 -28.086   4.323  1.00  0.00     0.027 C 
BRANCH   9  10
ATOM     10  C   UNL     1      45.934 -26.769   5.050  1.00  0.00    -0.035 C 
ATOM     11  C   UNL     1      46.124 -26.699   6.370  1.00  0.00     0.004 C 
ENDBRANCH   9  10
ENDBRANCH   8   9
ENDBRANCH   7   8
ENDBRANCH   1   7
TORSDOF 7
ENDMDL
MODEL 6
REMARK VINA RESULT:    -2.473      3.579      6.472
REMARK INTER + INTRA:          -3.741
REMARK INTER:                  -3.490
REMARK INTRA:                  -0.251
REMARK UNBOUND:                -0.257
REMARK SMILES C=CCCCCCCC(=O)[O-]
REMARK SMILES IDX 6 1 7 2 8 3 9 4 10 5 11 6 5 7 4 8 3 9 2 10 1 11
REMARK H PARENT
REMARK Flexibility Score: inf
ROOT
ATOM      1  C   UNL     1      45.960 -25.631  -3.127  1.00  0.00     0.000 C 
ENDROOT
BRANCH   1   2
ATOM      2  C   UNL     1      46.125 -24.537  -2.061  1.00  0.00     0.006 C 
BRANCH   2   3
ATOM      3  C   UNL     1      44.929 -24.461  -1.103  1.00  0.00     0.053 C 
BRANCH   3   4
ATOM      4  C   UNL     1      45.381 -24.643   0.313  1.00  0.00     0.041 C 
ATOM      5  O   UNL     1      45.797 -23.657   0.976  1.00  0.00    -0.550 OA
ATOM      6  O   UNL     1      45.294 -25.891   0.915  1.00  0.00    -0.550 OA
ENDBRANCH   3   4
ENDBRANCH   2   3
ENDBRANCH   1   2
BRANCH   1   7
ATOM      7  C   UNL     1      44.983 -25.230  -4.241  1.00  0.00     0.000 C 
BRANCH   7   8
ATOM      8  C   UNL     1      45.718 -25.035  -5.573  1.00  0.00     0.004 C 
BRANCH   8   9
ATOM      9  C   UNL     1      45.665 -23.569  -6.021  1.00  0.00     0.027 C 
BRANCH   9  10
ATOM     10  C   UNL     1      46.125 -23.417  -7.445  1.00  0.00    -0.035 C 
ATOM     11  C   UNL     1      46.099 -24.439  -8.305  1.00  0.00     0.004 C 
ENDBRANCH   9  10
ENDBRANCH   8   9
ENDBRANCH   7   8
ENDBRANCH   1   7
TORSDOF 7
ENDMDL
MODEL 7
REMARK VINA RESULT:    -1.013      5.799      7.983
REMARK INTER + INTRA:          -1.685
REMARK INTER:                  -2.168
REMARK INTRA:                   0.483
REMARK UNBOUND:                -0.257
REMARK SMILES C=CCCCCCCC(=O)[O-]
REMARK SMILES IDX 6 1 7 2 8 3 9 4 10 5 11 6 5 7 4 8 3 9 2 10 1 11
REMARK H PARENT
REMARK Flexibility Score: inf
ROOT
ATOM      1  C   UNL     1      45.163 -27.454   1.732  1.00  0.00     0.000 C 
ENDROOT
BRANCH   1   2
ATOM      2  C   UNL     1      46.121 -28.634   1.956  1.00  0.00     0.006 C 
BRANCH   2   3
ATOM      3  C   UNL     1      45.692 -29.530   3.125  1.00  0.00     0.053 C 
BRANCH   3   4
ATOM      4  C   UNL     1      45.884 -28.819   4.427  1.00  0.00     0.041 C 
ATOM      5  O   UNL     1      46.122 -29.473   5.477  1.00  0.00    -0.550 OA
ATOM      6  O   UNL     1      45.851 -27.432   4.474  1.00  0.00    -0.550 OA
ENDBRANCH   3   4
ENDBRANCH   2   3
ENDBRANCH   1   2
BRANCH   1   7
ATOM      7  C   UNL     1      45.895 -26.108   1.630  1.00  0.00     0.000 C 
BRANCH   7   8
ATOM      8  C   UNL     1      45.650 -25.452   0.266  1.00  0.00     0.004 C 
BRANCH   8   9
ATOM      9  C   UNL     1      45.063 -24.045   0.430  1.00  0.00     0.027 C 
BRANCH   9  10
ATOM     10  C   UNL     1      45.923 -23.013  -0.247  1.00  0.00    -0.035 C 
ATOM     11  C   UNL     1      46.112 -23.012  -1.569  1.00  0.00     0.004 C 
ENDBRANCH   9  10
ENDBRANCH   8   9
ENDBRANCH   7   8
ENDBRANCH   1   7
TORSDOF 7
ENDMDL
