MODEL 1
REMARK VINA RESULT:    -7.299      0.000      0.000
REMARK INTER + INTRA:         -11.440
REMARK INTER:                  -9.645
REMARK INTRA:                  -1.795
REMARK UNBOUND:                -1.795
REMARK SMILES C=C(CC[C@H](C)[C@H]1CC[C@@]2(C)[C@@H]3CC[C@H]4C(C)(C)[C@@H](O)CC[C@@]45C[C@@]35CC[C@]12C)C(C)C
REMARK SMILES IDX 4 1 3 2 2 3 1 4 30 5 31 6 32 7 5 8 6 9 7 10 8 11 28 12 9 13
REMARK SMILES IDX 10 14 27 15 29 16 11 17 12 18 26 19 25 20 13 21 23 22 24 23
REMARK SMILES IDX 14 24 15 25 22 26 16 27 21 28 19 29 17 30 18 31 20 32
REMARK H PARENT 20 33
REMARK Flexibility Score: inf
ROOT
ATOM      1  C   UNL     1     184.326 173.731 177.766  1.00  0.00     0.008 C 
ENDROOT
BRANCH   1   2
ATOM      2  C   UNL     1     183.403 172.660 177.144  1.00  0.00     0.031 C 
BRANCH   2   3
ATOM      3  C   UNL     1     181.917 172.984 177.256  1.00  0.00    -0.075 C 
ATOM      4  C   UNL     1     181.449 174.100 176.668  1.00  0.00     0.008 C 
BRANCH   3   5
ATOM      5  C   UNL     1     180.945 172.145 178.087  1.00  0.00     0.008 C 
ATOM      6  C   UNL     1     179.767 171.659 177.232  1.00  0.00     0.012 C 
ATOM      7  C   UNL     1     181.604 170.970 178.826  1.00  0.00     0.012 C 
ENDBRANCH   3   5
ENDBRANCH   2   3
ENDBRANCH   1   2
BRANCH   1   8
ATOM      8  C   UNL     1     184.763 173.448 179.231  1.00  0.00    -0.010 C 
ATOM      9  C   UNL     1     185.350 172.024 179.349  1.00  0.00     0.008 C 
BRANCH   8  10
ATOM     10  C   UNL     1     183.574 173.752 180.221  1.00  0.00    -0.002 C 
ATOM     11  C   UNL     1     183.563 172.963 181.555  1.00  0.00     0.005 C 
ATOM     12  C   UNL     1     183.313 175.233 180.634  1.00  0.00    -0.024 C 
ATOM     13  C   UNL     1     182.956 173.896 182.622  1.00  0.00     0.008 C 
ATOM     14  C   UNL     1     182.331 175.073 181.846  1.00  0.00    -0.024 C 
ATOM     15  C   UNL     1     182.636 176.097 179.545  1.00  0.00     0.008 C 
ATOM     16  C   UNL     1     184.667 175.923 181.016  1.00  0.00     0.012 C 
ATOM     17  C   UNL     1     180.879 174.635 181.430  1.00  0.00     0.012 C 
ATOM     18  C   UNL     1     182.261 176.418 182.636  1.00  0.00     0.002 C 
ATOM     19  C   UNL     1     181.977 177.396 180.099  1.00  0.00     0.008 C 
ATOM     20  C   UNL     1     182.020 177.627 181.657  1.00  0.00    -0.020 C 
ATOM     21  C   UNL     1     181.253 176.399 183.805  1.00  0.00     0.005 C 
ATOM     22  C   UNL     1     181.280 178.877 182.205  1.00  0.00    -0.020 C 
ATOM     23  C   UNL     1     182.799 178.894 182.073  1.00  0.00     0.015 C 
ATOM     24  C   UNL     1     181.270 177.735 184.545  1.00  0.00     0.005 C 
ATOM     25  C   UNL     1     180.692 178.850 183.642  1.00  0.00     0.004 C 
ATOM     26  C   UNL     1     180.522 179.790 181.209  1.00  0.00     0.010 C 
ATOM     27  C   UNL     1     180.650 180.296 184.289  1.00  0.00    -0.006 C 
ATOM     28  C   UNL     1     179.799 180.941 181.934  1.00  0.00     0.033 C 
ATOM     29  C   UNL     1     180.573 181.418 183.181  1.00  0.00     0.120 C 
ATOM     30  C   UNL     1     179.387 180.401 185.183  1.00  0.00     0.014 C 
ATOM     31  C   UNL     1     181.872 180.568 185.205  1.00  0.00     0.014 C 
BRANCH  29  32
ATOM     32  O   UNL     1     181.862 181.828 182.788  1.00  0.00    -0.393 OA
ATOM     33  H   UNL     1     181.961 182.779 183.056  1.00  0.00     0.210 HD
ENDBRANCH  29  32
ENDBRANCH   8  10
ENDBRANCH   1   8
TORSDOF 6
ENDMDL
MODEL 2
REMARK VINA RESULT:    -7.221      2.302      8.185
REMARK INTER + INTRA:         -11.338
REMARK INTER:                  -9.260
REMARK INTRA:                  -2.077
REMARK UNBOUND:                -1.795
REMARK SMILES C=C(CC[C@H](C)[C@H]1CC[C@@]2(C)[C@@H]3CC[C@H]4C(C)(C)[C@@H](O)CC[C@@]45C[C@@]35CC[C@]12C)C(C)C
REMARK SMILES IDX 4 1 3 2 2 3 1 4 30 5 31 6 32 7 5 8 6 9 7 10 8 11 28 12 9 13
REMARK SMILES IDX 10 14 27 15 29 16 11 17 12 18 26 19 25 20 13 21 23 22 24 23
REMARK SMILES IDX 14 24 15 25 22 26 16 27 21 28 19 29 17 30 18 31 20 32
REMARK H PARENT 20 33
REMARK Flexibility Score: inf
ROOT
ATOM      1  C   UNL     1     179.650 182.060 185.133  1.00  0.00     0.008 C 
ENDROOT
BRANCH   1   2
ATOM      2  C   UNL     1     180.425 182.908 184.099  1.00  0.00     0.031 C 
BRANCH   2   3
ATOM      3  C   UNL     1     179.865 182.822 182.684  1.00  0.00    -0.075 C 
ATOM      4  C   UNL     1     178.587 182.443 182.512  1.00  0.00     0.008 C 
BRANCH   3   5
ATOM      5  C   UNL     1     180.721 183.058 181.438  1.00  0.00     0.008 C 
ATOM      6  C   UNL     1     182.178 183.357 181.819  1.00  0.00     0.012 C 
ATOM      7  C   UNL     1     180.650 181.924 180.404  1.00  0.00     0.012 C 
ENDBRANCH   3   5
ENDBRANCH   2   3
ENDBRANCH   1   2
BRANCH   1   8
ATOM      8  C   UNL     1     180.470 180.913 185.785  1.00  0.00    -0.010 C 
ATOM      9  C   UNL     1     180.858 181.288 187.232  1.00  0.00     0.008 C 
BRANCH   8  10
ATOM     10  C   UNL     1     181.685 180.519 184.861  1.00  0.00    -0.002 C 
ATOM     11  C   UNL     1     183.076 180.437 185.540  1.00  0.00     0.005 C 
ATOM     12  C   UNL     1     181.580 179.213 184.014  1.00  0.00    -0.024 C 
ATOM     13  C   UNL     1     183.862 179.326 184.817  1.00  0.00     0.008 C 
ATOM     14  C   UNL     1     183.060 179.003 183.540  1.00  0.00    -0.024 C 
ATOM     15  C   UNL     1     180.662 179.320 182.775  1.00  0.00     0.008 C 
ATOM     16  C   UNL     1     181.040 178.044 184.907  1.00  0.00     0.012 C 
ATOM     17  C   UNL     1     183.520 180.022 182.434  1.00  0.00     0.012 C 
ATOM     18  C   UNL     1     183.231 177.546 183.007  1.00  0.00     0.002 C 
ATOM     19  C   UNL     1     180.915 178.207 181.713  1.00  0.00     0.008 C 
ATOM     20  C   UNL     1     182.082 177.186 181.992  1.00  0.00    -0.020 C 
ATOM     21  C   UNL     1     184.634 177.255 182.433  1.00  0.00     0.005 C 
ATOM     22  C   UNL     1     182.384 176.141 180.885  1.00  0.00    -0.020 C 
ATOM     23  C   UNL     1     181.605 175.723 182.128  1.00  0.00     0.015 C 
ATOM     24  C   UNL     1     184.729 175.804 181.966  1.00  0.00     0.005 C 
ATOM     25  C   UNL     1     183.825 175.584 180.730  1.00  0.00     0.004 C 
ATOM     26  C   UNL     1     181.559 176.184 179.574  1.00  0.00     0.010 C 
ATOM     27  C   UNL     1     183.828 174.113 180.139  1.00  0.00    -0.006 C 
ATOM     28  C   UNL     1     182.035 175.118 178.570  1.00  0.00     0.033 C 
ATOM     29  C   UNL     1     182.535 173.840 179.275  1.00  0.00     0.120 C 
ATOM     30  C   UNL     1     185.072 173.950 179.226  1.00  0.00     0.014 C 
ATOM     31  C   UNL     1     183.940 173.032 181.246  1.00  0.00     0.014 C 
BRANCH  29  32
ATOM     32  O   UNL     1     181.496 173.322 180.073  1.00  0.00    -0.393 OA
ATOM     33  H   UNL     1     181.089 174.088 180.555  1.00  0.00     0.210 HD
ENDBRANCH  29  32
ENDBRANCH   8  10
ENDBRANCH   1   8
TORSDOF 6
ENDMDL
MODEL 3
REMARK VINA RESULT:    -7.212      3.387      9.581
REMARK INTER + INTRA:         -11.325
REMARK INTER:                 -10.394
REMARK INTRA:                  -0.931
REMARK UNBOUND:                -1.795
REMARK SMILES C=C(CC[C@H](C)[C@H]1CC[C@@]2(C)[C@@H]3CC[C@H]4C(C)(C)[C@@H](O)CC[C@@]45C[C@@]35CC[C@]12C)C(C)C
REMARK SMILES IDX 4 1 3 2 2 3 1 4 30 5 31 6 32 7 5 8 6 9 7 10 8 11 28 12 9 13
REMARK SMILES IDX 10 14 27 15 29 16 11 17 12 18 26 19 25 20 13 21 23 22 24 23
REMARK SMILES IDX 14 24 15 25 22 26 16 27 21 28 19 29 17 30 18 31 20 32
REMARK H PARENT 20 33
REMARK Flexibility Score: inf
ROOT
ATOM      1  C   UNL     1     180.584 185.164 182.816  1.00  0.00     0.008 C 
ENDROOT
BRANCH   1   2
ATOM      2  C   UNL     1     180.649 185.506 181.311  1.00  0.00     0.031 C 
BRANCH   2   3
ATOM      3  C   UNL     1     181.192 186.901 181.017  1.00  0.00    -0.075 C 
ATOM      4  C   UNL     1     181.581 187.196 179.764  1.00  0.00     0.008 C 
BRANCH   3   5
ATOM      5  C   UNL     1     181.403 187.955 182.105  1.00  0.00     0.008 C 
ATOM      6  C   UNL     1     182.895 188.137 182.413  1.00  0.00     0.012 C 
ATOM      7  C   UNL     1     180.739 189.308 181.804  1.00  0.00     0.012 C 
ENDBRANCH   3   5
ENDBRANCH   2   3
ENDBRANCH   1   2
BRANCH   1   8
ATOM      8  C   UNL     1     179.494 184.125 183.204  1.00  0.00    -0.010 C 
ATOM      9  C   UNL     1     178.357 184.810 183.991  1.00  0.00     0.008 C 
BRANCH   8  10
ATOM     10  C   UNL     1     180.153 182.895 183.938  1.00  0.00    -0.002 C 
ATOM     11  C   UNL     1     179.376 182.310 185.145  1.00  0.00     0.005 C 
ATOM     12  C   UNL     1     180.559 181.652 183.086  1.00  0.00    -0.024 C 
ATOM     13  C   UNL     1     179.654 180.794 185.163  1.00  0.00     0.008 C 
ATOM     14  C   UNL     1     180.826 180.567 184.187  1.00  0.00    -0.024 C 
ATOM     15  C   UNL     1     181.837 181.840 182.239  1.00  0.00     0.008 C 
ATOM     16  C   UNL     1     179.391 181.275 182.111  1.00  0.00     0.012 C 
ATOM     17  C   UNL     1     182.155 180.802 184.995  1.00  0.00     0.012 C 
ATOM     18  C   UNL     1     180.865 179.155 183.522  1.00  0.00     0.002 C 
ATOM     19  C   UNL     1     182.478 180.498 181.770  1.00  0.00     0.008 C 
ATOM     20  C   UNL     1     181.805 179.161 182.259  1.00  0.00    -0.020 C 
ATOM     21  C   UNL     1     181.210 178.016 184.506  1.00  0.00     0.005 C 
ATOM     22  C   UNL     1     182.506 177.833 181.862  1.00  0.00    -0.020 C 
ATOM     23  C   UNL     1     181.259 178.286 181.109  1.00  0.00     0.015 C 
ATOM     24  C   UNL     1     181.194 176.669 183.786  1.00  0.00     0.005 C 
ATOM     25  C   UNL     1     182.367 176.590 182.781  1.00  0.00     0.004 C 
ATOM     26  C   UNL     1     183.825 177.900 181.053  1.00  0.00     0.010 C 
ATOM     27  C   UNL     1     182.470 175.236 181.962  1.00  0.00    -0.006 C 
ATOM     28  C   UNL     1     184.408 176.496 180.804  1.00  0.00     0.033 C 
ATOM     29  C   UNL     1     183.305 175.432 180.636  1.00  0.00     0.120 C 
ATOM     30  C   UNL     1     183.187 174.179 182.842  1.00  0.00     0.014 C 
ATOM     31  C   UNL     1     181.077 174.654 181.607  1.00  0.00     0.014 C 
BRANCH  29  32
ATOM     32  O   UNL     1     182.469 175.805 179.565  1.00  0.00    -0.393 OA
ATOM     33  H   UNL     1     182.525 176.792 179.481  1.00  0.00     0.210 HD
ENDBRANCH  29  32
ENDBRANCH   8  10
ENDBRANCH   1   8
TORSDOF 6
ENDMDL
MODEL 4
REMARK VINA RESULT:    -7.208      2.300      8.610
REMARK INTER + INTRA:         -11.320
REMARK INTER:                  -9.367
REMARK INTRA:                  -1.953
REMARK UNBOUND:                -1.795
REMARK SMILES C=C(CC[C@H](C)[C@H]1CC[C@@]2(C)[C@@H]3CC[C@H]4C(C)(C)[C@@H](O)CC[C@@]45C[C@@]35CC[C@]12C)C(C)C
REMARK SMILES IDX 4 1 3 2 2 3 1 4 30 5 31 6 32 7 5 8 6 9 7 10 8 11 28 12 9 13
REMARK SMILES IDX 10 14 27 15 29 16 11 17 12 18 26 19 25 20 13 21 23 22 24 23
REMARK SMILES IDX 14 24 15 25 22 26 16 27 21 28 19 29 17 30 18 31 20 32
REMARK H PARENT 20 33
REMARK Flexibility Score: inf
ROOT
ATOM      1  C   UNL     1     180.614 181.653 186.120  1.00  0.00     0.008 C 
ENDROOT
BRANCH   1   2
ATOM      2  C   UNL     1     179.402 181.618 185.163  1.00  0.00     0.031 C 
BRANCH   2   3
ATOM      3  C   UNL     1     178.942 182.995 184.696  1.00  0.00    -0.075 C 
ATOM      4  C   UNL     1     178.597 183.912 185.616  1.00  0.00     0.008 C 
BRANCH   3   5
ATOM      5  C   UNL     1     178.766 183.353 183.219  1.00  0.00     0.008 C 
ATOM      6  C   UNL     1     179.881 184.295 182.744  1.00  0.00     0.012 C 
ATOM      7  C   UNL     1     178.647 182.136 182.288  1.00  0.00     0.012 C 
ENDBRANCH   3   5
ENDBRANCH   2   3
ENDBRANCH   1   2
BRANCH   1   8
ATOM      8  C   UNL     1     181.980 181.317 185.459  1.00  0.00    -0.010 C 
ATOM      9  C   UNL     1     182.937 182.524 185.565  1.00  0.00     0.008 C 
BRANCH   8  10
ATOM     10  C   UNL     1     181.757 180.783 183.992  1.00  0.00    -0.002 C 
ATOM     11  C   UNL     1     182.413 181.599 182.849  1.00  0.00     0.005 C 
ATOM     12  C   UNL     1     182.122 179.298 183.680  1.00  0.00    -0.024 C 
ATOM     13  C   UNL     1     182.808 180.592 181.751  1.00  0.00     0.008 C 
ATOM     14  C   UNL     1     182.097 179.272 182.112  1.00  0.00    -0.024 C 
ATOM     15  C   UNL     1     181.114 178.259 184.220  1.00  0.00     0.008 C 
ATOM     16  C   UNL     1     183.526 178.959 184.287  1.00  0.00     0.012 C 
ATOM     17  C   UNL     1     180.650 179.342 181.502  1.00  0.00     0.012 C 
ATOM     18  C   UNL     1     182.813 177.980 181.606  1.00  0.00     0.002 C 
ATOM     19  C   UNL     1     181.227 176.864 183.533  1.00  0.00     0.008 C 
ATOM     20  C   UNL     1     182.273 176.711 182.366  1.00  0.00    -0.020 C 
ATOM     21  C   UNL     1     182.771 177.808 180.072  1.00  0.00     0.005 C 
ATOM     22  C   UNL     1     182.311 175.345 181.628  1.00  0.00    -0.020 C 
ATOM     23  C   UNL     1     183.383 175.678 182.661  1.00  0.00     0.015 C 
ATOM     24  C   UNL     1     183.519 176.543 179.657  1.00  0.00     0.005 C 
ATOM     25  C   UNL     1     182.752 175.290 180.141  1.00  0.00     0.004 C 
ATOM     26  C   UNL     1     181.310 174.242 182.051  1.00  0.00     0.010 C 
ATOM     27  C   UNL     1     183.421 173.900 179.774  1.00  0.00    -0.006 C 
ATOM     28  C   UNL     1     181.450 172.983 181.174  1.00  0.00     0.033 C 
ATOM     29  C   UNL     1     182.907 172.749 180.725  1.00  0.00     0.120 C 
ATOM     30  C   UNL     1     183.041 173.538 178.315  1.00  0.00     0.014 C 
ATOM     31  C   UNL     1     184.970 173.958 179.834  1.00  0.00     0.014 C 
BRANCH  29  32
ATOM     32  O   UNL     1     183.725 172.636 181.867  1.00  0.00    -0.393 OA
ATOM     33  H   UNL     1     183.588 173.458 182.407  1.00  0.00     0.210 HD
ENDBRANCH  29  32
ENDBRANCH   8  10
ENDBRANCH   1   8
TORSDOF 6
ENDMDL
MODEL 5
REMARK VINA RESULT:    -7.062      2.763      8.621
REMARK INTER + INTRA:         -11.128
REMARK INTER:                  -9.485
REMARK INTRA:                  -1.643
REMARK UNBOUND:                -1.795
REMARK SMILES C=C(CC[C@H](C)[C@H]1CC[C@@]2(C)[C@@H]3CC[C@H]4C(C)(C)[C@@H](O)CC[C@@]45C[C@@]35CC[C@]12C)C(C)C
REMARK SMILES IDX 4 1 3 2 2 3 1 4 30 5 31 6 32 7 5 8 6 9 7 10 8 11 28 12 9 13
REMARK SMILES IDX 10 14 27 15 29 16 11 17 12 18 26 19 25 20 13 21 23 22 24 23
REMARK SMILES IDX 14 24 15 25 22 26 16 27 21 28 19 29 17 30 18 31 20 32
REMARK H PARENT 20 33
REMARK Flexibility Score: inf
ROOT
ATOM      1  C   UNL     1     181.331 184.741 183.266  1.00  0.00     0.008 C 
ENDROOT
BRANCH   1   2
ATOM      2  C   UNL     1     182.286 184.880 182.060  1.00  0.00     0.031 C 
BRANCH   2   3
ATOM      3  C   UNL     1     181.596 185.320 180.772  1.00  0.00    -0.075 C 
ATOM      4  C   UNL     1     180.938 186.492 180.755  1.00  0.00     0.008 C 
BRANCH   3   5
ATOM      5  C   UNL     1     181.537 184.441 179.522  1.00  0.00     0.008 C 
ATOM      6  C   UNL     1     181.923 185.239 178.269  1.00  0.00     0.012 C 
ATOM      7  C   UNL     1     182.365 183.151 179.622  1.00  0.00     0.012 C 
ENDBRANCH   3   5
ENDBRANCH   2   3
ENDBRANCH   1   2
BRANCH   1   8
ATOM      8  C   UNL     1     180.184 183.710 183.077  1.00  0.00    -0.010 C 
ATOM      9  C   UNL     1     178.826 184.345 183.448  1.00  0.00     0.008 C 
BRANCH   8  10
ATOM     10  C   UNL     1     180.518 182.377 183.851  1.00  0.00    -0.002 C 
ATOM     11  C   UNL     1     179.391 181.787 184.736  1.00  0.00     0.005 C 
ATOM     12  C   UNL     1     181.059 181.162 183.035  1.00  0.00    -0.024 C 
ATOM     13  C   UNL     1     179.544 180.254 184.692  1.00  0.00     0.008 C 
ATOM     14  C   UNL     1     180.926 179.985 184.063  1.00  0.00    -0.024 C 
ATOM     15  C   UNL     1     182.536 181.286 182.595  1.00  0.00     0.008 C 
ATOM     16  C   UNL     1     180.193 180.963 181.744  1.00  0.00     0.012 C 
ATOM     17  C   UNL     1     181.984 180.039 185.226  1.00  0.00     0.012 C 
ATOM     18  C   UNL     1     181.052 178.624 183.309  1.00  0.00     0.002 C 
ATOM     19  C   UNL     1     183.187 179.925 182.202  1.00  0.00     0.008 C 
ATOM     20  C   UNL     1     182.310 178.626 182.362  1.00  0.00    -0.020 C 
ATOM     21  C   UNL     1     181.022 177.393 184.242  1.00  0.00     0.005 C 
ATOM     22  C   UNL     1     182.998 177.269 182.056  1.00  0.00    -0.020 C 
ATOM     23  C   UNL     1     182.053 177.886 181.031  1.00  0.00     0.015 C 
ATOM     24  C   UNL     1     181.115 176.105 183.426  1.00  0.00     0.005 C 
ATOM     25  C   UNL     1     182.516 175.984 182.783  1.00  0.00     0.004 C 
ATOM     26  C   UNL     1     184.494 177.266 181.654  1.00  0.00     0.010 C 
ATOM     27  C   UNL     1     182.752 174.686 181.905  1.00  0.00    -0.006 C 
ATOM     28  C   UNL     1     185.023 175.834 181.449  1.00  0.00     0.033 C 
ATOM     29  C   UNL     1     183.940 174.891 180.885  1.00  0.00     0.120 C 
ATOM     30  C   UNL     1     183.112 173.509 182.849  1.00  0.00     0.014 C 
ATOM     31  C   UNL     1     181.479 174.262 181.126  1.00  0.00     0.014 C 
BRANCH  29  32
ATOM     32  O   UNL     1     183.471 175.413 179.663  1.00  0.00    -0.393 OA
ATOM     33  H   UNL     1     182.550 175.067 179.532  1.00  0.00     0.210 HD
ENDBRANCH  29  32
ENDBRANCH   8  10
ENDBRANCH   1   8
TORSDOF 6
ENDMDL
MODEL 6
REMARK VINA RESULT:    -6.957      4.957      9.188
REMARK INTER + INTRA:         -10.989
REMARK INTER:                  -9.224
REMARK INTRA:                  -1.764
REMARK UNBOUND:                -1.795
REMARK SMILES C=C(CC[C@H](C)[C@H]1CC[C@@]2(C)[C@@H]3CC[C@H]4C(C)(C)[C@@H](O)CC[C@@]45C[C@@]35CC[C@]12C)C(C)C
REMARK SMILES IDX 4 1 3 2 2 3 1 4 30 5 31 6 32 7 5 8 6 9 7 10 8 11 28 12 9 13
REMARK SMILES IDX 10 14 27 15 29 16 11 17 12 18 26 19 25 20 13 21 23 22 24 23
REMARK SMILES IDX 14 24 15 25 22 26 16 27 21 28 19 29 17 30 18 31 20 32
REMARK H PARENT 20 33
REMARK Flexibility Score: inf
ROOT
ATOM      1  C   UNL     1     180.612 180.646 185.367  1.00  0.00     0.008 C 
ENDROOT
BRANCH   1   2
ATOM      2  C   UNL     1     181.070 179.180 185.536  1.00  0.00     0.031 C 
BRANCH   2   3
ATOM      3  C   UNL     1     182.341 178.836 184.767  1.00  0.00    -0.075 C 
ATOM      4  C   UNL     1     183.448 179.568 184.980  1.00  0.00     0.008 C 
BRANCH   3   5
ATOM      5  C   UNL     1     182.390 177.751 183.690  1.00  0.00     0.008 C 
ATOM      6  C   UNL     1     181.130 176.876 183.731  1.00  0.00     0.012 C 
ATOM      7  C   UNL     1     182.635 178.286 182.271  1.00  0.00     0.012 C 
ENDBRANCH   3   5
ENDBRANCH   2   3
ENDBRANCH   1   2
BRANCH   1   8
ATOM      8  C   UNL     1     179.740 180.917 184.108  1.00  0.00    -0.010 C 
ATOM      9  C   UNL     1     178.873 179.682 183.781  1.00  0.00     0.008 C 
BRANCH   8  10
ATOM     10  C   UNL     1     180.645 181.418 182.918  1.00  0.00    -0.002 C 
ATOM     11  C   UNL     1     180.258 180.930 181.499  1.00  0.00     0.005 C 
ATOM     12  C   UNL     1     180.879 182.953 182.760  1.00  0.00    -0.024 C 
ATOM     13  C   UNL     1     180.620 182.065 180.521  1.00  0.00     0.008 C 
ATOM     14  C   UNL     1     181.498 183.049 181.322  1.00  0.00    -0.024 C 
ATOM     15  C   UNL     1     181.869 183.563 183.779  1.00  0.00     0.008 C 
ATOM     16  C   UNL     1     179.517 183.714 182.904  1.00  0.00     0.012 C 
ATOM     17  C   UNL     1     182.979 182.525 181.235  1.00  0.00     0.012 C 
ATOM     18  C   UNL     1     181.441 184.530 180.832  1.00  0.00     0.002 C 
ATOM     19  C   UNL     1     182.438 184.947 183.343  1.00  0.00     0.008 C 
ATOM     20  C   UNL     1     182.004 185.503 181.935  1.00  0.00    -0.020 C 
ATOM     21  C   UNL     1     182.105 184.754 179.457  1.00  0.00     0.005 C 
ATOM     22  C   UNL     1     182.650 186.837 181.473  1.00  0.00    -0.020 C 
ATOM     23  C   UNL     1     181.222 186.833 182.009  1.00  0.00     0.015 C 
ATOM     24  C   UNL     1     181.977 186.217 179.036  1.00  0.00     0.005 C 
ATOM     25  C   UNL     1     182.838 187.112 179.957  1.00  0.00     0.004 C 
ATOM     26  C   UNL     1     183.696 187.515 182.393  1.00  0.00     0.010 C 
ATOM     27  C   UNL     1     182.798 188.663 179.630  1.00  0.00    -0.006 C 
ATOM     28  C   UNL     1     184.274 188.790 181.749  1.00  0.00     0.033 C 
ATOM     29  C   UNL     1     183.231 189.524 180.880  1.00  0.00     0.120 C 
ATOM     30  C   UNL     1     183.787 188.949 178.470  1.00  0.00     0.014 C 
ATOM     31  C   UNL     1     181.398 189.128 179.150  1.00  0.00     0.014 C 
BRANCH  29  32
ATOM     32  O   UNL     1     182.117 189.848 181.679  1.00  0.00    -0.393 OA
ATOM     33  H   UNL     1     182.456 190.028 182.594  1.00  0.00     0.210 HD
ENDBRANCH  29  32
ENDBRANCH   8  10
ENDBRANCH   1   8
TORSDOF 6
ENDMDL
MODEL 7
REMARK VINA RESULT:    -6.862      1.995      4.266
REMARK INTER + INTRA:         -10.863
REMARK INTER:                  -8.978
REMARK INTRA:                  -1.885
REMARK UNBOUND:                -1.795
REMARK SMILES C=C(CC[C@H](C)[C@H]1CC[C@@]2(C)[C@@H]3CC[C@H]4C(C)(C)[C@@H](O)CC[C@@]45C[C@@]35CC[C@]12C)C(C)C
REMARK SMILES IDX 4 1 3 2 2 3 1 4 30 5 31 6 32 7 5 8 6 9 7 10 8 11 28 12 9 13
REMARK SMILES IDX 10 14 27 15 29 16 11 17 12 18 26 19 25 20 13 21 23 22 24 23
REMARK SMILES IDX 14 24 15 25 22 26 16 27 21 28 19 29 17 30 18 31 20 32
REMARK H PARENT 20 33
REMARK Flexibility Score: inf
ROOT
ATOM      1  C   UNL     1     184.200 173.866 182.603  1.00  0.00     0.008 C 
ENDROOT
BRANCH   1   2
ATOM      2  C   UNL     1     185.191 174.456 181.575  1.00  0.00     0.031 C 
BRANCH   2   3
ATOM      3  C   UNL     1     185.141 173.781 180.209  1.00  0.00    -0.075 C 
ATOM      4  C   UNL     1     184.932 172.454 180.147  1.00  0.00     0.008 C 
BRANCH   3   5
ATOM      5  C   UNL     1     185.413 174.530 178.903  1.00  0.00     0.008 C 
ATOM      6  C   UNL     1     184.339 174.212 177.853  1.00  0.00     0.012 C 
ATOM      7  C   UNL     1     185.576 176.048 179.073  1.00  0.00     0.012 C 
ENDBRANCH   3   5
ENDBRANCH   2   3
ENDBRANCH   1   2
BRANCH   1   8
ATOM      8  C   UNL     1     182.747 174.408 182.497  1.00  0.00    -0.010 C 
ATOM      9  C   UNL     1     181.807 173.315 181.942  1.00  0.00     0.008 C 
BRANCH   8  10
ATOM     10  C   UNL     1     182.729 175.761 181.688  1.00  0.00    -0.002 C 
ATOM     11  C   UNL     1     182.017 175.739 180.312  1.00  0.00     0.005 C 
ATOM     12  C   UNL     1     182.185 177.041 182.396  1.00  0.00    -0.024 C 
ATOM     13  C   UNL     1     181.390 177.132 180.110  1.00  0.00     0.008 C 
ATOM     14  C   UNL     1     182.008 178.035 181.196  1.00  0.00    -0.024 C 
ATOM     15  C   UNL     1     183.147 177.664 183.433  1.00  0.00     0.008 C 
ATOM     16  C   UNL     1     180.842 176.708 183.132  1.00  0.00     0.012 C 
ATOM     17  C   UNL     1     183.367 178.584 180.625  1.00  0.00     0.012 C 
ATOM     18  C   UNL     1     181.112 179.233 181.644  1.00  0.00     0.002 C 
ATOM     19  C   UNL     1     182.812 179.145 183.784  1.00  0.00     0.008 C 
ATOM     20  C   UNL     1     181.617 179.823 183.014  1.00  0.00    -0.020 C 
ATOM     21  C   UNL     1     180.943 180.320 180.562  1.00  0.00     0.005 C 
ATOM     22  C   UNL     1     181.353 181.326 183.305  1.00  0.00    -0.020 C 
ATOM     23  C   UNL     1     180.458 180.264 183.935  1.00  0.00     0.015 C 
ATOM     24  C   UNL     1     180.028 181.435 181.065  1.00  0.00     0.005 C 
ATOM     25  C   UNL     1     180.724 182.220 182.202  1.00  0.00     0.004 C 
ATOM     26  C   UNL     1     182.287 182.069 184.291  1.00  0.00     0.010 C 
ATOM     27  C   UNL     1     179.882 183.413 182.819  1.00  0.00    -0.006 C 
ATOM     28  C   UNL     1     181.915 183.559 184.410  1.00  0.00     0.033 C 
ATOM     29  C   UNL     1     180.397 183.791 184.263  1.00  0.00     0.120 C 
ATOM     30  C   UNL     1     180.037 184.654 181.902  1.00  0.00     0.014 C 
ATOM     31  C   UNL     1     178.366 183.091 182.886  1.00  0.00     0.014 C 
BRANCH  29  32
ATOM     32  O   UNL     1     179.724 183.044 185.250  1.00  0.00    -0.393 OA
ATOM     33  H   UNL     1     179.894 183.488 186.121  1.00  0.00     0.210 HD
ENDBRANCH  29  32
ENDBRANCH   8  10
ENDBRANCH   1   8
TORSDOF 6
ENDMDL
MODEL 8
REMARK VINA RESULT:    -6.786      2.591      8.713
REMARK INTER + INTRA:         -10.763
REMARK INTER:                  -8.817
REMARK INTRA:                  -1.946
REMARK UNBOUND:                -1.795
REMARK SMILES C=C(CC[C@H](C)[C@H]1CC[C@@]2(C)[C@@H]3CC[C@H]4C(C)(C)[C@@H](O)CC[C@@]45C[C@@]35CC[C@]12C)C(C)C
REMARK SMILES IDX 4 1 3 2 2 3 1 4 30 5 31 6 32 7 5 8 6 9 7 10 8 11 28 12 9 13
REMARK SMILES IDX 10 14 27 15 29 16 11 17 12 18 26 19 25 20 13 21 23 22 24 23
REMARK SMILES IDX 14 24 15 25 22 26 16 27 21 28 19 29 17 30 18 31 20 32
REMARK H PARENT 20 33
REMARK Flexibility Score: inf
ROOT
ATOM      1  C   UNL     1     181.009 184.609 182.164  1.00  0.00     0.008 C 
ENDROOT
BRANCH   1   2
ATOM      2  C   UNL     1     181.759 184.691 183.513  1.00  0.00     0.031 C 
BRANCH   2   3
ATOM      3  C   UNL     1     183.237 184.326 183.421  1.00  0.00    -0.075 C 
ATOM      4  C   UNL     1     183.990 184.900 182.466  1.00  0.00     0.008 C 
BRANCH   3   5
ATOM      5  C   UNL     1     183.885 183.264 184.310  1.00  0.00     0.008 C 
ATOM      6  C   UNL     1     185.241 182.823 183.742  1.00  0.00     0.012 C 
ATOM      7  C   UNL     1     184.020 183.676 185.784  1.00  0.00     0.012 C 
ENDBRANCH   3   5
ENDBRANCH   2   3
ENDBRANCH   1   2
BRANCH   1   8
ATOM      8  C   UNL     1     179.963 183.463 182.066  1.00  0.00    -0.010 C 
ATOM      9  C   UNL     1     178.545 184.007 182.346  1.00  0.00     0.008 C 
BRANCH   8  10
ATOM     10  C   UNL     1     180.394 182.253 182.980  1.00  0.00    -0.002 C 
ATOM     11  C   UNL     1     179.327 181.713 183.966  1.00  0.00     0.005 C 
ATOM     12  C   UNL     1     180.984 180.980 182.297  1.00  0.00    -0.024 C 
ATOM     13  C   UNL     1     179.568 180.197 184.100  1.00  0.00     0.008 C 
ATOM     14  C   UNL     1     180.947 179.930 183.462  1.00  0.00    -0.024 C 
ATOM     15  C   UNL     1     182.439 181.131 181.797  1.00  0.00     0.008 C 
ATOM     16  C   UNL     1     180.097 180.580 181.069  1.00  0.00     0.012 C 
ATOM     17  C   UNL     1     182.030 180.182 184.574  1.00  0.00     0.012 C 
ATOM     18  C   UNL     1     181.132 178.497 182.871  1.00  0.00     0.002 C 
ATOM     19  C   UNL     1     183.157 179.770 181.547  1.00  0.00     0.008 C 
ATOM     20  C   UNL     1     182.362 178.454 181.889  1.00  0.00    -0.020 C 
ATOM     21  C   UNL     1     181.198 177.388 183.943  1.00  0.00     0.005 C 
ATOM     22  C   UNL     1     183.120 177.109 181.723  1.00  0.00    -0.020 C 
ATOM     23  C   UNL     1     182.113 177.546 180.664  1.00  0.00     0.015 C 
ATOM     24  C   UNL     1     181.344 176.018 183.284  1.00  0.00     0.005 C 
ATOM     25  C   UNL     1     182.733 175.898 182.613  1.00  0.00     0.004 C 
ATOM     26  C   UNL     1     184.602 177.140 181.275  1.00  0.00     0.010 C 
ATOM     27  C   UNL     1     183.020 174.517 181.888  1.00  0.00    -0.006 C 
ATOM     28  C   UNL     1     185.208 175.725 181.224  1.00  0.00     0.033 C 
ATOM     29  C   UNL     1     184.167 174.663 180.813  1.00  0.00     0.120 C 
ATOM     30  C   UNL     1     183.473 173.485 182.952  1.00  0.00     0.014 C 
ATOM     31  C   UNL     1     181.754 173.934 181.208  1.00  0.00     0.014 C 
BRANCH  29  32
ATOM     32  O   UNL     1     183.636 175.007 179.554  1.00  0.00    -0.393 OA
ATOM     33  H   UNL     1     182.704 175.314 179.703  1.00  0.00     0.210 HD
ENDBRANCH  29  32
ENDBRANCH   8  10
ENDBRANCH   1   8
TORSDOF 6
ENDMDL
MODEL 9
REMARK VINA RESULT:    -6.711      1.368      2.419
REMARK INTER + INTRA:         -10.664
REMARK INTER:                  -8.662
REMARK INTRA:                  -2.002
REMARK UNBOUND:                -1.795
REMARK SMILES C=C(CC[C@H](C)[C@H]1CC[C@@]2(C)[C@@H]3CC[C@H]4C(C)(C)[C@@H](O)CC[C@@]45C[C@@]35CC[C@]12C)C(C)C
REMARK SMILES IDX 4 1 3 2 2 3 1 4 30 5 31 6 32 7 5 8 6 9 7 10 8 11 28 12 9 13
REMARK SMILES IDX 10 14 27 15 29 16 11 17 12 18 26 19 25 20 13 21 23 22 24 23
REMARK SMILES IDX 14 24 15 25 22 26 16 27 21 28 19 29 17 30 18 31 20 32
REMARK H PARENT 20 33
REMARK Flexibility Score: inf
ROOT
ATOM      1  C   UNL     1     183.771 173.578 177.904  1.00  0.00     0.008 C 
ENDROOT
BRANCH   1   2
ATOM      2  C   UNL     1     184.526 174.307 176.770  1.00  0.00     0.031 C 
BRANCH   2   3
ATOM      3  C   UNL     1     184.149 175.777 176.621  1.00  0.00    -0.075 C 
ATOM      4  C   UNL     1     182.944 176.091 176.115  1.00  0.00     0.008 C 
BRANCH   3   5
ATOM      5  C   UNL     1     185.120 176.917 176.935  1.00  0.00     0.008 C 
ATOM      6  C   UNL     1     184.379 178.123 177.530  1.00  0.00     0.012 C 
ATOM      7  C   UNL     1     186.300 176.508 177.828  1.00  0.00     0.012 C 
ENDBRANCH   3   5
ENDBRANCH   2   3
ENDBRANCH   1   2
BRANCH   1   8
ATOM      8  C   UNL     1     184.414 173.715 179.312  1.00  0.00    -0.010 C 
ATOM      9  C   UNL     1     185.298 172.486 179.619  1.00  0.00     0.008 C 
BRANCH   8  10
ATOM     10  C   UNL     1     183.303 174.011 180.392  1.00  0.00    -0.002 C 
ATOM     11  C   UNL     1     183.413 173.238 181.730  1.00  0.00     0.005 C 
ATOM     12  C   UNL     1     183.050 175.493 180.808  1.00  0.00    -0.024 C 
ATOM     13  C   UNL     1     182.877 174.173 182.832  1.00  0.00     0.008 C 
ATOM     14  C   UNL     1     182.171 175.331 182.097  1.00  0.00    -0.024 C 
ATOM     15  C   UNL     1     182.274 176.333 179.768  1.00  0.00     0.008 C 
ATOM     16  C   UNL     1     184.419 176.209 181.074  1.00  0.00     0.012 C 
ATOM     17  C   UNL     1     180.699 174.864 181.803  1.00  0.00     0.012 C 
ATOM     18  C   UNL     1     182.142 176.683 182.876  1.00  0.00     0.002 C 
ATOM     19  C   UNL     1     181.639 177.628 180.360  1.00  0.00     0.008 C 
ATOM     20  C   UNL     1     181.802 177.877 181.907  1.00  0.00    -0.020 C 
ATOM     21  C   UNL     1     181.231 176.662 184.123  1.00  0.00     0.005 C 
ATOM     22  C   UNL     1     181.087 179.121 182.500  1.00  0.00    -0.020 C 
ATOM     23  C   UNL     1     182.590 179.161 182.247  1.00  0.00     0.015 C 
ATOM     24  C   UNL     1     181.284 178.006 184.845  1.00  0.00     0.005 C 
ATOM     25  C   UNL     1     180.617 179.101 183.979  1.00  0.00     0.004 C 
ATOM     26  C   UNL     1     180.237 180.010 181.559  1.00  0.00     0.010 C 
ATOM     27  C   UNL     1     180.602 180.554 184.613  1.00  0.00    -0.006 C 
ATOM     28  C   UNL     1     179.554 181.157 182.328  1.00  0.00     0.033 C 
ATOM     29  C   UNL     1     180.417 181.661 183.503  1.00  0.00     0.120 C 
ATOM     30  C   UNL     1     179.413 180.648 185.604  1.00  0.00     0.014 C 
ATOM     31  C   UNL     1     181.888 180.856 185.426  1.00  0.00     0.014 C 
BRANCH  29  32
ATOM     32  O   UNL     1     181.664 182.088 183.005  1.00  0.00    -0.393 OA
ATOM     33  H   UNL     1     182.006 182.781 183.627  1.00  0.00     0.210 HD
ENDBRANCH  29  32
ENDBRANCH   8  10
ENDBRANCH   1   8
TORSDOF 6
ENDMDL
