MODEL 1
REMARK VINA RESULT:    -3.664      0.000      0.000
REMARK INTER + INTRA:          -5.063
REMARK INTER:                  -4.735
REMARK INTRA:                  -0.328
REMARK UNBOUND:                -0.328
REMARK SMILES CCCCCCC(=O)[O-]
REMARK SMILES IDX 5 1 6 2 7 3 8 4 9 5 4 6 3 7 2 8 1 9
REMARK H PARENT
REMARK Flexibility Score: inf
ROOT
ATOM      1  C   UNL     1      14.678 -33.228  23.757  1.00  0.00     0.006 C 
ENDROOT
BRANCH   1   2
ATOM      2  C   UNL     1      15.459 -32.844  22.494  1.00  0.00     0.053 C 
BRANCH   2   3
ATOM      3  C   UNL     1      14.841 -33.478  21.287  1.00  0.00     0.041 C 
ATOM      4  O   UNL     1      15.139 -34.659  20.968  1.00  0.00    -0.550 OA
ATOM      5  O   UNL     1      13.899 -32.781  20.542  1.00  0.00    -0.550 OA
ENDBRANCH   2   3
ENDBRANCH   1   2
BRANCH   1   6
ATOM      6  C   UNL     1      13.769 -32.094  24.258  1.00  0.00     0.000 C 
BRANCH   6   7
ATOM      7  C   UNL     1      14.122 -30.734  23.637  1.00  0.00    -0.000 C 
BRANCH   7   8
ATOM      8  C   UNL     1      12.866 -29.876  23.444  1.00  0.00    -0.003 C 
ATOM      9  C   UNL     1      12.056 -30.347  22.240  1.00  0.00     0.004 C 
ENDBRANCH   7   8
ENDBRANCH   6   7
ENDBRANCH   1   6
TORSDOF 5
ENDMDL
MODEL 2
REMARK VINA RESULT:    -3.662      1.464      1.879
REMARK INTER + INTRA:          -5.060
REMARK INTER:                  -4.723
REMARK INTRA:                  -0.337
REMARK UNBOUND:                -0.328
REMARK SMILES CCCCCCC(=O)[O-]
REMARK SMILES IDX 5 1 6 2 7 3 8 4 9 5 4 6 3 7 2 8 1 9
REMARK H PARENT
REMARK Flexibility Score: inf
ROOT
ATOM      1  C   UNL     1      14.855 -30.835  21.425  1.00  0.00     0.006 C 
ENDROOT
BRANCH   1   2
ATOM      2  C   UNL     1      13.841 -31.946  21.126  1.00  0.00     0.053 C 
BRANCH   2   3
ATOM      3  C   UNL     1      14.540 -33.257  20.948  1.00  0.00     0.041 C 
ATOM      4  O   UNL     1      14.712 -33.733  19.796  1.00  0.00    -0.550 OA
ATOM      5  O   UNL     1      15.047 -33.929  22.054  1.00  0.00    -0.550 OA
ENDBRANCH   2   3
ENDBRANCH   1   2
BRANCH   1   6
ATOM      6  C   UNL     1      14.887 -30.449  22.913  1.00  0.00     0.000 C 
BRANCH   6   7
ATOM      7  C   UNL     1      13.555 -30.726  23.625  1.00  0.00    -0.000 C 
BRANCH   7   8
ATOM      8  C   UNL     1      12.723 -29.445  23.750  1.00  0.00    -0.003 C 
ATOM      9  C   UNL     1      11.592 -29.420  22.725  1.00  0.00     0.004 C 
ENDBRANCH   7   8
ENDBRANCH   6   7
ENDBRANCH   1   6
TORSDOF 5
ENDMDL
MODEL 3
REMARK VINA RESULT:    -3.654      1.776      2.494
REMARK INTER + INTRA:          -5.049
REMARK INTER:                  -4.933
REMARK INTRA:                  -0.117
REMARK UNBOUND:                -0.328
REMARK SMILES CCCCCCC(=O)[O-]
REMARK SMILES IDX 5 1 6 2 7 3 8 4 9 5 4 6 3 7 2 8 1 9
REMARK H PARENT
REMARK Flexibility Score: inf
ROOT
ATOM      1  C   UNL     1      14.379 -32.665  21.180  1.00  0.00     0.006 C 
ENDROOT
BRANCH   1   2
ATOM      2  C   UNL     1      14.589 -33.725  20.091  1.00  0.00     0.053 C 
BRANCH   2   3
ATOM      3  C   UNL     1      15.571 -34.756  20.550  1.00  0.00     0.041 C 
ATOM      4  O   UNL     1      16.092 -34.672  21.693  1.00  0.00    -0.550 OA
ATOM      5  O   UNL     1      15.874 -35.839  19.733  1.00  0.00    -0.550 OA
ENDBRANCH   2   3
ENDBRANCH   1   2
BRANCH   1   6
ATOM      6  C   UNL     1      13.475 -31.512  20.716  1.00  0.00     0.000 C 
BRANCH   6   7
ATOM      7  C   UNL     1      12.662 -30.897  21.865  1.00  0.00    -0.000 C 
BRANCH   7   8
ATOM      8  C   UNL     1      13.581 -30.434  23.001  1.00  0.00    -0.003 C 
ATOM      9  C   UNL     1      12.876 -29.429  23.907  1.00  0.00     0.004 C 
ENDBRANCH   7   8
ENDBRANCH   6   7
ENDBRANCH   1   6
TORSDOF 5
ENDMDL
MODEL 4
REMARK VINA RESULT:    -3.648      2.964      4.558
REMARK INTER + INTRA:          -5.042
REMARK INTER:                  -4.740
REMARK INTRA:                  -0.302
REMARK UNBOUND:                -0.328
REMARK SMILES CCCCCCC(=O)[O-]
REMARK SMILES IDX 5 1 6 2 7 3 8 4 9 5 4 6 3 7 2 8 1 9
REMARK H PARENT
REMARK Flexibility Score: inf
ROOT
ATOM      1  C   UNL     1      14.691 -29.972  22.736  1.00  0.00     0.006 C 
ENDROOT
BRANCH   1   2
ATOM      2  C   UNL     1      13.445 -30.491  23.466  1.00  0.00     0.053 C 
BRANCH   2   3
ATOM      3  C   UNL     1      12.398 -29.424  23.533  1.00  0.00     0.041 C 
ATOM      4  O   UNL     1      12.417 -28.573  24.460  1.00  0.00    -0.550 OA
ATOM      5  O   UNL     1      11.428 -29.341  22.541  1.00  0.00    -0.550 OA
ENDBRANCH   2   3
ENDBRANCH   1   2
BRANCH   1   6
ATOM      6  C   UNL     1      14.921 -30.675  21.388  1.00  0.00     0.000 C 
BRANCH   6   7
ATOM      7  C   UNL     1      13.762 -31.604  20.999  1.00  0.00    -0.000 C 
BRANCH   7   8
ATOM      8  C   UNL     1      14.278 -33.001  20.636  1.00  0.00    -0.003 C 
ATOM      9  C   UNL     1      15.001 -33.647  21.814  1.00  0.00     0.004 C 
ENDBRANCH   7   8
ENDBRANCH   6   7
ENDBRANCH   1   6
TORSDOF 5
ENDMDL
MODEL 5
REMARK VINA RESULT:    -3.636      2.851      4.890
REMARK INTER + INTRA:          -5.027
REMARK INTER:                  -4.650
REMARK INTRA:                  -0.377
REMARK UNBOUND:                -0.328
REMARK SMILES CCCCCCC(=O)[O-]
REMARK SMILES IDX 5 1 6 2 7 3 8 4 9 5 4 6 3 7 2 8 1 9
REMARK H PARENT
REMARK Flexibility Score: inf
ROOT
ATOM      1  C   UNL     1      15.436 -34.964  20.261  1.00  0.00     0.006 C 
ENDROOT
BRANCH   1   2
ATOM      2  C   UNL     1      14.613 -33.774  19.752  1.00  0.00     0.053 C 
BRANCH   2   3
ATOM      3  C   UNL     1      14.223 -32.885  20.890  1.00  0.00     0.041 C 
ATOM      4  O   UNL     1      13.440 -31.917  20.700  1.00  0.00    -0.550 OA
ATOM      5  O   UNL     1      14.685 -33.155  22.172  1.00  0.00    -0.550 OA
ENDBRANCH   2   3
ENDBRANCH   1   2
BRANCH   1   6
ATOM      6  C   UNL     1      16.682 -35.232  19.402  1.00  0.00     0.000 C 
BRANCH   6   7
ATOM      7  C   UNL     1      17.418 -33.944  19.007  1.00  0.00    -0.000 C 
BRANCH   7   8
ATOM      8  C   UNL     1      18.251 -33.407  20.176  1.00  0.00    -0.003 C 
ATOM      9  C   UNL     1      17.826 -31.990  20.552  1.00  0.00     0.004 C 
ENDBRANCH   7   8
ENDBRANCH   6   7
ENDBRANCH   1   6
TORSDOF 5
ENDMDL
MODEL 6
REMARK VINA RESULT:    -3.565      9.799     10.506
REMARK INTER + INTRA:          -4.935
REMARK INTER:                  -4.715
REMARK INTRA:                  -0.220
REMARK UNBOUND:                -0.328
REMARK SMILES CCCCCCC(=O)[O-]
REMARK SMILES IDX 5 1 6 2 7 3 8 4 9 5 4 6 3 7 2 8 1 9
REMARK H PARENT
REMARK Flexibility Score: inf
ROOT
ATOM      1  C   UNL     1      20.879 -25.364  20.079  1.00  0.00     0.006 C 
ENDROOT
BRANCH   1   2
ATOM      2  C   UNL     1      22.172 -24.875  20.745  1.00  0.00     0.053 C 
BRANCH   2   3
ATOM      3  C   UNL     1      23.221 -24.606  19.712  1.00  0.00     0.041 C 
ATOM      4  O   UNL     1      23.305 -25.335  18.688  1.00  0.00    -0.550 OA
ATOM      5  O   UNL     1      24.075 -23.520  19.856  1.00  0.00    -0.550 OA
ENDBRANCH   2   3
ENDBRANCH   1   2
BRANCH   1   6
ATOM      6  C   UNL     1      20.279 -26.592  20.782  1.00  0.00     0.000 C 
BRANCH   6   7
ATOM      7  C   UNL     1      21.241 -27.789  20.807  1.00  0.00    -0.000 C 
BRANCH   7   8
ATOM      8  C   UNL     1      20.503 -29.079  21.180  1.00  0.00    -0.003 C 
ATOM      9  C   UNL     1      18.998 -28.933  20.972  1.00  0.00     0.004 C 
ENDBRANCH   7   8
ENDBRANCH   6   7
ENDBRANCH   1   6
TORSDOF 5
ENDMDL
MODEL 7
REMARK VINA RESULT:    -3.552      2.593      5.094
REMARK INTER + INTRA:          -4.919
REMARK INTER:                  -4.848
REMARK INTRA:                  -0.070
REMARK UNBOUND:                -0.328
REMARK SMILES CCCCCCC(=O)[O-]
REMARK SMILES IDX 5 1 6 2 7 3 8 4 9 5 4 6 3 7 2 8 1 9
REMARK H PARENT
REMARK Flexibility Score: inf
ROOT
ATOM      1  C   UNL     1      14.320 -32.564  21.450  1.00  0.00     0.006 C 
ENDROOT
BRANCH   1   2
ATOM      2  C   UNL     1      13.482 -31.365  20.990  1.00  0.00     0.053 C 
BRANCH   2   3
ATOM      3  C   UNL     1      12.574 -30.910  22.090  1.00  0.00     0.041 C 
ATOM      4  O   UNL     1      12.936 -31.008  23.292  1.00  0.00    -0.550 OA
ATOM      5  O   UNL     1      11.348 -30.333  21.784  1.00  0.00    -0.550 OA
ENDBRANCH   2   3
ENDBRANCH   1   2
BRANCH   1   6
ATOM      6  C   UNL     1      14.629 -33.543  20.306  1.00  0.00     0.000 C 
BRANCH   6   7
ATOM      7  C   UNL     1      15.451 -34.755  20.769  1.00  0.00    -0.000 C 
BRANCH   7   8
ATOM      8  C   UNL     1      16.246 -35.355  19.604  1.00  0.00    -0.003 C 
ATOM      9  C   UNL     1      16.961 -36.636  20.026  1.00  0.00     0.004 C 
ENDBRANCH   7   8
ENDBRANCH   6   7
ENDBRANCH   1   6
TORSDOF 5
ENDMDL
MODEL 8
REMARK VINA RESULT:    -3.502     10.926     11.499
REMARK INTER + INTRA:          -4.853
REMARK INTER:                  -4.498
REMARK INTRA:                  -0.355
REMARK UNBOUND:                -0.328
REMARK SMILES CCCCCCC(=O)[O-]
REMARK SMILES IDX 5 1 6 2 7 3 8 4 9 5 4 6 3 7 2 8 1 9
REMARK H PARENT
REMARK Flexibility Score: inf
ROOT
ATOM      1  C   UNL     1      23.131 -26.244  20.379  1.00  0.00     0.006 C 
ENDROOT
BRANCH   1   2
ATOM      2  C   UNL     1      23.222 -24.929  19.594  1.00  0.00     0.053 C 
BRANCH   2   3
ATOM      3  C   UNL     1      23.699 -23.823  20.483  1.00  0.00     0.041 C 
ATOM      4  O   UNL     1      23.351 -23.786  21.692  1.00  0.00    -0.550 OA
ATOM      5  O   UNL     1      24.570 -22.860  19.987  1.00  0.00    -0.550 OA
ENDBRANCH   2   3
ENDBRANCH   1   2
BRANCH   1   6
ATOM      6  C   UNL     1      21.706 -26.819  20.405  1.00  0.00     0.000 C 
BRANCH   6   7
ATOM      7  C   UNL     1      20.627 -25.734  20.274  1.00  0.00    -0.000 C 
BRANCH   7   8
ATOM      8  C   UNL     1      19.883 -25.537  21.599  1.00  0.00    -0.003 C 
ATOM      9  C   UNL     1      19.850 -24.066  22.001  1.00  0.00     0.004 C 
ENDBRANCH   7   8
ENDBRANCH   6   7
ENDBRANCH   1   6
TORSDOF 5
ENDMDL
MODEL 9
REMARK VINA RESULT:    -3.480      5.350      7.087
REMARK INTER + INTRA:          -4.825
REMARK INTER:                  -4.657
REMARK INTRA:                  -0.168
REMARK UNBOUND:                -0.328
REMARK SMILES CCCCCCC(=O)[O-]
REMARK SMILES IDX 5 1 6 2 7 3 8 4 9 5 4 6 3 7 2 8 1 9
REMARK H PARENT
REMARK Flexibility Score: inf
ROOT
ATOM      1  C   UNL     1      17.953 -36.497  25.766  1.00  0.00     0.006 C 
ENDROOT
BRANCH   1   2
ATOM      2  C   UNL     1      16.917 -35.425  25.406  1.00  0.00     0.053 C 
BRANCH   2   3
ATOM      3  C   UNL     1      17.234 -34.821  24.073  1.00  0.00     0.041 C 
ATOM      4  O   UNL     1      17.869 -35.483  23.212  1.00  0.00    -0.550 OA
ATOM      5  O   UNL     1      16.785 -33.542  23.766  1.00  0.00    -0.550 OA
ENDBRANCH   2   3
ENDBRANCH   1   2
BRANCH   1   6
ATOM      6  C   UNL     1      17.731 -37.085  27.169  1.00  0.00     0.000 C 
BRANCH   6   7
ATOM      7  C   UNL     1      16.414 -37.867  27.282  1.00  0.00    -0.000 C 
BRANCH   7   8
ATOM      8  C   UNL     1      16.053 -38.124  28.749  1.00  0.00    -0.003 C 
ATOM      9  C   UNL     1      17.209 -37.756  29.675  1.00  0.00     0.004 C 
ENDBRANCH   7   8
ENDBRANCH   6   7
ENDBRANCH   1   6
TORSDOF 5
ENDMDL
