MODEL 1
REMARK VINA RESULT:    -5.010      0.000      0.000
REMARK INTER + INTRA:          -5.466
REMARK INTER:                  -5.303
REMARK INTRA:                  -0.163
REMARK UNBOUND:                -0.163
REMARK SMILES CC(C)[C@@H]1CC[C@H](C)CC1=O
REMARK SMILES IDX 8 1 7 2 6 3 5 4 4 5 10 6 11 7 9 8 2 9 1 10 3 11
REMARK H PARENT
REMARK Flexibility Score: inf
ROOT
ATOM      1  C   UNL     1     119.984 120.525 118.315  1.00  0.00     0.008 C 
ATOM      2  C   UNL     1     119.325 119.470 117.413  1.00  0.00    -0.007 C 
ATOM      3  C   UNL     1     119.739 118.032 117.803  1.00  0.00     0.004 C 
ATOM      4  C   UNL     1     119.135 117.592 119.148  1.00  0.00     0.012 C 
ATOM      5  C   UNL     1     117.593 117.701 119.144  1.00  0.00     0.058 C 
ATOM      6  C   UNL     1     117.180 119.084 118.666  1.00  0.00     0.136 C 
ATOM      7  O   UNL     1     116.308 119.729 119.227  1.00  0.00    -0.299 OA
ATOM      8  C   UNL     1     117.793 119.619 117.399  1.00  0.00     0.079 C 
ENDROOT
BRANCH   5   9
ATOM      9  C   UNL     1     116.979 117.235 120.503  1.00  0.00    -0.007 C 
ATOM     10  C   UNL     1     118.061 116.796 121.502  1.00  0.00     0.008 C 
ATOM     11  C   UNL     1     115.892 116.151 120.373  1.00  0.00     0.008 C 
ENDBRANCH   5   9
TORSDOF 1
ENDMDL
MODEL 2
REMARK VINA RESULT:    -4.989      2.328      4.229
REMARK INTER + INTRA:          -5.443
REMARK INTER:                  -5.277
REMARK INTRA:                  -0.166
REMARK UNBOUND:                -0.163
REMARK SMILES CC(C)[C@@H]1CC[C@H](C)CC1=O
REMARK SMILES IDX 8 1 7 2 6 3 5 4 4 5 10 6 11 7 9 8 2 9 1 10 3 11
REMARK H PARENT
REMARK Flexibility Score: inf
ROOT
ATOM      1  C   UNL     1     117.593 117.125 118.418  1.00  0.00     0.008 C 
ATOM      2  C   UNL     1     118.273 118.109 117.453  1.00  0.00    -0.007 C 
ATOM      3  C   UNL     1     117.902 119.577 117.765  1.00  0.00     0.004 C 
ATOM      4  C   UNL     1     118.530 120.075 119.079  1.00  0.00     0.012 C 
ATOM      5  C   UNL     1     120.068 119.923 119.070  1.00  0.00     0.058 C 
ATOM      6  C   UNL     1     120.439 118.504 118.668  1.00  0.00     0.136 C 
ATOM      7  O   UNL     1     121.297 117.868 119.258  1.00  0.00    -0.299 OA
ATOM      8  C   UNL     1     119.801 117.916 117.437  1.00  0.00     0.079 C 
ENDROOT
BRANCH   5   9
ATOM      9  C   UNL     1     120.706 120.447 120.397  1.00  0.00    -0.007 C 
ATOM     10  C   UNL     1     119.640 120.859 121.424  1.00  0.00     0.008 C 
ATOM     11  C   UNL     1     121.736 121.576 120.206  1.00  0.00     0.008 C 
ENDBRANCH   5   9
TORSDOF 1
ENDMDL
MODEL 3
REMARK VINA RESULT:    -4.986      2.029      2.987
REMARK INTER + INTRA:          -5.440
REMARK INTER:                  -5.273
REMARK INTRA:                  -0.167
REMARK UNBOUND:                -0.163
REMARK SMILES CC(C)[C@@H]1CC[C@H](C)CC1=O
REMARK SMILES IDX 8 1 7 2 6 3 5 4 4 5 10 6 11 7 9 8 2 9 1 10 3 11
REMARK H PARENT
REMARK Flexibility Score: inf
ROOT
ATOM      1  C   UNL     1     120.497 117.558 118.428  1.00  0.00     0.008 C 
ATOM      2  C   UNL     1     119.515 118.251 117.471  1.00  0.00    -0.007 C 
ATOM      3  C   UNL     1     118.045 117.886 117.784  1.00  0.00     0.004 C 
ATOM      4  C   UNL     1     117.554 118.506 119.103  1.00  0.00     0.012 C 
ATOM      5  C   UNL     1     117.715 120.043 119.107  1.00  0.00     0.058 C 
ATOM      6  C   UNL     1     119.135 120.409 118.704  1.00  0.00     0.136 C 
ATOM      7  O   UNL     1     119.777 121.259 119.300  1.00  0.00    -0.299 OA
ATOM      8  C   UNL     1     119.716 119.778 117.467  1.00  0.00     0.079 C 
ENDROOT
BRANCH   5   9
ATOM      9  C   UNL     1     117.197 120.673 120.440  1.00  0.00    -0.007 C 
ATOM     10  C   UNL     1     116.803 119.600 121.467  1.00  0.00     0.008 C 
ATOM     11  C   UNL     1     116.059 121.696 120.262  1.00  0.00     0.008 C 
ENDBRANCH   5   9
TORSDOF 1
ENDMDL
MODEL 4
REMARK VINA RESULT:    -4.960      2.002      2.937
REMARK INTER + INTRA:          -5.413
REMARK INTER:                  -5.246
REMARK INTRA:                  -0.167
REMARK UNBOUND:                -0.163
REMARK SMILES CC(C)[C@@H]1CC[C@H](C)CC1=O
REMARK SMILES IDX 8 1 7 2 6 3 5 4 4 5 10 6 11 7 9 8 2 9 1 10 3 11
REMARK H PARENT
REMARK Flexibility Score: inf
ROOT
ATOM      1  C   UNL     1     117.103 120.062 118.431  1.00  0.00     0.008 C 
ATOM      2  C   UNL     1     118.108 119.385 117.486  1.00  0.00    -0.007 C 
ATOM      3  C   UNL     1     119.570 119.746 117.838  1.00  0.00     0.004 C 
ATOM      4  C   UNL     1     120.032 119.105 119.158  1.00  0.00     0.012 C 
ATOM      5  C   UNL     1     119.872 117.569 119.134  1.00  0.00     0.058 C 
ATOM      6  C   UNL     1     118.463 117.208 118.693  1.00  0.00     0.136 C 
ATOM      7  O   UNL     1     117.808 116.348 119.260  1.00  0.00    -0.299 OA
ATOM      8  C   UNL     1     117.909 117.858 117.453  1.00  0.00     0.079 C 
ENDROOT
BRANCH   5   9
ATOM      9  C   UNL     1     120.360 116.917 120.468  1.00  0.00    -0.007 C 
ATOM     10  C   UNL     1     120.728 117.974 121.522  1.00  0.00     0.008 C 
ATOM     11  C   UNL     1     121.504 115.900 120.300  1.00  0.00     0.008 C 
ENDBRANCH   5   9
TORSDOF 1
ENDMDL
MODEL 5
REMARK VINA RESULT:    -4.838      1.897      3.616
REMARK INTER + INTRA:          -5.284
REMARK INTER:                  -5.100
REMARK INTRA:                  -0.183
REMARK UNBOUND:                -0.163
REMARK SMILES CC(C)[C@@H]1CC[C@H](C)CC1=O
REMARK SMILES IDX 8 1 7 2 6 3 5 4 4 5 10 6 11 7 9 8 2 9 1 10 3 11
REMARK H PARENT
REMARK Flexibility Score: inf
ROOT
ATOM      1  C   UNL     1     118.499 120.142 121.847  1.00  0.00     0.008 C 
ATOM      2  C   UNL     1     117.732 120.928 120.772  1.00  0.00    -0.007 C 
ATOM      3  C   UNL     1     118.670 121.469 119.669  1.00  0.00     0.004 C 
ATOM      4  C   UNL     1     119.233 120.350 118.775  1.00  0.00     0.012 C 
ATOM      5  C   UNL     1     118.105 119.514 118.128  1.00  0.00     0.058 C 
ATOM      6  C   UNL     1     117.126 119.062 119.200  1.00  0.00     0.136 C 
ATOM      7  O   UNL     1     116.696 117.920 119.242  1.00  0.00    -0.299 OA
ATOM      8  C   UNL     1     116.593 120.086 120.166  1.00  0.00     0.079 C 
ENDROOT
BRANCH   5   9
ATOM      9  C   UNL     1     118.678 118.391 117.205  1.00  0.00    -0.007 C 
ATOM     10  C   UNL     1     120.020 117.850 117.724  1.00  0.00     0.008 C 
ATOM     11  C   UNL     1     118.791 118.781 115.720  1.00  0.00     0.008 C 
ENDBRANCH   5   9
TORSDOF 1
ENDMDL
MODEL 6
REMARK VINA RESULT:    -4.817      1.738      4.154
REMARK INTER + INTRA:          -5.261
REMARK INTER:                  -5.080
REMARK INTRA:                  -0.182
REMARK UNBOUND:                -0.163
REMARK SMILES CC(C)[C@@H]1CC[C@H](C)CC1=O
REMARK SMILES IDX 8 1 7 2 6 3 5 4 4 5 10 6 11 7 9 8 2 9 1 10 3 11
REMARK H PARENT
REMARK Flexibility Score: inf
ROOT
ATOM      1  C   UNL     1     117.328 118.985 121.756  1.00  0.00     0.008 C 
ATOM      2  C   UNL     1     116.408 118.384 120.681  1.00  0.00    -0.007 C 
ATOM      3  C   UNL     1     116.092 119.396 119.556  1.00  0.00     0.004 C 
ATOM      4  C   UNL     1     117.315 119.692 118.670  1.00  0.00     0.012 C 
ATOM      5  C   UNL     1     117.899 118.401 118.053  1.00  0.00     0.058 C 
ATOM      6  C   UNL     1     118.120 117.367 119.145  1.00  0.00     0.136 C 
ATOM      7  O   UNL     1     119.142 116.704 119.210  1.00  0.00    -0.299 OA
ATOM      8  C   UNL     1     116.994 117.082 120.104  1.00  0.00     0.079 C 
ENDROOT
BRANCH   5   9
ATOM      9  C   UNL     1     119.129 118.705 117.138  1.00  0.00    -0.007 C 
ATOM     10  C   UNL     1     119.877 119.971 117.584  1.00  0.00     0.008 C 
ATOM     11  C   UNL     1     118.804 118.770 115.634  1.00  0.00     0.008 C 
ENDBRANCH   5   9
TORSDOF 1
ENDMDL
MODEL 7
REMARK VINA RESULT:    -4.807      2.007      4.125
REMARK INTER + INTRA:          -5.251
REMARK INTER:                  -5.067
REMARK INTRA:                  -0.183
REMARK UNBOUND:                -0.163
REMARK SMILES CC(C)[C@@H]1CC[C@H](C)CC1=O
REMARK SMILES IDX 8 1 7 2 6 3 5 4 4 5 10 6 11 7 9 8 2 9 1 10 3 11
REMARK H PARENT
REMARK Flexibility Score: inf
ROOT
ATOM      1  C   UNL     1     118.981 117.590 121.915  1.00  0.00     0.008 C 
ATOM      2  C   UNL     1     119.831 116.820 120.891  1.00  0.00    -0.007 C 
ATOM      3  C   UNL     1     118.969 116.215 119.759  1.00  0.00     0.004 C 
ATOM      4  C   UNL     1     118.396 117.290 118.819  1.00  0.00     0.012 C 
ATOM      5  C   UNL     1     119.512 118.165 118.204  1.00  0.00     0.058 C 
ATOM      6  C   UNL     1     120.421 118.682 119.308  1.00  0.00     0.136 C 
ATOM      7  O   UNL     1     120.796 119.843 119.345  1.00  0.00    -0.299 OA
ATOM      8  C   UNL     1     120.956 117.702 120.318  1.00  0.00     0.079 C 
ENDROOT
BRANCH   5   9
ATOM      9  C   UNL     1     118.931 119.243 117.234  1.00  0.00    -0.007 C 
ATOM     10  C   UNL     1     117.595 119.811 117.740  1.00  0.00     0.008 C 
ATOM     11  C   UNL     1     118.801 118.780 115.771  1.00  0.00     0.008 C 
ENDBRANCH   5   9
TORSDOF 1
ENDMDL
MODEL 8
REMARK VINA RESULT:    -4.772      2.065      3.529
REMARK INTER + INTRA:          -5.214
REMARK INTER:                  -5.031
REMARK INTRA:                  -0.183
REMARK UNBOUND:                -0.163
REMARK SMILES CC(C)[C@@H]1CC[C@H](C)CC1=O
REMARK SMILES IDX 8 1 7 2 6 3 5 4 4 5 10 6 11 7 9 8 2 9 1 10 3 11
REMARK H PARENT
REMARK Flexibility Score: inf
ROOT
ATOM      1  C   UNL     1     120.115 119.167 121.874  1.00  0.00     0.008 C 
ATOM      2  C   UNL     1     120.885 119.941 120.792  1.00  0.00    -0.007 C 
ATOM      3  C   UNL     1     121.445 119.005 119.696  1.00  0.00     0.004 C 
ATOM      4  C   UNL     1     120.337 118.412 118.808  1.00  0.00     0.012 C 
ATOM      5  C   UNL     1     119.479 119.516 118.152  1.00  0.00     0.058 C 
ATOM      6  C   UNL     1     119.006 120.495 119.215  1.00  0.00     0.136 C 
ATOM      7  O   UNL     1     117.856 120.903 119.254  1.00  0.00    -0.299 OA
ATOM      8  C   UNL     1     120.020 121.057 120.176  1.00  0.00     0.079 C 
ENDROOT
BRANCH   5   9
ATOM      9  C   UNL     1     118.367 118.913 117.234  1.00  0.00    -0.007 C 
ATOM     10  C   UNL     1     117.867 117.556 117.754  1.00  0.00     0.008 C 
ATOM     11  C   UNL     1     118.752 118.814 115.747  1.00  0.00     0.008 C 
ENDBRANCH   5   9
TORSDOF 1
ENDMDL
MODEL 9
REMARK VINA RESULT:    -4.727      1.081      3.958
REMARK INTER + INTRA:          -5.166
REMARK INTER:                  -4.988
REMARK INTRA:                  -0.178
REMARK UNBOUND:                -0.163
REMARK SMILES CC(C)[C@@H]1CC[C@H](C)CC1=O
REMARK SMILES IDX 8 1 7 2 6 3 5 4 4 5 10 6 11 7 9 8 2 9 1 10 3 11
REMARK H PARENT
REMARK Flexibility Score: inf
ROOT
ATOM      1  C   UNL     1     116.801 115.690 118.871  1.00  0.00     0.008 C 
ATOM      2  C   UNL     1     117.438 116.316 120.122  1.00  0.00    -0.007 C 
ATOM      3  C   UNL     1     118.963 116.512 119.959  1.00  0.00     0.004 C 
ATOM      4  C   UNL     1     119.309 117.619 118.948  1.00  0.00     0.012 C 
ATOM      5  C   UNL     1     118.654 118.966 119.330  1.00  0.00     0.058 C 
ATOM      6  C   UNL     1     117.170 118.758 119.587  1.00  0.00     0.136 C 
ATOM      7  O   UNL     1     116.325 119.521 119.147  1.00  0.00    -0.299 OA
ATOM      8  C   UNL     1     116.748 117.639 120.502  1.00  0.00     0.079 C 
ENDROOT
BRANCH   5   9
ATOM      9  C   UNL     1     119.022 120.094 118.314  1.00  0.00    -0.007 C 
ATOM     10  C   UNL     1     119.429 119.525 116.946  1.00  0.00     0.008 C 
ATOM     11  C   UNL     1     120.082 121.089 118.822  1.00  0.00     0.008 C 
ENDBRANCH   5   9
TORSDOF 1
ENDMDL
