MODEL 1
REMARK VINA RESULT:    -4.546      0.000      0.000
REMARK INTER + INTRA:          -6.083
REMARK INTER:                  -5.609
REMARK INTRA:                  -0.474
REMARK UNBOUND:                -0.474
REMARK SMILES C=CC[C@@H](C)C(=O)CC
REMARK SMILES IDX 4 1 5 2 6 3 7 4 8 5 9 6 3 7 2 8 1 9
REMARK H PARENT
REMARK Flexibility Score: inf
ROOT
ATOM      1  C   UNL     1      -1.264  14.602  22.612  1.00  0.00     0.057 C 
ATOM      2  C   UNL     1      -2.222  15.339  23.561  1.00  0.00     0.016 C 
ENDROOT
BRANCH   1   3
ATOM      3  C   UNL     1      -1.881  13.290  22.176  1.00  0.00     0.135 C 
ATOM      4  O   UNL     1      -1.159  12.337  21.919  1.00  0.00    -0.299 OA
BRANCH   3   5
ATOM      5  C   UNL     1      -3.373  13.134  22.048  1.00  0.00     0.072 C 
ATOM      6  C   UNL     1      -3.753  12.700  20.637  1.00  0.00     0.012 C 
ENDBRANCH   3   5
ENDBRANCH   1   3
BRANCH   1   7
ATOM      7  C   UNL     1      -0.915  15.456  21.378  1.00  0.00     0.038 C 
BRANCH   7   8
ATOM      8  C   UNL     1      -1.988  16.472  21.085  1.00  0.00    -0.034 C 
ATOM      9  C   UNL     1      -2.870  16.302  20.096  1.00  0.00     0.004 C 
ENDBRANCH   7   8
ENDBRANCH   1   7
TORSDOF 4
ENDMDL
MODEL 2
REMARK VINA RESULT:    -4.524      2.254      2.425
REMARK INTER + INTRA:          -6.056
REMARK INTER:                  -5.576
REMARK INTRA:                  -0.481
REMARK UNBOUND:                -0.474
REMARK SMILES C=CC[C@@H](C)C(=O)CC
REMARK SMILES IDX 4 1 5 2 6 3 7 4 8 5 9 6 3 7 2 8 1 9
REMARK H PARENT
REMARK Flexibility Score: inf
ROOT
ATOM      1  C   UNL     1      -0.468  15.907  22.897  1.00  0.00     0.057 C 
ATOM      2  C   UNL     1      -1.729  15.339  23.563  1.00  0.00     0.016 C 
ENDROOT
BRANCH   1   3
ATOM      3  C   UNL     1       0.444  14.775  22.473  1.00  0.00     0.135 C 
ATOM      4  O   UNL     1       1.657  14.910  22.558  1.00  0.00    -0.299 OA
BRANCH   3   5
ATOM      5  C   UNL     1      -0.114  13.481  21.941  1.00  0.00     0.072 C 
ATOM      6  C   UNL     1       0.017  13.418  20.424  1.00  0.00     0.012 C 
ENDBRANCH   3   5
ENDBRANCH   1   3
BRANCH   1   7
ATOM      7  C   UNL     1      -0.812  16.789  21.682  1.00  0.00     0.038 C 
BRANCH   7   8
ATOM      8  C   UNL     1      -2.253  16.630  21.271  1.00  0.00    -0.034 C 
ATOM      9  C   UNL     1      -2.596  16.164  20.067  1.00  0.00     0.004 C 
ENDBRANCH   7   8
ENDBRANCH   1   7
TORSDOF 4
ENDMDL
MODEL 3
REMARK VINA RESULT:    -4.505      5.526      6.362
REMARK INTER + INTRA:          -6.033
REMARK INTER:                  -5.800
REMARK INTRA:                  -0.233
REMARK UNBOUND:                -0.474
REMARK SMILES C=CC[C@@H](C)C(=O)CC
REMARK SMILES IDX 4 1 5 2 6 3 7 4 8 5 9 6 3 7 2 8 1 9
REMARK H PARENT
REMARK Flexibility Score: inf
ROOT
ATOM      1  C   UNL     1       2.260  10.065  20.920  1.00  0.00     0.057 C 
ATOM      2  C   UNL     1       2.961   8.877  20.247  1.00  0.00     0.016 C 
ENDROOT
BRANCH   1   3
ATOM      3  C   UNL     1       0.871   9.659  21.364  1.00  0.00     0.135 C 
ATOM      4  O   UNL     1      -0.037  10.479  21.340  1.00  0.00    -0.299 OA
BRANCH   3   5
ATOM      5  C   UNL     1       0.582   8.261  21.841  1.00  0.00     0.072 C 
ATOM      6  C   UNL     1      -0.518   8.265  22.897  1.00  0.00     0.012 C 
ENDBRANCH   3   5
ENDBRANCH   1   3
BRANCH   1   7
ATOM      7  C   UNL     1       3.064  10.594  22.124  1.00  0.00     0.038 C 
BRANCH   7   8
ATOM      8  C   UNL     1       3.865  11.817  21.761  1.00  0.00    -0.034 C 
ATOM      9  C   UNL     1       3.321  12.850  21.112  1.00  0.00     0.004 C 
ENDBRANCH   7   8
ENDBRANCH   1   7
TORSDOF 4
ENDMDL
MODEL 4
REMARK VINA RESULT:    -4.497      2.296      3.258
REMARK INTER + INTRA:          -6.023
REMARK INTER:                  -5.612
REMARK INTRA:                  -0.411
REMARK UNBOUND:                -0.474
REMARK SMILES C=CC[C@@H](C)C(=O)CC
REMARK SMILES IDX 4 1 5 2 6 3 7 4 8 5 9 6 3 7 2 8 1 9
REMARK H PARENT
REMARK Flexibility Score: inf
ROOT
ATOM      1  C   UNL     1      -1.271  15.217  22.169  1.00  0.00     0.057 C 
ATOM      2  C   UNL     1      -2.125  15.296  23.442  1.00  0.00     0.016 C 
ENDROOT
BRANCH   1   3
ATOM      3  C   UNL     1      -1.519  16.435  21.306  1.00  0.00     0.135 C 
ATOM      4  O   UNL     1      -0.765  17.396  21.383  1.00  0.00    -0.299 OA
BRANCH   3   5
ATOM      5  C   UNL     1      -2.682  16.492  20.352  1.00  0.00     0.072 C 
ATOM      6  C   UNL     1      -2.945  15.123  19.736  1.00  0.00     0.012 C 
ENDBRANCH   3   5
ENDBRANCH   1   3
BRANCH   1   7
ATOM      7  C   UNL     1       0.231  15.100  22.496  1.00  0.00     0.038 C 
BRANCH   7   8
ATOM      8  C   UNL     1       0.889  14.006  21.697  1.00  0.00    -0.034 C 
ATOM      9  C   UNL     1       0.243  13.357  20.724  1.00  0.00     0.004 C 
ENDBRANCH   7   8
ENDBRANCH   1   7
TORSDOF 4
ENDMDL
MODEL 5
REMARK VINA RESULT:    -4.487      1.632      3.855
REMARK INTER + INTRA:          -6.010
REMARK INTER:                  -5.795
REMARK INTRA:                  -0.216
REMARK UNBOUND:                -0.474
REMARK SMILES C=CC[C@@H](C)C(=O)CC
REMARK SMILES IDX 4 1 5 2 6 3 7 4 8 5 9 6 3 7 2 8 1 9
REMARK H PARENT
REMARK Flexibility Score: inf
ROOT
ATOM      1  C   UNL     1      -2.019  15.151  21.143  1.00  0.00     0.057 C 
ATOM      2  C   UNL     1      -2.704  16.360  20.491  1.00  0.00     0.016 C 
ENDROOT
BRANCH   1   3
ATOM      3  C   UNL     1      -0.628  15.533  21.602  1.00  0.00     0.135 C 
ATOM      4  O   UNL     1       0.256  14.687  21.629  1.00  0.00    -0.299 OA
BRANCH   3   5
ATOM      5  C   UNL     1      -0.308  16.940  22.032  1.00  0.00     0.072 C 
ATOM      6  C   UNL     1       0.685  16.940  23.189  1.00  0.00     0.012 C 
ENDBRANCH   3   5
ENDBRANCH   1   3
BRANCH   1   7
ATOM      7  C   UNL     1      -2.834  14.605  22.332  1.00  0.00     0.038 C 
BRANCH   7   8
ATOM      8  C   UNL     1      -3.659  13.408  21.935  1.00  0.00    -0.034 C 
ATOM      9  C   UNL     1      -3.103  12.221  21.679  1.00  0.00     0.004 C 
ENDBRANCH   7   8
ENDBRANCH   1   7
TORSDOF 4
ENDMDL
MODEL 6
REMARK VINA RESULT:    -4.476      4.877      6.362
REMARK INTER + INTRA:          -5.997
REMARK INTER:                  -5.506
REMARK INTRA:                  -0.491
REMARK UNBOUND:                -0.474
REMARK SMILES C=CC[C@@H](C)C(=O)CC
REMARK SMILES IDX 4 1 5 2 6 3 7 4 8 5 9 6 3 7 2 8 1 9
REMARK H PARENT
REMARK Flexibility Score: inf
ROOT
ATOM      1  C   UNL     1       0.968   9.420  22.670  1.00  0.00     0.057 C 
ATOM      2  C   UNL     1       2.253   9.729  23.451  1.00  0.00     0.016 C 
ENDROOT
BRANCH   1   3
ATOM      3  C   UNL     1       0.346  10.708  22.174  1.00  0.00     0.135 C 
ATOM      4  O   UNL     1      -0.794  10.698  21.729  1.00  0.00    -0.299 OA
BRANCH   3   5
ATOM      5  C   UNL     1       1.105  12.007  22.213  1.00  0.00     0.072 C 
ATOM      6  C   UNL     1       1.297  12.565  20.808  1.00  0.00     0.012 C 
ENDBRANCH   3   5
ENDBRANCH   1   3
BRANCH   1   7
ATOM      7  C   UNL     1       1.235   8.473  21.484  1.00  0.00     0.038 C 
BRANCH   7   8
ATOM      8  C   UNL     1       2.647   8.608  20.975  1.00  0.00    -0.034 C 
ATOM      9  C   UNL     1       2.935   9.297  19.868  1.00  0.00     0.004 C 
ENDBRANCH   7   8
ENDBRANCH   1   7
TORSDOF 4
ENDMDL
MODEL 7
REMARK VINA RESULT:    -4.434      5.010      6.146
REMARK INTER + INTRA:          -5.945
REMARK INTER:                  -5.462
REMARK INTRA:                  -0.482
REMARK UNBOUND:                -0.474
REMARK SMILES C=CC[C@@H](C)C(=O)CC
REMARK SMILES IDX 4 1 5 2 6 3 7 4 8 5 9 6 3 7 2 8 1 9
REMARK H PARENT
REMARK Flexibility Score: inf
ROOT
ATOM      1  C   UNL     1       1.474   9.926  22.251  1.00  0.00     0.057 C 
ATOM      2  C   UNL     1       2.272   9.689  23.542  1.00  0.00     0.016 C 
ENDROOT
BRANCH   1   3
ATOM      3  C   UNL     1       1.566   8.707  21.359  1.00  0.00     0.135 C 
ATOM      4  O   UNL     1       0.773   7.786  21.506  1.00  0.00    -0.299 OA
BRANCH   3   5
ATOM      5  C   UNL     1       2.620   8.600  20.289  1.00  0.00     0.072 C 
ATOM      6  C   UNL     1       2.979   9.977  19.743  1.00  0.00     0.012 C 
ENDBRANCH   3   5
ENDBRANCH   1   3
BRANCH   1   7
ATOM      7  C   UNL     1      -0.003  10.253  22.545  1.00  0.00     0.038 C 
BRANCH   7   8
ATOM      8  C   UNL     1      -0.614  11.089  21.451  1.00  0.00    -0.034 C 
ATOM      9  C   UNL     1       0.053  12.092  20.873  1.00  0.00     0.004 C 
ENDBRANCH   7   8
ENDBRANCH   1   7
TORSDOF 4
ENDMDL
MODEL 8
REMARK VINA RESULT:    -4.417      2.415      3.684
REMARK INTER + INTRA:          -5.924
REMARK INTER:                  -5.506
REMARK INTRA:                  -0.418
REMARK UNBOUND:                -0.474
REMARK SMILES C=CC[C@@H](C)C(=O)CC
REMARK SMILES IDX 4 1 5 2 6 3 7 4 8 5 9 6 3 7 2 8 1 9
REMARK H PARENT
REMARK Flexibility Score: inf
ROOT
ATOM      1  C   UNL     1      -0.707  15.862  22.159  1.00  0.00     0.057 C 
ATOM      2  C   UNL     1      -0.865  17.219  21.457  1.00  0.00     0.016 C 
ENDROOT
BRANCH   1   3
ATOM      3  C   UNL     1       0.626  15.805  22.873  1.00  0.00     0.135 C 
ATOM      4  O   UNL     1       0.925  16.684  23.670  1.00  0.00    -0.299 OA
BRANCH   3   5
ATOM      5  C   UNL     1       1.600  14.686  22.620  1.00  0.00     0.072 C 
ATOM      6  C   UNL     1       1.034  13.694  21.610  1.00  0.00     0.012 C 
ENDBRANCH   3   5
ENDBRANCH   1   3
BRANCH   1   7
ATOM      7  C   UNL     1      -1.851  15.600  23.158  1.00  0.00     0.038 C 
BRANCH   7   8
ATOM      8  C   UNL     1      -2.634  14.366  22.792  1.00  0.00    -0.034 C 
ATOM      9  C   UNL     1      -3.188  14.213  21.586  1.00  0.00     0.004 C 
ENDBRANCH   7   8
ENDBRANCH   1   7
TORSDOF 4
ENDMDL
MODEL 9
REMARK VINA RESULT:    -4.392      1.707      2.806
REMARK INTER + INTRA:          -5.893
REMARK INTER:                  -5.508
REMARK INTRA:                  -0.385
REMARK UNBOUND:                -0.474
REMARK SMILES C=CC[C@@H](C)C(=O)CC
REMARK SMILES IDX 4 1 5 2 6 3 7 4 8 5 9 6 3 7 2 8 1 9
REMARK H PARENT
REMARK Flexibility Score: inf
ROOT
ATOM      1  C   UNL     1      -2.307  15.997  22.148  1.00  0.00     0.057 C 
ATOM      2  C   UNL     1      -1.156  16.734  21.448  1.00  0.00     0.016 C 
ENDROOT
BRANCH   1   3
ATOM      3  C   UNL     1      -2.943  15.010  21.191  1.00  0.00     0.135 C 
ATOM      4  O   UNL     1      -2.945  15.245  19.991  1.00  0.00    -0.299 OA
BRANCH   3   5
ATOM      5  C   UNL     1      -3.579  13.740  21.689  1.00  0.00     0.072 C 
ATOM      6  C   UNL     1      -3.539  12.657  20.617  1.00  0.00     0.012 C 
ENDBRANCH   3   5
ENDBRANCH   1   3
BRANCH   1   7
ATOM      7  C   UNL     1      -1.829  15.266  23.417  1.00  0.00     0.038 C 
BRANCH   7   8
ATOM      8  C   UNL     1      -0.388  14.841  23.301  1.00  0.00    -0.034 C 
ATOM      9  C   UNL     1      -0.044  13.583  23.014  1.00  0.00     0.004 C 
ENDBRANCH   7   8
ENDBRANCH   1   7
TORSDOF 4
ENDMDL
