MODEL 1
REMARK VINA RESULT:    -2.692      0.000      0.000
REMARK INTER + INTRA:          -2.692
REMARK INTER:                  -2.692
REMARK INTRA:                   0.000
REMARK UNBOUND:                 0.000
REMARK SMILES CC1(C)C(=O)[C@]2(C)CC[C@H]1C2
REMARK SMILES IDX 1 1 2 2 10 3 9 4 8 5 6 6 11 7 4 8 5 9 7 10 3 11
REMARK H PARENT
REMARK Flexibility Score: inf
ROOT
ATOM      1  C   UNL     1     112.217 123.957 109.343  1.00  0.00     0.020 C 
ATOM      2  C   UNL     1     112.788 122.977 108.296  1.00  0.00     0.027 C 
ATOM      3  C   UNL     1     112.946 121.528 108.885  1.00  0.00     0.003 C 
ATOM      4  C   UNL     1     113.345 120.516 107.781  1.00  0.00     0.005 C 
ATOM      5  C   UNL     1     114.784 120.948 107.416  1.00  0.00     0.015 C 
ATOM      6  C   UNL     1     115.061 122.082 108.422  1.00  0.00     0.027 C 
ATOM      7  C   UNL     1     114.277 121.613 109.631  1.00  0.00     0.019 C 
ATOM      8  C   UNL     1     114.233 123.268 108.011  1.00  0.00     0.144 C 
ATOM      9  O   UNL     1     114.657 124.274 107.463  1.00  0.00    -0.298 OA
ATOM     10  C   UNL     1     116.538 122.375 108.690  1.00  0.00     0.020 C 
ATOM     11  C   UNL     1     111.931 123.050 107.013  1.00  0.00     0.020 C 
ENDROOT
TORSDOF 0
ENDMDL
MODEL 2
REMARK VINA RESULT:    -2.690      8.315      9.890
REMARK INTER + INTRA:          -2.690
REMARK INTER:                  -2.690
REMARK INTRA:                   0.000
REMARK UNBOUND:                 0.000
REMARK SMILES CC1(C)C(=O)[C@]2(C)CC[C@H]1C2
REMARK SMILES IDX 1 1 2 2 10 3 9 4 8 5 6 6 11 7 4 8 5 9 7 10 3 11
REMARK H PARENT
REMARK Flexibility Score: inf
ROOT
ATOM      1  C   UNL     1     108.046 112.192 109.381  1.00  0.00     0.020 C 
ATOM      2  C   UNL     1     109.021 112.765 108.331  1.00  0.00     0.027 C 
ATOM      3  C   UNL     1     110.471 112.928 108.916  1.00  0.00     0.003 C 
ATOM      4  C   UNL     1     111.479 113.329 107.809  1.00  0.00     0.005 C 
ATOM      5  C   UNL     1     111.043 114.766 107.444  1.00  0.00     0.015 C 
ATOM      6  C   UNL     1     109.910 115.041 108.453  1.00  0.00     0.027 C 
ATOM      7  C   UNL     1     110.384 114.259 109.662  1.00  0.00     0.019 C 
ATOM      8  C   UNL     1     108.726 114.209 108.045  1.00  0.00     0.144 C 
ATOM      9  O   UNL     1     107.717 114.630 107.500  1.00  0.00    -0.298 OA
ATOM     10  C   UNL     1     109.614 116.518 108.720  1.00  0.00     0.020 C 
ATOM     11  C   UNL     1     108.948 111.907 107.049  1.00  0.00     0.020 C 
ENDROOT
TORSDOF 0
ENDMDL
MODEL 3
REMARK VINA RESULT:    -2.688     12.425     13.988
REMARK INTER + INTRA:          -2.688
REMARK INTER:                  -2.688
REMARK INTRA:                   0.000
REMARK UNBOUND:                 0.000
REMARK SMILES CC1(C)C(=O)[C@]2(C)CC[C@H]1C2
REMARK SMILES IDX 1 1 2 2 10 3 9 4 8 5 6 6 11 7 4 8 5 9 7 10 3 11
REMARK H PARENT
REMARK Flexibility Score: inf
ROOT
ATOM      1  C   UNL     1     119.801 108.043 109.408  1.00  0.00     0.020 C 
ATOM      2  C   UNL     1     119.243 108.995 108.330  1.00  0.00     0.027 C 
ATOM      3  C   UNL     1     119.087 110.461 108.876  1.00  0.00     0.003 C 
ATOM      4  C   UNL     1     118.701 111.443 107.740  1.00  0.00     0.005 C 
ATOM      5  C   UNL     1     117.263 111.008 107.377  1.00  0.00     0.015 C 
ATOM      6  C   UNL     1     116.973 109.904 108.413  1.00  0.00     0.027 C 
ATOM      7  C   UNL     1     117.751 110.403 109.614  1.00  0.00     0.019 C 
ATOM      8  C   UNL     1     117.798 108.703 108.042  1.00  0.00     0.144 C 
ATOM      9  O   UNL     1     117.373 107.684 107.520  1.00  0.00    -0.298 OA
ATOM     10  C   UNL     1     115.492 109.626 108.679  1.00  0.00     0.020 C 
ATOM     11  C   UNL     1     120.108 108.882 107.055  1.00  0.00     0.020 C 
ENDROOT
TORSDOF 0
ENDMDL
MODEL 4
REMARK VINA RESULT:    -2.686      8.331      9.887
REMARK INTER + INTRA:          -2.686
REMARK INTER:                  -2.686
REMARK INTRA:                   0.000
REMARK UNBOUND:                 0.000
REMARK SMILES CC1(C)C(=O)[C@]2(C)CC[C@H]1C2
REMARK SMILES IDX 1 1 2 2 10 3 9 4 8 5 6 6 11 7 4 8 5 9 7 10 3 11
REMARK H PARENT
REMARK Flexibility Score: inf
ROOT
ATOM      1  C   UNL     1     123.951 119.810 109.413  1.00  0.00     0.020 C 
ATOM      2  C   UNL     1     123.015 119.246 108.323  1.00  0.00     0.027 C 
ATOM      3  C   UNL     1     121.542 119.090 108.848  1.00  0.00     0.003 C 
ATOM      4  C   UNL     1     120.577 118.698 107.700  1.00  0.00     0.005 C 
ATOM      5  C   UNL     1     121.019 117.259 107.349  1.00  0.00     0.015 C 
ATOM      6  C   UNL     1     122.108 116.974 108.402  1.00  0.00     0.027 C 
ATOM      7  C   UNL     1     121.591 117.756 109.593  1.00  0.00     0.019 C 
ATOM      8  C   UNL     1     123.314 117.800 108.045  1.00  0.00     0.144 C 
ATOM      9  O   UNL     1     124.341 117.375 107.540  1.00  0.00    -0.298 OA
ATOM     10  C   UNL     1     122.385 115.495 108.677  1.00  0.00     0.020 C 
ATOM     11  C   UNL     1     123.146 120.106 107.047  1.00  0.00     0.020 C 
ENDROOT
TORSDOF 0
ENDMDL
MODEL 5
REMARK VINA RESULT:    -2.609      1.593      2.678
REMARK INTER + INTRA:          -2.609
REMARK INTER:                  -2.609
REMARK INTRA:                   0.000
REMARK UNBOUND:                 0.000
REMARK SMILES CC1(C)C(=O)[C@]2(C)CC[C@H]1C2
REMARK SMILES IDX 1 1 2 2 10 3 9 4 8 5 6 6 11 7 4 8 5 9 7 10 3 11
REMARK H PARENT
REMARK Flexibility Score: inf
ROOT
ATOM      1  C   UNL     1     111.403 123.742 106.963  1.00  0.00     0.020 C 
ATOM      2  C   UNL     1     112.717 123.567 107.753  1.00  0.00     0.027 C 
ATOM      3  C   UNL     1     113.752 122.684 106.967  1.00  0.00     0.003 C 
ATOM      4  C   UNL     1     115.128 122.665 107.681  1.00  0.00     0.005 C 
ATOM      5  C   UNL     1     114.839 121.867 108.973  1.00  0.00     0.015 C 
ATOM      6  C   UNL     1     113.367 121.447 108.788  1.00  0.00     0.027 C 
ATOM      7  C   UNL     1     113.291 121.262 107.286  1.00  0.00     0.019 C 
ATOM      8  C   UNL     1     112.519 122.679 108.948  1.00  0.00     0.144 C 
ATOM      9  O   UNL     1     111.837 122.949 109.925  1.00  0.00    -0.298 OA
ATOM     10  C   UNL     1     112.923 120.234 109.607  1.00  0.00     0.020 C 
ATOM     11  C   UNL     1     113.251 124.956 108.164  1.00  0.00     0.020 C 
ENDROOT
TORSDOF 0
ENDMDL
MODEL 6
REMARK VINA RESULT:    -2.592      7.844      9.892
REMARK INTER + INTRA:          -2.592
REMARK INTER:                  -2.592
REMARK INTRA:                   0.000
REMARK UNBOUND:                 0.000
REMARK SMILES CC1(C)C(=O)[C@]2(C)CC[C@H]1C2
REMARK SMILES IDX 1 1 2 2 10 3 9 4 8 5 6 6 11 7 4 8 5 9 7 10 3 11
REMARK H PARENT
REMARK Flexibility Score: inf
ROOT
ATOM      1  C   UNL     1     123.771 120.554 107.017  1.00  0.00     0.020 C 
ATOM      2  C   UNL     1     123.588 119.203 107.741  1.00  0.00     0.027 C 
ATOM      3  C   UNL     1     122.658 118.232 106.928  1.00  0.00     0.003 C 
ATOM      4  C   UNL     1     122.628 116.821 107.569  1.00  0.00     0.005 C 
ATOM      5  C   UNL     1     121.876 117.057 108.899  1.00  0.00     0.015 C 
ATOM      6  C   UNL     1     121.486 118.545 108.805  1.00  0.00     0.027 C 
ATOM      7  C   UNL     1     121.258 118.706 107.316  1.00  0.00     0.019 C 
ATOM      8  C   UNL     1     122.741 119.357 108.972  1.00  0.00     0.144 C 
ATOM      9  O   UNL     1     123.057 119.978 109.975  1.00  0.00    -0.298 OA
ATOM     10  C   UNL     1     120.308 118.972 109.684  1.00  0.00     0.020 C 
ATOM     11  C   UNL     1     124.976 118.617 108.079  1.00  0.00     0.020 C 
ENDROOT
TORSDOF 0
ENDMDL
MODEL 7
REMARK VINA RESULT:    -2.576     12.737     14.268
REMARK INTER + INTRA:          -2.576
REMARK INTER:                  -2.576
REMARK INTRA:                   0.000
REMARK UNBOUND:                 0.000
REMARK SMILES CC1(C)C(=O)[C@]2(C)CC[C@H]1C2
REMARK SMILES IDX 1 1 2 2 10 3 9 4 8 5 6 6 11 7 4 8 5 9 7 10 3 11
REMARK H PARENT
REMARK Flexibility Score: inf
ROOT
ATOM      1  C   UNL     1     120.576 108.138 107.041  1.00  0.00     0.020 C 
ATOM      2  C   UNL     1     119.232 108.355 107.766  1.00  0.00     0.027 C 
ATOM      3  C   UNL     1     118.274 109.289 106.941  1.00  0.00     0.003 C 
ATOM      4  C   UNL     1     116.865 109.354 107.585  1.00  0.00     0.005 C 
ATOM      5  C   UNL     1     117.119 110.123 108.902  1.00  0.00     0.015 C 
ATOM      6  C   UNL     1     118.613 110.486 108.798  1.00  0.00     0.027 C 
ATOM      7  C   UNL     1     118.774 110.687 107.304  1.00  0.00     0.019 C 
ATOM      8  C   UNL     1     119.403 109.220 108.982  1.00  0.00     0.144 C 
ATOM      9  O   UNL     1     120.023 108.909 109.988  1.00  0.00    -0.298 OA
ATOM     10  C   UNL     1     119.063 111.670 109.656  1.00  0.00     0.020 C 
ATOM     11  C   UNL     1     118.623 106.983 108.128  1.00  0.00     0.020 C 
ENDROOT
TORSDOF 0
ENDMDL
MODEL 8
REMARK VINA RESULT:    -2.572      9.048     10.597
REMARK INTER + INTRA:          -2.572
REMARK INTER:                  -2.572
REMARK INTRA:                   0.000
REMARK UNBOUND:                 0.000
REMARK SMILES CC1(C)C(=O)[C@]2(C)CC[C@H]1C2
REMARK SMILES IDX 1 1 2 2 10 3 9 4 8 5 6 6 11 7 4 8 5 9 7 10 3 11
REMARK H PARENT
REMARK Flexibility Score: inf
ROOT
ATOM      1  C   UNL     1     108.124 111.425 107.037  1.00  0.00     0.020 C 
ATOM      2  C   UNL     1     108.344 112.771 107.759  1.00  0.00     0.027 C 
ATOM      3  C   UNL     1     109.268 113.730 106.926  1.00  0.00     0.003 C 
ATOM      4  C   UNL     1     109.335 115.140 107.568  1.00  0.00     0.005 C 
ATOM      5  C   UNL     1     110.114 114.890 108.879  1.00  0.00     0.015 C 
ATOM      6  C   UNL     1     110.480 113.396 108.774  1.00  0.00     0.027 C 
ATOM      7  C   UNL     1     110.670 113.235 107.279  1.00  0.00     0.019 C 
ATOM      8  C   UNL     1     109.218 112.603 108.969  1.00  0.00     0.144 C 
ATOM      9  O   UNL     1     108.917 111.984 109.978  1.00  0.00    -0.298 OA
ATOM     10  C   UNL     1     111.672 112.951 109.623  1.00  0.00     0.020 C 
ATOM     11  C   UNL     1     106.973 113.377 108.131  1.00  0.00     0.020 C 
ENDROOT
TORSDOF 0
ENDMDL
MODEL 9
REMARK VINA RESULT:    -2.565      8.827     10.071
REMARK INTER + INTRA:          -2.565
REMARK INTER:                  -2.565
REMARK INTRA:                   0.000
REMARK UNBOUND:                 0.000
REMARK SMILES CC1(C)C(=O)[C@]2(C)CC[C@H]1C2
REMARK SMILES IDX 1 1 2 2 10 3 9 4 8 5 6 6 11 7 4 8 5 9 7 10 3 11
REMARK H PARENT
REMARK Flexibility Score: inf
ROOT
ATOM      1  C   UNL     1     121.975 116.129 106.379  1.00  0.00     0.020 C 
ATOM      2  C   UNL     1     122.161 116.726 107.790  1.00  0.00     0.027 C 
ATOM      3  C   UNL     1     120.978 117.687 108.172  1.00  0.00     0.003 C 
ATOM      4  C   UNL     1     121.079 118.136 109.652  1.00  0.00     0.005 C 
ATOM      5  C   UNL     1     122.332 119.041 109.658  1.00  0.00     0.015 C 
ATOM      6  C   UNL     1     122.730 119.075 108.169  1.00  0.00     0.027 C 
ATOM      7  C   UNL     1     121.376 118.996 107.491  1.00  0.00     0.019 C 
ATOM      8  C   UNL     1     123.284 117.723 107.815  1.00  0.00     0.144 C 
ATOM      9  O   UNL     1     124.466 117.461 107.648  1.00  0.00    -0.298 OA
ATOM     10  C   UNL     1     123.590 120.267 107.747  1.00  0.00     0.020 C 
ATOM     11  C   UNL     1     122.399 115.580 108.798  1.00  0.00     0.020 C 
ENDROOT
TORSDOF 0
ENDMDL
