MODEL 1
REMARK VINA RESULT:    -3.214      0.000      0.000
REMARK INTER + INTRA:          -6.374
REMARK INTER:                  -5.187
REMARK INTRA:                  -1.187
REMARK UNBOUND:                -1.187
REMARK SMILES CCCCCCCCCCCCO
REMARK SMILES IDX 7 1 6 2 5 3 4 4 3 5 2 6 1 7 8 8 9 9 10 10 11 11 12 12 13 13
REMARK H PARENT 13 14
REMARK Flexibility Score: inf
ROOT
ATOM      1  C   UNL     1     116.816 114.200 118.974  1.00  0.00     0.000 C 
ENDROOT
BRANCH   1   2
ATOM      2  C   UNL     1     115.671 114.517 119.949  1.00  0.00    -0.000 C 
BRANCH   2   3
ATOM      3  C   UNL     1     114.336 114.776 119.230  1.00  0.00    -0.000 C 
BRANCH   3   4
ATOM      4  C   UNL     1     113.746 116.155 119.561  1.00  0.00    -0.000 C 
BRANCH   4   5
ATOM      5  C   UNL     1     114.727 117.051 120.338  1.00  0.00    -0.000 C 
BRANCH   5   6
ATOM      6  C   UNL     1     114.865 118.450 119.716  1.00  0.00    -0.003 C 
ATOM      7  C   UNL     1     114.765 118.429 118.191  1.00  0.00     0.004 C 
ENDBRANCH   5   6
ENDBRANCH   4   5
ENDBRANCH   3   4
ENDBRANCH   2   3
ENDBRANCH   1   2
BRANCH   1   8
ATOM      8  C   UNL     1     118.198 114.261 119.640  1.00  0.00     0.000 C 
BRANCH   8   9
ATOM      9  C   UNL     1     118.362 115.557 120.450  1.00  0.00     0.000 C 
BRANCH   9  10
ATOM     10  C   UNL     1     118.764 116.754 119.562  1.00  0.00     0.002 C 
BRANCH  10  11
ATOM     11  C   UNL     1     118.581 118.119 120.248  1.00  0.00     0.028 C 
BRANCH  11  12
ATOM     12  C   UNL     1     118.097 118.004 121.694  1.00  0.00     0.156 C 
BRANCH  12  13
ATOM     13  O   UNL     1     118.870 118.837 122.511  1.00  0.00    -0.396 OA
ATOM     14  H   UNL     1     118.228 119.378 123.040  1.00  0.00     0.210 HD
ENDBRANCH  12  13
ENDBRANCH  11  12
ENDBRANCH  10  11
ENDBRANCH   9  10
ENDBRANCH   8   9
ENDBRANCH   1   8
TORSDOF 11
ENDMDL
MODEL 2
REMARK VINA RESULT:    -3.176      1.890      2.856
REMARK INTER + INTRA:          -6.312
REMARK INTER:                  -4.741
REMARK INTRA:                  -1.571
REMARK UNBOUND:                -1.187
REMARK SMILES CCCCCCCCCCCCO
REMARK SMILES IDX 7 1 6 2 5 3 4 4 3 5 2 6 1 7 8 8 9 9 10 10 11 11 12 12 13 13
REMARK H PARENT 13 14
REMARK Flexibility Score: inf
ROOT
ATOM      1  C   UNL     1     118.142 115.069 120.208  1.00  0.00     0.000 C 
ENDROOT
BRANCH   1   2
ATOM      2  C   UNL     1     117.761 115.400 121.660  1.00  0.00    -0.000 C 
BRANCH   2   3
ATOM      3  C   UNL     1     116.265 115.717 121.822  1.00  0.00    -0.000 C 
BRANCH   3   4
ATOM      4  C   UNL     1     115.401 115.056 120.737  1.00  0.00    -0.000 C 
BRANCH   4   5
ATOM      5  C   UNL     1     114.359 116.017 120.138  1.00  0.00    -0.000 C 
BRANCH   5   6
ATOM      6  C   UNL     1     114.373 116.018 118.602  1.00  0.00    -0.003 C 
ATOM      7  C   UNL     1     114.985 114.745 118.018  1.00  0.00     0.004 C 
ENDBRANCH   5   6
ENDBRANCH   4   5
ENDBRANCH   3   4
ENDBRANCH   2   3
ENDBRANCH   1   2
BRANCH   1   8
ATOM      8  C   UNL     1     118.874 116.223 119.508  1.00  0.00     0.000 C 
BRANCH   8   9
ATOM      9  C   UNL     1     117.915 117.020 118.610  1.00  0.00     0.000 C 
BRANCH   9  10
ATOM     10  C   UNL     1     117.890 118.521 118.970  1.00  0.00     0.002 C 
BRANCH  10  11
ATOM     11  C   UNL     1     116.775 118.900 119.959  1.00  0.00     0.028 C 
BRANCH  11  12
ATOM     12  C   UNL     1     115.639 119.690 119.309  1.00  0.00     0.156 C 
BRANCH  12  13
ATOM     13  O   UNL     1     115.377 120.837 120.067  1.00  0.00    -0.396 OA
ATOM     14  H   UNL     1     116.199 121.392 120.021  1.00  0.00     0.210 HD
ENDBRANCH  12  13
ENDBRANCH  11  12
ENDBRANCH  10  11
ENDBRANCH   9  10
ENDBRANCH   8   9
ENDBRANCH   1   8
TORSDOF 11
ENDMDL
MODEL 3
REMARK VINA RESULT:    -3.163      1.638      3.739
REMARK INTER + INTRA:          -6.291
REMARK INTER:                  -4.817
REMARK INTRA:                  -1.474
REMARK UNBOUND:                -1.187
REMARK SMILES CCCCCCCCCCCCO
REMARK SMILES IDX 7 1 6 2 5 3 4 4 3 5 2 6 1 7 8 8 9 9 10 10 11 11 12 12 13 13
REMARK H PARENT 13 14
REMARK Flexibility Score: inf
ROOT
ATOM      1  C   UNL     1     114.065 116.248 119.883  1.00  0.00     0.000 C 
ENDROOT
BRANCH   1   2
ATOM      2  C   UNL     1     114.635 114.822 119.839  1.00  0.00    -0.000 C 
BRANCH   2   3
ATOM      3  C   UNL     1     115.921 114.724 119.001  1.00  0.00    -0.000 C 
BRANCH   3   4
ATOM      4  C   UNL     1     117.029 113.931 119.712  1.00  0.00    -0.000 C 
BRANCH   4   5
ATOM      5  C   UNL     1     118.439 114.446 119.372  1.00  0.00    -0.000 C 
BRANCH   5   6
ATOM      6  C   UNL     1     118.418 115.848 118.743  1.00  0.00    -0.003 C 
ATOM      7  C   UNL     1     119.222 116.867 119.549  1.00  0.00     0.004 C 
ENDBRANCH   5   6
ENDBRANCH   4   5
ENDBRANCH   3   4
ENDBRANCH   2   3
ENDBRANCH   1   2
BRANCH   1   8
ATOM      8  C   UNL     1     115.134 117.323 119.636  1.00  0.00     0.000 C 
BRANCH   8   9
ATOM      9  C   UNL     1     115.254 118.267 120.842  1.00  0.00     0.000 C 
BRANCH   9  10
ATOM     10  C   UNL     1     115.513 117.504 122.158  1.00  0.00     0.002 C 
BRANCH  10  11
ATOM     11  C   UNL     1     116.968 117.033 122.322  1.00  0.00     0.028 C 
BRANCH  11  12
ATOM     12  C   UNL     1     117.083 115.654 122.974  1.00  0.00     0.156 C 
BRANCH  12  13
ATOM     13  O   UNL     1     118.402 115.198 122.869  1.00  0.00    -0.396 OA
ATOM     14  H   UNL     1     118.634 115.245 121.904  1.00  0.00     0.210 HD
ENDBRANCH  12  13
ENDBRANCH  11  12
ENDBRANCH  10  11
ENDBRANCH   9  10
ENDBRANCH   8   9
ENDBRANCH   1   8
TORSDOF 11
ENDMDL
MODEL 4
REMARK VINA RESULT:    -3.155      2.038      3.587
REMARK INTER + INTRA:          -6.278
REMARK INTER:                  -4.868
REMARK INTRA:                  -1.410
REMARK UNBOUND:                -1.187
REMARK SMILES CCCCCCCCCCCCO
REMARK SMILES IDX 7 1 6 2 5 3 4 4 3 5 2 6 1 7 8 8 9 9 10 10 11 11 12 12 13 13
REMARK H PARENT 13 14
REMARK Flexibility Score: inf
ROOT
ATOM      1  C   UNL     1     118.121 115.931 118.657  1.00  0.00     0.000 C 
ENDROOT
BRANCH   1   2
ATOM      2  C   UNL     1     118.836 116.533 119.877  1.00  0.00    -0.000 C 
BRANCH   2   3
ATOM      3  C   UNL     1     117.930 117.475 120.689  1.00  0.00    -0.000 C 
BRANCH   3   4
ATOM      4  C   UNL     1     117.107 118.416 119.797  1.00  0.00    -0.000 C 
BRANCH   4   5
ATOM      5  C   UNL     1     115.650 118.564 120.272  1.00  0.00    -0.000 C 
BRANCH   5   6
ATOM      6  C   UNL     1     114.707 119.012 119.145  1.00  0.00    -0.003 C 
ATOM      7  C   UNL     1     114.660 118.018 117.985  1.00  0.00     0.004 C 
ENDBRANCH   5   6
ENDBRANCH   4   5
ENDBRANCH   3   4
ENDBRANCH   2   3
ENDBRANCH   1   2
BRANCH   1   8
ATOM      8  C   UNL     1     117.954 114.408 118.758  1.00  0.00     0.000 C 
BRANCH   8   9
ATOM      9  C   UNL     1     116.773 114.044 119.673  1.00  0.00     0.000 C 
BRANCH   9  10
ATOM     10  C   UNL     1     115.439 114.627 119.164  1.00  0.00     0.002 C 
BRANCH  10  11
ATOM     11  C   UNL     1     114.461 115.004 120.290  1.00  0.00     0.028 C 
BRANCH  11  12
ATOM     12  C   UNL     1     115.136 115.118 121.657  1.00  0.00     0.156 C 
BRANCH  12  13
ATOM     13  O   UNL     1     114.406 114.384 122.599  1.00  0.00    -0.396 OA
ATOM     14  H   UNL     1     113.708 113.895 122.087  1.00  0.00     0.210 HD
ENDBRANCH  12  13
ENDBRANCH  11  12
ENDBRANCH  10  11
ENDBRANCH   9  10
ENDBRANCH   8   9
ENDBRANCH   1   8
TORSDOF 11
ENDMDL
MODEL 5
REMARK VINA RESULT:    -3.155      1.500      3.471
REMARK INTER + INTRA:          -6.278
REMARK INTER:                  -4.669
REMARK INTRA:                  -1.609
REMARK UNBOUND:                -1.187
REMARK SMILES CCCCCCCCCCCCO
REMARK SMILES IDX 7 1 6 2 5 3 4 4 3 5 2 6 1 7 8 8 9 9 10 10 11 11 12 12 13 13
REMARK H PARENT 13 14
REMARK Flexibility Score: inf
ROOT
ATOM      1  C   UNL     1     114.768 117.284 120.068  1.00  0.00     0.000 C 
ENDROOT
BRANCH   1   2
ATOM      2  C   UNL     1     114.544 115.764 120.063  1.00  0.00    -0.000 C 
BRANCH   2   3
ATOM      3  C   UNL     1     115.707 114.992 120.711  1.00  0.00    -0.000 C 
BRANCH   3   4
ATOM      4  C   UNL     1     116.510 114.171 119.690  1.00  0.00    -0.000 C 
BRANCH   4   5
ATOM      5  C   UNL     1     117.999 114.560 119.653  1.00  0.00    -0.000 C 
BRANCH   5   6
ATOM      6  C   UNL     1     118.455 115.012 118.258  1.00  0.00    -0.003 C 
ATOM      7  C   UNL     1     117.319 115.005 117.235  1.00  0.00     0.004 C 
ENDBRANCH   5   6
ENDBRANCH   4   5
ENDBRANCH   3   4
ENDBRANCH   2   3
ENDBRANCH   1   2
BRANCH   1   8
ATOM      8  C   UNL     1     115.265 117.816 118.715  1.00  0.00     0.000 C 
BRANCH   8   9
ATOM      9  C   UNL     1     116.712 118.325 118.822  1.00  0.00     0.000 C 
BRANCH   9  10
ATOM     10  C   UNL     1     117.122 118.616 120.281  1.00  0.00     0.002 C 
BRANCH  10  11
ATOM     11  C   UNL     1     118.513 118.072 120.651  1.00  0.00     0.028 C 
BRANCH  11  12
ATOM     12  C   UNL     1     119.543 118.251 119.535  1.00  0.00     0.156 C 
BRANCH  12  13
ATOM     13  O   UNL     1     120.806 117.867 120.002  1.00  0.00    -0.396 OA
ATOM     14  H   UNL     1     120.867 118.201 120.936  1.00  0.00     0.210 HD
ENDBRANCH  12  13
ENDBRANCH  11  12
ENDBRANCH  10  11
ENDBRANCH   9  10
ENDBRANCH   8   9
ENDBRANCH   1   8
TORSDOF 11
ENDMDL
MODEL 6
REMARK VINA RESULT:    -3.154      1.684      2.483
REMARK INTER + INTRA:          -6.277
REMARK INTER:                  -4.709
REMARK INTRA:                  -1.567
REMARK UNBOUND:                -1.187
REMARK SMILES CCCCCCCCCCCCO
REMARK SMILES IDX 7 1 6 2 5 3 4 4 3 5 2 6 1 7 8 8 9 9 10 10 11 11 12 12 13 13
REMARK H PARENT 13 14
REMARK Flexibility Score: inf
ROOT
ATOM      1  C   UNL     1     117.073 114.268 119.787  1.00  0.00     0.000 C 
ENDROOT
BRANCH   1   2
ATOM      2  C   UNL     1     118.137 114.750 120.787  1.00  0.00    -0.000 C 
BRANCH   2   3
ATOM      3  C   UNL     1     117.528 115.509 121.978  1.00  0.00    -0.000 C 
BRANCH   3   4
ATOM      4  C   UNL     1     116.086 115.968 121.711  1.00  0.00    -0.000 C 
BRANCH   4   5
ATOM      5  C   UNL     1     115.939 117.500 121.717  1.00  0.00    -0.000 C 
BRANCH   5   6
ATOM      6  C   UNL     1     114.981 118.003 120.627  1.00  0.00    -0.003 C 
ATOM      7  C   UNL     1     114.330 116.864 119.843  1.00  0.00     0.004 C 
ENDBRANCH   5   6
ENDBRANCH   4   5
ENDBRANCH   3   4
ENDBRANCH   2   3
ENDBRANCH   1   2
BRANCH   1   8
ATOM      8  C   UNL     1     117.217 114.922 118.405  1.00  0.00     0.000 C 
BRANCH   8   9
ATOM      9  C   UNL     1     118.405 115.897 118.379  1.00  0.00     0.000 C 
BRANCH   9  10
ATOM     10  C   UNL     1     117.950 117.372 118.415  1.00  0.00     0.002 C 
BRANCH  10  11
ATOM     11  C   UNL     1     118.805 118.258 119.336  1.00  0.00     0.028 C 
BRANCH  11  12
ATOM     12  C   UNL     1     120.282 118.286 118.941  1.00  0.00     0.156 C 
BRANCH  12  13
ATOM     13  O   UNL     1     121.073 118.157 120.089  1.00  0.00    -0.396 OA
ATOM     14  H   UNL     1     121.692 117.400 119.913  1.00  0.00     0.210 HD
ENDBRANCH  12  13
ENDBRANCH  11  12
ENDBRANCH  10  11
ENDBRANCH   9  10
ENDBRANCH   8   9
ENDBRANCH   1   8
TORSDOF 11
ENDMDL
MODEL 7
REMARK VINA RESULT:    -3.142      2.186      3.916
REMARK INTER + INTRA:          -6.257
REMARK INTER:                  -4.895
REMARK INTRA:                  -1.361
REMARK UNBOUND:                -1.187
REMARK SMILES CCCCCCCCCCCCO
REMARK SMILES IDX 7 1 6 2 5 3 4 4 3 5 2 6 1 7 8 8 9 9 10 10 11 11 12 12 13 13
REMARK H PARENT 13 14
REMARK Flexibility Score: inf
ROOT
ATOM      1  C   UNL     1     117.425 118.725 118.343  1.00  0.00     0.000 C 
ENDROOT
BRANCH   1   2
ATOM      2  C   UNL     1     115.949 119.068 118.601  1.00  0.00    -0.000 C 
BRANCH   2   3
ATOM      3  C   UNL     1     115.568 118.967 120.088  1.00  0.00    -0.000 C 
BRANCH   3   4
ATOM      4  C   UNL     1     114.690 117.743 120.391  1.00  0.00    -0.000 C 
BRANCH   4   5
ATOM      5  C   UNL     1     114.351 116.928 119.130  1.00  0.00    -0.000 C 
BRANCH   5   6
ATOM      6  C   UNL     1     114.702 115.440 119.278  1.00  0.00    -0.003 C 
ATOM      7  C   UNL     1     114.578 114.946 120.719  1.00  0.00     0.004 C 
ENDBRANCH   5   6
ENDBRANCH   4   5
ENDBRANCH   3   4
ENDBRANCH   2   3
ENDBRANCH   1   2
BRANCH   1   8
ATOM      8  C   UNL     1     118.169 118.308 119.621  1.00  0.00     0.000 C 
BRANCH   8   9
ATOM      9  C   UNL     1     118.446 116.797 119.628  1.00  0.00     0.000 C 
BRANCH   9  10
ATOM     10  C   UNL     1     118.017 116.131 120.952  1.00  0.00     0.002 C 
BRANCH  10  11
ATOM     11  C   UNL     1     118.347 114.630 121.023  1.00  0.00     0.028 C 
BRANCH  11  12
ATOM     12  C   UNL     1     118.124 113.903 119.695  1.00  0.00     0.156 C 
BRANCH  12  13
ATOM     13  O   UNL     1     117.773 112.572 119.947  1.00  0.00    -0.396 OA
ATOM     14  H   UNL     1     118.577 112.030 119.736  1.00  0.00     0.210 HD
ENDBRANCH  12  13
ENDBRANCH  11  12
ENDBRANCH  10  11
ENDBRANCH   9  10
ENDBRANCH   8   9
ENDBRANCH   1   8
TORSDOF 11
ENDMDL
MODEL 8
REMARK VINA RESULT:    -3.104      1.837      4.480
REMARK INTER + INTRA:          -6.196
REMARK INTER:                  -4.523
REMARK INTRA:                  -1.673
REMARK UNBOUND:                -1.187
REMARK SMILES CCCCCCCCCCCCO
REMARK SMILES IDX 7 1 6 2 5 3 4 4 3 5 2 6 1 7 8 8 9 9 10 10 11 11 12 12 13 13
REMARK H PARENT 13 14
REMARK Flexibility Score: inf
ROOT
ATOM      1  C   UNL     1     114.899 118.306 119.738  1.00  0.00     0.000 C 
ENDROOT
BRANCH   1   2
ATOM      2  C   UNL     1     116.238 119.060 119.721  1.00  0.00    -0.000 C 
BRANCH   2   3
ATOM      3  C   UNL     1     117.373 118.237 119.088  1.00  0.00    -0.000 C 
BRANCH   3   4
ATOM      4  C   UNL     1     118.469 117.868 120.100  1.00  0.00    -0.000 C 
BRANCH   4   5
ATOM      5  C   UNL     1     118.124 118.303 121.535  1.00  0.00    -0.000 C 
BRANCH   5   6
ATOM      6  C   UNL     1     117.698 117.123 122.421  1.00  0.00    -0.003 C 
ATOM      7  C   UNL     1     116.363 117.366 123.125  1.00  0.00     0.004 C 
ENDBRANCH   5   6
ENDBRANCH   4   5
ENDBRANCH   3   4
ENDBRANCH   2   3
ENDBRANCH   1   2
BRANCH   1   8
ATOM      8  C   UNL     1     115.012 116.882 119.174  1.00  0.00     0.000 C 
BRANCH   8   9
ATOM      9  C   UNL     1     114.538 115.843 120.202  1.00  0.00     0.000 C 
BRANCH   9  10
ATOM     10  C   UNL     1     115.607 114.765 120.478  1.00  0.00     0.002 C 
BRANCH  10  11
ATOM     11  C   UNL     1     116.468 114.422 119.250  1.00  0.00     0.028 C 
BRANCH  11  12
ATOM     12  C   UNL     1     117.960 114.322 119.572  1.00  0.00     0.156 C 
BRANCH  12  13
ATOM     13  O   UNL     1     118.122 113.826 120.871  1.00  0.00    -0.396 OA
ATOM     14  H   UNL     1     118.642 114.513 121.366  1.00  0.00     0.210 HD
ENDBRANCH  12  13
ENDBRANCH  11  12
ENDBRANCH  10  11
ENDBRANCH   9  10
ENDBRANCH   8   9
ENDBRANCH   1   8
TORSDOF 11
ENDMDL
MODEL 9
REMARK VINA RESULT:    -3.089      1.652      2.654
REMARK INTER + INTRA:          -6.171
REMARK INTER:                  -4.821
REMARK INTRA:                  -1.350
REMARK UNBOUND:                -1.187
REMARK SMILES CCCCCCCCCCCCO
REMARK SMILES IDX 7 1 6 2 5 3 4 4 3 5 2 6 1 7 8 8 9 9 10 10 11 11 12 12 13 13
REMARK H PARENT 13 14
REMARK Flexibility Score: inf
ROOT
ATOM      1  C   UNL     1     115.554 114.936 119.177  1.00  0.00     0.000 C 
ENDROOT
BRANCH   1   2
ATOM      2  C   UNL     1     115.235 116.269 118.482  1.00  0.00    -0.000 C 
BRANCH   2   3
ATOM      3  C   UNL     1     114.448 117.234 119.386  1.00  0.00    -0.000 C 
BRANCH   3   4
ATOM      4  C   UNL     1     115.366 118.137 120.225  1.00  0.00    -0.000 C 
BRANCH   4   5
ATOM      5  C   UNL     1     115.065 118.054 121.732  1.00  0.00    -0.000 C 
BRANCH   5   6
ATOM      6  C   UNL     1     116.119 117.241 122.499  1.00  0.00    -0.003 C 
ATOM      7  C   UNL     1     115.620 115.852 122.894  1.00  0.00     0.004 C 
ENDBRANCH   5   6
ENDBRANCH   4   5
ENDBRANCH   3   4
ENDBRANCH   2   3
ENDBRANCH   1   2
BRANCH   1   8
ATOM      8  C   UNL     1     116.941 114.390 118.806  1.00  0.00     0.000 C 
BRANCH   8   9
ATOM      9  C   UNL     1     117.821 114.230 120.056  1.00  0.00     0.000 C 
BRANCH   9  10
ATOM     10  C   UNL     1     118.495 115.555 120.469  1.00  0.00     0.002 C 
BRANCH  10  11
ATOM     11  C   UNL     1     118.954 116.412 119.276  1.00  0.00     0.028 C 
BRANCH  11  12
ATOM     12  C   UNL     1     119.426 117.807 119.687  1.00  0.00     0.156 C 
BRANCH  12  13
ATOM     13  O   UNL     1     120.780 117.754 120.040  1.00  0.00    -0.396 OA
ATOM     14  H   UNL     1     120.829 118.043 120.988  1.00  0.00     0.210 HD
ENDBRANCH  12  13
ENDBRANCH  11  12
ENDBRANCH  10  11
ENDBRANCH   9  10
ENDBRANCH   8   9
ENDBRANCH   1   8
TORSDOF 11
ENDMDL
