MODEL 1
REMARK VINA RESULT:    -4.340      0.000      0.000
REMARK INTER + INTRA:          -6.415
REMARK INTER:                  -6.116
REMARK INTRA:                  -0.300
REMARK UNBOUND:                -0.300
REMARK SMILES CCCCCCCCC(=O)[O-]
REMARK SMILES IDX 6 1 7 2 8 3 9 4 10 5 11 6 5 7 4 8 3 9 2 10 1 11
REMARK H PARENT
REMARK Flexibility Score: inf
ROOT
ATOM      1  C   UNL     1       2.845 -37.500  19.518  1.00  0.00     0.000 C 
ENDROOT
BRANCH   1   2
ATOM      2  C   UNL     1       4.194 -36.769  19.406  1.00  0.00     0.006 C 
BRANCH   2   3
ATOM      3  C   UNL     1       5.125 -37.091  20.582  1.00  0.00     0.053 C 
BRANCH   3   4
ATOM      4  C   UNL     1       4.754 -36.318  21.810  1.00  0.00     0.041 C 
ATOM      5  O   UNL     1       4.151 -35.217  21.708  1.00  0.00    -0.550 OA
ATOM      6  O   UNL     1       5.105 -36.796  23.066  1.00  0.00    -0.550 OA
ENDBRANCH   3   4
ENDBRANCH   2   3
ENDBRANCH   1   2
BRANCH   1   7
ATOM      7  C   UNL     1       2.060 -37.502  18.197  1.00  0.00     0.000 C 
BRANCH   7   8
ATOM      8  C   UNL     1       2.937 -37.130  16.989  1.00  0.00    -0.000 C 
BRANCH   8   9
ATOM      9  C   UNL     1       2.196 -36.249  15.970  1.00  0.00    -0.000 C 
BRANCH   9  10
ATOM     10  C   UNL     1       2.887 -36.222  14.598  1.00  0.00    -0.003 C 
ATOM     11  C   UNL     1       3.911 -37.347  14.476  1.00  0.00     0.004 C 
ENDBRANCH   9  10
ENDBRANCH   8   9
ENDBRANCH   7   8
ENDBRANCH   1   7
TORSDOF 7
ENDMDL
MODEL 2
REMARK VINA RESULT:    -4.094      3.546      6.083
REMARK INTER + INTRA:          -6.069
REMARK INTER:                  -5.780
REMARK INTRA:                  -0.289
REMARK UNBOUND:                -0.300
REMARK SMILES CCCCCCCCC(=O)[O-]
REMARK SMILES IDX 6 1 7 2 8 3 9 4 10 5 11 6 5 7 4 8 3 9 2 10 1 11
REMARK H PARENT
REMARK Flexibility Score: inf
ROOT
ATOM      1  C   UNL     1       2.486 -37.475  18.303  1.00  0.00     0.000 C 
ENDROOT
BRANCH   1   2
ATOM      2  C   UNL     1       2.042 -36.696  17.053  1.00  0.00     0.006 C 
BRANCH   2   3
ATOM      3  C   UNL     1       3.235 -36.165  16.248  1.00  0.00     0.053 C 
BRANCH   3   4
ATOM      4  C   UNL     1       3.289 -36.765  14.876  1.00  0.00     0.041 C 
ATOM      5  O   UNL     1       2.611 -36.265  13.939  1.00  0.00    -0.550 OA
ATOM      6  O   UNL     1       4.060 -37.895  14.640  1.00  0.00    -0.550 OA
ENDBRANCH   3   4
ENDBRANCH   2   3
ENDBRANCH   1   2
BRANCH   1   7
ATOM      7  C   UNL     1       3.906 -37.106  18.758  1.00  0.00     0.000 C 
BRANCH   7   8
ATOM      8  C   UNL     1       3.940 -36.544  20.190  1.00  0.00    -0.000 C 
BRANCH   8   9
ATOM      9  C   UNL     1       4.489 -37.557  21.208  1.00  0.00    -0.000 C 
BRANCH   9  10
ATOM     10  C   UNL     1       5.042 -36.884  22.474  1.00  0.00    -0.003 C 
ATOM     11  C   UNL     1       4.942 -35.364  22.375  1.00  0.00     0.004 C 
ENDBRANCH   9  10
ENDBRANCH   8   9
ENDBRANCH   7   8
ENDBRANCH   1   7
TORSDOF 7
ENDMDL
MODEL 3
REMARK VINA RESULT:    -3.901      3.237      6.247
REMARK INTER + INTRA:          -5.796
REMARK INTER:                  -5.566
REMARK INTRA:                  -0.231
REMARK UNBOUND:                -0.300
REMARK SMILES CCCCCCCCC(=O)[O-]
REMARK SMILES IDX 6 1 7 2 8 3 9 4 10 5 11 6 5 7 4 8 3 9 2 10 1 11
REMARK H PARENT
REMARK Flexibility Score: inf
ROOT
ATOM      1  C   UNL     1       3.096 -37.498  19.338  1.00  0.00     0.000 C 
ENDROOT
BRANCH   1   2
ATOM      2  C   UNL     1       2.321 -37.243  18.033  1.00  0.00     0.006 C 
BRANCH   2   3
ATOM      3  C   UNL     1       3.251 -36.869  16.872  1.00  0.00     0.053 C 
BRANCH   3   4
ATOM      4  C   UNL     1       2.495 -36.257  15.732  1.00  0.00     0.041 C 
ATOM      5  O   UNL     1       1.395 -35.681  15.938  1.00  0.00    -0.550 OA
ATOM      6  O   UNL     1       2.990 -36.354  14.438  1.00  0.00    -0.550 OA
ENDBRANCH   3   4
ENDBRANCH   2   3
ENDBRANCH   1   2
BRANCH   1   7
ATOM      7  C   UNL     1       4.339 -36.603  19.474  1.00  0.00     0.000 C 
BRANCH   7   8
ATOM      8  C   UNL     1       4.764 -36.402  20.939  1.00  0.00    -0.000 C 
BRANCH   8   9
ATOM      9  C   UNL     1       4.788 -37.717  21.733  1.00  0.00    -0.000 C 
BRANCH   9  10
ATOM     10  C   UNL     1       5.115 -37.506  23.219  1.00  0.00    -0.003 C 
ATOM     11  C   UNL     1       5.125 -38.834  23.973  1.00  0.00     0.004 C 
ENDBRANCH   9  10
ENDBRANCH   8   9
ENDBRANCH   7   8
ENDBRANCH   1   7
TORSDOF 7
ENDMDL
MODEL 4
REMARK VINA RESULT:    -3.899      1.854      2.906
REMARK INTER + INTRA:          -5.795
REMARK INTER:                  -5.584
REMARK INTRA:                  -0.211
REMARK UNBOUND:                -0.300
REMARK SMILES CCCCCCCCC(=O)[O-]
REMARK SMILES IDX 6 1 7 2 8 3 9 4 10 5 11 6 5 7 4 8 3 9 2 10 1 11
REMARK H PARENT
REMARK Flexibility Score: inf
ROOT
ATOM      1  C   UNL     1       4.284 -35.831  21.200  1.00  0.00     0.000 C 
ENDROOT
BRANCH   1   2
ATOM      2  C   UNL     1       5.124 -36.820  22.027  1.00  0.00     0.006 C 
BRANCH   2   3
ATOM      3  C   UNL     1       5.031 -36.541  23.532  1.00  0.00     0.053 C 
BRANCH   3   4
ATOM      4  C   UNL     1       4.997 -37.809  24.330  1.00  0.00     0.041 C 
ATOM      5  O   UNL     1       4.833 -38.916  23.753  1.00  0.00    -0.550 OA
ATOM      6  O   UNL     1       5.112 -37.764  25.713  1.00  0.00    -0.550 OA
ENDBRANCH   3   4
ENDBRANCH   2   3
ENDBRANCH   1   2
BRANCH   1   7
ATOM      7  C   UNL     1       4.502 -35.988  19.687  1.00  0.00     0.000 C 
BRANCH   7   8
ATOM      8  C   UNL     1       3.930 -37.308  19.142  1.00  0.00    -0.000 C 
BRANCH   8   9
ATOM      9  C   UNL     1       2.780 -37.086  18.146  1.00  0.00    -0.000 C 
BRANCH   9  10
ATOM     10  C   UNL     1       3.251 -36.449  16.829  1.00  0.00    -0.003 C 
ATOM     11  C   UNL     1       2.083 -36.250  15.867  1.00  0.00     0.004 C 
ENDBRANCH   9  10
ENDBRANCH   8   9
ENDBRANCH   7   8
ENDBRANCH   1   7
TORSDOF 7
ENDMDL
MODEL 5
REMARK VINA RESULT:    -3.558      1.173      2.131
REMARK INTER + INTRA:          -5.313
REMARK INTER:                  -5.031
REMARK INTRA:                  -0.282
REMARK UNBOUND:                -0.300
REMARK SMILES CCCCCCCCC(=O)[O-]
REMARK SMILES IDX 6 1 7 2 8 3 9 4 10 5 11 6 5 7 4 8 3 9 2 10 1 11
REMARK H PARENT
REMARK Flexibility Score: inf
ROOT
ATOM      1  C   UNL     1       2.271 -37.303  17.739  1.00  0.00     0.000 C 
ENDROOT
BRANCH   1   2
ATOM      2  C   UNL     1       2.952 -37.476  19.108  1.00  0.00     0.006 C 
BRANCH   2   3
ATOM      3  C   UNL     1       4.446 -37.132  19.058  1.00  0.00     0.053 C 
BRANCH   3   4
ATOM      4  C   UNL     1       4.745 -35.853  19.779  1.00  0.00     0.041 C 
ATOM      5  O   UNL     1       4.622 -35.788  21.031  1.00  0.00    -0.550 OA
ATOM      6  O   UNL     1       5.125 -34.724  19.066  1.00  0.00    -0.550 OA
ENDBRANCH   3   4
ENDBRANCH   2   3
ENDBRANCH   1   2
BRANCH   1   7
ATOM      7  C   UNL     1       3.102 -36.450  16.767  1.00  0.00     0.000 C 
BRANCH   7   8
ATOM      8  C   UNL     1       2.283 -35.965  15.559  1.00  0.00    -0.000 C 
BRANCH   8   9
ATOM      9  C   UNL     1       2.890 -36.407  14.218  1.00  0.00    -0.000 C 
BRANCH   9  10
ATOM     10  C   UNL     1       4.313 -36.968  14.368  1.00  0.00    -0.003 C 
ATOM     11  C   UNL     1       4.330 -38.481  14.169  1.00  0.00     0.004 C 
ENDBRANCH   9  10
ENDBRANCH   8   9
ENDBRANCH   7   8
ENDBRANCH   1   7
TORSDOF 7
ENDMDL
MODEL 6
REMARK VINA RESULT:    -3.484      2.336      3.459
REMARK INTER + INTRA:          -5.209
REMARK INTER:                  -4.820
REMARK INTRA:                  -0.389
REMARK UNBOUND:                -0.300
REMARK SMILES CCCCCCCCC(=O)[O-]
REMARK SMILES IDX 6 1 7 2 8 3 9 4 10 5 11 6 5 7 4 8 3 9 2 10 1 11
REMARK H PARENT
REMARK Flexibility Score: inf
ROOT
ATOM      1  C   UNL     1       4.005 -35.687  21.133  1.00  0.00     0.000 C 
ENDROOT
BRANCH   1   2
ATOM      2  C   UNL     1       4.764 -35.681  22.471  1.00  0.00     0.006 C 
BRANCH   2   3
ATOM      3  C   UNL     1       5.125 -37.098  22.937  1.00  0.00     0.053 C 
BRANCH   3   4
ATOM      4  C   UNL     1       5.118 -37.208  24.432  1.00  0.00     0.041 C 
ATOM      5  O   UNL     1       5.074 -38.339  24.984  1.00  0.00    -0.550 OA
ATOM      6  O   UNL     1       5.125 -36.060  25.214  1.00  0.00    -0.550 OA
ENDBRANCH   3   4
ENDBRANCH   2   3
ENDBRANCH   1   2
BRANCH   1   7
ATOM      7  C   UNL     1       4.928 -35.453  19.927  1.00  0.00     0.000 C 
BRANCH   7   8
ATOM      8  C   UNL     1       4.563 -36.340  18.724  1.00  0.00    -0.000 C 
BRANCH   8   9
ATOM      9  C   UNL     1       3.488 -37.384  19.064  1.00  0.00    -0.000 C 
BRANCH   9  10
ATOM     10  C   UNL     1       2.372 -37.451  18.010  1.00  0.00    -0.003 C 
ATOM     11  C   UNL     1       1.027 -37.773  18.656  1.00  0.00     0.004 C 
ENDBRANCH   9  10
ENDBRANCH   8   9
ENDBRANCH   7   8
ENDBRANCH   1   7
TORSDOF 7
ENDMDL
MODEL 7
REMARK VINA RESULT:    -2.220      3.262      6.780
REMARK INTER + INTRA:          -3.428
REMARK INTER:                  -3.175
REMARK INTRA:                  -0.254
REMARK UNBOUND:                -0.300
REMARK SMILES CCCCCCCCC(=O)[O-]
REMARK SMILES IDX 6 1 7 2 8 3 9 4 10 5 11 6 5 7 4 8 3 9 2 10 1 11
REMARK H PARENT
REMARK Flexibility Score: inf
ROOT
ATOM      1  C   UNL     1       4.903 -37.401  20.828  1.00  0.00     0.000 C 
ENDROOT
BRANCH   1   2
ATOM      2  C   UNL     1       3.977 -36.918  19.698  1.00  0.00     0.006 C 
BRANCH   2   3
ATOM      3  C   UNL     1       2.578 -37.541  19.791  1.00  0.00     0.053 C 
BRANCH   3   4
ATOM      4  C   UNL     1       1.905 -37.594  18.453  1.00  0.00     0.041 C 
ATOM      5  O   UNL     1       2.588 -37.522  17.397  1.00  0.00    -0.550 OA
ATOM      6  O   UNL     1       0.522 -37.688  18.373  1.00  0.00    -0.550 OA
ENDBRANCH   3   4
ENDBRANCH   2   3
ENDBRANCH   1   2
BRANCH   1   7
ATOM      7  C   UNL     1       4.172 -37.547  22.172  1.00  0.00     0.000 C 
BRANCH   7   8
ATOM      8  C   UNL     1       5.123 -37.441  23.376  1.00  0.00    -0.000 C 
BRANCH   8   9
ATOM      9  C   UNL     1       4.903 -36.156  24.191  1.00  0.00    -0.000 C 
BRANCH   9  10
ATOM     10  C   UNL     1       4.832 -36.419  25.703  1.00  0.00    -0.003 C 
ATOM     11  C   UNL     1       4.176 -37.766  25.996  1.00  0.00     0.004 C 
ENDBRANCH   9  10
ENDBRANCH   8   9
ENDBRANCH   7   8
ENDBRANCH   1   7
TORSDOF 7
ENDMDL
