MODEL 1
REMARK VINA RESULT:    -3.476      0.000      0.000
REMARK INTER + INTRA:          -5.064
REMARK INTER:                  -4.696
REMARK INTRA:                  -0.369
REMARK UNBOUND:                -0.369
REMARK SMILES CCCCCCCC(=O)[O-]
REMARK SMILES IDX 5 1 6 2 7 3 8 4 9 5 10 6 4 7 3 8 2 9 1 10
REMARK H PARENT
REMARK Flexibility Score: inf
ROOT
ATOM      1  C   UNL     1       4.816  -0.102 399.920  1.00  0.00     0.000 C 
ENDROOT
BRANCH   1   2
ATOM      2  C   UNL     1       3.494   0.601 400.278  1.00  0.00     0.006 C 
BRANCH   2   3
ATOM      3  C   UNL     1       3.695   2.040 400.769  1.00  0.00     0.053 C 
BRANCH   3   4
ATOM      4  C   UNL     1       4.019   2.054 402.230  1.00  0.00     0.041 C 
ATOM      5  O   UNL     1       4.668   3.011 402.727  1.00  0.00    -0.550 OA
ATOM      6  O   UNL     1       3.560   1.033 403.053  1.00  0.00    -0.550 OA
ENDBRANCH   3   4
ENDBRANCH   2   3
ENDBRANCH   1   2
BRANCH   1   7
ATOM      7  C   UNL     1       4.929  -1.563 400.391  1.00  0.00     0.000 C 
BRANCH   7   8
ATOM      8  C   UNL     1       3.704  -2.412 400.010  1.00  0.00    -0.000 C 
BRANCH   8   9
ATOM      9  C   UNL     1       3.294  -3.387 401.125  1.00  0.00    -0.003 C 
ATOM     10  C   UNL     1       3.697  -2.901 402.517  1.00  0.00     0.004 C 
ENDBRANCH   8   9
ENDBRANCH   7   8
ENDBRANCH   1   7
TORSDOF 6
ENDMDL
MODEL 2
REMARK VINA RESULT:    -3.394      1.321      1.639
REMARK INTER + INTRA:          -4.953
REMARK INTER:                  -4.804
REMARK INTRA:                  -0.149
REMARK UNBOUND:                -0.369
REMARK SMILES CCCCCCCC(=O)[O-]
REMARK SMILES IDX 5 1 6 2 7 3 8 4 9 5 10 6 4 7 3 8 2 9 1 10
REMARK H PARENT
REMARK Flexibility Score: inf
ROOT
ATOM      1  C   UNL     1       4.338  -1.319 400.626  1.00  0.00     0.000 C 
ENDROOT
BRANCH   1   2
ATOM      2  C   UNL     1       3.772   0.004 400.079  1.00  0.00     0.006 C 
BRANCH   2   3
ATOM      3  C   UNL     1       4.639   1.219 400.436  1.00  0.00     0.053 C 
BRANCH   3   4
ATOM      4  C   UNL     1       3.961   2.059 401.471  1.00  0.00     0.041 C 
ATOM      5  O   UNL     1       3.607   3.236 401.201  1.00  0.00    -0.550 OA
ATOM      6  O   UNL     1       3.673   1.524 402.721  1.00  0.00    -0.550 OA
ENDBRANCH   3   4
ENDBRANCH   2   3
ENDBRANCH   1   2
BRANCH   1   7
ATOM      7  C   UNL     1       3.632  -2.591 400.122  1.00  0.00     0.000 C 
BRANCH   7   8
ATOM      8  C   UNL     1       3.267  -3.563 401.257  1.00  0.00    -0.000 C 
BRANCH   8   9
ATOM      9  C   UNL     1       4.453  -4.443 401.682  1.00  0.00    -0.003 C 
ATOM     10  C   UNL     1       4.050  -5.893 401.949  1.00  0.00     0.004 C 
ENDBRANCH   8   9
ENDBRANCH   7   8
ENDBRANCH   1   7
TORSDOF 6
ENDMDL
MODEL 3
REMARK VINA RESULT:    -3.364      2.212      4.087
REMARK INTER + INTRA:          -4.913
REMARK INTER:                  -4.333
REMARK INTRA:                  -0.580
REMARK UNBOUND:                -0.369
REMARK SMILES CCCCCCCC(=O)[O-]
REMARK SMILES IDX 5 1 6 2 7 3 8 4 9 5 10 6 4 7 3 8 2 9 1 10
REMARK H PARENT
REMARK Flexibility Score: inf
ROOT
ATOM      1  C   UNL     1       5.403   0.999 400.190  1.00  0.00     0.000 C 
ENDROOT
BRANCH   1   2
ATOM      2  C   UNL     1       5.428  -0.540 400.202  1.00  0.00     0.006 C 
BRANCH   2   3
ATOM      3  C   UNL     1       4.034  -1.164 400.058  1.00  0.00     0.053 C 
BRANCH   3   4
ATOM      4  C   UNL     1       3.843  -2.251 401.067  1.00  0.00     0.041 C 
ATOM      5  O   UNL     1       4.474  -2.225 402.156  1.00  0.00    -0.550 OA
ATOM      6  O   UNL     1       2.928  -3.269 400.827  1.00  0.00    -0.550 OA
ENDBRANCH   3   4
ENDBRANCH   2   3
ENDBRANCH   1   2
BRANCH   1   7
ATOM      7  C   UNL     1       4.057   1.635 400.587  1.00  0.00     0.000 C 
BRANCH   7   8
ATOM      8  C   UNL     1       4.054   2.183 402.024  1.00  0.00    -0.000 C 
BRANCH   8   9
ATOM      9  C   UNL     1       3.693   1.109 403.063  1.00  0.00    -0.003 C 
ATOM     10  C   UNL     1       4.832   0.823 404.040  1.00  0.00     0.004 C 
ENDBRANCH   8   9
ENDBRANCH   7   8
ENDBRANCH   1   7
TORSDOF 6
ENDMDL
MODEL 4
REMARK VINA RESULT:    -3.319      2.040      4.569
REMARK INTER + INTRA:          -4.851
REMARK INTER:                  -4.596
REMARK INTRA:                  -0.255
REMARK UNBOUND:                -0.369
REMARK SMILES CCCCCCCC(=O)[O-]
REMARK SMILES IDX 5 1 6 2 7 3 8 4 9 5 10 6 4 7 3 8 2 9 1 10
REMARK H PARENT
REMARK Flexibility Score: inf
ROOT
ATOM      1  C   UNL     1       4.334  -2.264 400.231  1.00  0.00     0.000 C 
ENDROOT
BRANCH   1   2
ATOM      2  C   UNL     1       3.265  -3.087 400.971  1.00  0.00     0.006 C 
BRANCH   2   3
ATOM      3  C   UNL     1       3.811  -3.800 402.214  1.00  0.00     0.053 C 
BRANCH   3   4
ATOM      4  C   UNL     1       3.431  -3.054 403.454  1.00  0.00     0.041 C 
ATOM      5  O   UNL     1       2.506  -3.482 404.193  1.00  0.00    -0.550 OA
ATOM      6  O   UNL     1       4.131  -1.911 403.820  1.00  0.00    -0.550 OA
ENDBRANCH   3   4
ENDBRANCH   2   3
ENDBRANCH   1   2
BRANCH   1   7
ATOM      7  C   UNL     1       3.869  -0.884 399.730  1.00  0.00     0.000 C 
BRANCH   7   8
ATOM      8  C   UNL     1       3.740   0.151 400.862  1.00  0.00    -0.000 C 
BRANCH   8   9
ATOM      9  C   UNL     1       3.405   1.557 400.338  1.00  0.00    -0.003 C 
ATOM     10  C   UNL     1       3.859   2.666 401.286  1.00  0.00     0.004 C 
ENDBRANCH   8   9
ENDBRANCH   7   8
ENDBRANCH   1   7
TORSDOF 6
ENDMDL
MODEL 5
REMARK VINA RESULT:    -3.295      2.763      4.129
REMARK INTER + INTRA:          -4.819
REMARK INTER:                  -4.502
REMARK INTRA:                  -0.317
REMARK UNBOUND:                -0.369
REMARK SMILES CCCCCCCC(=O)[O-]
REMARK SMILES IDX 5 1 6 2 7 3 8 4 9 5 10 6 4 7 3 8 2 9 1 10
REMARK H PARENT
REMARK Flexibility Score: inf
ROOT
ATOM      1  C   UNL     1       3.646  -4.248 401.876  1.00  0.00     0.000 C 
ENDROOT
BRANCH   1   2
ATOM      2  C   UNL     1       3.082  -3.252 400.847  1.00  0.00     0.006 C 
BRANCH   2   3
ATOM      3  C   UNL     1       4.168  -2.401 400.178  1.00  0.00     0.053 C 
BRANCH   3   4
ATOM      4  C   UNL     1       4.055  -0.974 400.611  1.00  0.00     0.041 C 
ATOM      5  O   UNL     1       3.681  -0.091 399.795  1.00  0.00    -0.550 OA
ATOM      6  O   UNL     1       4.314  -0.625 401.931  1.00  0.00    -0.550 OA
ENDBRANCH   3   4
ENDBRANCH   2   3
ENDBRANCH   1   2
BRANCH   1   7
ATOM      7  C   UNL     1       5.083  -4.728 401.603  1.00  0.00     0.000 C 
BRANCH   7   8
ATOM      8  C   UNL     1       5.224  -6.259 401.662  1.00  0.00    -0.000 C 
BRANCH   8   9
ATOM      9  C   UNL     1       3.867  -6.971 401.787  1.00  0.00    -0.003 C 
ATOM     10  C   UNL     1       3.913  -8.423 401.315  1.00  0.00     0.004 C 
ENDBRANCH   8   9
ENDBRANCH   7   8
ENDBRANCH   1   7
TORSDOF 6
ENDMDL
MODEL 6
REMARK VINA RESULT:    -3.259      2.283      4.277
REMARK INTER + INTRA:          -4.771
REMARK INTER:                  -4.165
REMARK INTRA:                  -0.606
REMARK UNBOUND:                -0.369
REMARK SMILES CCCCCCCC(=O)[O-]
REMARK SMILES IDX 5 1 6 2 7 3 8 4 9 5 10 6 4 7 3 8 2 9 1 10
REMARK H PARENT
REMARK Flexibility Score: inf
ROOT
ATOM      1  C   UNL     1       4.019   2.243 400.885  1.00  0.00     0.000 C 
ENDROOT
BRANCH   1   2
ATOM      2  C   UNL     1       3.263   0.985 400.420  1.00  0.00     0.006 C 
BRANCH   2   3
ATOM      3  C   UNL     1       4.197  -0.120 399.910  1.00  0.00     0.053 C 
BRANCH   3   4
ATOM      4  C   UNL     1       3.992  -1.379 400.691  1.00  0.00     0.041 C 
ATOM      5  O   UNL     1       4.040  -1.360 401.948  1.00  0.00    -0.550 OA
ATOM      6  O   UNL     1       3.697  -2.566 400.032  1.00  0.00    -0.550 OA
ENDBRANCH   3   4
ENDBRANCH   2   3
ENDBRANCH   1   2
BRANCH   1   7
ATOM      7  C   UNL     1       4.319   2.307 402.394  1.00  0.00     0.000 C 
BRANCH   7   8
ATOM      8  C   UNL     1       5.823   2.403 402.701  1.00  0.00    -0.000 C 
BRANCH   8   9
ATOM      9  C   UNL     1       6.489   1.023 402.820  1.00  0.00    -0.003 C 
ATOM     10  C   UNL     1       7.342   0.668 401.603  1.00  0.00     0.004 C 
ENDBRANCH   8   9
ENDBRANCH   7   8
ENDBRANCH   1   7
TORSDOF 6
ENDMDL
MODEL 7
REMARK VINA RESULT:    -3.239      2.030      3.561
REMARK INTER + INTRA:          -4.744
REMARK INTER:                  -4.140
REMARK INTRA:                  -0.604
REMARK UNBOUND:                -0.369
REMARK SMILES CCCCCCCC(=O)[O-]
REMARK SMILES IDX 5 1 6 2 7 3 8 4 9 5 10 6 4 7 3 8 2 9 1 10
REMARK H PARENT
REMARK Flexibility Score: inf
ROOT
ATOM      1  C   UNL     1       4.919   2.199 402.039  1.00  0.00     0.000 C 
ENDROOT
BRANCH   1   2
ATOM      2  C   UNL     1       4.478   1.766 403.448  1.00  0.00     0.006 C 
BRANCH   2   3
ATOM      3  C   UNL     1       5.429   0.745 404.086  1.00  0.00     0.053 C 
BRANCH   3   4
ATOM      4  C   UNL     1       5.092  -0.639 403.629  1.00  0.00     0.041 C 
ATOM      5  O   UNL     1       5.997  -1.403 403.202  1.00  0.00    -0.550 OA
ATOM      6  O   UNL     1       3.786  -1.103 403.720  1.00  0.00    -0.550 OA
ENDBRANCH   3   4
ENDBRANCH   2   3
ENDBRANCH   1   2
BRANCH   1   7
ATOM      7  C   UNL     1       3.779   2.358 401.016  1.00  0.00     0.000 C 
BRANCH   7   8
ATOM      8  C   UNL     1       3.311   1.016 400.427  1.00  0.00    -0.000 C 
BRANCH   8   9
ATOM      9  C   UNL     1       4.484   0.085 400.080  1.00  0.00    -0.003 C 
ATOM     10  C   UNL     1       4.092  -1.392 400.090  1.00  0.00     0.004 C 
ENDBRANCH   8   9
ENDBRANCH   7   8
ENDBRANCH   1   7
TORSDOF 6
ENDMDL
MODEL 8
REMARK VINA RESULT:    -3.223      7.676      9.708
REMARK INTER + INTRA:          -4.723
REMARK INTER:                  -4.126
REMARK INTRA:                  -0.596
REMARK UNBOUND:                -0.369
REMARK SMILES CCCCCCCC(=O)[O-]
REMARK SMILES IDX 5 1 6 2 7 3 8 4 9 5 10 6 4 7 3 8 2 9 1 10
REMARK H PARENT
REMARK Flexibility Score: inf
ROOT
ATOM      1  C   UNL     1       5.029   9.485 405.513  1.00  0.00     0.000 C 
ENDROOT
BRANCH   1   2
ATOM      2  C   UNL     1       6.497   9.197 405.152  1.00  0.00     0.006 C 
BRANCH   2   3
ATOM      3  C   UNL     1       6.862   9.642 403.730  1.00  0.00     0.053 C 
BRANCH   3   4
ATOM      4  C   UNL     1       7.038   8.452 402.840  1.00  0.00     0.041 C 
ATOM      5  O   UNL     1       7.246   7.314 403.336  1.00  0.00    -0.550 OA
ATOM      6  O   UNL     1       6.921   8.592 401.463  1.00  0.00    -0.550 OA
ENDBRANCH   3   4
ENDBRANCH   2   3
ENDBRANCH   1   2
BRANCH   1   7
ATOM      7  C   UNL     1       4.129   8.241 405.636  1.00  0.00     0.000 C 
BRANCH   7   8
ATOM      8  C   UNL     1       2.922   8.279 404.683  1.00  0.00    -0.000 C 
BRANCH   8   9
ATOM      9  C   UNL     1       3.328   8.093 403.212  1.00  0.00    -0.003 C 
ATOM     10  C   UNL     1       3.810   6.675 402.904  1.00  0.00     0.004 C 
ENDBRANCH   8   9
ENDBRANCH   7   8
ENDBRANCH   1   7
TORSDOF 6
ENDMDL
MODEL 9
REMARK VINA RESULT:    -3.203      2.970      4.593
REMARK INTER + INTRA:          -4.695
REMARK INTER:                  -4.482
REMARK INTRA:                  -0.214
REMARK UNBOUND:                -0.369
REMARK SMILES CCCCCCCC(=O)[O-]
REMARK SMILES IDX 5 1 6 2 7 3 8 4 9 5 10 6 4 7 3 8 2 9 1 10
REMARK H PARENT
REMARK Flexibility Score: inf
ROOT
ATOM      1  C   UNL     1       6.153   0.932 399.805  1.00  0.00     0.000 C 
ENDROOT
BRANCH   1   2
ATOM      2  C   UNL     1       5.046  -0.106 400.062  1.00  0.00     0.006 C 
BRANCH   2   3
ATOM      3  C   UNL     1       3.649   0.520 400.165  1.00  0.00     0.053 C 
BRANCH   3   4
ATOM      4  C   UNL     1       3.629   1.583 401.217  1.00  0.00     0.041 C 
ATOM      5  O   UNL     1       3.750   1.275 402.432  1.00  0.00    -0.550 OA
ATOM      6  O   UNL     1       3.526   2.920 400.853  1.00  0.00    -0.550 OA
ENDBRANCH   3   4
ENDBRANCH   2   3
ENDBRANCH   1   2
BRANCH   1   7
ATOM      7  C   UNL     1       7.372   0.410 399.023  1.00  0.00     0.000 C 
BRANCH   7   8
ATOM      8  C   UNL     1       7.761   1.319 397.844  1.00  0.00    -0.000 C 
BRANCH   8   9
ATOM      9  C   UNL     1       9.178   1.897 397.990  1.00  0.00    -0.003 C 
ATOM     10  C   UNL     1      10.083   1.036 398.870  1.00  0.00     0.004 C 
ENDBRANCH   8   9
ENDBRANCH   7   8
ENDBRANCH   1   7
TORSDOF 6
ENDMDL
