MODEL 1
REMARK VINA RESULT:    -4.736      0.000      0.000
REMARK INTER + INTRA:          -5.898
REMARK INTER:                  -6.674
REMARK INTRA:                   0.776
REMARK UNBOUND:                 0.776
REMARK SMILES CC1=CCC(=C(C)C)C(=O)CC(C)=CCC1
REMARK SMILES IDX 12 1 14 2 13 3 15 4 16 5 2 6 1 7 3 8 11 10 9 11 10 12 5 13
REMARK SMILES IDX 6 14 7 15 8 16 4 17
REMARK H PARENT
REMARK Flexibility Score: 60.00
ROOT
ATOM      1  C   UNL     1     -13.034 -15.606  30.827  1.00  0.00    -0.070 C 
ATOM      2  C   UNL     1     -13.527 -15.360  29.593  1.00  0.00    -0.027 C 
ATOM      3  C   UNL     1     -14.016 -15.758  31.963  1.00  0.00     0.039 C 
ENDROOT
BRANCH   2   4
ATOM      4  C   UNL     1     -12.716 -15.272  28.319  1.00  0.00     0.032 C 
BRANCH   4   5
ATOM      5  C   UNL     1     -13.190 -16.203  27.184  1.00  0.00     0.034 C 
BRANCH   5   6
ATOM      6  C   UNL     1     -12.223 -17.339  26.900  1.00  0.00    -0.077 C 
ATOM      7  C   UNL     1     -11.458 -17.299  25.601  1.00  0.00     0.039 C 
ATOM      8  C   UNL     1     -11.951 -18.347  27.766  1.00  0.00    -0.023 CG0
ATOM      9  G   UNL     1     -12.606 -18.598  29.109  1.00  0.00     0.000 G0
ENDBRANCH   5   6
ENDBRANCH   4   5
ENDBRANCH   2   4
BRANCH   1  10
ATOM     10  C   UNL     1     -11.561 -15.824  31.105  1.00  0.00     0.111 C 
BRANCH  10  11
ATOM     11  C   UNL     1     -11.008 -16.972  30.301  1.00  0.00     0.163 C 
ATOM     12  O   UNL     1      -9.926 -16.796  29.680  1.00  0.00    -0.294 OA
BRANCH  11  13
ATOM     13  C   UNL     1     -11.660 -18.315  30.269  1.00  0.00    -0.002 C 
ATOM     14  C   UNL     1     -11.481 -19.204  31.293  1.00  0.00    -0.069 C 
ATOM     15  C   UNL     1     -12.250 -20.506  31.367  1.00  0.00     0.039 C 
ATOM     16  C   UNL     1     -10.498 -18.927  32.409  1.00  0.00     0.039 C 
BRANCH  13  17
ATOM     17  C   UNL     1     -12.598 -18.605  29.108  1.00  0.00     0.066 CG0
ATOM     18  G   UNL     1     -11.950 -18.336  27.764  1.00  0.00     0.000 G0
ENDBRANCH  13  17
ENDBRANCH  11  13
ENDBRANCH  10  11
ENDBRANCH   1  10
TORSDOF 0
ENDMDL
MODEL 2
REMARK VINA RESULT:    -4.642      1.295      3.664
REMARK INTER + INTRA:          -5.766
REMARK INTER:                  -6.357
REMARK INTRA:                   0.591
REMARK UNBOUND:                 0.776
REMARK SMILES CC1=CCC(=C(C)C)C(=O)CC(C)=CCC1
REMARK SMILES IDX 12 1 14 2 13 3 15 4 16 5 2 6 1 7 3 8 11 10 9 11 10 12 5 13
REMARK SMILES IDX 6 14 7 15 8 16 4 17
REMARK H PARENT
REMARK Flexibility Score: 60.00
ROOT
ATOM      1  C   UNL     1     -12.831 -16.899  31.077  1.00  0.00    -0.070 C 
ATOM      2  C   UNL     1     -13.274 -18.161  31.272  1.00  0.00    -0.027 C 
ATOM      3  C   UNL     1     -13.806 -15.768  31.289  1.00  0.00     0.039 C 
ENDROOT
BRANCH   2   4
ATOM      4  C   UNL     1     -12.429 -19.415  31.205  1.00  0.00     0.032 C 
BRANCH   4   5
ATOM      5  C   UNL     1     -11.828 -19.717  29.816  1.00  0.00     0.034 C 
BRANCH   5   6
ATOM      6  C   UNL     1     -12.850 -19.645  28.695  1.00  0.00    -0.077 C 
ATOM      7  C   UNL     1     -13.981 -20.643  28.713  1.00  0.00     0.039 C 
ATOM      8  C   UNL     1     -12.851 -18.703  27.719  1.00  0.00    -0.023 CG0
ATOM      9  G   UNL     1     -11.813 -17.622  27.493  1.00  0.00     0.000 G0
ENDBRANCH   5   6
ENDBRANCH   4   5
ENDBRANCH   2   4
BRANCH   1  10
ATOM     10  C   UNL     1     -11.390 -16.566  30.748  1.00  0.00     0.111 C 
BRANCH  10  11
ATOM     11  C   UNL     1     -11.261 -15.952  29.379  1.00  0.00     0.163 C 
ATOM     12  O   UNL     1     -10.327 -15.127  29.184  1.00  0.00    -0.294 OA
BRANCH  11  13
ATOM     13  C   UNL     1     -12.152 -16.330  28.243  1.00  0.00    -0.002 C 
ATOM     14  C   UNL     1     -13.171 -15.509  27.850  1.00  0.00    -0.069 C 
ATOM     15  C   UNL     1     -13.990 -15.787  26.608  1.00  0.00     0.039 C 
ATOM     16  C   UNL     1     -13.532 -14.272  28.644  1.00  0.00     0.039 C 
BRANCH  13  17
ATOM     17  C   UNL     1     -11.816 -17.610  27.493  1.00  0.00     0.066 CG0
ATOM     18  G   UNL     1     -12.847 -18.697  27.718  1.00  0.00     0.000 G0
ENDBRANCH  13  17
ENDBRANCH  11  13
ENDBRANCH  10  11
ENDBRANCH   1  10
TORSDOF 0
ENDMDL
MODEL 3
REMARK VINA RESULT:    -4.530      1.564      2.192
REMARK INTER + INTRA:          -5.607
REMARK INTER:                  -6.021
REMARK INTRA:                   0.413
REMARK UNBOUND:                 0.776
REMARK SMILES CC1=CCC(=C(C)C)C(=O)CC(C)=CCC1
REMARK SMILES IDX 12 1 14 2 13 3 15 4 16 5 2 6 1 7 3 8 11 10 9 11 10 12 5 13
REMARK SMILES IDX 6 14 7 15 8 16 4 17
REMARK H PARENT
REMARK Flexibility Score: 60.00
ROOT
ATOM      1  C   UNL     1     -13.929 -14.494  28.694  1.00  0.00    -0.070 C 
ATOM      2  C   UNL     1     -14.392 -14.942  27.506  1.00  0.00    -0.027 C 
ATOM      3  C   UNL     1     -14.855 -13.660  29.544  1.00  0.00     0.039 C 
ENDROOT
BRANCH   2   4
ATOM      4  C   UNL     1     -13.655 -15.866  26.562  1.00  0.00     0.032 C 
BRANCH   4   5
ATOM      5  C   UNL     1     -13.515 -17.321  27.057  1.00  0.00     0.034 C 
BRANCH   5   6
ATOM      6  C   UNL     1     -12.072 -17.788  27.137  1.00  0.00    -0.077 C 
ATOM      7  C   UNL     1     -11.258 -17.767  25.868  1.00  0.00     0.039 C 
ATOM      8  C   UNL     1     -11.450 -18.155  28.284  1.00  0.00    -0.023 CG0
ATOM      9  G   UNL     1     -12.069 -18.269  29.663  1.00  0.00     0.000 G0
ENDBRANCH   5   6
ENDBRANCH   4   5
ENDBRANCH   2   4
BRANCH   1  10
ATOM     10  C   UNL     1     -12.568 -14.863  29.248  1.00  0.00     0.111 C 
BRANCH  10  11
ATOM     11  C   UNL     1     -12.678 -15.851  30.380  1.00  0.00     0.163 C 
ATOM     12  O   UNL     1     -13.621 -15.705  31.205  1.00  0.00    -0.294 OA
BRANCH  11  13
ATOM     13  C   UNL     1     -11.758 -17.018  30.518  1.00  0.00    -0.002 C 
ATOM     14  C   UNL     1     -10.739 -17.001  31.430  1.00  0.00    -0.069 C 
ATOM     15  C   UNL     1      -9.889 -18.223  31.704  1.00  0.00     0.039 C 
ATOM     16  C   UNL     1     -10.410 -15.750  32.215  1.00  0.00     0.039 C 
BRANCH  13  17
ATOM     17  C   UNL     1     -12.062 -18.247  29.675  1.00  0.00     0.066 CG0
ATOM     18  G   UNL     1     -11.456 -18.159  28.289  1.00  0.00     0.000 G0
ENDBRANCH  13  17
ENDBRANCH  11  13
ENDBRANCH  10  11
ENDBRANCH   1  10
TORSDOF 0
ENDMDL
MODEL 4
REMARK VINA RESULT:    -4.471      1.816      4.600
REMARK INTER + INTRA:          -5.525
REMARK INTER:                  -6.422
REMARK INTRA:                   0.897
REMARK UNBOUND:                 0.776
REMARK SMILES CC1=CCC(=C(C)C)C(=O)CC(C)=CCC1
REMARK SMILES IDX 12 1 14 2 13 3 15 4 16 5 2 6 1 7 3 8 11 10 9 11 10 12 5 13
REMARK SMILES IDX 6 14 7 15 8 16 4 17
REMARK H PARENT
REMARK Flexibility Score: 60.00
ROOT
ATOM      1  C   UNL     1     -11.114 -17.040  27.940  1.00  0.00    -0.070 C 
ATOM      2  C   UNL     1     -10.533 -18.049  28.627  1.00  0.00    -0.027 C 
ATOM      3  C   UNL     1     -11.631 -17.336  26.554  1.00  0.00     0.039 C 
ENDROOT
BRANCH   2   4
ATOM      4  C   UNL     1     -10.043 -17.976  30.057  1.00  0.00     0.032 C 
BRANCH   4   5
ATOM      5  C   UNL     1     -10.814 -18.869  31.052  1.00  0.00     0.034 C 
BRANCH   5   6
ATOM      6  C   UNL     1     -12.307 -18.911  30.784  1.00  0.00    -0.077 C 
ATOM      7  C   UNL     1     -12.918 -20.245  30.432  1.00  0.00     0.039 C 
ATOM      8  C   UNL     1     -13.137 -17.846  30.906  1.00  0.00    -0.023 CG0
ATOM      9  G   UNL     1     -12.747 -16.417  31.229  1.00  0.00     0.000 G0
ENDBRANCH   5   6
ENDBRANCH   4   5
ENDBRANCH   2   4
BRANCH   1  10
ATOM     10  C   UNL     1     -11.351 -15.664  28.526  1.00  0.00     0.111 C 
BRANCH  10  11
ATOM     11  C   UNL     1     -12.807 -15.436  28.839  1.00  0.00     0.163 C 
ATOM     12  O   UNL     1     -13.611 -15.321  27.874  1.00  0.00    -0.294 OA
BRANCH  11  13
ATOM     13  C   UNL     1     -13.331 -15.407  30.237  1.00  0.00    -0.002 C 
ATOM     14  C   UNL     1     -14.356 -14.570  30.581  1.00  0.00    -0.069 C 
ATOM     15  C   UNL     1     -15.013 -14.628  31.944  1.00  0.00     0.039 C 
ATOM     16  C   UNL     1     -14.886 -13.537  29.610  1.00  0.00     0.039 C 
BRANCH  13  17
ATOM     17  C   UNL     1     -12.745 -16.407  31.220  1.00  0.00     0.066 CG0
ATOM     18  G   UNL     1     -13.145 -17.833  30.899  1.00  0.00     0.000 G0
ENDBRANCH  13  17
ENDBRANCH  11  13
ENDBRANCH  10  11
ENDBRANCH   1  10
TORSDOF 0
ENDMDL
MODEL 5
REMARK VINA RESULT:    -4.318      1.739      2.374
REMARK INTER + INTRA:          -5.310
REMARK INTER:                  -5.962
REMARK INTRA:                   0.653
REMARK UNBOUND:                 0.776
REMARK SMILES CC1=CCC(=C(C)C)C(=O)CC(C)=CCC1
REMARK SMILES IDX 12 1 14 2 13 3 15 4 16 5 2 6 1 7 3 8 11 10 9 11 10 12 5 13
REMARK SMILES IDX 6 14 7 15 8 16 4 17
REMARK H PARENT
REMARK Flexibility Score: 60.00
ROOT
ATOM      1  C   UNL     1     -10.379 -16.523  31.234  1.00  0.00    -0.070 C 
ATOM      2  C   UNL     1      -9.875 -15.959  30.114  1.00  0.00    -0.027 C 
ATOM      3  C   UNL     1     -10.289 -15.741  32.522  1.00  0.00     0.039 C 
ENDROOT
BRANCH   2   4
ATOM      4  C   UNL     1      -9.957 -16.539  28.719  1.00  0.00     0.032 C 
BRANCH   4   5
ATOM      5  C   UNL     1     -11.202 -16.113  27.913  1.00  0.00     0.034 C 
BRANCH   5   6
ATOM      6  C   UNL     1     -11.683 -17.182  26.947  1.00  0.00    -0.077 C 
ATOM      7  C   UNL     1     -10.904 -17.372  25.669  1.00  0.00     0.039 C 
ATOM      8  C   UNL     1     -12.720 -18.020  27.189  1.00  0.00    -0.023 CG0
ATOM      9  G   UNL     1     -13.649 -18.002  28.387  1.00  0.00     0.000 G0
ENDBRANCH   5   6
ENDBRANCH   4   5
ENDBRANCH   2   4
BRANCH   1  10
ATOM     10  C   UNL     1     -11.107 -17.852  31.240  1.00  0.00     0.111 C 
BRANCH  10  11
ATOM     11  C   UNL     1     -12.499 -17.726  30.679  1.00  0.00     0.163 C 
ATOM     12  O   UNL     1     -13.222 -16.778  31.091  1.00  0.00    -0.294 OA
BRANCH  11  13
ATOM     13  C   UNL     1     -13.021 -18.637  29.617  1.00  0.00    -0.002 C 
ATOM     14  C   UNL     1     -13.013 -19.993  29.794  1.00  0.00    -0.069 C 
ATOM     15  C   UNL     1     -13.676 -20.932  28.810  1.00  0.00     0.039 C 
ATOM     16  C   UNL     1     -12.338 -20.624  30.992  1.00  0.00     0.039 C 
BRANCH  13  17
ATOM     17  C   UNL     1     -13.641 -17.990  28.389  1.00  0.00     0.066 CG0
ATOM     18  G   UNL     1     -12.715 -18.028  27.189  1.00  0.00     0.000 G0
ENDBRANCH  13  17
ENDBRANCH  11  13
ENDBRANCH  10  11
ENDBRANCH   1  10
TORSDOF 0
ENDMDL
MODEL 6
REMARK VINA RESULT:    -4.046      1.761      3.625
REMARK INTER + INTRA:          -4.926
REMARK INTER:                  -5.653
REMARK INTRA:                   0.727
REMARK UNBOUND:                 0.776
REMARK SMILES CC1=CCC(=C(C)C)C(=O)CC(C)=CCC1
REMARK SMILES IDX 12 1 14 2 13 3 15 4 16 5 2 6 1 7 3 8 11 10 9 11 10 12 5 13
REMARK SMILES IDX 6 14 7 15 8 16 4 17
REMARK H PARENT
REMARK Flexibility Score: 60.00
ROOT
ATOM      1  C   UNL     1     -13.285 -16.353  27.614  1.00  0.00    -0.070 C 
ATOM      2  C   UNL     1     -12.771 -15.307  28.299  1.00  0.00    -0.027 C 
ATOM      3  C   UNL     1     -13.628 -16.144  26.160  1.00  0.00     0.039 C 
ENDROOT
BRANCH   2   4
ATOM      4  C   UNL     1     -12.278 -15.345  29.729  1.00  0.00     0.032 C 
BRANCH   4   5
ATOM      5  C   UNL     1     -10.793 -15.734  29.892  1.00  0.00     0.034 C 
BRANCH   5   6
ATOM      6  C   UNL     1     -10.504 -16.455  31.196  1.00  0.00    -0.077 C 
ATOM      7  C   UNL     1     -10.464 -15.631  32.459  1.00  0.00     0.039 C 
ATOM      8  C   UNL     1     -10.349 -17.797  31.310  1.00  0.00    -0.023 CG0
ATOM      9  G   UNL     1     -10.332 -18.813  30.185  1.00  0.00     0.000 G0
ENDBRANCH   5   6
ENDBRANCH   4   5
ENDBRANCH   2   4
BRANCH   1  10
ATOM     10  C   UNL     1     -13.446 -17.737  28.208  1.00  0.00     0.111 C 
BRANCH  10  11
ATOM     11  C   UNL     1     -12.118 -18.430  28.372  1.00  0.00     0.163 C 
ATOM     12  O   UNL     1     -11.296 -18.371  27.417  1.00  0.00    -0.294 OA
BRANCH  11  13
ATOM     13  C   UNL     1     -11.725 -19.119  29.636  1.00  0.00    -0.002 C 
ATOM     14  C   UNL     1     -12.557 -20.032  30.223  1.00  0.00    -0.069 C 
ATOM     15  C   UNL     1     -12.124 -20.861  31.412  1.00  0.00     0.039 C 
ATOM     16  C   UNL     1     -13.962 -20.258  29.707  1.00  0.00     0.039 C 
BRANCH  13  17
ATOM     17  C   UNL     1     -10.334 -18.835  30.179  1.00  0.00     0.066 CG0
ATOM     18  G   UNL     1     -10.350 -17.805  31.292  1.00  0.00     0.000 G0
ENDBRANCH  13  17
ENDBRANCH  11  13
ENDBRANCH  10  11
ENDBRANCH   1  10
TORSDOF 0
ENDMDL
MODEL 7
REMARK VINA RESULT:    -3.970      1.487      4.201
REMARK INTER + INTRA:          -4.819
REMARK INTER:                  -6.042
REMARK INTRA:                   1.223
REMARK UNBOUND:                 0.776
REMARK SMILES CC1=CCC(=C(C)C)C(=O)CC(C)=CCC1
REMARK SMILES IDX 12 1 14 2 13 3 15 4 16 5 2 6 1 7 3 8 11 10 9 11 10 12 5 13
REMARK SMILES IDX 6 14 7 15 8 16 4 17
REMARK H PARENT
REMARK Flexibility Score: 60.00
ROOT
ATOM      1  C   UNL     1     -12.477 -17.908  27.482  1.00  0.00    -0.070 C 
ATOM      2  C   UNL     1     -13.601 -18.560  27.852  1.00  0.00    -0.027 C 
ATOM      3  C   UNL     1     -12.560 -16.969  26.304  1.00  0.00     0.039 C 
ENDROOT
BRANCH   2   4
ATOM      4  C   UNL     1     -13.743 -19.463  29.058  1.00  0.00     0.032 C 
BRANCH   4   5
ATOM      5  C   UNL     1     -13.464 -18.782  30.414  1.00  0.00     0.034 C 
BRANCH   5   6
ATOM      6  C   UNL     1     -12.241 -19.338  31.122  1.00  0.00    -0.077 C 
ATOM      7  C   UNL     1     -12.126 -20.837  31.248  1.00  0.00     0.039 C 
ATOM      8  C   UNL     1     -11.216 -18.582  31.586  1.00  0.00    -0.023 CG0
ATOM      9  G   UNL     1     -11.123 -17.069  31.585  1.00  0.00     0.000 G0
ENDBRANCH   5   6
ENDBRANCH   4   5
ENDBRANCH   2   4
BRANCH   1  10
ATOM     10  C   UNL     1     -11.171 -18.004  28.245  1.00  0.00     0.111 C 
BRANCH  10  11
ATOM     11  C   UNL     1     -10.900 -16.755  29.041  1.00  0.00     0.163 C 
ATOM     12  O   UNL     1     -10.055 -15.934  28.590  1.00  0.00    -0.294 OA
BRANCH  11  13
ATOM     13  C   UNL     1     -11.634 -16.431  30.300  1.00  0.00    -0.002 C 
ATOM     14  C   UNL     1     -12.775 -15.678  30.269  1.00  0.00    -0.069 C 
ATOM     15  C   UNL     1     -13.627 -15.465  31.502  1.00  0.00     0.039 C 
ATOM     16  C   UNL     1     -13.245 -15.017  28.991  1.00  0.00     0.039 C 
BRANCH  13  17
ATOM     17  C   UNL     1     -11.115 -17.050  31.588  1.00  0.00     0.066 CG0
ATOM     18  G   UNL     1     -11.216 -18.563  31.581  1.00  0.00     0.000 G0
ENDBRANCH  13  17
ENDBRANCH  11  13
ENDBRANCH  10  11
ENDBRANCH   1  10
TORSDOF 0
ENDMDL
MODEL 8
REMARK VINA RESULT:    -3.969      1.497      3.708
REMARK INTER + INTRA:          -4.817
REMARK INTER:                  -5.397
REMARK INTRA:                   0.580
REMARK UNBOUND:                 0.776
REMARK SMILES CC1=CCC(=C(C)C)C(=O)CC(C)=CCC1
REMARK SMILES IDX 12 1 14 2 13 3 15 4 16 5 2 6 1 7 3 8 11 10 9 11 10 12 5 13
REMARK SMILES IDX 6 14 7 15 8 16 4 17
REMARK H PARENT
REMARK Flexibility Score: 60.00
ROOT
ATOM      1  C   UNL     1     -12.069 -17.208  26.612  1.00  0.00    -0.070 C 
ATOM      2  C   UNL     1     -12.599 -15.979  26.805  1.00  0.00    -0.027 C 
ATOM      3  C   UNL     1     -11.183 -17.415  25.409  1.00  0.00     0.039 C 
ENDROOT
BRANCH   2   4
ATOM      4  C   UNL     1     -13.427 -15.552  27.996  1.00  0.00     0.032 C 
BRANCH   4   5
ATOM      5  C   UNL     1     -12.612 -15.037  29.201  1.00  0.00     0.034 C 
BRANCH   5   6
ATOM      6  C   UNL     1     -13.250 -15.367  30.539  1.00  0.00    -0.077 C 
ATOM      7  C   UNL     1     -14.475 -14.585  30.943  1.00  0.00     0.039 C 
ATOM      8  C   UNL     1     -12.833 -16.362  31.360  1.00  0.00    -0.023 CG0
ATOM      9  G   UNL     1     -11.625 -17.257  31.170  1.00  0.00     0.000 G0
ENDBRANCH   5   6
ENDBRANCH   4   5
ENDBRANCH   2   4
BRANCH   1  10
ATOM     10  C   UNL     1     -12.248 -18.352  27.589  1.00  0.00     0.111 C 
BRANCH  10  11
ATOM     11  C   UNL     1     -11.373 -18.187  28.804  1.00  0.00     0.163 C 
ATOM     12  O   UNL     1     -10.181 -17.813  28.632  1.00  0.00    -0.294 OA
BRANCH  11  13
ATOM     13  C   UNL     1     -11.884 -18.388  30.193  1.00  0.00    -0.002 C 
ATOM     14  C   UNL     1     -12.477 -19.566  30.556  1.00  0.00    -0.069 C 
ATOM     15  C   UNL     1     -12.861 -19.859  31.990  1.00  0.00     0.039 C 
ATOM     16  C   UNL     1     -12.779 -20.640  29.533  1.00  0.00     0.039 C 
BRANCH  13  17
ATOM     17  C   UNL     1     -11.629 -17.274  31.195  1.00  0.00     0.066 CG0
ATOM     18  G   UNL     1     -12.828 -16.360  31.356  1.00  0.00     0.000 G0
ENDBRANCH  13  17
ENDBRANCH  11  13
ENDBRANCH  10  11
ENDBRANCH   1  10
TORSDOF 0
ENDMDL
MODEL 9
REMARK VINA RESULT:    -3.791      1.593      3.316
REMARK INTER + INTRA:          -4.566
REMARK INTER:                  -5.642
REMARK INTRA:                   1.076
REMARK UNBOUND:                 0.776
REMARK SMILES CC1=CCC(=C(C)C)C(=O)CC(C)=CCC1
REMARK SMILES IDX 12 1 14 2 13 3 15 4 16 5 2 6 1 7 3 8 11 10 9 11 10 12 5 13
REMARK SMILES IDX 6 14 7 15 8 16 4 17
REMARK H PARENT
REMARK Flexibility Score: 60.00
ROOT
ATOM      1  C   UNL     1     -12.296 -19.781  30.235  1.00  0.00    -0.070 C 
ATOM      2  C   UNL     1     -13.251 -19.809  29.279  1.00  0.00    -0.027 C 
ATOM      3  C   UNL     1     -12.500 -20.634  31.462  1.00  0.00     0.039 C 
ENDROOT
BRANCH   2   4
ATOM      4  C   UNL     1     -13.185 -19.102  27.943  1.00  0.00     0.032 C 
BRANCH   4   5
ATOM      5  C   UNL     1     -13.025 -17.570  28.027  1.00  0.00     0.034 C 
BRANCH   5   6
ATOM      6  C   UNL     1     -11.697 -17.076  27.482  1.00  0.00    -0.077 C 
ATOM      7  C   UNL     1     -11.281 -17.555  26.113  1.00  0.00     0.039 C 
ATOM      8  C   UNL     1     -10.896 -16.183  28.113  1.00  0.00    -0.023 CG0
ATOM      9  G   UNL     1     -11.101 -15.586  29.491  1.00  0.00     0.000 G0
ENDBRANCH   5   6
ENDBRANCH   4   5
ENDBRANCH   2   4
BRANCH   1  10
ATOM     10  C   UNL     1     -11.000 -19.010  30.092  1.00  0.00     0.111 C 
BRANCH  10  11
ATOM     11  C   UNL     1     -11.020 -17.734  30.891  1.00  0.00     0.163 C 
ATOM     12  O   UNL     1     -10.319 -17.677  31.938  1.00  0.00    -0.294 OA
BRANCH  11  13
ATOM     13  C   UNL     1     -11.785 -16.528  30.455  1.00  0.00    -0.002 C 
ATOM     14  C   UNL     1     -13.022 -16.260  30.972  1.00  0.00    -0.069 C 
ATOM     15  C   UNL     1     -13.753 -14.969  30.672  1.00  0.00     0.039 C 
ATOM     16  C   UNL     1     -13.725 -17.249  31.876  1.00  0.00     0.039 C 
BRANCH  13  17
ATOM     17  C   UNL     1     -11.090 -15.574  29.496  1.00  0.00     0.066 CG0
ATOM     18  G   UNL     1     -10.895 -16.181  28.121  1.00  0.00     0.000 G0
ENDBRANCH  13  17
ENDBRANCH  11  13
ENDBRANCH  10  11
ENDBRANCH   1  10
TORSDOF 0
ENDMDL
