MODEL 1
REMARK VINA RESULT:    -5.002      0.000      0.000
REMARK INTER + INTRA:          -6.878
REMARK INTER:                  -6.465
REMARK INTRA:                  -0.413
REMARK UNBOUND:                -0.413
REMARK SMILES CCO[C@@H]1O[C@@H](CO)[C@H](O)[C@@H](O)[C@H]1O
REMARK SMILES IDX 4 1 13 2 11 3 9 4 6 5 5 6 3 7 2 8 1 9 14 10 12 12 7 14 8 15
REMARK SMILES IDX 10 17
REMARK H PARENT 14 11 12 13 8 16 10 18
REMARK Flexibility Score: inf
ROOT
ATOM      1  C   UNL     1       7.168   4.740  19.170  1.00  0.00     0.281 C 
ATOM      2  C   UNL     1       7.039   6.241  19.569  1.00  0.00     0.202 C 
ATOM      3  C   UNL     1       6.397   7.050  18.425  1.00  0.00     0.179 C 
ATOM      4  C   UNL     1       7.226   6.885  17.128  1.00  0.00     0.177 C 
ATOM      5  C   UNL     1       7.889   5.482  17.065  1.00  0.00     0.178 C 
ATOM      6  O   UNL     1       7.099   4.536  17.763  1.00  0.00    -0.341 OA
ENDROOT
BRANCH   1   7
ATOM      7  O   UNL     1       8.389   4.199  19.653  1.00  0.00    -0.350 OA
BRANCH   7   8
ATOM      8  C   UNL     1       8.150   3.150  20.569  1.00  0.00     0.160 C 
ATOM      9  C   UNL     1       8.239   3.696  21.985  1.00  0.00     0.035 C 
ENDBRANCH   7   8
ENDBRANCH   1   7
BRANCH   2  10
ATOM     10  O   UNL     1       6.274   6.361  20.742  1.00  0.00    -0.385 OA
ATOM     11  H   UNL     1       6.447   7.268  21.106  1.00  0.00     0.211 HD
ENDBRANCH   2  10
BRANCH   3  12
ATOM     12  O   UNL     1       5.083   6.602  18.195  1.00  0.00    -0.387 OA
ATOM     13  H   UNL     1       4.781   7.012  17.343  1.00  0.00     0.211 HD
ENDBRANCH   3  12
BRANCH   5  14
ATOM     14  C   UNL     1       8.060   5.006  15.618  1.00  0.00     0.191 C 
BRANCH  14  15
ATOM     15  O   UNL     1       8.350   6.093  14.783  1.00  0.00    -0.394 OA
ATOM     16  H   UNL     1       8.478   6.873  15.382  1.00  0.00     0.210 HD
ENDBRANCH  14  15
ENDBRANCH   5  14
BRANCH   4  17
ATOM     17  O   UNL     1       8.231   7.867  17.073  1.00  0.00    -0.387 OA
ATOM     18  H   UNL     1       8.097   8.370  16.229  1.00  0.00     0.211 HD
ENDBRANCH   4  17
TORSDOF 7
ENDMDL
MODEL 2
REMARK VINA RESULT:    -4.848     12.665     14.733
REMARK INTER + INTRA:          -6.677
REMARK INTER:                  -6.256
REMARK INTRA:                  -0.421
REMARK UNBOUND:                -0.413
REMARK SMILES CCO[C@@H]1O[C@@H](CO)[C@H](O)[C@@H](O)[C@H]1O
REMARK SMILES IDX 4 1 13 2 11 3 9 4 6 5 5 6 3 7 2 8 1 9 14 10 12 12 7 14 8 15
REMARK SMILES IDX 10 17
REMARK H PARENT 14 11 12 13 8 16 10 18
REMARK Flexibility Score: inf
ROOT
ATOM      1  C   UNL     1      18.567  -3.766  24.095  1.00  0.00     0.281 C 
ATOM      2  C   UNL     1      17.661  -2.671  24.734  1.00  0.00     0.202 C 
ATOM      3  C   UNL     1      16.178  -2.942  24.409  1.00  0.00     0.179 C 
ATOM      4  C   UNL     1      15.974  -3.013  22.877  1.00  0.00     0.177 C 
ATOM      5  C   UNL     1      17.237  -3.581  22.172  1.00  0.00     0.178 C 
ATOM      6  O   UNL     1      17.922  -4.468  23.039  1.00  0.00    -0.341 OA
ENDROOT
BRANCH   1   7
ATOM      7  O   UNL     1      19.768  -3.192  23.599  1.00  0.00    -0.350 OA
BRANCH   7   8
ATOM      8  C   UNL     1      20.793  -4.160  23.513  1.00  0.00     0.160 C 
ATOM      9  C   UNL     1      20.922  -4.869  24.852  1.00  0.00     0.035 C 
ENDBRANCH   7   8
ENDBRANCH   1   7
BRANCH   2  10
ATOM     10  O   UNL     1      17.858  -2.636  26.124  1.00  0.00    -0.385 OA
ATOM     11  H   UNL     1      18.402  -1.829  26.317  1.00  0.00     0.211 HD
ENDBRANCH   2  10
BRANCH   3  12
ATOM     12  O   UNL     1      15.772  -4.158  24.987  1.00  0.00    -0.387 OA
ATOM     13  H   UNL     1      15.996  -4.877  24.340  1.00  0.00     0.211 HD
ENDBRANCH   3  12
BRANCH   5  14
ATOM     14  C   UNL     1      16.872  -4.333  20.887  1.00  0.00     0.191 C 
BRANCH  14  15
ATOM     15  O   UNL     1      16.030  -3.548  20.089  1.00  0.00    -0.394 OA
ATOM     16  H   UNL     1      15.960  -2.669  20.546  1.00  0.00     0.210 HD
ENDBRANCH  14  15
ENDBRANCH   5  14
BRANCH   4  17
ATOM     17  O   UNL     1      15.708  -1.729  22.368  1.00  0.00    -0.387 OA
ATOM     18  H   UNL     1      14.848  -1.786  21.877  1.00  0.00     0.211 HD
ENDBRANCH   4  17
TORSDOF 7
ENDMDL
MODEL 3
REMARK VINA RESULT:    -4.616      1.758      3.856
REMARK INTER + INTRA:          -6.377
REMARK INTER:                  -5.997
REMARK INTRA:                  -0.380
REMARK UNBOUND:                -0.413
REMARK SMILES CCO[C@@H]1O[C@@H](CO)[C@H](O)[C@@H](O)[C@H]1O
REMARK SMILES IDX 4 1 13 2 11 3 9 4 6 5 5 6 3 7 2 8 1 9 14 10 12 12 7 14 8 15
REMARK SMILES IDX 10 17
REMARK H PARENT 14 11 12 13 8 16 10 18
REMARK Flexibility Score: inf
ROOT
ATOM      1  C   UNL     1       7.978   3.671  18.460  1.00  0.00     0.281 C 
ATOM      2  C   UNL     1       7.021   4.212  17.355  1.00  0.00     0.202 C 
ATOM      3  C   UNL     1       7.002   5.753  17.365  1.00  0.00     0.179 C 
ATOM      4  C   UNL     1       6.590   6.270  18.764  1.00  0.00     0.177 C 
ATOM      5  C   UNL     1       7.072   5.303  19.880  1.00  0.00     0.178 C 
ATOM      6  O   UNL     1       8.251   4.635  19.471  1.00  0.00    -0.341 OA
ENDROOT
BRANCH   1   7
ATOM      7  O   UNL     1       7.432   2.510  19.068  1.00  0.00    -0.350 OA
BRANCH   7   8
ATOM      8  C   UNL     1       8.089   1.344  18.615  1.00  0.00     0.160 C 
ATOM      9  C   UNL     1       7.063   0.241  18.414  1.00  0.00     0.035 C 
ENDBRANCH   7   8
ENDBRANCH   1   7
BRANCH   2  10
ATOM     10  O   UNL     1       7.424   3.736  16.096  1.00  0.00    -0.385 OA
ATOM     11  H   UNL     1       7.290   4.479  15.452  1.00  0.00     0.211 HD
ENDBRANCH   2  10
BRANCH   3  12
ATOM     12  O   UNL     1       8.277   6.253  17.043  1.00  0.00    -0.387 OA
ATOM     13  H   UNL     1       8.810   6.251  17.880  1.00  0.00     0.211 HD
ENDBRANCH   3  12
BRANCH   5  14
ATOM     14  C   UNL     1       7.360   6.052  21.187  1.00  0.00     0.191 C 
BRANCH  14  15
ATOM     15  O   UNL     1       6.221   6.754  21.603  1.00  0.00    -0.394 OA
ATOM     16  H   UNL     1       5.514   6.551  20.935  1.00  0.00     0.210 HD
ENDBRANCH  14  15
ENDBRANCH   5  14
BRANCH   4  17
ATOM     17  O   UNL     1       5.191   6.391  18.838  1.00  0.00    -0.387 OA
ATOM     18  H   UNL     1       4.993   7.000  19.596  1.00  0.00     0.211 HD
ENDBRANCH   4  17
TORSDOF 7
ENDMDL
MODEL 4
REMARK VINA RESULT:    -4.468      1.866      2.814
REMARK INTER + INTRA:          -6.187
REMARK INTER:                  -5.783
REMARK INTRA:                  -0.404
REMARK UNBOUND:                -0.413
REMARK SMILES CCO[C@@H]1O[C@@H](CO)[C@H](O)[C@@H](O)[C@H]1O
REMARK SMILES IDX 4 1 13 2 11 3 9 4 6 5 5 6 3 7 2 8 1 9 14 10 12 12 7 14 8 15
REMARK SMILES IDX 10 17
REMARK H PARENT 14 11 12 13 8 16 10 18
REMARK Flexibility Score: inf
ROOT
ATOM      1  C   UNL     1       7.264   4.380  20.417  1.00  0.00     0.281 C 
ATOM      2  C   UNL     1       7.620   5.488  19.380  1.00  0.00     0.202 C 
ATOM      3  C   UNL     1       6.738   5.354  18.123  1.00  0.00     0.179 C 
ATOM      4  C   UNL     1       6.898   3.942  17.510  1.00  0.00     0.177 C 
ATOM      5  C   UNL     1       7.176   2.883  18.612  1.00  0.00     0.178 C 
ATOM      6  O   UNL     1       6.575   3.280  19.832  1.00  0.00    -0.341 OA
ENDROOT
BRANCH   1   7
ATOM      7  O   UNL     1       8.437   3.899  21.056  1.00  0.00    -0.350 OA
BRANCH   7   8
ATOM      8  C   UNL     1       8.691   4.610  22.250  1.00  0.00     0.160 C 
ATOM      9  C   UNL     1       7.393   4.749  23.030  1.00  0.00     0.035 C 
ENDBRANCH   7   8
ENDBRANCH   1   7
BRANCH   2  10
ATOM     10  O   UNL     1       7.455   6.757  19.959  1.00  0.00    -0.385 OA
ATOM     11  H   UNL     1       6.481   6.946  19.965  1.00  0.00     0.211 HD
ENDBRANCH   2  10
BRANCH   3  12
ATOM     12  O   UNL     1       5.388   5.563  18.456  1.00  0.00    -0.387 OA
ATOM     13  H   UNL     1       5.326   6.464  18.868  1.00  0.00     0.211 HD
ENDBRANCH   3  12
BRANCH   5  14
ATOM     14  C   UNL     1       6.628   1.506  18.220  1.00  0.00     0.191 C 
BRANCH  14  15
ATOM     15  O   UNL     1       6.208   1.516  16.884  1.00  0.00    -0.394 OA
ATOM     16  H   UNL     1       5.522   0.802  16.806  1.00  0.00     0.210 HD
ENDBRANCH  14  15
ENDBRANCH   5  14
BRANCH   4  17
ATOM     17  O   UNL     1       7.965   3.935  16.593  1.00  0.00    -0.387 OA
ATOM     18  H   UNL     1       8.793   4.100  17.113  1.00  0.00     0.211 HD
ENDBRANCH   4  17
TORSDOF 7
ENDMDL
MODEL 5
REMARK VINA RESULT:    -4.367     11.587     12.782
REMARK INTER + INTRA:          -6.056
REMARK INTER:                  -5.692
REMARK INTRA:                  -0.364
REMARK UNBOUND:                -0.413
REMARK SMILES CCO[C@@H]1O[C@@H](CO)[C@H](O)[C@@H](O)[C@H]1O
REMARK SMILES IDX 4 1 13 2 11 3 9 4 6 5 5 6 3 7 2 8 1 9 14 10 12 12 7 14 8 15
REMARK SMILES IDX 10 17
REMARK H PARENT 14 11 12 13 8 16 10 18
REMARK Flexibility Score: inf
ROOT
ATOM      1  C   UNL     1      10.688   5.311   6.526  1.00  0.00     0.281 C 
ATOM      2  C   UNL     1      11.300   6.107   7.718  1.00  0.00     0.202 C 
ATOM      3  C   UNL     1      12.835   6.171   7.592  1.00  0.00     0.179 C 
ATOM      4  C   UNL     1      13.421   4.740   7.516  1.00  0.00     0.177 C 
ATOM      5  C   UNL     1      12.434   3.770   6.811  1.00  0.00     0.178 C 
ATOM      6  O   UNL     1      11.640   4.476   5.875  1.00  0.00    -0.341 OA
ENDROOT
BRANCH   1   7
ATOM      7  O   UNL     1       9.602   4.510   6.967  1.00  0.00    -0.350 OA
BRANCH   7   8
ATOM      8  C   UNL     1       8.818   4.074   5.875  1.00  0.00     0.160 C 
ATOM      9  C   UNL     1       7.795   3.063   6.370  1.00  0.00     0.035 C 
ENDBRANCH   7   8
ENDBRANCH   1   7
BRANCH   2  10
ATOM     10  O   UNL     1      10.759   7.403   7.756  1.00  0.00    -0.385 OA
ATOM     11  H   UNL     1      11.340   7.974   7.188  1.00  0.00     0.211 HD
ENDBRANCH   2  10
BRANCH   3  12
ATOM     12  O   UNL     1      13.196   6.881   6.433  1.00  0.00    -0.387 OA
ATOM     13  H   UNL     1      13.682   7.694   6.730  1.00  0.00     0.211 HD
ENDBRANCH   3  12
BRANCH   5  14
ATOM     14  C   UNL     1      13.177   2.647   6.078  1.00  0.00     0.191 C 
BRANCH  14  15
ATOM     15  O   UNL     1      14.505   2.580   6.517  1.00  0.00    -0.394 OA
ATOM     16  H   UNL     1      14.967   3.362   6.116  1.00  0.00     0.210 HD
ENDBRANCH  14  15
ENDBRANCH   5  14
BRANCH   4  17
ATOM     17  O   UNL     1      13.685   4.260   8.811  1.00  0.00    -0.387 OA
ATOM     18  H   UNL     1      14.655   4.386   8.974  1.00  0.00     0.211 HD
ENDBRANCH   4  17
TORSDOF 7
ENDMDL
MODEL 6
REMARK VINA RESULT:    -4.350     14.082     16.187
REMARK INTER + INTRA:          -6.035
REMARK INTER:                  -5.585
REMARK INTRA:                  -0.450
REMARK UNBOUND:                -0.413
REMARK SMILES CCO[C@@H]1O[C@@H](CO)[C@H](O)[C@@H](O)[C@H]1O
REMARK SMILES IDX 4 1 13 2 11 3 9 4 6 5 5 6 3 7 2 8 1 9 14 10 12 12 7 14 8 15
REMARK SMILES IDX 10 17
REMARK H PARENT 14 11 12 13 8 16 10 18
REMARK Flexibility Score: inf
ROOT
ATOM      1  C   UNL     1      18.761  -3.225  22.786  1.00  0.00     0.281 C 
ATOM      2  C   UNL     1      19.566  -3.781  23.999  1.00  0.00     0.202 C 
ATOM      3  C   UNL     1      20.953  -3.114  24.078  1.00  0.00     0.179 C 
ATOM      4  C   UNL     1      21.721  -3.328  22.752  1.00  0.00     0.177 C 
ATOM      5  C   UNL     1      20.745  -3.387  21.545  1.00  0.00     0.178 C 
ATOM      6  O   UNL     1      19.593  -2.607  21.811  1.00  0.00    -0.341 OA
ENDROOT
BRANCH   1   7
ATOM      7  O   UNL     1      18.017  -4.262  22.164  1.00  0.00    -0.350 OA
BRANCH   7   8
ATOM      8  C   UNL     1      16.772  -3.782  21.700  1.00  0.00     0.160 C 
ATOM      9  C   UNL     1      16.071  -3.043  22.829  1.00  0.00     0.035 C 
ENDBRANCH   7   8
ENDBRANCH   1   7
BRANCH   2  10
ATOM     10  O   UNL     1      18.851  -3.564  25.189  1.00  0.00    -0.385 OA
ATOM     11  H   UNL     1      19.202  -4.209  25.857  1.00  0.00     0.211 HD
ENDBRANCH   2  10
BRANCH   3  12
ATOM     12  O   UNL     1      20.812  -1.734  24.314  1.00  0.00    -0.387 OA
ATOM     13  H   UNL     1      19.866  -1.579  24.573  1.00  0.00     0.211 HD
ENDBRANCH   3  12
BRANCH   5  14
ATOM     14  C   UNL     1      21.405  -2.867  20.263  1.00  0.00     0.191 C 
BRANCH  14  15
ATOM     15  O   UNL     1      22.773  -2.655  20.475  1.00  0.00    -0.394 OA
ATOM     16  H   UNL     1      22.922  -2.776  21.449  1.00  0.00     0.210 HD
ENDBRANCH  14  15
ENDBRANCH   5  14
BRANCH   4  17
ATOM     17  O   UNL     1      22.450  -4.529  22.808  1.00  0.00    -0.387 OA
ATOM     18  H   UNL     1      21.817  -5.237  23.095  1.00  0.00     0.211 HD
ENDBRANCH   4  17
TORSDOF 7
ENDMDL
MODEL 7
REMARK VINA RESULT:    -4.334     15.109     16.813
REMARK INTER + INTRA:          -6.014
REMARK INTER:                  -5.572
REMARK INTRA:                  -0.443
REMARK UNBOUND:                -0.413
REMARK SMILES CCO[C@@H]1O[C@@H](CO)[C@H](O)[C@@H](O)[C@H]1O
REMARK SMILES IDX 4 1 13 2 11 3 9 4 6 5 5 6 3 7 2 8 1 9 14 10 12 12 7 14 8 15
REMARK SMILES IDX 10 17
REMARK H PARENT 14 11 12 13 8 16 10 18
REMARK Flexibility Score: inf
ROOT
ATOM      1  C   UNL     1      21.283  -3.089  21.352  1.00  0.00     0.281 C 
ATOM      2  C   UNL     1      21.719  -2.356  22.656  1.00  0.00     0.202 C 
ATOM      3  C   UNL     1      21.308  -3.174  23.897  1.00  0.00     0.179 C 
ATOM      4  C   UNL     1      19.782  -3.431  23.882  1.00  0.00     0.177 C 
ATOM      5  C   UNL     1      19.250  -3.550  22.427  1.00  0.00     0.178 C 
ATOM      6  O   UNL     1      20.264  -4.057  21.578  1.00  0.00    -0.341 OA
ENDROOT
BRANCH   1   7
ATOM      7  O   UNL     1      20.824  -2.156  20.385  1.00  0.00    -0.350 OA
BRANCH   7   8
ATOM      8  C   UNL     1      21.182  -2.561  19.080  1.00  0.00     0.160 C 
ATOM      9  C   UNL     1      22.680  -2.820  19.033  1.00  0.00     0.035 C 
ENDBRANCH   7   8
ENDBRANCH   1   7
BRANCH   2  10
ATOM     10  O   UNL     1      23.108  -2.147  22.647  1.00  0.00    -0.385 OA
ATOM     11  H   UNL     1      23.361  -1.861  23.563  1.00  0.00     0.211 HD
ENDBRANCH   2  10
BRANCH   3  12
ATOM     12  O   UNL     1      21.985  -4.407  23.908  1.00  0.00    -0.387 OA
ATOM     13  H   UNL     1      21.329  -5.097  24.190  1.00  0.00     0.211 HD
ENDBRANCH   3  12
BRANCH   5  14
ATOM     14  C   UNL     1      18.033  -4.479  22.348  1.00  0.00     0.191 C 
BRANCH  14  15
ATOM     15  O   UNL     1      17.083  -4.114  23.311  1.00  0.00    -0.394 OA
ATOM     16  H   UNL     1      17.590  -3.679  24.046  1.00  0.00     0.210 HD
ENDBRANCH  14  15
ENDBRANCH   5  14
BRANCH   4  17
ATOM     17  O   UNL     1      19.112  -2.376  24.527  1.00  0.00    -0.387 OA
ATOM     18  H   UNL     1      18.148  -2.609  24.536  1.00  0.00     0.211 HD
ENDBRANCH   4  17
TORSDOF 7
ENDMDL
MODEL 8
REMARK VINA RESULT:    -4.272     14.951     16.802
REMARK INTER + INTRA:          -5.934
REMARK INTER:                  -5.548
REMARK INTRA:                  -0.386
REMARK UNBOUND:                -0.413
REMARK SMILES CCO[C@@H]1O[C@@H](CO)[C@H](O)[C@@H](O)[C@H]1O
REMARK SMILES IDX 4 1 13 2 11 3 9 4 6 5 5 6 3 7 2 8 1 9 14 10 12 12 7 14 8 15
REMARK SMILES IDX 10 17
REMARK H PARENT 14 11 12 13 8 16 10 18
REMARK Flexibility Score: inf
ROOT
ATOM      1  C   UNL     1      20.332  -3.475  22.465  1.00  0.00     0.281 C 
ATOM      2  C   UNL     1      21.660  -4.283  22.581  1.00  0.00     0.202 C 
ATOM      3  C   UNL     1      22.795  -3.565  21.824  1.00  0.00     0.179 C 
ATOM      4  C   UNL     1      22.396  -3.354  20.344  1.00  0.00     0.177 C 
ATOM      5  C   UNL     1      20.862  -3.151  20.203  1.00  0.00     0.178 C 
ATOM      6  O   UNL     1      20.339  -2.557  21.377  1.00  0.00    -0.341 OA
ENDROOT
BRANCH   1   7
ATOM      7  O   UNL     1      19.226  -4.354  22.317  1.00  0.00    -0.350 OA
BRANCH   7   8
ATOM      8  C   UNL     1      18.321  -4.214  23.393  1.00  0.00     0.160 C 
ATOM      9  C   UNL     1      16.946  -3.868  22.844  1.00  0.00     0.035 C 
ENDBRANCH   7   8
ENDBRANCH   1   7
BRANCH   2  10
ATOM     10  O   UNL     1      22.003  -4.449  23.933  1.00  0.00    -0.385 OA
ATOM     11  H   UNL     1      21.983  -5.424  24.116  1.00  0.00     0.211 HD
ENDBRANCH   2  10
BRANCH   3  12
ATOM     12  O   UNL     1      23.055  -2.315  22.416  1.00  0.00    -0.387 OA
ATOM     13  H   UNL     1      22.345  -2.161  23.092  1.00  0.00     0.211 HD
ENDBRANCH   3  12
BRANCH   5  14
ATOM     14  C   UNL     1      20.521  -2.257  19.006  1.00  0.00     0.191 C 
BRANCH  14  15
ATOM     15  O   UNL     1      21.574  -2.265  18.081  1.00  0.00    -0.394 OA
ATOM     16  H   UNL     1      21.925  -3.193  18.074  1.00  0.00     0.210 HD
ENDBRANCH  14  15
ENDBRANCH   5  14
BRANCH   4  17
ATOM     17  O   UNL     1      22.780  -4.470  19.580  1.00  0.00    -0.387 OA
ATOM     18  H   UNL     1      21.955  -4.838  19.171  1.00  0.00     0.211 HD
ENDBRANCH   4  17
TORSDOF 7
ENDMDL
MODEL 9
REMARK VINA RESULT:    -4.237     10.570     11.767
REMARK INTER + INTRA:          -5.888
REMARK INTER:                  -5.519
REMARK INTRA:                  -0.369
REMARK UNBOUND:                -0.413
REMARK SMILES CCO[C@@H]1O[C@@H](CO)[C@H](O)[C@@H](O)[C@H]1O
REMARK SMILES IDX 4 1 13 2 11 3 9 4 6 5 5 6 3 7 2 8 1 9 14 10 12 12 7 14 8 15
REMARK SMILES IDX 10 17
REMARK H PARENT 14 11 12 13 8 16 10 18
REMARK Flexibility Score: inf
ROOT
ATOM      1  C   UNL     1      12.800   3.360   7.894  1.00  0.00     0.281 C 
ATOM      2  C   UNL     1      11.491   3.301   8.738  1.00  0.00     0.202 C 
ATOM      3  C   UNL     1      10.423   4.240   8.143  1.00  0.00     0.179 C 
ATOM      4  C   UNL     1      10.972   5.685   8.063  1.00  0.00     0.177 C 
ATOM      5  C   UNL     1      12.506   5.686   7.814  1.00  0.00     0.178 C 
ATOM      6  O   UNL     1      12.883   4.530   7.088  1.00  0.00    -0.341 OA
ENDROOT
BRANCH   1   7
ATOM      7  O   UNL     1      13.941   3.303   8.738  1.00  0.00    -0.350 OA
BRANCH   7   8
ATOM      8  C   UNL     1      14.783   2.228   8.377  1.00  0.00     0.160 C 
ATOM      9  C   UNL     1      15.658   1.862   9.566  1.00  0.00     0.035 C 
ENDBRANCH   7   8
ENDBRANCH   1   7
BRANCH   2  10
ATOM     10  O   UNL     1      11.010   1.982   8.784  1.00  0.00    -0.385 OA
ATOM     11  H   UNL     1      11.580   1.491   9.432  1.00  0.00     0.211 HD
ENDBRANCH   2  10
BRANCH   3  12
ATOM     12  O   UNL     1      10.065   3.809   6.853  1.00  0.00    -0.387 OA
ATOM     13  H   UNL     1       9.754   4.609   6.355  1.00  0.00     0.211 HD
ENDBRANCH   3  12
BRANCH   5  14
ATOM     14  C   UNL     1      12.946   6.926   7.028  1.00  0.00     0.191 C 
BRANCH  14  15
ATOM     15  O   UNL     1      11.911   7.870   6.994  1.00  0.00    -0.394 OA
ATOM     16  H   UNL     1      11.269   7.548   6.309  1.00  0.00     0.210 HD
ENDBRANCH  14  15
ENDBRANCH   5  14
BRANCH   4  17
ATOM     17  O   UNL     1      10.705   6.367   9.263  1.00  0.00    -0.387 OA
ATOM     18  H   UNL     1       9.721   6.361   9.386  1.00  0.00     0.211 HD
ENDBRANCH   4  17
TORSDOF 7
ENDMDL
