MODEL 1
REMARK VINA RESULT:    -3.416      0.000      0.000
REMARK INTER + INTRA:          -5.361
REMARK INTER:                  -4.714
REMARK INTRA:                  -0.648
REMARK UNBOUND:                -0.648
REMARK SMILES OC[C@@H](O)C(O)[C@H](O)CO
REMARK SMILES IDX 5 1 7 2 9 3 10 4 8 6 3 8 2 9 1 10 4 12 6 14
REMARK H PARENT 10 5 8 7 1 11 4 13 6 15
REMARK Flexibility Score: inf
ROOT
ATOM      1  C   UNL     1      53.591  19.754  -5.309  1.00  0.00     0.176 C 
ENDROOT
BRANCH   1   2
ATOM      2  C   UNL     1      52.171  19.231  -5.661  1.00  0.00     0.171 C 
BRANCH   2   3
ATOM      3  C   UNL     1      51.313  20.354  -6.269  1.00  0.00     0.190 C 
BRANCH   3   4
ATOM      4  O   UNL     1      51.339  20.292  -7.670  1.00  0.00    -0.394 OA
ATOM      5  H   UNL     1      52.234  19.944  -7.922  1.00  0.00     0.210 HD
ENDBRANCH   3   4
ENDBRANCH   2   3
BRANCH   2   6
ATOM      6  O   UNL     1      52.250  18.163  -6.571  1.00  0.00    -0.388 OA
ATOM      7  H   UNL     1      51.621  18.365  -7.313  1.00  0.00     0.211 HD
ENDBRANCH   2   6
ENDBRANCH   1   2
BRANCH   1   8
ATOM      8  C   UNL     1      54.693  18.658  -5.302  1.00  0.00     0.171 C 
BRANCH   8   9
ATOM      9  C   UNL     1      55.978  19.054  -4.558  1.00  0.00     0.190 C 
BRANCH   9  10
ATOM     10  O   UNL     1      56.772  19.853  -5.393  1.00  0.00    -0.394 OA
ATOM     11  H   UNL     1      56.909  20.709  -4.909  1.00  0.00     0.210 HD
ENDBRANCH   9  10
ENDBRANCH   8   9
BRANCH   8  12
ATOM     12  O   UNL     1      54.179  17.486  -4.720  1.00  0.00    -0.388 OA
ATOM     13  H   UNL     1      54.483  16.726  -5.283  1.00  0.00     0.211 HD
ENDBRANCH   8  12
ENDBRANCH   1   8
BRANCH   1  14
ATOM     14  O   UNL     1      53.959  20.859  -6.101  1.00  0.00    -0.388 OA
ATOM     15  H   UNL     1      54.607  20.551  -6.784  1.00  0.00     0.211 HD
ENDBRANCH   1  14
TORSDOF 9
ENDMDL
MODEL 2
REMARK VINA RESULT:    -3.309      2.402      3.943
REMARK INTER + INTRA:          -5.214
REMARK INTER:                  -4.465
REMARK INTRA:                  -0.749
REMARK UNBOUND:                -0.648
REMARK SMILES OC[C@@H](O)C(O)[C@H](O)CO
REMARK SMILES IDX 5 1 7 2 9 3 10 4 8 6 3 8 2 9 1 10 4 12 6 14
REMARK H PARENT 10 5 8 7 1 11 4 13 6 15
REMARK Flexibility Score: inf
ROOT
ATOM      1  C   UNL     1      55.302  17.839  -3.705  1.00  0.00     0.176 C 
ENDROOT
BRANCH   1   2
ATOM      2  C   UNL     1      55.483  18.718  -4.973  1.00  0.00     0.171 C 
BRANCH   2   3
ATOM      3  C   UNL     1      54.163  19.417  -5.343  1.00  0.00     0.190 C 
BRANCH   3   4
ATOM      4  O   UNL     1      53.278  18.513  -5.949  1.00  0.00    -0.394 OA
ATOM      5  H   UNL     1      52.497  18.430  -5.342  1.00  0.00     0.210 HD
ENDBRANCH   3   4
ENDBRANCH   2   3
BRANCH   2   6
ATOM      6  O   UNL     1      56.479  19.687  -4.763  1.00  0.00    -0.388 OA
ATOM      7  H   UNL     1      56.016  20.530  -4.514  1.00  0.00     0.211 HD
ENDBRANCH   2   6
ENDBRANCH   1   2
BRANCH   1   8
ATOM      8  C   UNL     1      54.594  18.559  -2.523  1.00  0.00     0.171 C 
BRANCH   8   9
ATOM      9  C   UNL     1      54.060  17.617  -1.434  1.00  0.00     0.190 C 
BRANCH   9  10
ATOM     10  O   UNL     1      55.093  16.776  -0.996  1.00  0.00    -0.394 OA
ATOM     11  H   UNL     1      54.915  16.594  -0.037  1.00  0.00     0.210 HD
ENDBRANCH   9  10
ENDBRANCH   8   9
BRANCH   8  12
ATOM     12  O   UNL     1      55.487  19.470  -1.933  1.00  0.00    -0.388 OA
ATOM     13  H   UNL     1      56.339  19.410  -2.439  1.00  0.00     0.211 HD
ENDBRANCH   8  12
ENDBRANCH   1   8
BRANCH   1  14
ATOM     14  O   UNL     1      54.696  16.602  -4.000  1.00  0.00    -0.388 OA
ATOM     15  H   UNL     1      54.579  16.539  -4.982  1.00  0.00     0.211 HD
ENDBRANCH   1  14
TORSDOF 9
ENDMDL
MODEL 3
REMARK VINA RESULT:    -3.248      1.491      3.792
REMARK INTER + INTRA:          -5.130
REMARK INTER:                  -4.323
REMARK INTRA:                  -0.807
REMARK UNBOUND:                -0.648
REMARK SMILES OC[C@@H](O)C(O)[C@H](O)CO
REMARK SMILES IDX 5 1 7 2 9 3 10 4 8 6 3 8 2 9 1 10 4 12 6 14
REMARK H PARENT 10 5 8 7 1 11 4 13 6 15
REMARK Flexibility Score: inf
ROOT
ATOM      1  C   UNL     1      53.810  18.090  -4.784  1.00  0.00     0.176 C 
ENDROOT
BRANCH   1   2
ATOM      2  C   UNL     1      55.176  17.869  -4.079  1.00  0.00     0.171 C 
BRANCH   2   3
ATOM      3  C   UNL     1      55.996  19.171  -4.062  1.00  0.00     0.190 C 
BRANCH   3   4
ATOM      4  O   UNL     1      56.379  19.531  -5.362  1.00  0.00    -0.394 OA
ATOM      5  H   UNL     1      56.461  20.520  -5.370  1.00  0.00     0.210 HD
ENDBRANCH   3   4
ENDBRANCH   2   3
BRANCH   2   6
ATOM      6  O   UNL     1      54.984  17.425  -2.759  1.00  0.00    -0.388 OA
ATOM      7  H   UNL     1      54.818  18.230  -2.202  1.00  0.00     0.211 HD
ENDBRANCH   2   6
ENDBRANCH   1   2
BRANCH   1   8
ATOM      8  C   UNL     1      53.111  19.430  -4.421  1.00  0.00     0.171 C 
BRANCH   8   9
ATOM      9  C   UNL     1      52.707  20.283  -5.632  1.00  0.00     0.190 C 
BRANCH   9  10
ATOM     10  O   UNL     1      53.832  20.963  -6.121  1.00  0.00    -0.394 OA
ATOM     11  H   UNL     1      54.021  20.577  -7.016  1.00  0.00     0.210 HD
ENDBRANCH   9  10
ENDBRANCH   8   9
BRANCH   8  12
ATOM     12  O   UNL     1      51.964  19.163  -3.655  1.00  0.00    -0.388 OA
ATOM     13  H   UNL     1      51.265  18.839  -4.281  1.00  0.00     0.211 HD
ENDBRANCH   8  12
ENDBRANCH   1   8
BRANCH   1  14
ATOM     14  O   UNL     1      53.899  17.908  -6.178  1.00  0.00    -0.388 OA
ATOM     15  H   UNL     1      53.266  18.533  -6.614  1.00  0.00     0.211 HD
ENDBRANCH   1  14
TORSDOF 9
ENDMDL
MODEL 4
REMARK VINA RESULT:    -3.237     19.329     20.545
REMARK INTER + INTRA:          -5.114
REMARK INTER:                  -4.104
REMARK INTRA:                  -1.010
REMARK UNBOUND:                -0.648
REMARK SMILES OC[C@@H](O)C(O)[C@H](O)CO
REMARK SMILES IDX 5 1 7 2 9 3 10 4 8 6 3 8 2 9 1 10 4 12 6 14
REMARK H PARENT 10 5 8 7 1 11 4 13 6 15
REMARK Flexibility Score: inf
ROOT
ATOM      1  C   UNL     1      43.889   7.251   7.088  1.00  0.00     0.176 C 
ENDROOT
BRANCH   1   2
ATOM      2  C   UNL     1      44.011   8.589   6.306  1.00  0.00     0.171 C 
BRANCH   2   3
ATOM      3  C   UNL     1      43.435   8.443   4.887  1.00  0.00     0.190 C 
BRANCH   3   4
ATOM      4  O   UNL     1      42.035   8.368   4.927  1.00  0.00    -0.394 OA
ATOM      5  H   UNL     1      41.712   8.610   4.020  1.00  0.00     0.210 HD
ENDBRANCH   3   4
ENDBRANCH   2   3
BRANCH   2   6
ATOM      6  O   UNL     1      43.331   9.617   6.981  1.00  0.00    -0.388 OA
ATOM      7  H   UNL     1      42.372   9.546   6.729  1.00  0.00     0.211 HD
ENDBRANCH   2   6
ENDBRANCH   1   2
BRANCH   1   8
ATOM      8  C   UNL     1      43.178   7.376   8.464  1.00  0.00     0.171 C 
BRANCH   8   9
ATOM      9  C   UNL     1      41.725   6.879   8.475  1.00  0.00     0.190 C 
BRANCH   9  10
ATOM     10  O   UNL     1      40.963   7.643   7.580  1.00  0.00    -0.394 OA
ATOM     11  H   UNL     1      41.603   8.239   7.111  1.00  0.00     0.210 HD
ENDBRANCH   9  10
ENDBRANCH   8   9
BRANCH   8  12
ATOM     12  O   UNL     1      43.907   6.662   9.430  1.00  0.00    -0.388 OA
ATOM     13  H   UNL     1      44.799   7.092   9.498  1.00  0.00     0.211 HD
ENDBRANCH   8  12
ENDBRANCH   1   8
BRANCH   1  14
ATOM     14  O   UNL     1      43.326   6.228   6.300  1.00  0.00    -0.388 OA
ATOM     15  H   UNL     1      42.938   5.547   6.906  1.00  0.00     0.211 HD
ENDBRANCH   1  14
TORSDOF 9
ENDMDL
MODEL 5
REMARK VINA RESULT:    -3.185     19.679     20.866
REMARK INTER + INTRA:          -5.043
REMARK INTER:                  -4.299
REMARK INTRA:                  -0.744
REMARK UNBOUND:                -0.648
REMARK SMILES OC[C@@H](O)C(O)[C@H](O)CO
REMARK SMILES IDX 5 1 7 2 9 3 10 4 8 6 3 8 2 9 1 10 4 12 6 14
REMARK H PARENT 10 5 8 7 1 11 4 13 6 15
REMARK Flexibility Score: inf
ROOT
ATOM      1  C   UNL     1      43.490   7.571   7.792  1.00  0.00     0.176 C 
ENDROOT
BRANCH   1   2
ATOM      2  C   UNL     1      42.437   6.484   8.142  1.00  0.00     0.171 C 
BRANCH   2   3
ATOM      3  C   UNL     1      41.300   7.081   8.990  1.00  0.00     0.190 C 
BRANCH   3   4
ATOM      4  O   UNL     1      41.671   7.143  10.341  1.00  0.00    -0.394 OA
ATOM      5  H   UNL     1      42.299   6.390  10.497  1.00  0.00     0.210 HD
ENDBRANCH   3   4
ENDBRANCH   2   3
BRANCH   2   6
ATOM      6  O   UNL     1      41.897   5.924   6.971  1.00  0.00    -0.388 OA
ATOM      7  H   UNL     1      41.977   4.938   7.056  1.00  0.00     0.211 HD
ENDBRANCH   2   6
ENDBRANCH   1   2
BRANCH   1   8
ATOM      8  C   UNL     1      42.932   8.758   6.957  1.00  0.00     0.171 C 
BRANCH   8   9
ATOM      9  C   UNL     1      43.868   9.973   6.879  1.00  0.00     0.190 C 
BRANCH   9  10
ATOM     10  O   UNL     1      45.185   9.537   6.678  1.00  0.00    -0.394 OA
ATOM     11  H   UNL     1      45.118   8.637   6.266  1.00  0.00     0.210 HD
ENDBRANCH   9  10
ENDBRANCH   8   9
BRANCH   8  12
ATOM     12  O   UNL     1      42.654   8.318   5.652  1.00  0.00    -0.388 OA
ATOM     13  H   UNL     1      43.166   7.478   5.514  1.00  0.00     0.211 HD
ENDBRANCH   8  12
ENDBRANCH   1   8
BRANCH   1  14
ATOM     14  O   UNL     1      44.189   8.017   8.931  1.00  0.00    -0.388 OA
ATOM     15  H   UNL     1      44.144   9.006   8.956  1.00  0.00     0.211 HD
ENDBRANCH   1  14
TORSDOF 9
ENDMDL
MODEL 6
REMARK VINA RESULT:    -3.179      1.415      1.886
REMARK INTER + INTRA:          -5.035
REMARK INTER:                  -4.496
REMARK INTRA:                  -0.538
REMARK UNBOUND:                -0.648
REMARK SMILES OC[C@@H](O)C(O)[C@H](O)CO
REMARK SMILES IDX 5 1 7 2 9 3 10 4 8 6 3 8 2 9 1 10 4 12 6 14
REMARK H PARENT 10 5 8 7 1 11 4 13 6 15
REMARK Flexibility Score: inf
ROOT
ATOM      1  C   UNL     1      53.612  19.058  -5.449  1.00  0.00     0.176 C 
ENDROOT
BRANCH   1   2
ATOM      2  C   UNL     1      52.633  20.185  -5.017  1.00  0.00     0.171 C 
BRANCH   2   3
ATOM      3  C   UNL     1      52.599  21.308  -6.068  1.00  0.00     0.190 C 
BRANCH   3   4
ATOM      4  O   UNL     1      53.900  21.670  -6.446  1.00  0.00    -0.394 OA
ATOM      5  H   UNL     1      54.276  20.899  -6.945  1.00  0.00     0.210 HD
ENDBRANCH   3   4
ENDBRANCH   2   3
BRANCH   2   6
ATOM      6  O   UNL     1      51.336  19.672  -4.844  1.00  0.00    -0.388 OA
ATOM      7  H   UNL     1      51.259  18.872  -5.429  1.00  0.00     0.211 HD
ENDBRANCH   2   6
ENDBRANCH   1   2
BRANCH   1   8
ATOM      8  C   UNL     1      54.466  18.473  -4.289  1.00  0.00     0.171 C 
BRANCH   8   9
ATOM      9  C   UNL     1      55.889  19.044  -4.198  1.00  0.00     0.190 C 
BRANCH   9  10
ATOM     10  O   UNL     1      56.161  19.804  -5.345  1.00  0.00    -0.394 OA
ATOM     11  H   UNL     1      55.885  19.247  -6.118  1.00  0.00     0.210 HD
ENDBRANCH   9  10
ENDBRANCH   8   9
BRANCH   8  12
ATOM     12  O   UNL     1      53.810  18.701  -3.068  1.00  0.00    -0.388 OA
ATOM     13  H   UNL     1      54.420  18.392  -2.348  1.00  0.00     0.211 HD
ENDBRANCH   8  12
ENDBRANCH   1   8
BRANCH   1  14
ATOM     14  O   UNL     1      52.963  18.045  -6.182  1.00  0.00    -0.388 OA
ATOM     15  H   UNL     1      53.595  17.292  -6.299  1.00  0.00     0.211 HD
ENDBRANCH   1  14
TORSDOF 9
ENDMDL
MODEL 7
REMARK VINA RESULT:    -3.170      1.980      2.422
REMARK INTER + INTRA:          -5.022
REMARK INTER:                  -4.441
REMARK INTRA:                  -0.581
REMARK UNBOUND:                -0.648
REMARK SMILES OC[C@@H](O)C(O)[C@H](O)CO
REMARK SMILES IDX 5 1 7 2 9 3 10 4 8 6 3 8 2 9 1 10 4 12 6 14
REMARK H PARENT 10 5 8 7 1 11 4 13 6 15
REMARK Flexibility Score: inf
ROOT
ATOM      1  C   UNL     1      54.584  19.095  -4.175  1.00  0.00     0.176 C 
ENDROOT
BRANCH   1   2
ATOM      2  C   UNL     1      53.394  18.785  -5.124  1.00  0.00     0.171 C 
BRANCH   2   3
ATOM      3  C   UNL     1      52.824  20.082  -5.724  1.00  0.00     0.190 C 
BRANCH   3   4
ATOM      4  O   UNL     1      53.860  20.944  -6.111  1.00  0.00    -0.394 OA
ATOM      5  H   UNL     1      54.638  20.731  -5.532  1.00  0.00     0.210 HD
ENDBRANCH   3   4
ENDBRANCH   2   3
BRANCH   2   6
ATOM      6  O   UNL     1      53.802  17.932  -6.165  1.00  0.00    -0.388 OA
ATOM      7  H   UNL     1      53.378  18.267  -6.998  1.00  0.00     0.211 HD
ENDBRANCH   2   6
ENDBRANCH   1   2
BRANCH   1   8
ATOM      8  C   UNL     1      54.859  17.995  -3.111  1.00  0.00     0.171 C 
BRANCH   8   9
ATOM      9  C   UNL     1      54.992  18.521  -1.674  1.00  0.00     0.190 C 
BRANCH   9  10
ATOM     10  O   UNL     1      55.567  19.800  -1.696  1.00  0.00    -0.394 OA
ATOM     11  H   UNL     1      56.371  19.752  -1.117  1.00  0.00     0.210 HD
ENDBRANCH   9  10
ENDBRANCH   8   9
BRANCH   8  12
ATOM     12  O   UNL     1      53.825  17.044  -3.149  1.00  0.00    -0.388 OA
ATOM     13  H   UNL     1      53.232  17.229  -2.375  1.00  0.00     0.211 HD
ENDBRANCH   8  12
ENDBRANCH   1   8
BRANCH   1  14
ATOM     14  O   UNL     1      55.751  19.439  -4.885  1.00  0.00    -0.388 OA
ATOM     15  H   UNL     1      56.465  18.797  -4.640  1.00  0.00     0.211 HD
ENDBRANCH   1  14
TORSDOF 9
ENDMDL
MODEL 8
REMARK VINA RESULT:    -3.168      2.338      4.459
REMARK INTER + INTRA:          -5.019
REMARK INTER:                  -4.497
REMARK INTRA:                  -0.522
REMARK UNBOUND:                -0.648
REMARK SMILES OC[C@@H](O)C(O)[C@H](O)CO
REMARK SMILES IDX 5 1 7 2 9 3 10 4 8 6 3 8 2 9 1 10 4 12 6 14
REMARK H PARENT 10 5 8 7 1 11 4 13 6 15
REMARK Flexibility Score: inf
ROOT
ATOM      1  C   UNL     1      54.496  18.061  -3.944  1.00  0.00     0.176 C 
ENDROOT
BRANCH   1   2
ATOM      2  C   UNL     1      54.269  18.833  -2.614  1.00  0.00     0.171 C 
BRANCH   2   3
ATOM      3  C   UNL     1      53.756  17.884  -1.516  1.00  0.00     0.190 C 
BRANCH   3   4
ATOM      4  O   UNL     1      54.805  17.105  -1.008  1.00  0.00    -0.394 OA
ATOM      5  H   UNL     1      54.540  16.837  -0.089  1.00  0.00     0.210 HD
ENDBRANCH   3   4
ENDBRANCH   2   3
BRANCH   2   6
ATOM      6  O   UNL     1      55.463  19.437  -2.185  1.00  0.00    -0.388 OA
ATOM      7  H   UNL     1      55.276  19.859  -1.305  1.00  0.00     0.211 HD
ENDBRANCH   2   6
ENDBRANCH   1   2
BRANCH   1   8
ATOM      8  C   UNL     1      54.681  18.972  -5.189  1.00  0.00     0.171 C 
BRANCH   8   9
ATOM      9  C   UNL     1      53.526  19.956  -5.432  1.00  0.00     0.190 C 
BRANCH   9  10
ATOM     10  O   UNL     1      53.996  21.056  -6.164  1.00  0.00    -0.394 OA
ATOM     11  H   UNL     1      53.635  21.863  -5.713  1.00  0.00     0.210 HD
ENDBRANCH   9  10
ENDBRANCH   8   9
BRANCH   8  12
ATOM     12  O   UNL     1      55.875  19.702  -5.059  1.00  0.00    -0.388 OA
ATOM     13  H   UNL     1      55.909  20.038  -4.125  1.00  0.00     0.211 HD
ENDBRANCH   8  12
ENDBRANCH   1   8
BRANCH   1  14
ATOM     14  O   UNL     1      55.530  17.111  -3.834  1.00  0.00    -0.388 OA
ATOM     15  H   UNL     1      55.655  16.682  -4.719  1.00  0.00     0.211 HD
ENDBRANCH   1  14
TORSDOF 9
ENDMDL
MODEL 9
REMARK VINA RESULT:    -3.102      1.696      3.961
REMARK INTER + INTRA:          -4.929
REMARK INTER:                  -4.435
REMARK INTRA:                  -0.494
REMARK UNBOUND:                -0.648
REMARK SMILES OC[C@@H](O)C(O)[C@H](O)CO
REMARK SMILES IDX 5 1 7 2 9 3 10 4 8 6 3 8 2 9 1 10 4 12 6 14
REMARK H PARENT 10 5 8 7 1 11 4 13 6 15
REMARK Flexibility Score: inf
ROOT
ATOM      1  C   UNL     1      55.111  18.634  -5.011  1.00  0.00     0.176 C 
ENDROOT
BRANCH   1   2
ATOM      2  C   UNL     1      55.312  17.675  -3.804  1.00  0.00     0.171 C 
BRANCH   2   3
ATOM      3  C   UNL     1      54.700  18.274  -2.526  1.00  0.00     0.190 C 
BRANCH   3   4
ATOM      4  O   UNL     1      55.450  19.375  -2.088  1.00  0.00    -0.394 OA
ATOM      5  H   UNL     1      56.059  19.619  -2.834  1.00  0.00     0.210 HD
ENDBRANCH   3   4
ENDBRANCH   2   3
BRANCH   2   6
ATOM      6  O   UNL     1      54.719  16.427  -4.062  1.00  0.00    -0.388 OA
ATOM      7  H   UNL     1      53.997  16.580  -4.728  1.00  0.00     0.211 HD
ENDBRANCH   2   6
ENDBRANCH   1   2
BRANCH   1   8
ATOM      8  C   UNL     1      53.643  19.097  -5.223  1.00  0.00     0.171 C 
BRANCH   8   9
ATOM      9  C   UNL     1      53.500  20.530  -5.757  1.00  0.00     0.190 C 
BRANCH   9  10
ATOM     10  O   UNL     1      52.310  20.638  -6.491  1.00  0.00    -0.394 OA
ATOM     11  H   UNL     1      51.885  19.742  -6.463  1.00  0.00     0.210 HD
ENDBRANCH   9  10
ENDBRANCH   8   9
BRANCH   8  12
ATOM     12  O   UNL     1      53.002  18.218  -6.112  1.00  0.00    -0.388 OA
ATOM     13  H   UNL     1      53.696  17.882  -6.739  1.00  0.00     0.211 HD
ENDBRANCH   8  12
ENDBRANCH   1   8
BRANCH   1  14
ATOM     14  O   UNL     1      56.003  19.724  -4.974  1.00  0.00    -0.388 OA
ATOM     15  H   UNL     1      56.924  19.377  -5.088  1.00  0.00     0.211 HD
ENDBRANCH   1  14
TORSDOF 9
ENDMDL
