MODEL 1
REMARK VINA RESULT:    -3.387      0.000      0.000
REMARK INTER + INTRA:          -4.751
REMARK INTER:                  -4.278
REMARK INTRA:                  -0.473
REMARK UNBOUND:                -0.473
REMARK SMILES CC(C)=CCCC(C)=CCO
REMARK SMILES IDX 7 1 9 2 8 3 6 4 5 5 4 6 1 7 2 8 3 9 10 10 11 11
REMARK H PARENT 11 12
REMARK Flexibility Score: inf
ROOT
ATOM      1  C   UNL     1      -7.987  21.573  13.188  1.00  0.00    -0.075 C 
ATOM      2  C   UNL     1      -8.732  20.485  13.482  1.00  0.00    -0.000 C 
ATOM      3  C   UNL     1      -8.401  22.954  13.641  1.00  0.00     0.039 C 
ENDROOT
BRANCH   1   4
ATOM      4  C   UNL     1      -6.712  21.406  12.391  1.00  0.00     0.034 C 
BRANCH   4   5
ATOM      5  C   UNL     1      -6.371  22.692  11.632  1.00  0.00     0.032 C 
BRANCH   5   6
ATOM      6  C   UNL     1      -6.107  22.400  10.176  1.00  0.00    -0.028 C 
ATOM      7  C   UNL     1      -8.530  22.496   9.548  1.00  0.00     0.039 C 
ATOM      8  C   UNL     1      -7.063  22.334   9.223  1.00  0.00    -0.080 C 
ATOM      9  C   UNL     1      -6.642  22.073   7.800  1.00  0.00     0.039 C 
ENDBRANCH   5   6
ENDBRANCH   4   5
ENDBRANCH   1   4
BRANCH   2  10
ATOM     10  C   UNL     1     -10.016  20.549  14.269  1.00  0.00     0.183 C 
BRANCH  10  11
ATOM     11  O   UNL     1      -9.759  20.369  15.634  1.00  0.00    -0.392 OA
ATOM     12  H   UNL     1     -10.603  20.582  16.112  1.00  0.00     0.210 HD
ENDBRANCH  10  11
ENDBRANCH   2  10
TORSDOF 5
ENDMDL
MODEL 2
REMARK VINA RESULT:    -3.374      0.796      1.169
REMARK INTER + INTRA:          -4.735
REMARK INTER:                  -4.229
REMARK INTRA:                  -0.507
REMARK UNBOUND:                -0.473
REMARK SMILES CC(C)=CCCC(C)=CCO
REMARK SMILES IDX 7 1 9 2 8 3 6 4 5 5 4 6 1 7 2 8 3 9 10 10 11 11
REMARK H PARENT 11 12
REMARK Flexibility Score: inf
ROOT
ATOM      1  C   UNL     1      -8.529  20.972  13.156  1.00  0.00    -0.075 C 
ATOM      2  C   UNL     1      -8.748  21.403  14.418  1.00  0.00    -0.000 C 
ATOM      3  C   UNL     1      -9.638  20.364  12.329  1.00  0.00     0.039 C 
ENDROOT
BRANCH   1   4
ATOM      4  C   UNL     1      -7.145  21.103  12.558  1.00  0.00     0.034 C 
BRANCH   4   5
ATOM      5  C   UNL     1      -6.977  22.459  11.864  1.00  0.00     0.032 C 
BRANCH   5   6
ATOM      6  C   UNL     1      -6.435  22.282  10.468  1.00  0.00    -0.028 C 
ATOM      7  C   UNL     1      -8.693  22.440   9.396  1.00  0.00     0.039 C 
ATOM      8  C   UNL     1      -7.189  22.297   9.348  1.00  0.00    -0.080 C 
ATOM      9  C   UNL     1      -6.501  22.148   8.015  1.00  0.00     0.039 C 
ENDBRANCH   5   6
ENDBRANCH   4   5
ENDBRANCH   1   4
BRANCH   2  10
ATOM     10  C   UNL     1     -10.089  21.315  15.101  1.00  0.00     0.183 C 
BRANCH  10  11
ATOM     11  O   UNL     1     -10.154  20.163  15.896  1.00  0.00    -0.392 OA
ATOM     12  H   UNL     1     -11.117  19.989  16.064  1.00  0.00     0.210 HD
ENDBRANCH  10  11
ENDBRANCH   2  10
TORSDOF 5
ENDMDL
MODEL 3
REMARK VINA RESULT:    -3.300     10.919     12.325
REMARK INTER + INTRA:          -4.642
REMARK INTER:                  -4.142
REMARK INTRA:                  -0.500
REMARK UNBOUND:                -0.473
REMARK SMILES CC(C)=CCCC(C)=CCO
REMARK SMILES IDX 7 1 9 2 8 3 6 4 5 5 4 6 1 7 2 8 3 9 10 10 11 11
REMARK H PARENT 11 12
REMARK Flexibility Score: inf
ROOT
ATOM      1  C   UNL     1       4.374  24.015  15.821  1.00  0.00    -0.075 C 
ATOM      2  C   UNL     1       5.568  23.797  15.226  1.00  0.00    -0.000 C 
ATOM      3  C   UNL     1       3.718  22.957  16.676  1.00  0.00     0.039 C 
ENDROOT
BRANCH   1   4
ATOM      4  C   UNL     1       3.682  25.347  15.628  1.00  0.00     0.034 C 
BRANCH   4   5
ATOM      5  C   UNL     1       2.238  25.289  16.136  1.00  0.00     0.032 C 
BRANCH   5   6
ATOM      6  C   UNL     1       1.263  25.362  14.988  1.00  0.00    -0.028 C 
ATOM      7  C   UNL     1       0.118  23.223  15.614  1.00  0.00     0.039 C 
ATOM      8  C   UNL     1       0.289  24.455  14.755  1.00  0.00    -0.080 C 
ATOM      9  C   UNL     1      -0.640  24.681  13.589  1.00  0.00     0.039 C 
ENDBRANCH   5   6
ENDBRANCH   4   5
ENDBRANCH   1   4
BRANCH   2  10
ATOM     10  C   UNL     1       6.334  22.506  15.356  1.00  0.00     0.183 C 
BRANCH  10  11
ATOM     11  O   UNL     1       6.220  21.752  14.181  1.00  0.00    -0.392 OA
ATOM     12  H   UNL     1       5.471  21.115  14.323  1.00  0.00     0.210 HD
ENDBRANCH  10  11
ENDBRANCH   2  10
TORSDOF 5
ENDMDL
MODEL 4
REMARK VINA RESULT:    -3.220      1.415      2.354
REMARK INTER + INTRA:          -4.541
REMARK INTER:                  -4.084
REMARK INTRA:                  -0.457
REMARK UNBOUND:                -0.473
REMARK SMILES CC(C)=CCCC(C)=CCO
REMARK SMILES IDX 7 1 9 2 8 3 6 4 5 5 4 6 1 7 2 8 3 9 10 10 11 11
REMARK H PARENT 11 12
REMARK Flexibility Score: inf
ROOT
ATOM      1  C   UNL     1      -7.592  21.912  11.328  1.00  0.00    -0.075 C 
ATOM      2  C   UNL     1      -7.373  21.619  12.629  1.00  0.00    -0.000 C 
ATOM      3  C   UNL     1      -8.986  21.905  10.745  1.00  0.00     0.039 C 
ENDROOT
BRANCH   1   4
ATOM      4  C   UNL     1      -6.418  22.257  10.439  1.00  0.00     0.034 C 
BRANCH   4   5
ATOM      5  C   UNL     1      -6.895  22.877   9.121  1.00  0.00     0.032 C 
BRANCH   5   6
ATOM      6  C   UNL     1      -6.300  22.150   7.941  1.00  0.00    -0.028 C 
ATOM      7  C   UNL     1      -8.533  21.587   6.955  1.00  0.00     0.039 C 
ATOM      8  C   UNL     1      -7.022  21.588   6.947  1.00  0.00    -0.080 C 
ATOM      9  C   UNL     1      -6.286  20.929   5.808  1.00  0.00     0.039 C 
ENDBRANCH   5   6
ENDBRANCH   4   5
ENDBRANCH   1   4
BRANCH   2  10
ATOM     10  C   UNL     1      -8.475  21.263  13.594  1.00  0.00     0.183 C 
BRANCH  10  11
ATOM     11  O   UNL     1      -8.508  19.878  13.804  1.00  0.00    -0.392 OA
ATOM     12  H   UNL     1      -9.383  19.675  14.226  1.00  0.00     0.210 HD
ENDBRANCH  10  11
ENDBRANCH   2  10
TORSDOF 5
ENDMDL
MODEL 5
REMARK VINA RESULT:    -3.196      2.599      5.231
REMARK INTER + INTRA:          -4.510
REMARK INTER:                  -3.877
REMARK INTRA:                  -0.633
REMARK UNBOUND:                -0.473
REMARK SMILES CC(C)=CCCC(C)=CCO
REMARK SMILES IDX 7 1 9 2 8 3 6 4 5 5 4 6 1 7 2 8 3 9 10 10 11 11
REMARK H PARENT 11 12
REMARK Flexibility Score: inf
ROOT
ATOM      1  C   UNL     1      -8.088  21.331  12.230  1.00  0.00    -0.075 C 
ATOM      2  C   UNL     1      -6.784  21.679  12.166  1.00  0.00    -0.000 C 
ATOM      3  C   UNL     1      -9.065  21.741  11.153  1.00  0.00     0.039 C 
ENDROOT
BRANCH   1   4
ATOM      4  C   UNL     1      -8.579  20.512  13.404  1.00  0.00     0.034 C 
BRANCH   4   5
ATOM      5  C   UNL     1      -9.502  21.344  14.300  1.00  0.00     0.032 C 
BRANCH   5   6
ATOM      6  C   UNL     1      -8.720  22.000  15.411  1.00  0.00    -0.028 C 
ATOM      7  C   UNL     1      -8.731  24.250  14.310  1.00  0.00     0.039 C 
ATOM      8  C   UNL     1      -8.389  23.309  15.443  1.00  0.00    -0.080 C 
ATOM      9  C   UNL     1      -7.639  23.833  16.641  1.00  0.00     0.039 C 
ENDBRANCH   5   6
ENDBRANCH   4   5
ENDBRANCH   1   4
BRANCH   2  10
ATOM     10  C   UNL     1      -6.200  22.493  11.040  1.00  0.00     0.183 C 
BRANCH  10  11
ATOM     11  O   UNL     1      -4.900  22.906  11.362  1.00  0.00    -0.392 OA
ATOM     12  H   UNL     1      -4.401  22.090  11.630  1.00  0.00     0.210 HD
ENDBRANCH  10  11
ENDBRANCH   2  10
TORSDOF 5
ENDMDL
MODEL 6
REMARK VINA RESULT:    -3.168      2.714      5.504
REMARK INTER + INTRA:          -4.474
REMARK INTER:                  -4.131
REMARK INTRA:                  -0.343
REMARK UNBOUND:                -0.473
REMARK SMILES CC(C)=CCCC(C)=CCO
REMARK SMILES IDX 7 1 9 2 8 3 6 4 5 5 4 6 1 7 2 8 3 9 10 10 11 11
REMARK H PARENT 11 12
REMARK Flexibility Score: inf
ROOT
ATOM      1  C   UNL     1      -6.751  22.417  10.656  1.00  0.00    -0.075 C 
ATOM      2  C   UNL     1      -5.744  22.966  11.369  1.00  0.00    -0.000 C 
ATOM      3  C   UNL     1      -6.742  22.428   9.145  1.00  0.00     0.039 C 
ENDROOT
BRANCH   1   4
ATOM      4  C   UNL     1      -7.912  21.776  11.385  1.00  0.00     0.034 C 
BRANCH   4   5
ATOM      5  C   UNL     1      -7.442  21.121  12.688  1.00  0.00     0.032 C 
BRANCH   5   6
ATOM      6  C   UNL     1      -8.620  20.723  13.542  1.00  0.00    -0.028 C 
ATOM      7  C   UNL     1      -8.410  22.715  15.046  1.00  0.00     0.039 C 
ATOM      8  C   UNL     1      -9.082  21.441  14.588  1.00  0.00    -0.080 C 
ATOM      9  C   UNL     1     -10.297  20.938  15.325  1.00  0.00     0.039 C 
ENDBRANCH   5   6
ENDBRANCH   4   5
ENDBRANCH   1   4
BRANCH   2  10
ATOM     10  C   UNL     1      -4.547  23.628  10.736  1.00  0.00     0.183 C 
BRANCH  10  11
ATOM     11  O   UNL     1      -3.376  23.265  11.414  1.00  0.00    -0.392 OA
ATOM     12  H   UNL     1      -3.060  22.419  11.002  1.00  0.00     0.210 HD
ENDBRANCH  10  11
ENDBRANCH   2  10
TORSDOF 5
ENDMDL
MODEL 7
REMARK VINA RESULT:    -3.139      1.374      2.003
REMARK INTER + INTRA:          -4.438
REMARK INTER:                  -4.198
REMARK INTRA:                  -0.240
REMARK UNBOUND:                -0.473
REMARK SMILES CC(C)=CCCC(C)=CCO
REMARK SMILES IDX 7 1 9 2 8 3 6 4 5 5 4 6 1 7 2 8 3 9 10 10 11 11
REMARK H PARENT 11 12
REMARK Flexibility Score: inf
ROOT
ATOM      1  C   UNL     1      -7.916  21.667  13.247  1.00  0.00    -0.075 C 
ATOM      2  C   UNL     1      -8.788  20.649  13.415  1.00  0.00    -0.000 C 
ATOM      3  C   UNL     1      -8.074  22.970  13.995  1.00  0.00     0.039 C 
ENDROOT
BRANCH   1   4
ATOM      4  C   UNL     1      -6.754  21.498  12.292  1.00  0.00     0.034 C 
BRANCH   4   5
ATOM      5  C   UNL     1      -6.661  22.687  11.331  1.00  0.00     0.032 C 
BRANCH   5   6
ATOM      6  C   UNL     1      -5.241  23.185  11.233  1.00  0.00    -0.028 C 
ATOM      7  C   UNL     1      -5.359  23.521   8.753  1.00  0.00     0.039 C 
ATOM      8  C   UNL     1      -4.650  23.587  10.086  1.00  0.00    -0.080 C 
ATOM      9  C   UNL     1      -3.234  24.101  10.149  1.00  0.00     0.039 C 
ENDBRANCH   5   6
ENDBRANCH   4   5
ENDBRANCH   1   4
BRANCH   2  10
ATOM     10  C   UNL     1      -9.975  20.722  14.341  1.00  0.00     0.183 C 
BRANCH  10  11
ATOM     11  O   UNL     1      -9.598  20.371  15.644  1.00  0.00    -0.392 OA
ATOM     12  H   UNL     1      -8.607  20.429  15.678  1.00  0.00     0.210 HD
ENDBRANCH  10  11
ENDBRANCH   2  10
TORSDOF 5
ENDMDL
MODEL 8
REMARK VINA RESULT:    -3.117      1.094      1.837
REMARK INTER + INTRA:          -4.411
REMARK INTER:                  -4.106
REMARK INTRA:                  -0.305
REMARK UNBOUND:                -0.473
REMARK SMILES CC(C)=CCCC(C)=CCO
REMARK SMILES IDX 7 1 9 2 8 3 6 4 5 5 4 6 1 7 2 8 3 9 10 10 11 11
REMARK H PARENT 11 12
REMARK Flexibility Score: inf
ROOT
ATOM      1  C   UNL     1      -7.968  21.403  13.229  1.00  0.00    -0.075 C 
ATOM      2  C   UNL     1      -8.185  22.510  13.972  1.00  0.00    -0.000 C 
ATOM      3  C   UNL     1      -8.942  20.249  13.235  1.00  0.00     0.039 C 
ENDROOT
BRANCH   1   4
ATOM      4  C   UNL     1      -6.724  21.320  12.371  1.00  0.00     0.034 C 
BRANCH   4   5
ATOM      5  C   UNL     1      -6.621  22.534  11.442  1.00  0.00     0.032 C 
BRANCH   5   6
ATOM      6  C   UNL     1      -6.921  22.143  10.016  1.00  0.00    -0.028 C 
ATOM      7  C   UNL     1      -5.168  23.656   9.061  1.00  0.00     0.039 C 
ATOM      8  C   UNL     1      -6.260  22.619   8.938  1.00  0.00    -0.080 C 
ATOM      9  C   UNL     1      -6.644  22.105   7.574  1.00  0.00     0.039 C 
ENDBRANCH   5   6
ENDBRANCH   4   5
ENDBRANCH   1   4
BRANCH   2  10
ATOM     10  C   UNL     1      -9.392  22.687  14.858  1.00  0.00     0.183 C 
BRANCH  10  11
ATOM     11  O   UNL     1      -9.076  22.356  16.182  1.00  0.00    -0.392 OA
ATOM     12  H   UNL     1      -9.172  23.189  16.714  1.00  0.00     0.210 HD
ENDBRANCH  10  11
ENDBRANCH   2  10
TORSDOF 5
ENDMDL
MODEL 9
REMARK VINA RESULT:    -3.107      4.033      6.039
REMARK INTER + INTRA:          -4.398
REMARK INTER:                  -3.752
REMARK INTRA:                  -0.646
REMARK UNBOUND:                -0.473
REMARK SMILES CC(C)=CCCC(C)=CCO
REMARK SMILES IDX 7 1 9 2 8 3 6 4 5 5 4 6 1 7 2 8 3 9 10 10 11 11
REMARK H PARENT 11 12
REMARK Flexibility Score: inf
ROOT
ATOM      1  C   UNL     1      -4.248  24.532   9.466  1.00  0.00    -0.075 C 
ATOM      2  C   UNL     1      -3.129  24.192  10.142  1.00  0.00    -0.000 C 
ATOM      3  C   UNL     1      -4.821  25.928   9.546  1.00  0.00     0.039 C 
ENDROOT
BRANCH   1   4
ATOM      4  C   UNL     1      -4.940  23.495   8.609  1.00  0.00     0.034 C 
BRANCH   4   5
ATOM      5  C   UNL     1      -6.386  23.285   9.069  1.00  0.00     0.032 C 
BRANCH   5   6
ATOM      6  C   UNL     1      -6.457  22.233  10.148  1.00  0.00    -0.028 C 
ATOM      7  C   UNL     1      -6.839  23.903  11.977  1.00  0.00     0.039 C 
ATOM      8  C   UNL     1      -6.686  22.492  11.454  1.00  0.00    -0.080 C 
ATOM      9  C   UNL     1      -6.771  21.333  12.413  1.00  0.00     0.039 C 
ENDBRANCH   5   6
ENDBRANCH   4   5
ENDBRANCH   1   4
BRANCH   2  10
ATOM     10  C   UNL     1      -2.370  25.152  11.022  1.00  0.00     0.183 C 
BRANCH  10  11
ATOM     11  O   UNL     1      -1.075  24.673  11.261  1.00  0.00    -0.392 OA
ATOM     12  H   UNL     1      -0.994  23.816  10.767  1.00  0.00     0.210 HD
ENDBRANCH  10  11
ENDBRANCH   2  10
TORSDOF 5
ENDMDL
