MODEL 1
REMARK VINA RESULT:    -6.497      0.000      0.000
REMARK INTER + INTRA:          -7.256
REMARK INTER:                  -7.256
REMARK INTRA:                   0.000
REMARK UNBOUND:                 0.000
REMARK SMILES Oc1cc(O)c2c(c1)CCc1cc(O)c(O)cc1-2
REMARK SMILES IDX 10 1 9 2 7 3 6 4 18 5 17 6 15 7 13 8 12 9 11 10 4 11 3 12
REMARK SMILES IDX 2 13 8 14 14 15 5 17 1 19 16 21
REMARK H PARENT 14 16 5 18 1 20 16 22
REMARK Flexibility Score: inf
ROOT
ATOM      1  C   UNL     1      49.715  50.179  34.640  1.00  0.00     0.041 C 
ATOM      2  C   UNL     1      48.208  50.256  34.912  1.00  0.00     0.041 C 
ATOM      3  C   UNL     1      47.703  48.949  35.471  1.00  0.00    -0.032 A 
ATOM      4  C   UNL     1      48.516  48.190  36.347  1.00  0.00     0.027 A 
ATOM      5  C   UNL     1      49.860  48.742  36.715  1.00  0.00    -0.007 A 
ATOM      6  C   UNL     1      50.516  48.404  37.916  1.00  0.00     0.059 A 
ATOM      7  C   UNL     1      51.776  48.940  38.220  1.00  0.00     0.158 A 
ATOM      8  C   UNL     1      52.383  49.844  37.336  1.00  0.00     0.157 A 
ATOM      9  C   UNL     1      51.716  50.232  36.173  1.00  0.00     0.054 A 
ATOM     10  C   UNL     1      50.447  49.715  35.874  1.00  0.00    -0.036 A 
ATOM     11  C   UNL     1      48.056  46.919  36.774  1.00  0.00     0.127 A 
ATOM     12  C   UNL     1      46.765  46.494  36.433  1.00  0.00     0.093 A 
ATOM     13  C   UNL     1      45.940  47.288  35.631  1.00  0.00     0.119 A 
ATOM     14  C   UNL     1      46.412  48.507  35.147  1.00  0.00     0.050 A 
ENDROOT
BRANCH   8  15
ATOM     15  O   UNL     1      53.643  50.380  37.605  1.00  0.00    -0.504 OA
ATOM     16  H   UNL     1      54.364  49.848  38.078  1.00  0.00     0.293 HD
ENDBRANCH   8  15
BRANCH  11  17
ATOM     17  O   UNL     1      48.883  46.059  37.496  1.00  0.00    -0.507 OA
ATOM     18  H   UNL     1      48.886  45.059  37.332  1.00  0.00     0.293 HD
ENDBRANCH  11  17
BRANCH  13  19
ATOM     19  O   UNL     1      44.654  46.868  35.298  1.00  0.00    -0.508 OA
ATOM     20  H   UNL     1      44.218  46.079  35.762  1.00  0.00     0.293 HD
ENDBRANCH  13  19
BRANCH   7  21
ATOM     21  O   UNL     1      52.422  48.581  39.403  1.00  0.00    -0.504 OA
ATOM     22  H   UNL     1      52.519  49.232  40.173  1.00  0.00     0.293 HD
ENDBRANCH   7  21
TORSDOF 4
ENDMDL
MODEL 2
REMARK VINA RESULT:    -6.477      3.677      6.615
REMARK INTER + INTRA:          -7.235
REMARK INTER:                  -7.235
REMARK INTRA:                   0.000
REMARK UNBOUND:                 0.000
REMARK SMILES Oc1cc(O)c2c(c1)CCc1cc(O)c(O)cc1-2
REMARK SMILES IDX 10 1 9 2 7 3 6 4 18 5 17 6 15 7 13 8 12 9 11 10 4 11 3 12
REMARK SMILES IDX 2 13 8 14 14 15 5 17 1 19 16 21
REMARK H PARENT 14 16 5 18 1 20 16 22
REMARK Flexibility Score: inf
ROOT
ATOM      1  C   UNL     1      46.073  46.065  35.610  1.00  0.00     0.041 C 
ATOM      2  C   UNL     1      45.818  47.546  35.305  1.00  0.00     0.041 C 
ATOM      3  C   UNL     1      47.052  48.188  34.721  1.00  0.00    -0.032 A 
ATOM      4  C   UNL     1      47.895  47.448  33.856  1.00  0.00     0.027 A 
ATOM      5  C   UNL     1      47.501  46.041  33.524  1.00  0.00    -0.007 A 
ATOM      6  C   UNL     1      47.904  45.401  32.335  1.00  0.00     0.059 A 
ATOM      7  C   UNL     1      47.518  44.080  32.064  1.00  0.00     0.158 A 
ATOM      8  C   UNL     1      46.698  43.392  32.971  1.00  0.00     0.157 A 
ATOM      9  C   UNL     1      46.243  44.036  34.123  1.00  0.00     0.054 A 
ATOM     10  C   UNL     1      46.610  45.364  34.388  1.00  0.00    -0.036 A 
ATOM     11  C   UNL     1      49.100  48.044  33.405  1.00  0.00     0.127 A 
ATOM     12  C   UNL     1      49.374  49.383  33.713  1.00  0.00     0.093 A 
ATOM     13  C   UNL     1      48.494  50.128  34.504  1.00  0.00     0.119 A 
ATOM     14  C   UNL     1      47.342  49.529  35.011  1.00  0.00     0.050 A 
ENDROOT
BRANCH   8  15
ATOM     15  O   UNL     1      46.311  42.072  32.736  1.00  0.00    -0.504 OA
ATOM     16  H   UNL     1      46.702  41.524  31.979  1.00  0.00     0.293 HD
ENDBRANCH   8  15
BRANCH  11  17
ATOM     17  O   UNL     1      50.045  47.307  32.694  1.00  0.00    -0.507 OA
ATOM     18  H   UNL     1      50.684  46.670  33.156  1.00  0.00     0.293 HD
ENDBRANCH  11  17
BRANCH  13  19
ATOM     19  O   UNL     1      48.764  51.462  34.804  1.00  0.00    -0.508 OA
ATOM     20  H   UNL     1      48.802  51.793  35.760  1.00  0.00     0.293 HD
ENDBRANCH  13  19
BRANCH   7  21
ATOM     21  O   UNL     1      47.941  43.452  30.893  1.00  0.00    -0.504 OA
ATOM     22  H   UNL     1      48.881  43.575  30.535  1.00  0.00     0.293 HD
ENDBRANCH   7  21
TORSDOF 4
ENDMDL
MODEL 3
REMARK VINA RESULT:    -5.950      0.893      5.451
REMARK INTER + INTRA:          -6.646
REMARK INTER:                  -6.646
REMARK INTRA:                   0.000
REMARK UNBOUND:                 0.000
REMARK SMILES Oc1cc(O)c2c(c1)CCc1cc(O)c(O)cc1-2
REMARK SMILES IDX 10 1 9 2 7 3 6 4 18 5 17 6 15 7 13 8 12 9 11 10 4 11 3 12
REMARK SMILES IDX 2 13 8 14 14 15 5 17 1 19 16 21
REMARK H PARENT 14 16 5 18 1 20 16 22
REMARK Flexibility Score: inf
ROOT
ATOM      1  C   UNL     1      48.515  50.398  34.901  1.00  0.00     0.041 C 
ATOM      2  C   UNL     1      50.008  50.205  34.605  1.00  0.00     0.041 C 
ATOM      3  C   UNL     1      50.742  49.767  35.847  1.00  0.00    -0.032 A 
ATOM      4  C   UNL     1      50.114  48.902  36.776  1.00  0.00     0.027 A 
ATOM      5  C   UNL     1      48.728  48.423  36.465  1.00  0.00    -0.007 A 
ATOM      6  C   UNL     1      48.211  47.214  36.973  1.00  0.00     0.059 A 
ATOM      7  C   UNL     1      46.906  46.804  36.661  1.00  0.00     0.158 A 
ATOM      8  C   UNL     1      46.112  47.589  35.812  1.00  0.00     0.157 A 
ATOM      9  C   UNL     1      46.634  48.758  35.255  1.00  0.00     0.054 A 
ATOM     10  C   UNL     1      47.945  49.161  35.548  1.00  0.00    -0.036 A 
ATOM     11  C   UNL     1      50.790  48.590  37.982  1.00  0.00     0.127 A 
ATOM     12  C   UNL     1      52.106  49.031  38.178  1.00  0.00     0.093 A 
ATOM     13  C   UNL     1      52.745  49.819  37.217  1.00  0.00     0.119 A 
ATOM     14  C   UNL     1      52.062  50.191  36.060  1.00  0.00     0.050 A 
ENDROOT
BRANCH   8  15
ATOM     15  O   UNL     1      44.805  47.215  35.499  1.00  0.00    -0.504 OA
ATOM     16  H   UNL     1      44.000  47.677  35.906  1.00  0.00     0.293 HD
ENDBRANCH   8  15
BRANCH  11  17
ATOM     17  O   UNL     1      50.154  47.885  39.002  1.00  0.00    -0.507 OA
ATOM     18  H   UNL     1      50.670  47.305  39.653  1.00  0.00     0.293 HD
ENDBRANCH  11  17
BRANCH  13  19
ATOM     19  O   UNL     1      54.056  50.251  37.409  1.00  0.00    -0.508 OA
ATOM     20  H   UNL     1      54.828  49.849  36.890  1.00  0.00     0.293 HD
ENDBRANCH  13  19
BRANCH   7  21
ATOM     21  O   UNL     1      46.401  45.616  37.187  1.00  0.00    -0.504 OA
ATOM     22  H   UNL     1      46.963  45.018  37.782  1.00  0.00     0.293 HD
ENDBRANCH   7  21
TORSDOF 4
ENDMDL
MODEL 4
REMARK VINA RESULT:    -5.835      1.456      2.842
REMARK INTER + INTRA:          -6.517
REMARK INTER:                  -6.517
REMARK INTRA:                   0.000
REMARK UNBOUND:                 0.000
REMARK SMILES Oc1cc(O)c2c(c1)CCc1cc(O)c(O)cc1-2
REMARK SMILES IDX 10 1 9 2 7 3 6 4 18 5 17 6 15 7 13 8 12 9 11 10 4 11 3 12
REMARK SMILES IDX 2 13 8 14 14 15 5 17 1 19 16 21
REMARK H PARENT 14 16 5 18 1 20 16 22
REMARK Flexibility Score: inf
ROOT
ATOM      1  C   UNL     1      49.752  47.374  38.982  1.00  0.00     0.041 C 
ATOM      2  C   UNL     1      48.891  46.433  38.131  1.00  0.00     0.041 C 
ATOM      3  C   UNL     1      48.140  47.209  37.078  1.00  0.00    -0.032 A 
ATOM      4  C   UNL     1      48.742  48.330  36.458  1.00  0.00     0.027 A 
ATOM      5  C   UNL     1      50.141  48.689  36.858  1.00  0.00    -0.007 A 
ATOM      6  C   UNL     1      51.018  49.389  36.006  1.00  0.00     0.059 A 
ATOM      7  C   UNL     1      52.319  49.709  36.421  1.00  0.00     0.158 A 
ATOM      8  C   UNL     1      52.767  49.307  37.689  1.00  0.00     0.157 A 
ATOM      9  C   UNL     1      51.927  48.562  38.518  1.00  0.00     0.054 A 
ATOM     10  C   UNL     1      50.633  48.222  38.099  1.00  0.00    -0.036 A 
ATOM     11  C   UNL     1      47.974  49.099  35.548  1.00  0.00     0.127 A 
ATOM     12  C   UNL     1      46.691  48.671  35.181  1.00  0.00     0.093 A 
ATOM     13  C   UNL     1      46.137  47.516  35.741  1.00  0.00     0.119 A 
ATOM     14  C   UNL     1      46.857  46.794  36.691  1.00  0.00     0.050 A 
ENDROOT
BRANCH   8  15
ATOM     15  O   UNL     1      54.049  49.627  38.135  1.00  0.00    -0.504 OA
ATOM     16  H   UNL     1      54.587  50.384  37.731  1.00  0.00     0.293 HD
ENDBRANCH   8  15
BRANCH  11  17
ATOM     17  O   UNL     1      48.455  50.305  35.039  1.00  0.00    -0.507 OA
ATOM     18  H   UNL     1      49.370  50.663  35.289  1.00  0.00     0.293 HD
ENDBRANCH  11  17
BRANCH  13  19
ATOM     19  O   UNL     1      44.864  47.086  35.371  1.00  0.00    -0.508 OA
ATOM     20  H   UNL     1      44.084  47.730  35.315  1.00  0.00     0.293 HD
ENDBRANCH  13  19
BRANCH   7  21
ATOM     21  O   UNL     1      53.169  50.420  35.575  1.00  0.00    -0.504 OA
ATOM     22  H   UNL     1      54.110  50.671  35.856  1.00  0.00     0.293 HD
ENDBRANCH   7  21
TORSDOF 4
ENDMDL
MODEL 5
REMARK VINA RESULT:    -5.808      3.870      5.147
REMARK INTER + INTRA:          -6.487
REMARK INTER:                  -6.487
REMARK INTRA:                   0.000
REMARK UNBOUND:                 0.000
REMARK SMILES Oc1cc(O)c2c(c1)CCc1cc(O)c(O)cc1-2
REMARK SMILES IDX 10 1 9 2 7 3 6 4 18 5 17 6 15 7 13 8 12 9 11 10 4 11 3 12
REMARK SMILES IDX 2 13 8 14 14 15 5 17 1 19 16 21
REMARK H PARENT 14 16 5 18 1 20 16 22
REMARK Flexibility Score: inf
ROOT
ATOM      1  C   UNL     1      45.799  47.247  35.375  1.00  0.00     0.041 C 
ATOM      2  C   UNL     1      46.146  45.793  35.718  1.00  0.00     0.041 C 
ATOM      3  C   UNL     1      46.612  45.055  34.488  1.00  0.00    -0.032 A 
ATOM      4  C   UNL     1      47.381  45.726  33.506  1.00  0.00     0.027 A 
ATOM      5  C   UNL     1      47.733  47.163  33.748  1.00  0.00    -0.007 A 
ATOM      6  C   UNL     1      48.868  47.772  33.178  1.00  0.00     0.059 A 
ATOM      7  C   UNL     1      49.159  49.122  33.426  1.00  0.00     0.158 A 
ATOM      8  C   UNL     1      48.329  49.871  34.274  1.00  0.00     0.157 A 
ATOM      9  C   UNL     1      47.236  49.261  34.892  1.00  0.00     0.054 A 
ATOM     10  C   UNL     1      46.953  47.907  34.663  1.00  0.00    -0.036 A 
ATOM     11  C   UNL     1      47.717  45.035  32.315  1.00  0.00     0.127 A 
ATOM     12  C   UNL     1      47.400  43.676  32.183  1.00  0.00     0.093 A 
ATOM     13  C   UNL     1      46.710  43.003  33.195  1.00  0.00     0.119 A 
ATOM     14  C   UNL     1      46.312  43.693  34.339  1.00  0.00     0.050 A 
ENDROOT
BRANCH   8  15
ATOM     15  O   UNL     1      48.584  51.219  34.526  1.00  0.00    -0.504 OA
ATOM     16  H   UNL     1      48.404  51.641  35.429  1.00  0.00     0.293 HD
ENDBRANCH   8  15
BRANCH  11  17
ATOM     17  O   UNL     1      48.322  45.695  31.246  1.00  0.00    -0.507 OA
ATOM     18  H   UNL     1      48.903  46.515  31.384  1.00  0.00     0.293 HD
ENDBRANCH  11  17
BRANCH  13  19
ATOM     19  O   UNL     1      46.402  41.650  33.066  1.00  0.00    -0.508 OA
ATOM     20  H   UNL     1      47.102  40.932  33.207  1.00  0.00     0.293 HD
ENDBRANCH  13  19
BRANCH   7  21
ATOM     21  O   UNL     1      50.274  49.717  32.839  1.00  0.00    -0.504 OA
ATOM     22  H   UNL     1      51.121  49.893  33.366  1.00  0.00     0.293 HD
ENDBRANCH   7  21
TORSDOF 4
ENDMDL
MODEL 6
REMARK VINA RESULT:    -5.805      7.928      9.404
REMARK INTER + INTRA:          -6.484
REMARK INTER:                  -6.484
REMARK INTRA:                   0.000
REMARK UNBOUND:                 0.000
REMARK SMILES Oc1cc(O)c2c(c1)CCc1cc(O)c(O)cc1-2
REMARK SMILES IDX 10 1 9 2 7 3 6 4 18 5 17 6 15 7 13 8 12 9 11 10 4 11 3 12
REMARK SMILES IDX 2 13 8 14 14 15 5 17 1 19 16 21
REMARK H PARENT 14 16 5 18 1 20 16 22
REMARK Flexibility Score: inf
ROOT
ATOM      1  C   UNL     1      44.321  53.062  35.074  1.00  0.00     0.041 C 
ATOM      2  C   UNL     1      43.464  52.759  33.839  1.00  0.00     0.041 C 
ATOM      3  C   UNL     1      42.018  52.580  34.228  1.00  0.00    -0.032 A 
ATOM      4  C   UNL     1      41.461  53.361  35.270  1.00  0.00     0.027 A 
ATOM      5  C   UNL     1      42.340  54.376  35.936  1.00  0.00    -0.007 A 
ATOM      6  C   UNL     1      41.828  55.527  36.567  1.00  0.00     0.059 A 
ATOM      7  C   UNL     1      42.686  56.450  37.183  1.00  0.00     0.158 A 
ATOM      8  C   UNL     1      44.073  56.245  37.150  1.00  0.00     0.157 A 
ATOM      9  C   UNL     1      44.596  55.140  36.476  1.00  0.00     0.054 A 
ATOM     10  C   UNL     1      43.743  54.225  35.841  1.00  0.00    -0.036 A 
ATOM     11  C   UNL     1      40.130  53.099  35.682  1.00  0.00     0.127 A 
ATOM     12  C   UNL     1      39.351  52.172  34.975  1.00  0.00     0.093 A 
ATOM     13  C   UNL     1      39.888  51.463  33.897  1.00  0.00     0.119 A 
ATOM     14  C   UNL     1      41.219  51.663  33.531  1.00  0.00     0.050 A 
ENDROOT
BRANCH   8  15
ATOM     15  O   UNL     1      44.949  57.137  37.768  1.00  0.00    -0.504 OA
ATOM     16  H   UNL     1      45.445  56.901  38.619  1.00  0.00     0.293 HD
ENDBRANCH   8  15
BRANCH  11  17
ATOM     17  O   UNL     1      39.590  53.717  36.809  1.00  0.00    -0.507 OA
ATOM     18  H   UNL     1      40.144  53.891  37.639  1.00  0.00     0.293 HD
ENDBRANCH  11  17
BRANCH  13  19
ATOM     19  O   UNL     1      39.111  50.548  33.191  1.00  0.00    -0.508 OA
ATOM     20  H   UNL     1      39.531  49.789  32.667  1.00  0.00     0.293 HD
ENDBRANCH  13  19
BRANCH   7  21
ATOM     21  O   UNL     1      42.163  57.574  37.821  1.00  0.00    -0.504 OA
ATOM     22  H   UNL     1      42.741  58.177  38.394  1.00  0.00     0.293 HD
ENDBRANCH   7  21
TORSDOF 4
ENDMDL
MODEL 7
REMARK VINA RESULT:    -5.804      3.839      6.382
REMARK INTER + INTRA:          -6.482
REMARK INTER:                  -6.482
REMARK INTRA:                   0.000
REMARK UNBOUND:                 0.000
REMARK SMILES Oc1cc(O)c2c(c1)CCc1cc(O)c(O)cc1-2
REMARK SMILES IDX 10 1 9 2 7 3 6 4 18 5 17 6 15 7 13 8 12 9 11 10 4 11 3 12
REMARK SMILES IDX 2 13 8 14 14 15 5 17 1 19 16 21
REMARK H PARENT 14 16 5 18 1 20 16 22
REMARK Flexibility Score: inf
ROOT
ATOM      1  C   UNL     1      48.909  46.233  31.326  1.00  0.00     0.041 C 
ATOM      2  C   UNL     1      49.707  47.238  32.165  1.00  0.00     0.041 C 
ATOM      3  C   UNL     1      48.811  47.921  33.168  1.00  0.00    -0.032 A 
ATOM      4  C   UNL     1      47.758  47.201  33.784  1.00  0.00     0.027 A 
ATOM      5  C   UNL     1      47.593  45.754  33.430  1.00  0.00    -0.007 A 
ATOM      6  C   UNL     1      46.987  44.825  34.299  1.00  0.00     0.059 A 
ATOM      7  C   UNL     1      46.848  43.480  33.927  1.00  0.00     0.158 A 
ATOM      8  C   UNL     1      47.341  43.042  32.689  1.00  0.00     0.157 A 
ATOM      9  C   UNL     1      47.997  43.941  31.845  1.00  0.00     0.054 A 
ATOM     10  C   UNL     1      48.156  45.283  32.222  1.00  0.00    -0.036 A 
ATOM     11  C   UNL     1      46.871  47.896  34.644  1.00  0.00     0.127 A 
ATOM     12  C   UNL     1      47.121  49.235  34.971  1.00  0.00     0.093 A 
ATOM     13  C   UNL     1      48.211  49.913  34.417  1.00  0.00     0.119 A 
ATOM     14  C   UNL     1      49.047  49.259  33.514  1.00  0.00     0.050 A 
ENDROOT
BRANCH   8  15
ATOM     15  O   UNL     1      47.201  41.714  32.285  1.00  0.00    -0.504 OA
ATOM     16  H   UNL     1      47.853  41.275  31.645  1.00  0.00     0.293 HD
ENDBRANCH   8  15
BRANCH  11  17
ATOM     17  O   UNL     1      45.723  47.281  35.142  1.00  0.00    -0.507 OA
ATOM     18  H   UNL     1      45.146  46.681  34.564  1.00  0.00     0.293 HD
ENDBRANCH  11  17
BRANCH  13  19
ATOM     19  O   UNL     1      48.463  51.243  34.748  1.00  0.00    -0.508 OA
ATOM     20  H   UNL     1      49.269  51.737  34.382  1.00  0.00     0.293 HD
ENDBRANCH  13  19
BRANCH   7  21
ATOM     21  O   UNL     1      46.228  42.576  34.789  1.00  0.00    -0.504 OA
ATOM     22  H   UNL     1      45.220  42.538  34.883  1.00  0.00     0.293 HD
ENDBRANCH   7  21
TORSDOF 4
ENDMDL
MODEL 8
REMARK VINA RESULT:    -5.748      2.681      4.563
REMARK INTER + INTRA:          -6.420
REMARK INTER:                  -6.420
REMARK INTRA:                   0.000
REMARK UNBOUND:                 0.000
REMARK SMILES Oc1cc(O)c2c(c1)CCc1cc(O)c(O)cc1-2
REMARK SMILES IDX 10 1 9 2 7 3 6 4 18 5 17 6 15 7 13 8 12 9 11 10 4 11 3 12
REMARK SMILES IDX 2 13 8 14 14 15 5 17 1 19 16 21
REMARK H PARENT 14 16 5 18 1 20 16 22
REMARK Flexibility Score: inf
ROOT
ATOM      1  C   UNL     1      50.806  46.913  36.897  1.00  0.00     0.041 C 
ATOM      2  C   UNL     1      50.540  48.417  36.755  1.00  0.00     0.041 C 
ATOM      3  C   UNL     1      49.169  48.660  36.177  1.00  0.00    -0.032 A 
ATOM      4  C   UNL     1      48.092  47.806  36.519  1.00  0.00     0.027 A 
ATOM      5  C   UNL     1      48.358  46.692  37.486  1.00  0.00    -0.007 A 
ATOM      6  C   UNL     1      47.348  46.131  38.294  1.00  0.00     0.059 A 
ATOM      7  C   UNL     1      47.638  45.086  39.182  1.00  0.00     0.158 A 
ATOM      8  C   UNL     1      48.952  44.606  39.292  1.00  0.00     0.157 A 
ATOM      9  C   UNL     1      49.971  45.194  38.541  1.00  0.00     0.054 A 
ATOM     10  C   UNL     1      49.690  46.253  37.666  1.00  0.00    -0.036 A 
ATOM     11  C   UNL     1      46.841  47.998  35.881  1.00  0.00     0.127 A 
ATOM     12  C   UNL     1      46.653  49.095  35.030  1.00  0.00     0.093 A 
ATOM     13  C   UNL     1      47.703  49.979  34.761  1.00  0.00     0.119 A 
ATOM     14  C   UNL     1      48.957  49.756  35.328  1.00  0.00     0.050 A 
ENDROOT
BRANCH   8  15
ATOM     15  O   UNL     1      49.267  43.556  40.155  1.00  0.00    -0.504 OA
ATOM     16  H   UNL     1      48.670  42.743  40.253  1.00  0.00     0.293 HD
ENDBRANCH   8  15
BRANCH  11  17
ATOM     17  O   UNL     1      45.799  47.088  36.051  1.00  0.00    -0.507 OA
ATOM     18  H   UNL     1      44.917  47.188  35.561  1.00  0.00     0.293 HD
ENDBRANCH  11  17
BRANCH  13  19
ATOM     19  O   UNL     1      47.513  51.073  33.920  1.00  0.00    -0.508 OA
ATOM     20  H   UNL     1      47.323  50.955  32.932  1.00  0.00     0.293 HD
ENDBRANCH  13  19
BRANCH   7  21
ATOM     21  O   UNL     1      46.625  44.527  39.961  1.00  0.00    -0.504 OA
ATOM     22  H   UNL     1      45.656  44.800  39.846  1.00  0.00     0.293 HD
ENDBRANCH   7  21
TORSDOF 4
ENDMDL
MODEL 9
REMARK VINA RESULT:    -5.710      8.214     11.068
REMARK INTER + INTRA:          -6.378
REMARK INTER:                  -6.378
REMARK INTRA:                   0.000
REMARK UNBOUND:                 0.000
REMARK SMILES Oc1cc(O)c2c(c1)CCc1cc(O)c(O)cc1-2
REMARK SMILES IDX 10 1 9 2 7 3 6 4 18 5 17 6 15 7 13 8 12 9 11 10 4 11 3 12
REMARK SMILES IDX 2 13 8 14 14 15 5 17 1 19 16 21
REMARK H PARENT 14 16 5 18 1 20 16 22
REMARK Flexibility Score: inf
ROOT
ATOM      1  C   UNL     1      42.730  51.257  34.892  1.00  0.00     0.041 C 
ATOM      2  C   UNL     1      42.921  52.243  36.051  1.00  0.00     0.041 C 
ATOM      3  C   UNL     1      42.991  53.659  35.536  1.00  0.00    -0.032 A 
ATOM      4  C   UNL     1      42.199  54.052  34.429  1.00  0.00     0.027 A 
ATOM      5  C   UNL     1      41.283  53.033  33.823  1.00  0.00    -0.007 A 
ATOM      6  C   UNL     1      40.113  53.387  33.120  1.00  0.00     0.059 A 
ATOM      7  C   UNL     1      39.285  52.402  32.563  1.00  0.00     0.158 A 
ATOM      8  C   UNL     1      39.604  51.046  32.728  1.00  0.00     0.157 A 
ATOM      9  C   UNL     1      40.727  50.682  33.472  1.00  0.00     0.054 A 
ATOM     10  C   UNL     1      41.547  51.663  34.048  1.00  0.00    -0.036 A 
ATOM     11  C   UNL     1      42.363  55.359  33.905  1.00  0.00     0.127 A 
ATOM     12  C   UNL     1      43.199  56.274  34.559  1.00  0.00     0.093 A 
ATOM     13  C   UNL     1      43.915  55.898  35.699  1.00  0.00     0.119 A 
ATOM     14  C   UNL     1      43.816  54.593  36.179  1.00  0.00     0.050 A 
ENDROOT
BRANCH   8  15
ATOM     15  O   UNL     1      38.808  50.045  32.170  1.00  0.00    -0.504 OA
ATOM     16  H   UNL     1      37.797  50.059  32.242  1.00  0.00     0.293 HD
ENDBRANCH   8  15
BRANCH  11  17
ATOM     17  O   UNL     1      41.738  55.742  32.719  1.00  0.00    -0.507 OA
ATOM     18  H   UNL     1      40.869  56.264  32.717  1.00  0.00     0.293 HD
ENDBRANCH  11  17
BRANCH  13  19
ATOM     19  O   UNL     1      44.741  56.810  36.353  1.00  0.00    -0.508 OA
ATOM     20  H   UNL     1      44.517  57.797  36.386  1.00  0.00     0.293 HD
ENDBRANCH  13  19
BRANCH   7  21
ATOM     21  O   UNL     1      38.142  52.768  31.854  1.00  0.00    -0.504 OA
ATOM     22  H   UNL     1      37.928  53.738  31.656  1.00  0.00     0.293 HD
ENDBRANCH   7  21
TORSDOF 4
ENDMDL
