MODEL 1
REMARK VINA RESULT:    -5.154      0.000      0.000
REMARK INTER + INTRA:          -9.163
REMARK INTER:                  -7.866
REMARK INTRA:                  -1.297
REMARK UNBOUND:                -1.297
REMARK SMILES CCCCCCCCCCC(=O)[O-]
REMARK SMILES IDX 7 1 8 2 9 3 10 4 11 5 12 6 13 7 6 8 5 9 4 10 3 11 2 12 1 13
REMARK H PARENT
REMARK Flexibility Score: inf
ROOT
ATOM      1  C   UNL     1      94.899  -2.661   7.803  1.00  0.00     0.000 C 
ENDROOT
BRANCH   1   2
ATOM      2  C   UNL     1      96.302  -2.865   7.206  1.00  0.00     0.000 C 
BRANCH   2   3
ATOM      3  C   UNL     1      96.803  -4.315   7.349  1.00  0.00     0.006 C 
BRANCH   3   4
ATOM      4  C   UNL     1      98.329  -4.449   7.482  1.00  0.00     0.053 C 
BRANCH   4   5
ATOM      5  C   UNL     1      98.953  -5.029   6.251  1.00  0.00     0.041 C 
ATOM      6  O   UNL     1      99.085  -6.276   6.135  1.00  0.00    -0.550 OA
ATOM      7  O   UNL     1      99.419  -4.192   5.245  1.00  0.00    -0.550 OA
ENDBRANCH   4   5
ENDBRANCH   3   4
ENDBRANCH   2   3
ENDBRANCH   1   2
BRANCH   1   8
ATOM      8  C   UNL     1      94.270  -3.967   8.322  1.00  0.00     0.000 C 
BRANCH   8   9
ATOM      9  C   UNL     1      94.094  -4.055   9.850  1.00  0.00    -0.000 C 
BRANCH   9  10
ATOM     10  C   UNL     1      95.044  -5.072  10.506  1.00  0.00    -0.000 C 
BRANCH  10  11
ATOM     11  C   UNL     1      96.331  -4.426  11.050  1.00  0.00    -0.000 C 
BRANCH  11  12
ATOM     12  C   UNL     1      96.217  -2.927  11.384  1.00  0.00    -0.003 C 
ATOM     13  C   UNL     1      97.244  -2.069  10.648  1.00  0.00     0.004 C 
ENDBRANCH  11  12
ENDBRANCH  10  11
ENDBRANCH   9  10
ENDBRANCH   8   9
ENDBRANCH   1   8
TORSDOF 9
ENDMDL
MODEL 2
REMARK VINA RESULT:    -4.991     15.022     16.882
REMARK INTER + INTRA:          -8.915
REMARK INTER:                  -7.605
REMARK INTRA:                  -1.309
REMARK UNBOUND:                -1.297
REMARK SMILES CCCCCCCCCCC(=O)[O-]
REMARK SMILES IDX 7 1 8 2 9 3 10 4 11 5 12 6 13 7 6 8 5 9 4 10 3 11 2 12 1 13
REMARK H PARENT
REMARK Flexibility Score: inf
ROOT
ATOM      1  C   UNL     1      84.353  -1.800   1.487  1.00  0.00     0.000 C 
ENDROOT
BRANCH   1   2
ATOM      2  C   UNL     1      83.598  -0.662   0.780  1.00  0.00     0.000 C 
BRANCH   2   3
ATOM      3  C   UNL     1      82.589   0.046   1.704  1.00  0.00     0.006 C 
BRANCH   3   4
ATOM      4  C   UNL     1      81.428   0.734   0.968  1.00  0.00     0.053 C 
BRANCH   4   5
ATOM      5  C   UNL     1      81.533   2.227   1.022  1.00  0.00     0.041 C 
ATOM      6  O   UNL     1      82.323   2.835   0.252  1.00  0.00    -0.550 OA
ATOM      7  O   UNL     1      80.784   2.946   1.946  1.00  0.00    -0.550 OA
ENDBRANCH   4   5
ENDBRANCH   3   4
ENDBRANCH   2   3
ENDBRANCH   1   2
BRANCH   1   8
ATOM      8  C   UNL     1      83.995  -1.924   2.979  1.00  0.00     0.000 C 
BRANCH   8   9
ATOM      9  C   UNL     1      83.481  -3.307   3.424  1.00  0.00    -0.000 C 
BRANCH   9  10
ATOM     10  C   UNL     1      82.499  -3.934   2.420  1.00  0.00    -0.000 C 
BRANCH  10  11
ATOM     11  C   UNL     1      81.074  -3.362   2.539  1.00  0.00    -0.000 C 
BRANCH  11  12
ATOM     12  C   UNL     1      80.461  -2.858   1.220  1.00  0.00    -0.003 C 
ATOM     13  C   UNL     1      81.226  -3.328  -0.016  1.00  0.00     0.004 C 
ENDBRANCH  11  12
ENDBRANCH  10  11
ENDBRANCH   9  10
ENDBRANCH   8   9
ENDBRANCH   1   8
TORSDOF 9
ENDMDL
MODEL 3
REMARK VINA RESULT:    -4.855     14.869     16.698
REMARK INTER + INTRA:          -8.706
REMARK INTER:                  -7.511
REMARK INTRA:                  -1.195
REMARK UNBOUND:                -1.297
REMARK SMILES CCCCCCCCCCC(=O)[O-]
REMARK SMILES IDX 7 1 8 2 9 3 10 4 11 5 12 6 13 7 6 8 5 9 4 10 3 11 2 12 1 13
REMARK H PARENT
REMARK Flexibility Score: inf
ROOT
ATOM      1  C   UNL     1      84.696  -2.687   2.577  1.00  0.00     0.000 C 
ENDROOT
BRANCH   1   2
ATOM      2  C   UNL     1      84.466  -1.866   1.296  1.00  0.00     0.000 C 
BRANCH   2   3
ATOM      3  C   UNL     1      83.483  -0.699   1.507  1.00  0.00     0.006 C 
BRANCH   3   4
ATOM      4  C   UNL     1      83.305   0.211   0.281  1.00  0.00     0.053 C 
BRANCH   4   5
ATOM      5  C   UNL     1      82.179   1.182   0.460  1.00  0.00     0.041 C 
ATOM      6  O   UNL     1      81.032   0.771   0.777  1.00  0.00    -0.550 OA
ATOM      7  O   UNL     1      82.388   2.539   0.245  1.00  0.00    -0.550 OA
ENDBRANCH   4   5
ENDBRANCH   3   4
ENDBRANCH   2   3
ENDBRANCH   1   2
BRANCH   1   8
ATOM      8  C   UNL     1      83.402  -2.939   3.371  1.00  0.00     0.000 C 
BRANCH   8   9
ATOM      9  C   UNL     1      82.393  -3.895   2.705  1.00  0.00    -0.000 C 
BRANCH   9  10
ATOM     10  C   UNL     1      80.968  -3.316   2.646  1.00  0.00    -0.000 C 
BRANCH  10  11
ATOM     11  C   UNL     1      80.553  -2.892   1.226  1.00  0.00    -0.000 C 
BRANCH  11  12
ATOM     12  C   UNL     1      81.299  -3.609   0.086  1.00  0.00    -0.003 C 
ATOM     13  C   UNL     1      81.626  -2.689  -1.089  1.00  0.00     0.004 C 
ENDBRANCH  11  12
ENDBRANCH  10  11
ENDBRANCH   9  10
ENDBRANCH   8   9
ENDBRANCH   1   8
TORSDOF 9
ENDMDL
MODEL 4
REMARK VINA RESULT:    -4.826     13.359     15.179
REMARK INTER + INTRA:          -8.662
REMARK INTER:                  -7.718
REMARK INTRA:                  -0.944
REMARK UNBOUND:                -1.297
REMARK SMILES CCCCCCCCCCC(=O)[O-]
REMARK SMILES IDX 7 1 8 2 9 3 10 4 11 5 12 6 13 7 6 8 5 9 4 10 3 11 2 12 1 13
REMARK H PARENT
REMARK Flexibility Score: inf
ROOT
ATOM      1  C   UNL     1      81.882  -3.551   3.191  1.00  0.00     0.000 C 
ENDROOT
BRANCH   1   2
ATOM      2  C   UNL     1      83.323  -3.815   2.720  1.00  0.00     0.000 C 
BRANCH   2   3
ATOM      3  C   UNL     1      84.305  -2.717   3.167  1.00  0.00     0.006 C 
BRANCH   3   4
ATOM      4  C   UNL     1      85.322  -2.298   2.092  1.00  0.00     0.053 C 
BRANCH   4   5
ATOM      5  C   UNL     1      86.734  -2.538   2.529  1.00  0.00     0.041 C 
ATOM      6  O   UNL     1      86.993  -2.763   3.741  1.00  0.00    -0.550 OA
ATOM      7  O   UNL     1      87.769  -2.482   1.604  1.00  0.00    -0.550 OA
ENDBRANCH   4   5
ENDBRANCH   3   4
ENDBRANCH   2   3
ENDBRANCH   1   2
BRANCH   1   8
ATOM      8  C   UNL     1      80.927  -3.199   2.036  1.00  0.00     0.000 C 
BRANCH   8   9
ATOM      9  C   UNL     1      81.421  -3.583   0.627  1.00  0.00    -0.000 C 
BRANCH   9  10
ATOM     10  C   UNL     1      81.771  -2.361  -0.239  1.00  0.00    -0.000 C 
BRANCH  10  11
ATOM     11  C   UNL     1      81.772  -1.043   0.556  1.00  0.00    -0.000 C 
BRANCH  11  12
ATOM     12  C   UNL     1      82.998  -0.141   0.324  1.00  0.00    -0.003 C 
ATOM     13  C   UNL     1      82.773   0.911  -0.760  1.00  0.00     0.004 C 
ENDBRANCH  11  12
ENDBRANCH  10  11
ENDBRANCH   9  10
ENDBRANCH   8   9
ENDBRANCH   1   8
TORSDOF 9
ENDMDL
MODEL 5
REMARK VINA RESULT:    -4.824      1.307      2.510
REMARK INTER + INTRA:          -8.659
REMARK INTER:                  -7.865
REMARK INTRA:                  -0.794
REMARK UNBOUND:                -1.297
REMARK SMILES CCCCCCCCCCC(=O)[O-]
REMARK SMILES IDX 7 1 8 2 9 3 10 4 11 5 12 6 13 7 6 8 5 9 4 10 3 11 2 12 1 13
REMARK H PARENT
REMARK Flexibility Score: inf
ROOT
ATOM      1  C   UNL     1      96.775  -2.837   7.614  1.00  0.00     0.000 C 
ENDROOT
BRANCH   1   2
ATOM      2  C   UNL     1      97.941  -2.525   6.660  1.00  0.00     0.000 C 
BRANCH   2   3
ATOM      3  C   UNL     1      99.120  -3.502   6.822  1.00  0.00     0.006 C 
BRANCH   3   4
ATOM      4  C   UNL     1      99.290  -4.492   5.658  1.00  0.00     0.053 C 
BRANCH   4   5
ATOM      5  C   UNL     1      98.742  -5.847   5.988  1.00  0.00     0.041 C 
ATOM      6  O   UNL     1      97.498  -6.035   6.028  1.00  0.00    -0.550 OA
ATOM      7  O   UNL     1      99.606  -6.895   6.283  1.00  0.00    -0.550 OA
ENDBRANCH   4   5
ENDBRANCH   3   4
ENDBRANCH   2   3
ENDBRANCH   1   2
BRANCH   1   8
ATOM      8  C   UNL     1      97.227  -3.545   8.904  1.00  0.00     0.000 C 
BRANCH   8   9
ATOM      9  C   UNL     1      97.041  -2.737  10.203  1.00  0.00    -0.000 C 
BRANCH   9  10
ATOM     10  C   UNL     1      95.823  -3.191  11.024  1.00  0.00    -0.000 C 
BRANCH  10  11
ATOM     11  C   UNL     1      95.489  -4.681  10.826  1.00  0.00    -0.000 C 
BRANCH  11  12
ATOM     12  C   UNL     1      94.157  -4.963  10.109  1.00  0.00    -0.003 C 
ATOM     13  C   UNL     1      93.525  -3.710   9.504  1.00  0.00     0.004 C 
ENDBRANCH  11  12
ENDBRANCH  10  11
ENDBRANCH   9  10
ENDBRANCH   8   9
ENDBRANCH   1   8
TORSDOF 9
ENDMDL
MODEL 6
REMARK VINA RESULT:    -4.823      1.703      3.546
REMARK INTER + INTRA:          -8.658
REMARK INTER:                  -7.949
REMARK INTRA:                  -0.709
REMARK UNBOUND:                -1.297
REMARK SMILES CCCCCCCCCCC(=O)[O-]
REMARK SMILES IDX 7 1 8 2 9 3 10 4 11 5 12 6 13 7 6 8 5 9 4 10 3 11 2 12 1 13
REMARK H PARENT
REMARK Flexibility Score: inf
ROOT
ATOM      1  C   UNL     1      96.516  -4.479  10.830  1.00  0.00     0.000 C 
ENDROOT
BRANCH   1   2
ATOM      2  C   UNL     1      96.734  -2.962  10.690  1.00  0.00     0.000 C 
BRANCH   2   3
ATOM      3  C   UNL     1      97.300  -2.568   9.313  1.00  0.00     0.006 C 
BRANCH   3   4
ATOM      4  C   UNL     1      97.445  -3.739   8.327  1.00  0.00     0.053 C 
BRANCH   4   5
ATOM      5  C   UNL     1      97.990  -3.295   7.004  1.00  0.00     0.041 C 
ATOM      6  O   UNL     1      98.305  -4.147   6.131  1.00  0.00    -0.550 OA
ATOM      7  O   UNL     1      98.179  -1.943   6.746  1.00  0.00    -0.550 OA
ENDBRANCH   4   5
ENDBRANCH   3   4
ENDBRANCH   2   3
ENDBRANCH   1   2
BRANCH   1   8
ATOM      8  C   UNL     1      95.033  -4.883  10.750  1.00  0.00     0.000 C 
BRANCH   8   9
ATOM      9  C   UNL     1      94.067  -3.769  10.300  1.00  0.00    -0.000 C 
BRANCH   9  10
ATOM     10  C   UNL     1      93.395  -4.067   8.948  1.00  0.00    -0.000 C 
BRANCH  10  11
ATOM     11  C   UNL     1      93.572  -2.929   7.927  1.00  0.00    -0.000 C 
BRANCH  11  12
ATOM     12  C   UNL     1      92.293  -2.523   7.174  1.00  0.00    -0.003 C 
ATOM     13  C   UNL     1      92.433  -1.199   6.424  1.00  0.00     0.004 C 
ENDBRANCH  11  12
ENDBRANCH  10  11
ENDBRANCH   9  10
ENDBRANCH   8   9
ENDBRANCH   1   8
TORSDOF 9
ENDMDL
MODEL 7
REMARK VINA RESULT:    -4.795      3.629      5.191
REMARK INTER + INTRA:          -8.615
REMARK INTER:                  -7.817
REMARK INTRA:                  -0.798
REMARK UNBOUND:                -1.297
REMARK SMILES CCCCCCCCCCC(=O)[O-]
REMARK SMILES IDX 7 1 8 2 9 3 10 4 11 5 12 6 13 7 6 8 5 9 4 10 3 11 2 12 1 13
REMARK H PARENT
REMARK Flexibility Score: inf
ROOT
ATOM      1  C   UNL     1      94.221  -3.767  10.417  1.00  0.00     0.000 C 
ENDROOT
BRANCH   1   2
ATOM      2  C   UNL     1      93.297  -4.396   9.360  1.00  0.00     0.000 C 
BRANCH   2   3
ATOM      3  C   UNL     1      93.572  -3.866   7.940  1.00  0.00     0.006 C 
BRANCH   3   4
ATOM      4  C   UNL     1      92.679  -2.688   7.517  1.00  0.00     0.053 C 
BRANCH   4   5
ATOM      5  C   UNL     1      91.518  -3.133   6.682  1.00  0.00     0.041 C 
ATOM      6  O   UNL     1      90.653  -2.300   6.304  1.00  0.00    -0.550 OA
ATOM      7  O   UNL     1      91.374  -4.475   6.349  1.00  0.00    -0.550 OA
ENDBRANCH   4   5
ENDBRANCH   3   4
ENDBRANCH   2   3
ENDBRANCH   1   2
BRANCH   1   8
ATOM      8  C   UNL     1      95.387  -4.688  10.821  1.00  0.00     0.000 C 
BRANCH   8   9
ATOM      9  C   UNL     1      96.761  -4.001  10.943  1.00  0.00    -0.000 C 
BRANCH   9  10
ATOM     10  C   UNL     1      97.055  -3.038   9.780  1.00  0.00    -0.000 C 
BRANCH  10  11
ATOM     11  C   UNL     1      97.301  -3.766   8.447  1.00  0.00    -0.000 C 
BRANCH  11  12
ATOM     12  C   UNL     1      96.996  -2.938   7.185  1.00  0.00    -0.003 C 
ATOM     13  C   UNL     1      98.186  -2.105   6.712  1.00  0.00     0.004 C 
ENDBRANCH  11  12
ENDBRANCH  10  11
ENDBRANCH   9  10
ENDBRANCH   8   9
ENDBRANCH   1   8
TORSDOF 9
ENDMDL
MODEL 8
REMARK VINA RESULT:    -4.776      4.147      5.342
REMARK INTER + INTRA:          -8.586
REMARK INTER:                  -8.037
REMARK INTRA:                  -0.549
REMARK UNBOUND:                -1.297
REMARK SMILES CCCCCCCCCCC(=O)[O-]
REMARK SMILES IDX 7 1 8 2 9 3 10 4 11 5 12 6 13 7 6 8 5 9 4 10 3 11 2 12 1 13
REMARK H PARENT
REMARK Flexibility Score: inf
ROOT
ATOM      1  C   UNL     1      93.368  -2.132   7.152  1.00  0.00     0.000 C 
ENDROOT
BRANCH   1   2
ATOM      2  C   UNL     1      91.949  -2.711   7.290  1.00  0.00     0.000 C 
BRANCH   2   3
ATOM      3  C   UNL     1      91.107  -2.533   6.012  1.00  0.00     0.006 C 
BRANCH   3   4
ATOM      4  C   UNL     1      89.969  -3.555   5.853  1.00  0.00     0.053 C 
BRANCH   4   5
ATOM      5  C   UNL     1      90.449  -4.962   6.027  1.00  0.00     0.041 C 
ATOM      6  O   UNL     1      91.144  -5.511   5.132  1.00  0.00    -0.550 OA
ATOM      7  O   UNL     1      90.102  -5.682   7.165  1.00  0.00    -0.550 OA
ENDBRANCH   4   5
ENDBRANCH   3   4
ENDBRANCH   2   3
ENDBRANCH   1   2
BRANCH   1   8
ATOM      8  C   UNL     1      94.404  -2.867   8.021  1.00  0.00     0.000 C 
BRANCH   8   9
ATOM      9  C   UNL     1      93.829  -3.912   8.997  1.00  0.00    -0.000 C 
BRANCH   9  10
ATOM     10  C   UNL     1      94.325  -3.722  10.440  1.00  0.00    -0.000 C 
BRANCH  10  11
ATOM     11  C   UNL     1      95.389  -4.757  10.849  1.00  0.00    -0.000 C 
BRANCH  11  12
ATOM     12  C   UNL     1      96.835  -4.229  10.881  1.00  0.00    -0.003 C 
ATOM     13  C   UNL     1      96.916  -2.704  10.918  1.00  0.00     0.004 C 
ENDBRANCH  11  12
ENDBRANCH  10  11
ENDBRANCH   9  10
ENDBRANCH   8   9
ENDBRANCH   1   8
TORSDOF 9
ENDMDL
MODEL 9
REMARK VINA RESULT:    -4.763      1.197      3.060
REMARK INTER + INTRA:          -8.566
REMARK INTER:                  -7.529
REMARK INTRA:                  -1.037
REMARK UNBOUND:                -1.297
REMARK SMILES CCCCCCCCCCC(=O)[O-]
REMARK SMILES IDX 7 1 8 2 9 3 10 4 11 5 12 6 13 7 6 8 5 9 4 10 3 11 2 12 1 13
REMARK H PARENT
REMARK Flexibility Score: inf
ROOT
ATOM      1  C   UNL     1      96.748  -2.628  10.133  1.00  0.00     0.000 C 
ENDROOT
BRANCH   1   2
ATOM      2  C   UNL     1      97.614  -2.686   8.863  1.00  0.00     0.000 C 
BRANCH   2   3
ATOM      3  C   UNL     1      96.801  -3.050   7.606  1.00  0.00     0.006 C 
BRANCH   3   4
ATOM      4  C   UNL     1      96.752  -4.555   7.294  1.00  0.00     0.053 C 
BRANCH   4   5
ATOM      5  C   UNL     1      97.860  -4.977   6.380  1.00  0.00     0.041 C 
ATOM      6  O   UNL     1      98.672  -4.124   5.933  1.00  0.00    -0.550 OA
ATOM      7  O   UNL     1      97.979  -6.307   5.996  1.00  0.00    -0.550 OA
ENDBRANCH   4   5
ENDBRANCH   3   4
ENDBRANCH   2   3
ENDBRANCH   1   2
BRANCH   1   8
ATOM      8  C   UNL     1      96.700  -3.968  10.890  1.00  0.00     0.000 C 
BRANCH   8   9
ATOM      9  C   UNL     1      95.348  -4.705  10.846  1.00  0.00    -0.000 C 
BRANCH   9  10
ATOM     10  C   UNL     1      94.177  -3.788  10.453  1.00  0.00    -0.000 C 
BRANCH  10  11
ATOM     11  C   UNL     1      93.419  -4.284   9.209  1.00  0.00    -0.000 C 
BRANCH  11  12
ATOM     12  C   UNL     1      93.179  -3.220   8.123  1.00  0.00    -0.003 C 
ATOM     13  C   UNL     1      92.112  -3.628   7.108  1.00  0.00     0.004 C 
ENDBRANCH  11  12
ENDBRANCH  10  11
ENDBRANCH   9  10
ENDBRANCH   8   9
ENDBRANCH   1   8
TORSDOF 9
ENDMDL
