MODEL 1
REMARK VINA RESULT:    -6.370      0.000      0.000
REMARK INTER + INTRA:          -7.921
REMARK INTER:                  -7.673
REMARK INTRA:                  -0.248
REMARK UNBOUND:                -0.248
REMARK SMILES O=c1c(O)c(-c2ccc(O)c(O)c2)oc2cc(O)cc(O)c12
REMARK SMILES IDX 5 1 3 2 2 3 1 4 22 5 20 6 19 7 17 8 16 9 15 10 14 11 6 12
REMARK SMILES IDX 7 13 8 14 9 15 13 16 11 17 10 18 12 20 4 22 21 24 18 26
REMARK H PARENT 10 19 12 21 4 23 21 25 18 27
REMARK Flexibility Score: inf
ROOT
ATOM      1  C   UNL     1     135.627 101.738  94.089  1.00  0.00     0.180 A 
ATOM      2  C   UNL     1     136.185 102.888  93.505  1.00  0.00     0.208 A 
ATOM      3  C   UNL     1     135.435 104.075  93.484  1.00  0.00     0.238 A 
ATOM      4  O   UNL     1     135.918 105.086  92.911  1.00  0.00    -0.285 OA
ATOM      5  C   UNL     1     134.141 104.100  94.059  1.00  0.00     0.111 A 
ATOM      6  C   UNL     1     133.308 105.257  94.130  1.00  0.00     0.134 A 
ATOM      7  C   UNL     1     131.997 105.136  94.604  1.00  0.00     0.093 A 
ATOM      8  C   UNL     1     131.510 103.914  95.073  1.00  0.00     0.123 A 
ATOM      9  C   UNL     1     132.336 102.792  95.064  1.00  0.00     0.094 A 
ATOM     10  C   UNL     1     133.637 102.873  94.563  1.00  0.00     0.146 A 
ATOM     11  O   UNL     1     134.387 101.778  94.562  1.00  0.00    -0.452 OA
ENDROOT
BRANCH   1  12
ATOM     12  C   UNL     1     136.367 100.459  94.173  1.00  0.00     0.025 A 
ATOM     13  C   UNL     1     135.931  99.358  93.417  1.00  0.00     0.016 A 
ATOM     14  C   UNL     1     136.602  98.135  93.496  1.00  0.00     0.051 A 
ATOM     15  C   UNL     1     137.708  97.990  94.343  1.00  0.00     0.157 A 
ATOM     16  C   UNL     1     137.465 100.302  95.037  1.00  0.00     0.062 A 
ATOM     17  C   UNL     1     138.138  99.074  95.119  1.00  0.00     0.158 A 
BRANCH  15  18
ATOM     18  O   UNL     1     138.380  96.772  94.424  1.00  0.00    -0.504 OA
ATOM     19  H   UNL     1     138.108  96.059  95.090  1.00  0.00     0.293 HD
ENDBRANCH  15  18
BRANCH  17  20
ATOM     20  O   UNL     1     139.230  98.923  95.971  1.00  0.00    -0.504 OA
ATOM     21  H   UNL     1     139.985  98.282  95.757  1.00  0.00     0.293 HD
ENDBRANCH  17  20
ENDBRANCH   1  12
BRANCH   2  22
ATOM     22  O   UNL     1     137.455 102.835  92.922  1.00  0.00    -0.502 OA
ATOM     23  H   UNL     1     137.876 101.966  92.616  1.00  0.00     0.293 HD
ENDBRANCH   2  22
BRANCH   6  24
ATOM     24  O   UNL     1     133.727 106.543  93.774  1.00  0.00    -0.507 OA
ATOM     25  H   UNL     1     134.651 106.911  93.937  1.00  0.00     0.293 HD
ENDBRANCH   6  24
BRANCH   8  26
ATOM     26  O   UNL     1     130.209 103.805  95.558  1.00  0.00    -0.508 OA
ATOM     27  H   UNL     1     130.007 103.855  96.549  1.00  0.00     0.293 HD
ENDBRANCH   8  26
TORSDOF 6
ENDMDL
MODEL 2
REMARK VINA RESULT:    -6.192      1.639      6.407
REMARK INTER + INTRA:          -7.707
REMARK INTER:                  -7.516
REMARK INTRA:                  -0.191
REMARK UNBOUND:                -0.248
REMARK SMILES O=c1c(O)c(-c2ccc(O)c(O)c2)oc2cc(O)cc(O)c12
REMARK SMILES IDX 5 1 3 2 2 3 1 4 22 5 20 6 19 7 17 8 16 9 15 10 14 11 6 12
REMARK SMILES IDX 7 13 8 14 9 15 13 16 11 17 10 18 12 20 4 22 21 24 18 26
REMARK H PARENT 10 19 12 21 4 23 21 25 18 27
REMARK Flexibility Score: inf
ROOT
ATOM      1  C   UNL     1     134.711 102.241  94.097  1.00  0.00     0.180 A 
ATOM      2  C   UNL     1     135.537 103.376  94.020  1.00  0.00     0.208 A 
ATOM      3  C   UNL     1     136.925 103.219  94.169  1.00  0.00     0.238 A 
ATOM      4  O   UNL     1     137.654 104.244  94.153  1.00  0.00    -0.285 OA
ATOM      5  C   UNL     1     137.469 101.929  94.378  1.00  0.00     0.111 A 
ATOM      6  C   UNL     1     138.863 101.648  94.503  1.00  0.00     0.134 A 
ATOM      7  C   UNL     1     139.280 100.355  94.838  1.00  0.00     0.093 A 
ATOM      8  C   UNL     1     138.357  99.317  94.987  1.00  0.00     0.123 A 
ATOM      9  C   UNL     1     136.999  99.568  94.809  1.00  0.00     0.094 A 
ATOM     10  C   UNL     1     136.550 100.857  94.510  1.00  0.00     0.146 A 
ATOM     11  O   UNL     1     135.246 101.055  94.359  1.00  0.00    -0.452 OA
ENDROOT
BRANCH   1  12
ATOM     12  C   UNL     1     133.243 102.324  93.924  1.00  0.00     0.025 A 
ATOM     13  C   UNL     1     132.652 101.791  92.766  1.00  0.00     0.016 A 
ATOM     14  C   UNL     1     131.272 101.877  92.572  1.00  0.00     0.051 A 
ATOM     15  C   UNL     1     130.463 102.510  93.524  1.00  0.00     0.157 A 
ATOM     16  C   UNL     1     132.429 102.977  94.867  1.00  0.00     0.062 A 
ATOM     17  C   UNL     1     131.042 103.065  94.672  1.00  0.00     0.158 A 
BRANCH  15  18
ATOM     18  O   UNL     1     129.085 102.596  93.335  1.00  0.00    -0.504 OA
ATOM     19  H   UNL     1     128.583 101.916  92.774  1.00  0.00     0.293 HD
ENDBRANCH  15  18
BRANCH  17  20
ATOM     20  O   UNL     1     130.237 103.706  95.611  1.00  0.00    -0.504 OA
ATOM     21  H   UNL     1     129.782 104.587  95.406  1.00  0.00     0.293 HD
ENDBRANCH  17  20
ENDBRANCH   1  12
BRANCH   2  22
ATOM     22  O   UNL     1     134.977 104.643  93.835  1.00  0.00    -0.502 OA
ATOM     23  H   UNL     1     135.541 105.470  93.683  1.00  0.00     0.293 HD
ENDBRANCH   2  22
BRANCH   6  24
ATOM     24  O   UNL     1     139.872 102.591  94.283  1.00  0.00    -0.507 OA
ATOM     25  H   UNL     1     140.538 102.553  93.527  1.00  0.00     0.293 HD
ENDBRANCH   6  24
BRANCH   8  26
ATOM     26  O   UNL     1     138.781  98.028  95.305  1.00  0.00    -0.508 OA
ATOM     27  H   UNL     1     138.689  97.656  96.243  1.00  0.00     0.293 HD
ENDBRANCH   8  26
TORSDOF 6
ENDMDL
MODEL 3
REMARK VINA RESULT:    -5.840      1.756      1.869
REMARK INTER + INTRA:          -7.283
REMARK INTER:                  -7.092
REMARK INTRA:                  -0.190
REMARK UNBOUND:                -0.248
REMARK SMILES O=c1c(O)c(-c2ccc(O)c(O)c2)oc2cc(O)cc(O)c12
REMARK SMILES IDX 5 1 3 2 2 3 1 4 22 5 20 6 19 7 17 8 16 9 15 10 14 11 6 12
REMARK SMILES IDX 7 13 8 14 9 15 13 16 11 17 10 18 12 20 4 22 21 24 18 26
REMARK H PARENT 10 19 12 21 4 23 21 25 18 27
REMARK Flexibility Score: inf
ROOT
ATOM      1  C   UNL     1     135.221 101.399  93.687  1.00  0.00     0.180 A 
ATOM      2  C   UNL     1     135.183 101.794  92.338  1.00  0.00     0.208 A 
ATOM      3  C   UNL     1     134.109 102.578  91.887  1.00  0.00     0.238 A 
ATOM      4  O   UNL     1     134.053 102.883  90.668  1.00  0.00    -0.285 OA
ATOM      5  C   UNL     1     133.094 102.969  92.794  1.00  0.00     0.111 A 
ATOM      6  C   UNL     1     131.981 103.796  92.456  1.00  0.00     0.134 A 
ATOM      7  C   UNL     1     130.969 104.012  93.400  1.00  0.00     0.093 A 
ATOM      8  C   UNL     1     131.064 103.485  94.690  1.00  0.00     0.123 A 
ATOM      9  C   UNL     1     132.176 102.727  95.048  1.00  0.00     0.094 A 
ATOM     10  C   UNL     1     133.183 102.464  94.117  1.00  0.00     0.146 A 
ATOM     11  O   UNL     1     134.221 101.727  94.496  1.00  0.00    -0.452 OA
ENDROOT
BRANCH   1  12
ATOM     12  C   UNL     1     136.333 100.594  94.240  1.00  0.00     0.025 A 
ATOM     13  C   UNL     1     136.475  99.251  93.853  1.00  0.00     0.016 A 
ATOM     14  C   UNL     1     137.505  98.468  94.379  1.00  0.00     0.051 A 
ATOM     15  C   UNL     1     138.399  99.010  95.312  1.00  0.00     0.157 A 
ATOM     16  C   UNL     1     137.221 101.128  95.192  1.00  0.00     0.062 A 
ATOM     17  C   UNL     1     138.254 100.341  95.723  1.00  0.00     0.158 A 
BRANCH  15  18
ATOM     18  O   UNL     1     139.428  98.232  95.837  1.00  0.00    -0.504 OA
ATOM     19  H   UNL     1     139.243  97.350  96.301  1.00  0.00     0.293 HD
ENDBRANCH  15  18
BRANCH  17  20
ATOM     20  O   UNL     1     139.137 100.873  96.660  1.00  0.00    -0.504 OA
ATOM     21  H   UNL     1     139.985 100.388  96.926  1.00  0.00     0.293 HD
ENDBRANCH  17  20
ENDBRANCH   1  12
BRANCH   2  22
ATOM     22  O   UNL     1     136.184 101.378  91.455  1.00  0.00    -0.502 OA
ATOM     23  H   UNL     1     136.916 101.999  91.131  1.00  0.00     0.293 HD
ENDBRANCH   2  22
BRANCH   6  24
ATOM     24  O   UNL     1     131.835 104.445  91.226  1.00  0.00    -0.507 OA
ATOM     25  H   UNL     1     132.178 104.091  90.346  1.00  0.00     0.293 HD
ENDBRANCH   6  24
BRANCH   8  26
ATOM     26  O   UNL     1     130.060 103.718  95.628  1.00  0.00    -0.508 OA
ATOM     27  H   UNL     1     129.781 104.658  95.883  1.00  0.00     0.293 HD
ENDBRANCH   8  26
TORSDOF 6
ENDMDL
MODEL 4
REMARK VINA RESULT:    -5.643      2.268      3.404
REMARK INTER + INTRA:          -7.045
REMARK INTER:                  -6.775
REMARK INTRA:                  -0.270
REMARK UNBOUND:                -0.248
REMARK SMILES O=c1c(O)c(-c2ccc(O)c(O)c2)oc2cc(O)cc(O)c12
REMARK SMILES IDX 5 1 3 2 2 3 1 4 22 5 20 6 19 7 17 8 16 9 15 10 14 11 6 12
REMARK SMILES IDX 7 13 8 14 9 15 13 16 11 17 10 18 12 20 4 22 21 24 18 26
REMARK H PARENT 10 19 12 21 4 23 21 25 18 27
REMARK Flexibility Score: inf
ROOT
ATOM      1  C   UNL     1     135.296 102.659  94.427  1.00  0.00     0.180 A 
ATOM      2  C   UNL     1     134.726 103.560  95.343  1.00  0.00     0.208 A 
ATOM      3  C   UNL     1     133.333 103.741  95.343  1.00  0.00     0.238 A 
ATOM      4  O   UNL     1     132.834 104.589  96.127  1.00  0.00    -0.285 OA
ATOM      5  C   UNL     1     132.528 103.008  94.437  1.00  0.00     0.111 A 
ATOM      6  C   UNL     1     131.104 103.082  94.376  1.00  0.00     0.134 A 
ATOM      7  C   UNL     1     130.421 102.412  93.355  1.00  0.00     0.093 A 
ATOM      8  C   UNL     1     131.104 101.616  92.433  1.00  0.00     0.123 A 
ATOM      9  C   UNL     1     132.488 101.489  92.520  1.00  0.00     0.094 A 
ATOM     10  C   UNL     1     133.202 102.175  93.507  1.00  0.00     0.146 A 
ATOM     11  O   UNL     1     134.521 102.036  93.548  1.00  0.00    -0.452 OA
ENDROOT
BRANCH   1  12
ATOM     12  C   UNL     1     136.753 102.396  94.386  1.00  0.00     0.025 A 
ATOM     13  C   UNL     1     137.605 103.322  93.763  1.00  0.00     0.016 A 
ATOM     14  C   UNL     1     138.979 103.085  93.693  1.00  0.00     0.051 A 
ATOM     15  C   UNL     1     139.521 101.910  94.231  1.00  0.00     0.157 A 
ATOM     16  C   UNL     1     137.299 101.208  94.906  1.00  0.00     0.062 A 
ATOM     17  C   UNL     1     138.679 100.967  94.835  1.00  0.00     0.158 A 
BRANCH  15  18
ATOM     18  O   UNL     1     140.892 101.670  94.165  1.00  0.00    -0.504 OA
ATOM     19  H   UNL     1     141.545 102.153  94.771  1.00  0.00     0.293 HD
ENDBRANCH  15  18
BRANCH  17  20
ATOM     20  O   UNL     1     139.219  99.794  95.357  1.00  0.00    -0.504 OA
ATOM     21  H   UNL     1     138.698  98.925  95.357  1.00  0.00     0.293 HD
ENDBRANCH  17  20
ENDBRANCH   1  12
BRANCH   2  22
ATOM     22  O   UNL     1     135.541 104.289  96.213  1.00  0.00    -0.502 OA
ATOM     23  H   UNL     1     136.517 104.476  96.015  1.00  0.00     0.293 HD
ENDBRANCH   2  22
BRANCH   6  24
ATOM     24  O   UNL     1     130.318 103.774  95.303  1.00  0.00    -0.507 OA
ATOM     25  H   UNL     1     129.318 103.678  95.393  1.00  0.00     0.293 HD
ENDBRANCH   6  24
BRANCH   8  26
ATOM     26  O   UNL     1     130.415 100.939  91.429  1.00  0.00    -0.508 OA
ATOM     27  H   UNL     1     130.311  99.932  91.444  1.00  0.00     0.293 HD
ENDBRANCH   8  26
TORSDOF 6
ENDMDL
MODEL 5
REMARK VINA RESULT:    -5.637      1.860      6.884
REMARK INTER + INTRA:          -7.038
REMARK INTER:                  -6.712
REMARK INTRA:                  -0.326
REMARK UNBOUND:                -0.248
REMARK SMILES O=c1c(O)c(-c2ccc(O)c(O)c2)oc2cc(O)cc(O)c12
REMARK SMILES IDX 5 1 3 2 2 3 1 4 22 5 20 6 19 7 17 8 16 9 15 10 14 11 6 12
REMARK SMILES IDX 7 13 8 14 9 15 13 16 11 17 10 18 12 20 4 22 21 24 18 26
REMARK H PARENT 10 19 12 21 4 23 21 25 18 27
REMARK Flexibility Score: inf
ROOT
ATOM      1  C   UNL     1     134.334 102.604  94.106  1.00  0.00     0.180 A 
ATOM      2  C   UNL     1     135.562 102.764  94.771  1.00  0.00     0.208 A 
ATOM      3  C   UNL     1     136.619 101.889  94.470  1.00  0.00     0.238 A 
ATOM      4  O   UNL     1     137.698 102.003  95.107  1.00  0.00    -0.285 OA
ATOM      5  C   UNL     1     136.439 100.875  93.498  1.00  0.00     0.111 A 
ATOM      6  C   UNL     1     137.453  99.959  93.085  1.00  0.00     0.134 A 
ATOM      7  C   UNL     1     137.126  98.915  92.212  1.00  0.00     0.093 A 
ATOM      8  C   UNL     1     135.839  98.794  91.685  1.00  0.00     0.123 A 
ATOM      9  C   UNL     1     134.858  99.718  92.034  1.00  0.00     0.094 A 
ATOM     10  C   UNL     1     135.144 100.750  92.932  1.00  0.00     0.146 A 
ATOM     11  O   UNL     1     134.177 101.603  93.248  1.00  0.00    -0.452 OA
ENDROOT
BRANCH   1  12
ATOM     12  C   UNL     1     133.183 103.502  94.351  1.00  0.00     0.025 A 
ATOM     13  C   UNL     1     132.163 103.096  95.226  1.00  0.00     0.016 A 
ATOM     14  C   UNL     1     131.058 103.918  95.456  1.00  0.00     0.051 A 
ATOM     15  C   UNL     1     130.948 105.152  94.802  1.00  0.00     0.157 A 
ATOM     16  C   UNL     1     133.058 104.733  93.681  1.00  0.00     0.062 A 
ATOM     17  C   UNL     1     131.948 105.559  93.909  1.00  0.00     0.158 A 
BRANCH  15  18
ATOM     18  O   UNL     1     129.848 105.977  95.029  1.00  0.00    -0.504 OA
ATOM     19  H   UNL     1     128.905 105.606  95.065  1.00  0.00     0.293 HD
ENDBRANCH  15  18
BRANCH  17  20
ATOM     20  O   UNL     1     131.830 106.781  93.250  1.00  0.00    -0.504 OA
ATOM     21  H   UNL     1     130.994 107.026  92.733  1.00  0.00     0.293 HD
ENDBRANCH  17  20
ENDBRANCH   1  12
BRANCH   2  22
ATOM     22  O   UNL     1     135.711 103.757  95.743  1.00  0.00    -0.502 OA
ATOM     23  H   UNL     1     136.016 104.697  95.518  1.00  0.00     0.293 HD
ENDBRANCH   2  22
BRANCH   6  24
ATOM     24  O   UNL     1     138.791 100.047  93.481  1.00  0.00    -0.507 OA
ATOM     25  H   UNL     1     139.564  99.631  92.985  1.00  0.00     0.293 HD
ENDBRANCH   6  24
BRANCH   8  26
ATOM     26  O   UNL     1     135.526  97.761  90.803  1.00  0.00    -0.508 OA
ATOM     27  H   UNL     1     135.400  97.930  89.812  1.00  0.00     0.293 HD
ENDBRANCH   8  26
TORSDOF 6
ENDMDL
MODEL 6
REMARK VINA RESULT:    -5.630      4.498      6.251
REMARK INTER + INTRA:          -7.030
REMARK INTER:                  -6.717
REMARK INTRA:                  -0.313
REMARK UNBOUND:                -0.248
REMARK SMILES O=c1c(O)c(-c2ccc(O)c(O)c2)oc2cc(O)cc(O)c12
REMARK SMILES IDX 5 1 3 2 2 3 1 4 22 5 20 6 19 7 17 8 16 9 15 10 14 11 6 12
REMARK SMILES IDX 7 13 8 14 9 15 13 16 11 17 10 18 12 20 4 22 21 24 18 26
REMARK H PARENT 10 19 12 21 4 23 21 25 18 27
REMARK Flexibility Score: inf
ROOT
ATOM      1  C   UNL     1     136.032  99.270  91.999  1.00  0.00     0.180 A 
ATOM      2  C   UNL     1     136.878  99.908  91.075  1.00  0.00     0.208 A 
ATOM      3  C   UNL     1     138.048 100.531  91.540  1.00  0.00     0.238 A 
ATOM      4  O   UNL     1     138.773 101.147  90.717  1.00  0.00    -0.285 OA
ATOM      5  C   UNL     1     138.364 100.495  92.920  1.00  0.00     0.111 A 
ATOM      6  C   UNL     1     139.542 101.058  93.496  1.00  0.00     0.134 A 
ATOM      7  C   UNL     1     139.688 101.079  94.888  1.00  0.00     0.093 A 
ATOM      8  C   UNL     1     138.730 100.497  95.722  1.00  0.00     0.123 A 
ATOM      9  C   UNL     1     137.605  99.892  95.166  1.00  0.00     0.094 A 
ATOM     10  C   UNL     1     137.414  99.888  93.782  1.00  0.00     0.146 A 
ATOM     11  O   UNL     1     136.323  99.311  93.293  1.00  0.00    -0.452 OA
ENDROOT
BRANCH   1  12
ATOM     12  C   UNL     1     134.796  98.571  91.581  1.00  0.00     0.025 A 
ATOM     13  C   UNL     1     133.604  99.300  91.438  1.00  0.00     0.016 A 
ATOM     14  C   UNL     1     132.421  98.657  91.065  1.00  0.00     0.051 A 
ATOM     15  C   UNL     1     132.409  97.273  90.845  1.00  0.00     0.157 A 
ATOM     16  C   UNL     1     134.774  97.179  91.379  1.00  0.00     0.062 A 
ATOM     17  C   UNL     1     133.586  96.532  91.006  1.00  0.00     0.158 A 
BRANCH  15  18
ATOM     18  O   UNL     1     131.232  96.628  90.472  1.00  0.00    -0.504 OA
ATOM     19  H   UNL     1     130.400  97.148  90.216  1.00  0.00     0.293 HD
ENDBRANCH  15  18
BRANCH  17  20
ATOM     20  O   UNL     1     133.568  95.154  90.800  1.00  0.00    -0.504 OA
ATOM     21  H   UNL     1     133.377  94.507  91.555  1.00  0.00     0.293 HD
ENDBRANCH  17  20
ENDBRANCH   1  12
BRANCH   2  22
ATOM     22  O   UNL     1     136.536  99.951  89.721  1.00  0.00    -0.502 OA
ATOM     23  H   UNL     1     136.669 100.779  89.152  1.00  0.00     0.293 HD
ENDBRANCH   2  22
BRANCH   6  24
ATOM     24  O   UNL     1     140.602 101.582  92.750  1.00  0.00    -0.507 OA
ATOM     25  H   UNL     1     141.317 101.029  92.302  1.00  0.00     0.293 HD
ENDBRANCH   6  24
BRANCH   8  26
ATOM     26  O   UNL     1     138.890 100.507  97.106  1.00  0.00    -0.508 OA
ATOM     27  H   UNL     1     138.765  99.669  97.660  1.00  0.00     0.293 HD
ENDBRANCH   8  26
TORSDOF 6
ENDMDL
MODEL 7
REMARK VINA RESULT:    -5.628      1.789      7.026
REMARK INTER + INTRA:          -7.027
REMARK INTER:                  -6.720
REMARK INTRA:                  -0.307
REMARK UNBOUND:                -0.248
REMARK SMILES O=c1c(O)c(-c2ccc(O)c(O)c2)oc2cc(O)cc(O)c12
REMARK SMILES IDX 5 1 3 2 2 3 1 4 22 5 20 6 19 7 17 8 16 9 15 10 14 11 6 12
REMARK SMILES IDX 7 13 8 14 9 15 13 16 11 17 10 18 12 20 4 22 21 24 18 26
REMARK H PARENT 10 19 12 21 4 23 21 25 18 27
REMARK Flexibility Score: inf
ROOT
ATOM      1  C   UNL     1     134.092 101.837  93.513  1.00  0.00     0.180 A 
ATOM      2  C   UNL     1     134.006 101.264  92.233  1.00  0.00     0.208 A 
ATOM      3  C   UNL     1     134.926 100.267  91.869  1.00  0.00     0.238 A 
ATOM      4  O   UNL     1     134.878  99.797  90.703  1.00  0.00    -0.285 OA
ATOM      5  C   UNL     1     135.910  99.846  92.796  1.00  0.00     0.111 A 
ATOM      6  C   UNL     1     136.867  98.816  92.549  1.00  0.00     0.134 A 
ATOM      7  C   UNL     1     137.876  98.571  93.488  1.00  0.00     0.093 A 
ATOM      8  C   UNL     1     137.923  99.274  94.694  1.00  0.00     0.123 A 
ATOM      9  C   UNL     1     136.958 100.239  94.970  1.00  0.00     0.094 A 
ATOM     10  C   UNL     1     135.960 100.531  94.037  1.00  0.00     0.146 A 
ATOM     11  O   UNL     1     135.066 101.466  94.335  1.00  0.00    -0.452 OA
ENDROOT
BRANCH   1  12
ATOM     12  C   UNL     1     133.142 102.874  93.977  1.00  0.00     0.025 A 
ATOM     13  C   UNL     1     132.008 102.493  94.713  1.00  0.00     0.016 A 
ATOM     14  C   UNL     1     131.088 103.451  95.142  1.00  0.00     0.051 A 
ATOM     15  C   UNL     1     131.278 104.803  94.829  1.00  0.00     0.157 A 
ATOM     16  C   UNL     1     133.319 104.230  93.648  1.00  0.00     0.062 A 
ATOM     17  C   UNL     1     132.394 105.193  94.077  1.00  0.00     0.158 A 
BRANCH  15  18
ATOM     18  O   UNL     1     130.363 105.763  95.257  1.00  0.00    -0.504 OA
ATOM     19  H   UNL     1     129.669 105.556  95.966  1.00  0.00     0.293 HD
ENDBRANCH  15  18
BRANCH  17  20
ATOM     20  O   UNL     1     132.574 106.537  93.756  1.00  0.00    -0.504 OA
ATOM     21  H   UNL     1     133.269 106.833  93.081  1.00  0.00     0.293 HD
ENDBRANCH  17  20
ENDBRANCH   1  12
BRANCH   2  22
ATOM     22  O   UNL     1     133.041 101.711  91.326  1.00  0.00    -0.502 OA
ATOM     23  H   UNL     1     132.055 101.499  91.432  1.00  0.00     0.293 HD
ENDBRANCH   2  22
BRANCH   6  24
ATOM     24  O   UNL     1     136.854  97.993  91.418  1.00  0.00    -0.507 OA
ATOM     25  H   UNL     1     136.165  97.279  91.236  1.00  0.00     0.293 HD
ENDBRANCH   6  24
BRANCH   8  26
ATOM     26  O   UNL     1     138.921  99.013  95.630  1.00  0.00    -0.508 OA
ATOM     27  H   UNL     1     139.580  98.254  95.505  1.00  0.00     0.293 HD
ENDBRANCH   8  26
TORSDOF 6
ENDMDL
MODEL 8
REMARK VINA RESULT:    -5.282      5.541      8.845
REMARK INTER + INTRA:          -6.611
REMARK INTER:                  -6.299
REMARK INTRA:                  -0.312
REMARK UNBOUND:                -0.248
REMARK SMILES O=c1c(O)c(-c2ccc(O)c(O)c2)oc2cc(O)cc(O)c12
REMARK SMILES IDX 5 1 3 2 2 3 1 4 22 5 20 6 19 7 17 8 16 9 15 10 14 11 6 12
REMARK SMILES IDX 7 13 8 14 9 15 13 16 11 17 10 18 12 20 4 22 21 24 18 26
REMARK H PARENT 10 19 12 21 4 23 21 25 18 27
REMARK Flexibility Score: inf
ROOT
ATOM      1  C   UNL     1     131.077  99.652  91.165  1.00  0.00     0.180 A 
ATOM      2  C   UNL     1     132.466  99.443  91.125  1.00  0.00     0.208 A 
ATOM      3  C   UNL     1     132.955  98.128  91.057  1.00  0.00     0.238 A 
ATOM      4  O   UNL     1     134.200  97.944  91.076  1.00  0.00    -0.285 OA
ATOM      5  C   UNL     1     132.049  97.041  91.015  1.00  0.00     0.111 A 
ATOM      6  C   UNL     1     132.432  95.670  90.905  1.00  0.00     0.134 A 
ATOM      7  C   UNL     1     131.457  94.671  91.003  1.00  0.00     0.093 A 
ATOM      8  C   UNL     1     130.105  94.994  91.141  1.00  0.00     0.123 A 
ATOM      9  C   UNL     1     129.715  96.330  91.189  1.00  0.00     0.094 A 
ATOM     10  C   UNL     1     130.669  97.350  91.130  1.00  0.00     0.146 A 
ATOM     11  O   UNL     1     130.256  98.610  91.190  1.00  0.00    -0.452 OA
ENDROOT
BRANCH   1  12
ATOM     12  C   UNL     1     130.487 101.009  91.211  1.00  0.00     0.025 A 
ATOM     13  C   UNL     1     130.326 101.734  90.019  1.00  0.00     0.016 A 
ATOM     14  C   UNL     1     129.791 103.024  90.041  1.00  0.00     0.051 A 
ATOM     15  C   UNL     1     129.423 103.615  91.256  1.00  0.00     0.157 A 
ATOM     16  C   UNL     1     130.135 101.615  92.431  1.00  0.00     0.062 A 
ATOM     17  C   UNL     1     129.600 102.911  92.455  1.00  0.00     0.158 A 
BRANCH  15  18
ATOM     18  O   UNL     1     128.888 104.901  91.283  1.00  0.00    -0.504 OA
ATOM     19  H   UNL     1     129.061 105.533  92.056  1.00  0.00     0.293 HD
ENDBRANCH  15  18
BRANCH  17  20
ATOM     20  O   UNL     1     129.246 103.507  93.664  1.00  0.00    -0.504 OA
ATOM     21  H   UNL     1     128.682 104.348  93.696  1.00  0.00     0.293 HD
ENDBRANCH  17  20
ENDBRANCH   1  12
BRANCH   2  22
ATOM     22  O   UNL     1     133.343 100.529  91.191  1.00  0.00    -0.502 OA
ATOM     23  H   UNL     1     133.676 100.908  92.070  1.00  0.00     0.293 HD
ENDBRANCH   2  22
BRANCH   6  24
ATOM     24  O   UNL     1     133.743  95.243  90.674  1.00  0.00    -0.507 OA
ATOM     25  H   UNL     1     134.235  95.347  89.800  1.00  0.00     0.293 HD
ENDBRANCH   6  24
BRANCH   8  26
ATOM     26  O   UNL     1     129.139  93.994  91.222  1.00  0.00    -0.508 OA
ATOM     27  H   UNL     1     129.279  93.086  90.794  1.00  0.00     0.293 HD
ENDBRANCH   8  26
TORSDOF 6
ENDMDL
MODEL 9
REMARK VINA RESULT:    -5.235      4.920      5.703
REMARK INTER + INTRA:          -6.554
REMARK INTER:                  -6.231
REMARK INTRA:                  -0.323
REMARK UNBOUND:                -0.248
REMARK SMILES O=c1c(O)c(-c2ccc(O)c(O)c2)oc2cc(O)cc(O)c12
REMARK SMILES IDX 5 1 3 2 2 3 1 4 22 5 20 6 19 7 17 8 16 9 15 10 14 11 6 12
REMARK SMILES IDX 7 13 8 14 9 15 13 16 11 17 10 18 12 20 4 22 21 24 18 26
REMARK H PARENT 10 19 12 21 4 23 21 25 18 27
REMARK Flexibility Score: inf
ROOT
ATOM      1  C   UNL     1     131.099 100.706  91.268  1.00  0.00     0.180 A 
ATOM      2  C   UNL     1     131.402 101.536  90.175  1.00  0.00     0.208 A 
ATOM      3  C   UNL     1     131.582 102.911  90.393  1.00  0.00     0.238 A 
ATOM      4  O   UNL     1     131.797 103.658  89.404  1.00  0.00    -0.285 OA
ATOM      5  C   UNL     1     131.471 103.437  91.704  1.00  0.00     0.111 A 
ATOM      6  C   UNL     1     131.673 104.807  92.047  1.00  0.00     0.134 A 
ATOM      7  C   UNL     1     131.410 105.238  93.353  1.00  0.00     0.093 A 
ATOM      8  C   UNL     1     131.018 104.335  94.344  1.00  0.00     0.123 A 
ATOM      9  C   UNL     1     130.876 102.985  94.033  1.00  0.00     0.094 A 
ATOM     10  C   UNL     1     131.096 102.531  92.730  1.00  0.00     0.146 A 
ATOM     11  O   UNL     1     130.939 101.238  92.473  1.00  0.00    -0.452 OA
ENDROOT
BRANCH   1  12
ATOM     12  C   UNL     1     130.922  99.244  91.120  1.00  0.00     0.025 A 
ATOM     13  C   UNL     1     129.625  98.708  91.050  1.00  0.00     0.016 A 
ATOM     14  C   UNL     1     129.434  97.330  90.932  1.00  0.00     0.051 A 
ATOM     15  C   UNL     1     130.534  96.464  90.897  1.00  0.00     0.157 A 
ATOM     16  C   UNL     1     132.023  98.369  91.105  1.00  0.00     0.062 A 
ATOM     17  C   UNL     1     131.832  96.984  90.989  1.00  0.00     0.158 A 
BRANCH  15  18
ATOM     18  O   UNL     1     130.348  95.089  90.778  1.00  0.00    -0.504 OA
ATOM     19  H   UNL     1     131.077  94.483  90.419  1.00  0.00     0.293 HD
ENDBRANCH  15  18
BRANCH  17  20
ATOM     20  O   UNL     1     132.925  96.120  90.967  1.00  0.00    -0.504 OA
ATOM     21  H   UNL     1     132.884  95.203  91.396  1.00  0.00     0.293 HD
ENDBRANCH  17  20
ENDBRANCH   1  12
BRANCH   2  22
ATOM     22  O   UNL     1     131.483 101.000  88.886  1.00  0.00    -0.502 OA
ATOM     23  H   UNL     1     131.780 100.047  88.711  1.00  0.00     0.293 HD
ENDBRANCH   2  22
BRANCH   6  24
ATOM     24  O   UNL     1     132.152 105.772  91.156  1.00  0.00    -0.507 OA
ATOM     25  H   UNL     1     132.922 105.635  90.520  1.00  0.00     0.293 HD
ENDBRANCH   6  24
BRANCH   8  26
ATOM     26  O   UNL     1     130.774 104.769  95.645  1.00  0.00    -0.508 OA
ATOM     27  H   UNL     1     129.848 104.725  96.053  1.00  0.00     0.293 HD
ENDBRANCH   8  26
TORSDOF 6
ENDMDL
