MODEL 1
REMARK VINA RESULT:    -5.686      0.000      0.000
REMARK INTER + INTRA:          -6.184
REMARK INTER:                  -6.184
REMARK INTRA:                   0.000
REMARK UNBOUND:                 0.000
REMARK SMILES Cc1cc(O)c2c(c1)C(=O)c1cc(O)cc(O)c1C2=O
REMARK SMILES IDX 1 1 2 2 8 3 7 4 6 5 4 6 3 7 19 8 20 9 18 10 11 11 9 12 10 13
REMARK SMILES IDX 12 14 13 15 15 16 16 17 5 18 17 20 14 22
REMARK H PARENT 5 19 17 21 14 23
REMARK Flexibility Score: inf
ROOT
ATOM      1  C   UNL     1      -4.002  91.084  -7.487  1.00  0.00     0.044 C 
ATOM      2  C   UNL     1      -4.252  89.721  -8.063  1.00  0.00    -0.047 A 
ATOM      3  C   UNL     1      -3.469  88.633  -7.660  1.00  0.00     0.016 A 
ATOM      4  C   UNL     1      -3.713  87.347  -8.173  1.00  0.00     0.038 A 
ATOM      5  C   UNL     1      -4.758  87.147  -9.103  1.00  0.00     0.076 A 
ATOM      6  C   UNL     1      -5.600  88.237  -9.442  1.00  0.00     0.127 A 
ATOM      7  C   UNL     1      -5.324  89.511  -8.935  1.00  0.00     0.050 A 
ATOM      8  C   UNL     1      -4.890  85.809  -9.733  1.00  0.00     0.201 C 
ATOM      9  O   UNL     1      -5.357  85.708 -10.899  1.00  0.00    -0.288 OA
ATOM     10  C   UNL     1      -4.302  84.618  -9.066  1.00  0.00     0.076 A 
ATOM     11  C   UNL     1      -3.259  84.821  -8.135  1.00  0.00     0.041 A 
ATOM     12  C   UNL     1      -2.885  86.198  -7.735  1.00  0.00     0.194 C 
ATOM     13  O   UNL     1      -1.875  86.391  -7.002  1.00  0.00    -0.289 OA
ATOM     14  C   UNL     1      -2.585  83.717  -7.587  1.00  0.00     0.059 A 
ATOM     15  C   UNL     1      -2.948  82.415  -7.945  1.00  0.00     0.120 A 
ATOM     16  C   UNL     1      -4.003  82.210  -8.834  1.00  0.00     0.093 A 
ATOM     17  C   UNL     1      -4.703  83.292  -9.377  1.00  0.00     0.131 A 
ENDROOT
BRANCH   6  18
ATOM     18  O   UNL     1      -6.734  88.094 -10.244  1.00  0.00    -0.507 OA
ATOM     19  H   UNL     1      -7.426  87.369 -10.108  1.00  0.00     0.293 HD
ENDBRANCH   6  18
BRANCH  17  20
ATOM     20  O   UNL     1      -5.805  83.006 -10.186  1.00  0.00    -0.507 OA
ATOM     21  H   UNL     1      -6.246  83.684 -10.790  1.00  0.00     0.293 HD
ENDBRANCH  17  20
BRANCH  15  22
ATOM     22  O   UNL     1      -2.274  81.318  -7.414  1.00  0.00    -0.508 OA
ATOM     23  H   UNL     1      -1.379  81.017  -7.781  1.00  0.00     0.293 HD
ENDBRANCH  15  22
TORSDOF 3
ENDMDL
MODEL 2
REMARK VINA RESULT:    -5.641      1.779      3.634
REMARK INTER + INTRA:          -6.136
REMARK INTER:                  -6.136
REMARK INTRA:                   0.000
REMARK UNBOUND:                 0.000
REMARK SMILES Cc1cc(O)c2c(c1)C(=O)c1cc(O)cc(O)c1C2=O
REMARK SMILES IDX 1 1 2 2 8 3 7 4 6 5 4 6 3 7 19 8 20 9 18 10 11 11 9 12 10 13
REMARK SMILES IDX 12 14 13 15 15 16 16 17 5 18 17 20 14 22
REMARK H PARENT 5 19 17 21 14 23
REMARK Flexibility Score: inf
ROOT
ATOM      1  C   UNL     1      -7.244  91.881 -10.671  1.00  0.00     0.044 C 
ATOM      2  C   UNL     1      -6.448  90.751 -10.088  1.00  0.00    -0.047 A 
ATOM      3  C   UNL     1      -6.772  89.427 -10.402  1.00  0.00     0.016 A 
ATOM      4  C   UNL     1      -6.015  88.362  -9.884  1.00  0.00     0.038 A 
ATOM      5  C   UNL     1      -4.915  88.628  -9.038  1.00  0.00     0.076 A 
ATOM      6  C   UNL     1      -4.540  89.974  -8.793  1.00  0.00     0.127 A 
ATOM      7  C   UNL     1      -5.321  91.015  -9.302  1.00  0.00     0.050 A 
ATOM      8  C   UNL     1      -4.232  87.477  -8.392  1.00  0.00     0.201 C 
ATOM      9  O   UNL     1      -3.686  87.624  -7.267  1.00  0.00    -0.288 OA
ATOM     10  C   UNL     1      -4.356  86.119  -8.983  1.00  0.00     0.076 A 
ATOM     11  C   UNL     1      -5.456  85.857  -9.831  1.00  0.00     0.041 A 
ATOM     12  C   UNL     1      -6.361  86.962 -10.228  1.00  0.00     0.194 C 
ATOM     13  O   UNL     1      -7.413  86.713 -10.879  1.00  0.00    -0.289 OA
ATOM     14  C   UNL     1      -5.685  84.552 -10.298  1.00  0.00     0.059 A 
ATOM     15  C   UNL     1      -4.822  83.511  -9.942  1.00  0.00     0.120 A 
ATOM     16  C   UNL     1      -3.713  83.773  -9.138  1.00  0.00     0.093 A 
ATOM     17  C   UNL     1      -3.453  85.068  -8.677  1.00  0.00     0.131 A 
ENDROOT
BRANCH   6  18
ATOM     18  O   UNL     1      -3.388  90.319  -8.083  1.00  0.00    -0.507 OA
ATOM     19  H   UNL     1      -3.344  91.093  -7.434  1.00  0.00     0.293 HD
ENDBRANCH   6  18
BRANCH  17  20
ATOM     20  O   UNL     1      -2.274  85.269  -7.955  1.00  0.00    -0.507 OA
ATOM     21  H   UNL     1      -1.721  84.518  -7.569  1.00  0.00     0.293 HD
ENDBRANCH  17  20
BRANCH  15  22
ATOM     22  O   UNL     1      -5.052  82.213 -10.392  1.00  0.00    -0.508 OA
ATOM     23  H   UNL     1      -5.965  81.919 -10.722  1.00  0.00     0.293 HD
ENDBRANCH  15  22
TORSDOF 3
ENDMDL
MODEL 3
REMARK VINA RESULT:    -5.408      1.724      6.523
REMARK INTER + INTRA:          -5.883
REMARK INTER:                  -5.883
REMARK INTRA:                   0.000
REMARK UNBOUND:                 0.000
REMARK SMILES Cc1cc(O)c2c(c1)C(=O)c1cc(O)cc(O)c1C2=O
REMARK SMILES IDX 1 1 2 2 8 3 7 4 6 5 4 6 3 7 19 8 20 9 18 10 11 11 9 12 10 13
REMARK SMILES IDX 12 14 13 15 15 16 16 17 5 18 17 20 14 22
REMARK H PARENT 5 19 17 21 14 23
REMARK Flexibility Score: inf
ROOT
ATOM      1  C   UNL     1      -5.056  82.571  -9.971  1.00  0.00     0.044 C 
ATOM      2  C   UNL     1      -4.592  83.928  -9.531  1.00  0.00    -0.047 A 
ATOM      3  C   UNL     1      -5.331  85.068  -9.867  1.00  0.00     0.016 A 
ATOM      4  C   UNL     1      -4.920  86.341  -9.437  1.00  0.00     0.038 A 
ATOM      5  C   UNL     1      -3.750  86.475  -8.655  1.00  0.00     0.076 A 
ATOM      6  C   UNL     1      -3.053  85.309  -8.248  1.00  0.00     0.127 A 
ATOM      7  C   UNL     1      -3.469  84.056  -8.706  1.00  0.00     0.050 A 
ATOM      8  C   UNL     1      -3.267  87.846  -8.345  1.00  0.00     0.201 C 
ATOM      9  O   UNL     1      -2.034  88.055  -8.188  1.00  0.00    -0.288 OA
ATOM     10  C   UNL     1      -4.210  88.992  -8.405  1.00  0.00     0.076 A 
ATOM     11  C   UNL     1      -5.381  88.854  -9.186  1.00  0.00     0.041 A 
ATOM     12  C   UNL     1      -5.713  87.543  -9.791  1.00  0.00     0.194 C 
ATOM     13  O   UNL     1      -6.686  87.444 -10.589  1.00  0.00    -0.289 OA
ATOM     14  C   UNL     1      -6.227  89.958  -9.379  1.00  0.00     0.059 A 
ATOM     15  C   UNL     1      -5.928  91.192  -8.794  1.00  0.00     0.120 A 
ATOM     16  C   UNL     1      -4.795  91.322  -7.990  1.00  0.00     0.093 A 
ATOM     17  C   UNL     1      -3.948  90.232  -7.766  1.00  0.00     0.131 A 
ENDROOT
BRANCH   6  18
ATOM     18  O   UNL     1      -1.972  85.346  -7.364  1.00  0.00    -0.507 OA
ATOM     19  H   UNL     1      -1.400  86.167  -7.217  1.00  0.00     0.293 HD
ENDBRANCH   6  18
BRANCH  17  20
ATOM     20  O   UNL     1      -2.886  90.414  -6.877  1.00  0.00    -0.507 OA
ATOM     21  H   UNL     1      -2.852  90.002  -5.956  1.00  0.00     0.293 HD
ENDBRANCH  17  20
BRANCH  15  22
ATOM     22  O   UNL     1      -6.758  92.293  -8.993  1.00  0.00    -0.508 OA
ATOM     23  H   UNL     1      -7.112  92.531  -9.913  1.00  0.00     0.293 HD
ENDBRANCH  15  22
TORSDOF 3
ENDMDL
MODEL 4
REMARK VINA RESULT:    -5.360     11.747     13.649
REMARK INTER + INTRA:          -5.830
REMARK INTER:                  -5.830
REMARK INTRA:                   0.000
REMARK UNBOUND:                 0.000
REMARK SMILES Cc1cc(O)c2c(c1)C(=O)c1cc(O)cc(O)c1C2=O
REMARK SMILES IDX 1 1 2 2 8 3 7 4 6 5 4 6 3 7 19 8 20 9 18 10 11 11 9 12 10 13
REMARK SMILES IDX 12 14 13 15 15 16 16 17 5 18 17 20 14 22
REMARK H PARENT 5 19 17 21 14 23
REMARK Flexibility Score: inf
ROOT
ATOM      1  C   UNL     1      -3.244  92.729 -24.974  1.00  0.00     0.044 C 
ATOM      2  C   UNL     1      -3.594  92.991 -23.539  1.00  0.00    -0.047 A 
ATOM      3  C   UNL     1      -3.097  92.158 -22.530  1.00  0.00     0.016 A 
ATOM      4  C   UNL     1      -3.395  92.411 -21.180  1.00  0.00     0.038 A 
ATOM      5  C   UNL     1      -4.204  93.518 -20.834  1.00  0.00     0.076 A 
ATOM      6  C   UNL     1      -4.633  94.406 -21.853  1.00  0.00     0.127 A 
ATOM      7  C   UNL     1      -4.341  94.121 -23.191  1.00  0.00     0.050 A 
ATOM      8  C   UNL     1      -4.619  93.667 -19.416  1.00  0.00     0.201 C 
ATOM      9  O   UNL     1      -5.719  94.217 -19.140  1.00  0.00    -0.288 OA
ATOM     10  C   UNL     1      -3.832  93.006 -18.343  1.00  0.00     0.076 A 
ATOM     11  C   UNL     1      -3.023  91.901 -18.692  1.00  0.00     0.041 A 
ATOM     12  C   UNL     1      -2.859  91.528 -20.117  1.00  0.00     0.194 C 
ATOM     13  O   UNL     1      -2.242  90.472 -20.426  1.00  0.00    -0.289 OA
ATOM     14  C   UNL     1      -2.372  91.165 -17.688  1.00  0.00     0.059 A 
ATOM     15  C   UNL     1      -2.508  91.525 -16.344  1.00  0.00     0.120 A 
ATOM     16  C   UNL     1      -3.274  92.639 -15.999  1.00  0.00     0.093 A 
ATOM     17  C   UNL     1      -3.915  93.400 -16.982  1.00  0.00     0.131 A 
ENDROOT
BRANCH   6  18
ATOM     18  O   UNL     1      -5.317  95.593 -21.582  1.00  0.00    -0.507 OA
ATOM     19  H   UNL     1      -4.989  96.287 -20.923  1.00  0.00     0.293 HD
ENDBRANCH   6  18
BRANCH  17  20
ATOM     20  O   UNL     1      -4.586  94.552 -16.567  1.00  0.00    -0.507 OA
ATOM     21  H   UNL     1      -4.117  95.389 -16.252  1.00  0.00     0.293 HD
ENDBRANCH  17  20
BRANCH  15  22
ATOM     22  O   UNL     1      -1.875  90.791 -15.344  1.00  0.00    -0.508 OA
ATOM     23  H   UNL     1      -0.916  90.976 -15.076  1.00  0.00     0.293 HD
ENDBRANCH  15  22
TORSDOF 3
ENDMDL
MODEL 5
REMARK VINA RESULT:    -5.263      1.723      5.541
REMARK INTER + INTRA:          -5.724
REMARK INTER:                  -5.724
REMARK INTRA:                   0.000
REMARK UNBOUND:                 0.000
REMARK SMILES Cc1cc(O)c2c(c1)C(=O)c1cc(O)cc(O)c1C2=O
REMARK SMILES IDX 1 1 2 2 8 3 7 4 6 5 4 6 3 7 19 8 20 9 18 10 11 11 9 12 10 13
REMARK SMILES IDX 12 14 13 15 15 16 16 17 5 18 17 20 14 22
REMARK H PARENT 5 19 17 21 14 23
REMARK Flexibility Score: inf
ROOT
ATOM      1  C   UNL     1      -3.377  81.722  -9.875  1.00  0.00     0.044 C 
ATOM      2  C   UNL     1      -4.084  82.997  -9.522  1.00  0.00    -0.047 A 
ATOM      3  C   UNL     1      -3.378  84.054  -8.936  1.00  0.00     0.016 A 
ATOM      4  C   UNL     1      -4.024  85.263  -8.627  1.00  0.00     0.038 A 
ATOM      5  C   UNL     1      -5.400  85.416  -8.909  1.00  0.00     0.076 A 
ATOM      6  C   UNL     1      -6.089  84.373  -9.579  1.00  0.00     0.127 A 
ATOM      7  C   UNL     1      -5.430  83.173  -9.858  1.00  0.00     0.050 A 
ATOM      8  C   UNL     1      -6.080  86.648  -8.434  1.00  0.00     0.201 C 
ATOM      9  O   UNL     1      -7.303  86.613  -8.133  1.00  0.00    -0.288 OA
ATOM     10  C   UNL     1      -5.281  87.865  -8.137  1.00  0.00     0.076 A 
ATOM     11  C   UNL     1      -3.904  87.708  -7.858  1.00  0.00     0.041 A 
ATOM     12  C   UNL     1      -3.266  86.380  -8.014  1.00  0.00     0.194 C 
ATOM     13  O   UNL     1      -2.072  86.206  -7.647  1.00  0.00    -0.289 OA
ATOM     14  C   UNL     1      -3.145  88.814  -7.439  1.00  0.00     0.059 A 
ATOM     15  C   UNL     1      -3.737  90.073  -7.310  1.00  0.00     0.120 A 
ATOM     16  C   UNL     1      -5.086  90.240  -7.623  1.00  0.00     0.093 A 
ATOM     17  C   UNL     1      -5.859  89.160  -8.061  1.00  0.00     0.131 A 
ENDROOT
BRANCH   6  18
ATOM     18  O   UNL     1      -7.410  84.500 -10.016  1.00  0.00    -0.507 OA
ATOM     19  H   UNL     1      -7.789  83.989 -10.801  1.00  0.00     0.293 HD
ENDBRANCH   6  18
BRANCH  17  20
ATOM     20  O   UNL     1      -7.176  89.423  -8.444  1.00  0.00    -0.507 OA
ATOM     21  H   UNL     1      -7.807  90.003  -7.910  1.00  0.00     0.293 HD
ENDBRANCH  17  20
BRANCH  15  22
ATOM     22  O   UNL     1      -2.991  91.169  -6.883  1.00  0.00    -0.508 OA
ATOM     23  H   UNL     1      -2.897  92.001  -7.454  1.00  0.00     0.293 HD
ENDBRANCH  15  22
TORSDOF 3
ENDMDL
MODEL 6
REMARK VINA RESULT:    -5.126      1.169      1.330
REMARK INTER + INTRA:          -5.575
REMARK INTER:                  -5.575
REMARK INTRA:                   0.000
REMARK UNBOUND:                 0.000
REMARK SMILES Cc1cc(O)c2c(c1)C(=O)c1cc(O)cc(O)c1C2=O
REMARK SMILES IDX 1 1 2 2 8 3 7 4 6 5 4 6 3 7 19 8 20 9 18 10 11 11 9 12 10 13
REMARK SMILES IDX 12 14 13 15 15 16 16 17 5 18 17 20 14 22
REMARK H PARENT 5 19 17 21 14 23
REMARK Flexibility Score: inf
ROOT
ATOM      1  C   UNL     1      -4.892  91.699  -7.718  1.00  0.00     0.044 C 
ATOM      2  C   UNL     1      -5.222  90.323  -8.216  1.00  0.00    -0.047 A 
ATOM      3  C   UNL     1      -4.254  89.313  -8.188  1.00  0.00     0.016 A 
ATOM      4  C   UNL     1      -4.562  88.014  -8.626  1.00  0.00     0.038 A 
ATOM      5  C   UNL     1      -5.861  87.721  -9.099  1.00  0.00     0.076 A 
ATOM      6  C   UNL     1      -6.860  88.726  -9.046  1.00  0.00     0.127 A 
ATOM      7  C   UNL     1      -6.524  90.017  -8.625  1.00  0.00     0.050 A 
ATOM      8  C   UNL     1      -6.106  86.380  -9.691  1.00  0.00     0.201 C 
ATOM      9  O   UNL     1      -6.971  86.244 -10.597  1.00  0.00    -0.288 OA
ATOM     10  C   UNL     1      -5.207  85.248  -9.350  1.00  0.00     0.076 A 
ATOM     11  C   UNL     1      -3.909  85.544  -8.875  1.00  0.00     0.041 A 
ATOM     12  C   UNL     1      -3.532  86.948  -8.586  1.00  0.00     0.194 C 
ATOM     13  O   UNL     1      -2.341  87.232  -8.282  1.00  0.00    -0.289 OA
ATOM     14  C   UNL     1      -2.984  84.506  -8.672  1.00  0.00     0.059 A 
ATOM     15  C   UNL     1      -3.342  83.179  -8.924  1.00  0.00     0.120 A 
ATOM     16  C   UNL     1      -4.634  82.878  -9.355  1.00  0.00     0.093 A 
ATOM     17  C   UNL     1      -5.579  83.892  -9.545  1.00  0.00     0.131 A 
ENDROOT
BRANCH   6  18
ATOM     18  O   UNL     1      -8.197  88.479  -9.364  1.00  0.00    -0.507 OA
ATOM     19  H   UNL     1      -8.789  89.146  -9.841  1.00  0.00     0.293 HD
ENDBRANCH   6  18
BRANCH  17  20
ATOM     20  O   UNL     1      -6.877  83.505  -9.888  1.00  0.00    -0.507 OA
ATOM     21  H   UNL     1      -7.176  83.335 -10.837  1.00  0.00     0.293 HD
ENDBRANCH  17  20
BRANCH  15  22
ATOM     22  O   UNL     1      -2.424  82.148  -8.736  1.00  0.00    -0.508 OA
ATOM     23  H   UNL     1      -1.689  81.963  -9.409  1.00  0.00     0.293 HD
ENDBRANCH  15  22
TORSDOF 3
ENDMDL
MODEL 7
REMARK VINA RESULT:    -4.951     10.109     12.634
REMARK INTER + INTRA:          -5.385
REMARK INTER:                  -5.385
REMARK INTRA:                   0.000
REMARK UNBOUND:                 0.000
REMARK SMILES Cc1cc(O)c2c(c1)C(=O)c1cc(O)cc(O)c1C2=O
REMARK SMILES IDX 1 1 2 2 8 3 7 4 6 5 4 6 3 7 19 8 20 9 18 10 11 11 9 12 10 13
REMARK SMILES IDX 12 14 13 15 15 16 16 17 5 18 17 20 14 22
REMARK H PARENT 5 19 17 21 14 23
REMARK Flexibility Score: inf
ROOT
ATOM      1  C   UNL     1      -3.168  92.480 -23.136  1.00  0.00     0.044 C 
ATOM      2  C   UNL     1      -3.112  92.322 -21.646  1.00  0.00    -0.047 A 
ATOM      3  C   UNL     1      -3.771  93.236 -20.816  1.00  0.00     0.016 A 
ATOM      4  C   UNL     1      -3.748  93.082 -19.419  1.00  0.00     0.038 A 
ATOM      5  C   UNL     1      -3.053  91.994 -18.844  1.00  0.00     0.076 A 
ATOM      6  C   UNL     1      -2.459  91.026 -19.693  1.00  0.00     0.127 A 
ATOM      7  C   UNL     1      -2.478  91.212 -21.078  1.00  0.00     0.050 A 
ATOM      8  C   UNL     1      -2.926  91.947 -17.364  1.00  0.00     0.201 C 
ATOM      9  O   UNL     1      -1.917  91.405 -16.839  1.00  0.00    -0.288 OA
ATOM     10  C   UNL     1      -3.887  92.698 -16.516  1.00  0.00     0.076 A 
ATOM     11  C   UNL     1      -4.582  93.784 -17.096  1.00  0.00     0.041 A 
ATOM     12  C   UNL     1      -4.456  94.050 -18.548  1.00  0.00     0.194 C 
ATOM     13  O   UNL     1      -4.971  95.089 -19.047  1.00  0.00    -0.289 OA
ATOM     14  C   UNL     1      -5.394  94.603 -16.293  1.00  0.00     0.059 A 
ATOM     15  C   UNL     1      -5.532  94.344 -14.927  1.00  0.00     0.120 A 
ATOM     16  C   UNL     1      -4.880  93.249 -14.359  1.00  0.00     0.093 A 
ATOM     17  C   UNL     1      -4.082  92.408 -15.141  1.00  0.00     0.131 A 
ENDROOT
BRANCH   6  18
ATOM     18  O   UNL     1      -1.875  89.853 -19.208  1.00  0.00    -0.507 OA
ATOM     19  H   UNL     1      -1.047  89.841 -18.629  1.00  0.00     0.293 HD
ENDBRANCH   6  18
BRANCH  17  20
ATOM     20  O   UNL     1      -3.536  91.281 -14.521  1.00  0.00    -0.507 OA
ATOM     21  H   UNL     1      -2.718  91.310 -13.929  1.00  0.00     0.293 HD
ENDBRANCH  17  20
BRANCH  15  22
ATOM     22  O   UNL     1      -6.326  95.161 -14.126  1.00  0.00    -0.508 OA
ATOM     23  H   UNL     1      -7.158  94.807 -13.667  1.00  0.00     0.293 HD
ENDBRANCH  15  22
TORSDOF 3
ENDMDL
MODEL 8
REMARK VINA RESULT:    -4.930     14.073     15.781
REMARK INTER + INTRA:          -5.363
REMARK INTER:                  -5.363
REMARK INTRA:                   0.000
REMARK UNBOUND:                 0.000
REMARK SMILES Cc1cc(O)c2c(c1)C(=O)c1cc(O)cc(O)c1C2=O
REMARK SMILES IDX 1 1 2 2 8 3 7 4 6 5 4 6 3 7 19 8 20 9 18 10 11 11 9 12 10 13
REMARK SMILES IDX 12 14 13 15 15 16 16 17 5 18 17 20 14 22
REMARK H PARENT 5 19 17 21 14 23
REMARK Flexibility Score: inf
ROOT
ATOM      1  C   UNL     1      -6.793  96.236 -25.393  1.00  0.00     0.044 C 
ATOM      2  C   UNL     1      -5.849  95.229 -24.805  1.00  0.00    -0.047 A 
ATOM      3  C   UNL     1      -5.597  95.221 -23.428  1.00  0.00     0.016 A 
ATOM      4  C   UNL     1      -4.736  94.265 -22.863  1.00  0.00     0.038 A 
ATOM      5  C   UNL     1      -4.118  93.301 -23.690  1.00  0.00     0.076 A 
ATOM      6  C   UNL     1      -4.442  93.262 -25.070  1.00  0.00     0.127 A 
ATOM      7  C   UNL     1      -5.286  94.236 -25.612  1.00  0.00     0.050 A 
ATOM      8  C   UNL     1      -3.102  92.403 -23.081  1.00  0.00     0.201 C 
ATOM      9  O   UNL     1      -2.153  91.963 -23.784  1.00  0.00    -0.288 OA
ATOM     10  C   UNL     1      -3.100  92.179 -21.613  1.00  0.00     0.076 A 
ATOM     11  C   UNL     1      -3.722  93.145 -20.789  1.00  0.00     0.041 A 
ATOM     12  C   UNL     1      -4.481  94.260 -21.402  1.00  0.00     0.194 C 
ATOM     13  O   UNL     1      -4.931  95.191 -20.680  1.00  0.00    -0.289 OA
ATOM     14  C   UNL     1      -3.623  93.040 -19.391  1.00  0.00     0.059 A 
ATOM     15  C   UNL     1      -2.925  91.979 -18.807  1.00  0.00     0.120 A 
ATOM     16  C   UNL     1      -2.344  91.003 -19.616  1.00  0.00     0.093 A 
ATOM     17  C   UNL     1      -2.446  91.073 -21.009  1.00  0.00     0.131 A 
ENDROOT
BRANCH   6  18
ATOM     18  O   UNL     1      -3.983  92.258 -25.925  1.00  0.00    -0.507 OA
ATOM     19  H   UNL     1      -3.310  92.418 -26.663  1.00  0.00     0.293 HD
ENDBRANCH   6  18
BRANCH  17  20
ATOM     20  O   UNL     1      -1.919  90.012 -21.748  1.00  0.00    -0.507 OA
ATOM     21  H   UNL     1      -1.664  90.081 -22.722  1.00  0.00     0.293 HD
ENDBRANCH  17  20
BRANCH  15  22
ATOM     22  O   UNL     1      -2.814  91.879 -17.422  1.00  0.00    -0.508 OA
ATOM     23  H   UNL     1      -3.372  92.454 -16.802  1.00  0.00     0.293 HD
ENDBRANCH  15  22
TORSDOF 3
ENDMDL
