MODEL 1
REMARK VINA RESULT:    -3.623      0.000      0.000
REMARK INTER + INTRA:          -5.436
REMARK INTER:                  -4.893
REMARK INTRA:                  -0.543
REMARK UNBOUND:                -0.543
REMARK SMILES CCCCCCC=CC(=O)[O-]
REMARK SMILES IDX 5 1 6 2 7 3 8 4 9 5 10 6 11 7 4 8 3 9 2 10 1 11
REMARK H PARENT
REMARK Flexibility Score: inf
ROOT
ATOM      1  C   UNL     1       2.460   9.101 -12.901  1.00  0.00     0.004 C 
ENDROOT
BRANCH   1   2
ATOM      2  C   UNL     1       2.988   9.322 -14.326  1.00  0.00     0.027 C 
BRANCH   2   3
ATOM      3  C   UNL     1       3.420   8.025 -14.951  1.00  0.00    -0.025 C 
ATOM      4  C   UNL     1       3.784   6.977 -14.206  1.00  0.00     0.020 C 
BRANCH   4   5
ATOM      5  C   UNL     1       4.195   5.699 -14.804  1.00  0.00     0.064 C 
ATOM      6  O   UNL     1       4.419   4.708 -14.061  1.00  0.00    -0.545 OA
ATOM      7  O   UNL     1       4.341   5.566 -16.181  1.00  0.00    -0.545 OA
ENDBRANCH   4   5
ENDBRANCH   2   3
ENDBRANCH   1   2
BRANCH   1   8
ATOM      8  C   UNL     1       3.170   9.985 -11.862  1.00  0.00     0.000 C 
BRANCH   8   9
ATOM      9  C   UNL     1       3.901   9.160 -10.788  1.00  0.00    -0.000 C 
BRANCH   9  10
ATOM     10  C   UNL     1       3.366   7.722 -10.686  1.00  0.00    -0.003 C 
ATOM     11  C   UNL     1       4.462   6.669 -10.851  1.00  0.00     0.004 C 
ENDBRANCH   9  10
ENDBRANCH   8   9
ENDBRANCH   1   8
TORSDOF 6
ENDMDL
MODEL 2
REMARK VINA RESULT:    -3.549      3.207      5.296
REMARK INTER + INTRA:          -5.336
REMARK INTER:                  -4.835
REMARK INTRA:                  -0.501
REMARK UNBOUND:                -0.543
REMARK SMILES CCCCCCC=CC(=O)[O-]
REMARK SMILES IDX 5 1 6 2 7 3 8 4 9 5 10 6 11 7 4 8 3 9 2 10 1 11
REMARK H PARENT
REMARK Flexibility Score: inf
ROOT
ATOM      1  C   UNL     1       3.355   6.256 -12.685  1.00  0.00     0.004 C 
ENDROOT
BRANCH   1   2
ATOM      2  C   UNL     1       4.359   6.125 -11.530  1.00  0.00     0.027 C 
BRANCH   2   3
ATOM      3  C   UNL     1       4.599   7.452 -10.867  1.00  0.00    -0.025 C 
ATOM      4  C   UNL     1       3.605   8.322 -10.664  1.00  0.00     0.020 C 
BRANCH   4   5
ATOM      5  C   UNL     1       3.824   9.617 -10.004  1.00  0.00     0.064 C 
ATOM      6  O   UNL     1       4.388  10.548 -10.636  1.00  0.00    -0.545 OA
ATOM      7  O   UNL     1       3.418   9.830  -8.691  1.00  0.00    -0.545 OA
ENDBRANCH   4   5
ENDBRANCH   2   3
ENDBRANCH   1   2
BRANCH   1   8
ATOM      8  C   UNL     1       4.001   6.022 -14.061  1.00  0.00     0.000 C 
BRANCH   8   9
ATOM      9  C   UNL     1       3.781   7.203 -15.024  1.00  0.00    -0.000 C 
BRANCH   9  10
ATOM     10  C   UNL     1       3.245   8.453 -14.308  1.00  0.00    -0.003 C 
ATOM     11  C   UNL     1       2.532   9.419 -15.254  1.00  0.00     0.004 C 
ENDBRANCH   9  10
ENDBRANCH   8   9
ENDBRANCH   1   8
TORSDOF 6
ENDMDL
MODEL 3
REMARK VINA RESULT:    -3.541     11.720     14.087
REMARK INTER + INTRA:          -5.325
REMARK INTER:                  -4.709
REMARK INTRA:                  -0.617
REMARK UNBOUND:                -0.543
REMARK SMILES CCCCCCC=CC(=O)[O-]
REMARK SMILES IDX 5 1 6 2 7 3 8 4 9 5 10 6 11 7 4 8 3 9 2 10 1 11
REMARK H PARENT
REMARK Flexibility Score: inf
ROOT
ATOM      1  C   UNL     1       7.387  -5.661  -7.993  1.00  0.00     0.004 C 
ENDROOT
BRANCH   1   2
ATOM      2  C   UNL     1       7.862  -5.604  -6.533  1.00  0.00     0.027 C 
BRANCH   2   3
ATOM      3  C   UNL     1       7.556  -4.269  -5.915  1.00  0.00    -0.025 C 
ATOM      4  C   UNL     1       6.846  -3.343  -6.568  1.00  0.00     0.020 C 
BRANCH   4   5
ATOM      5  C   UNL     1       6.527  -2.038  -5.969  1.00  0.00     0.064 C 
ATOM      6  O   UNL     1       6.129  -1.098  -6.705  1.00  0.00    -0.545 OA
ATOM      7  O   UNL     1       6.659  -1.826  -4.601  1.00  0.00    -0.545 OA
ENDBRANCH   4   5
ENDBRANCH   2   3
ENDBRANCH   1   2
BRANCH   1   8
ATOM      8  C   UNL     1       8.546  -5.845  -8.986  1.00  0.00     0.000 C 
BRANCH   8   9
ATOM      9  C   UNL     1       8.368  -5.002 -10.262  1.00  0.00    -0.000 C 
BRANCH   9  10
ATOM     10  C   UNL     1       7.194  -4.016 -10.156  1.00  0.00    -0.003 C 
ATOM     11  C   UNL     1       7.649  -2.557 -10.089  1.00  0.00     0.004 C 
ENDBRANCH   9  10
ENDBRANCH   8   9
ENDBRANCH   1   8
TORSDOF 6
ENDMDL
MODEL 4
REMARK VINA RESULT:    -3.494      2.685      3.799
REMARK INTER + INTRA:          -5.262
REMARK INTER:                  -4.647
REMARK INTRA:                  -0.615
REMARK UNBOUND:                -0.543
REMARK SMILES CCCCCCC=CC(=O)[O-]
REMARK SMILES IDX 5 1 6 2 7 3 8 4 9 5 10 6 11 7 4 8 3 9 2 10 1 11
REMARK H PARENT
REMARK Flexibility Score: inf
ROOT
ATOM      1  C   UNL     1       3.189   6.341 -13.162  1.00  0.00     0.004 C 
ENDROOT
BRANCH   1   2
ATOM      2  C   UNL     1       3.884   6.671 -14.491  1.00  0.00     0.027 C 
BRANCH   2   3
ATOM      3  C   UNL     1       3.510   8.044 -14.973  1.00  0.00    -0.025 C 
ATOM      4  C   UNL     1       3.011   8.965 -14.141  1.00  0.00     0.020 C 
BRANCH   4   5
ATOM      5  C   UNL     1       2.655  10.316 -14.597  1.00  0.00     0.064 C 
ATOM      6  O   UNL     1       1.867  10.456 -15.569  1.00  0.00    -0.545 OA
ATOM      7  O   UNL     1       3.175  11.444 -13.971  1.00  0.00    -0.545 OA
ENDBRANCH   4   5
ENDBRANCH   2   3
ENDBRANCH   1   2
BRANCH   1   8
ATOM      8  C   UNL     1       4.154   5.758 -12.116  1.00  0.00     0.000 C 
BRANCH   8   9
ATOM      9  C   UNL     1       4.603   6.803 -11.080  1.00  0.00    -0.000 C 
BRANCH   9  10
ATOM     10  C   UNL     1       3.465   7.753 -10.672  1.00  0.00    -0.003 C 
ATOM     11  C   UNL     1       3.952   9.173 -10.383  1.00  0.00     0.004 C 
ENDBRANCH   9  10
ENDBRANCH   8   9
ENDBRANCH   1   8
TORSDOF 6
ENDMDL
MODEL 5
REMARK VINA RESULT:    -3.408     11.112     13.452
REMARK INTER + INTRA:          -5.146
REMARK INTER:                  -4.703
REMARK INTRA:                  -0.443
REMARK UNBOUND:                -0.543
REMARK SMILES CCCCCCC=CC(=O)[O-]
REMARK SMILES IDX 5 1 6 2 7 3 8 4 9 5 10 6 11 7 4 8 3 9 2 10 1 11
REMARK H PARENT
REMARK Flexibility Score: inf
ROOT
ATOM      1  C   UNL     1       7.875  -5.104  -6.512  1.00  0.00     0.004 C 
ENDROOT
BRANCH   1   2
ATOM      2  C   UNL     1       7.173  -3.848  -5.975  1.00  0.00     0.027 C 
BRANCH   2   3
ATOM      3  C   UNL     1       6.796  -2.918  -7.094  1.00  0.00    -0.025 C 
ATOM      4  C   UNL     1       6.348  -1.681  -6.853  1.00  0.00     0.020 C 
BRANCH   4   5
ATOM      5  C   UNL     1       5.989  -0.757  -7.939  1.00  0.00     0.064 C 
ATOM      6  O   UNL     1       5.904   0.477  -7.701  1.00  0.00    -0.545 OA
ATOM      7  O   UNL     1       5.742  -1.223  -9.225  1.00  0.00    -0.545 OA
ENDBRANCH   4   5
ENDBRANCH   2   3
ENDBRANCH   1   2
BRANCH   1   8
ATOM      8  C   UNL     1       7.503  -5.413  -7.972  1.00  0.00     0.000 C 
BRANCH   8   9
ATOM      9  C   UNL     1       8.585  -6.234  -8.694  1.00  0.00    -0.000 C 
BRANCH   9  10
ATOM     10  C   UNL     1       8.944  -5.651 -10.071  1.00  0.00    -0.003 C 
ATOM     11  C   UNL     1       8.196  -4.354 -10.379  1.00  0.00     0.004 C 
ENDBRANCH   9  10
ENDBRANCH   8   9
ENDBRANCH   1   8
TORSDOF 6
ENDMDL
MODEL 6
REMARK VINA RESULT:    -3.406     11.459     12.941
REMARK INTER + INTRA:          -5.144
REMARK INTER:                  -4.461
REMARK INTRA:                  -0.683
REMARK UNBOUND:                -0.543
REMARK SMILES CCCCCCC=CC(=O)[O-]
REMARK SMILES IDX 5 1 6 2 7 3 8 4 9 5 10 6 11 7 4 8 3 9 2 10 1 11
REMARK H PARENT
REMARK Flexibility Score: inf
ROOT
ATOM      1  C   UNL     1       6.069  -2.515  -8.368  1.00  0.00     0.004 C 
ENDROOT
BRANCH   1   2
ATOM      2  C   UNL     1       6.878  -1.988  -9.563  1.00  0.00     0.027 C 
BRANCH   2   3
ATOM      3  C   UNL     1       7.883  -3.004 -10.027  1.00  0.00    -0.025 C 
ATOM      4  C   UNL     1       7.674  -4.316  -9.873  1.00  0.00     0.020 C 
BRANCH   4   5
ATOM      5  C   UNL     1       8.643  -5.320 -10.336  1.00  0.00     0.064 C 
ATOM      6  O   UNL     1       8.918  -5.399 -11.562  1.00  0.00    -0.545 OA
ATOM      7  O   UNL     1       9.261  -6.186  -9.440  1.00  0.00    -0.545 OA
ENDBRANCH   4   5
ENDBRANCH   2   3
ENDBRANCH   1   2
BRANCH   1   8
ATOM      8  C   UNL     1       6.365  -1.748  -7.068  1.00  0.00     0.000 C 
BRANCH   8   9
ATOM      9  C   UNL     1       6.780  -2.680  -5.915  1.00  0.00    -0.000 C 
BRANCH   9  10
ATOM     10  C   UNL     1       6.559  -4.163  -6.250  1.00  0.00    -0.003 C 
ATOM     11  C   UNL     1       7.849  -4.982  -6.198  1.00  0.00     0.004 C 
ENDBRANCH   9  10
ENDBRANCH   8   9
ENDBRANCH   1   8
TORSDOF 6
ENDMDL
MODEL 7
REMARK VINA RESULT:    -3.400     11.332     13.552
REMARK INTER + INTRA:          -5.135
REMARK INTER:                  -4.815
REMARK INTRA:                  -0.320
REMARK UNBOUND:                -0.543
REMARK SMILES CCCCCCC=CC(=O)[O-]
REMARK SMILES IDX 5 1 6 2 7 3 8 4 9 5 10 6 11 7 4 8 3 9 2 10 1 11
REMARK H PARENT
REMARK Flexibility Score: inf
ROOT
ATOM      1  C   UNL     1       7.524  -4.138  -5.830  1.00  0.00     0.004 C 
ENDROOT
BRANCH   1   2
ATOM      2  C   UNL     1       6.819  -2.780  -5.697  1.00  0.00     0.027 C 
BRANCH   2   3
ATOM      3  C   UNL     1       6.390  -2.258  -7.039  1.00  0.00    -0.025 C 
ATOM      4  C   UNL     1       6.048  -0.977  -7.214  1.00  0.00     0.020 C 
BRANCH   4   5
ATOM      5  C   UNL     1       5.640  -0.451  -8.524  1.00  0.00     0.064 C 
ATOM      6  O   UNL     1       5.296   0.756  -8.629  1.00  0.00    -0.545 OA
ATOM      7  O   UNL     1       5.628  -1.265  -9.652  1.00  0.00    -0.545 OA
ENDBRANCH   4   5
ENDBRANCH   2   3
ENDBRANCH   1   2
BRANCH   1   8
ATOM      8  C   UNL     1       7.558  -4.649  -7.280  1.00  0.00     0.000 C 
BRANCH   8   9
ATOM      9  C   UNL     1       8.091  -6.089  -7.386  1.00  0.00    -0.000 C 
BRANCH   9  10
ATOM     10  C   UNL     1       8.536  -6.652  -6.027  1.00  0.00    -0.003 C 
ATOM     11  C   UNL     1       9.791  -7.519  -6.126  1.00  0.00     0.004 C 
ENDBRANCH   9  10
ENDBRANCH   8   9
ENDBRANCH   1   8
TORSDOF 6
ENDMDL
MODEL 8
REMARK VINA RESULT:    -3.397      9.754     11.906
REMARK INTER + INTRA:          -5.132
REMARK INTER:                  -4.423
REMARK INTRA:                  -0.708
REMARK UNBOUND:                -0.543
REMARK SMILES CCCCCCC=CC(=O)[O-]
REMARK SMILES IDX 5 1 6 2 7 3 8 4 9 5 10 6 11 7 4 8 3 9 2 10 1 11
REMARK H PARENT
REMARK Flexibility Score: inf
ROOT
ATOM      1  C   UNL     1       6.538  -4.011  -8.402  1.00  0.00     0.004 C 
ENDROOT
BRANCH   1   2
ATOM      2  C   UNL     1       7.199  -2.997  -9.349  1.00  0.00     0.027 C 
BRANCH   2   3
ATOM      3  C   UNL     1       6.801  -1.591  -9.001  1.00  0.00    -0.025 C 
ATOM      4  C   UNL     1       5.527  -1.190  -9.059  1.00  0.00     0.020 C 
BRANCH   4   5
ATOM      5  C   UNL     1       5.123   0.179  -8.708  1.00  0.00     0.064 C 
ATOM      6  O   UNL     1       5.642   0.743  -7.709  1.00  0.00    -0.545 OA
ATOM      7  O   UNL     1       4.174   0.862  -9.462  1.00  0.00    -0.545 OA
ENDBRANCH   4   5
ENDBRANCH   2   3
ENDBRANCH   1   2
BRANCH   1   8
ATOM      8  C   UNL     1       7.544  -4.675  -7.448  1.00  0.00     0.000 C 
BRANCH   8   9
ATOM      9  C   UNL     1       7.478  -4.094  -6.024  1.00  0.00    -0.000 C 
BRANCH   9  10
ATOM     10  C   UNL     1       6.182  -3.308  -5.770  1.00  0.00    -0.003 C 
ATOM     11  C   UNL     1       6.438  -1.900  -5.233  1.00  0.00     0.004 C 
ENDBRANCH   9  10
ENDBRANCH   8   9
ENDBRANCH   1   8
TORSDOF 6
ENDMDL
MODEL 9
REMARK VINA RESULT:    -3.392      1.483      2.143
REMARK INTER + INTRA:          -5.124
REMARK INTER:                  -4.564
REMARK INTRA:                  -0.560
REMARK UNBOUND:                -0.543
REMARK SMILES CCCCCCC=CC(=O)[O-]
REMARK SMILES IDX 5 1 6 2 7 3 8 4 9 5 10 6 11 7 4 8 3 9 2 10 1 11
REMARK H PARENT
REMARK Flexibility Score: inf
ROOT
ATOM      1  C   UNL     1       3.020   9.305 -14.384  1.00  0.00     0.004 C 
ENDROOT
BRANCH   1   2
ATOM      2  C   UNL     1       3.425   7.908 -14.879  1.00  0.00     0.027 C 
BRANCH   2   3
ATOM      3  C   UNL     1       3.766   7.003 -13.729  1.00  0.00    -0.025 C 
ATOM      4  C   UNL     1       4.191   5.751 -13.927  1.00  0.00     0.020 C 
BRANCH   4   5
ATOM      5  C   UNL     1       4.542   4.860 -12.812  1.00  0.00     0.064 C 
ATOM      6  O   UNL     1       4.557   5.312 -11.637  1.00  0.00    -0.545 OA
ATOM      7  O   UNL     1       4.858   3.524 -13.033  1.00  0.00    -0.545 OA
ENDBRANCH   4   5
ENDBRANCH   2   3
ENDBRANCH   1   2
BRANCH   1   8
ATOM      8  C   UNL     1       2.279   9.264 -13.037  1.00  0.00     0.000 C 
BRANCH   8   9
ATOM      9  C   UNL     1       2.822  10.298 -12.034  1.00  0.00    -0.000 C 
BRANCH   9  10
ATOM     10  C   UNL     1       3.775   9.672 -11.003  1.00  0.00    -0.003 C 
ATOM     11  C   UNL     1       3.199   8.417 -10.347  1.00  0.00     0.004 C 
ENDBRANCH   9  10
ENDBRANCH   8   9
ENDBRANCH   1   8
TORSDOF 6
ENDMDL
