MODEL 1
REMARK VINA RESULT:    -4.707      0.000      0.000
REMARK INTER + INTRA:          -7.330
REMARK INTER:                  -6.908
REMARK INTRA:                  -0.422
REMARK UNBOUND:                -0.422
REMARK SMILES O=C([O-])CCCCCCCC(=O)[O-]
REMARK SMILES IDX 7 1 6 2 5 3 4 4 2 5 1 6 3 7 8 8 9 9 10 10 11 11 12 12 13 13
REMARK H PARENT
REMARK Flexibility Score: inf
ROOT
ATOM      1  C   UNL     1     134.261 132.533 133.821  1.00  0.00     0.000 C 
ENDROOT
BRANCH   1   2
ATOM      2  C   UNL     1     133.326 133.655 134.298  1.00  0.00     0.000 C 
BRANCH   2   3
ATOM      3  C   UNL     1     132.114 133.858 133.369  1.00  0.00     0.006 C 
BRANCH   3   4
ATOM      4  C   UNL     1     130.969 132.860 133.596  1.00  0.00     0.053 C 
BRANCH   4   5
ATOM      5  C   UNL     1     130.738 131.991 132.396  1.00  0.00     0.041 C 
ATOM      6  O   UNL     1     131.671 131.783 131.577  1.00  0.00    -0.550 OA
ATOM      7  O   UNL     1     129.503 131.388 132.202  1.00  0.00    -0.550 OA
ENDBRANCH   4   5
ENDBRANCH   3   4
ENDBRANCH   2   3
ENDBRANCH   1   2
BRANCH   1   8
ATOM      8  C   UNL     1     135.428 133.102 133.004  1.00  0.00     0.000 C 
BRANCH   8   9
ATOM      9  C   UNL     1     136.083 134.283 133.728  1.00  0.00     0.006 C 
BRANCH   9  10
ATOM     10  C   UNL     1     136.059 135.543 132.858  1.00  0.00     0.053 C 
BRANCH  10  11
ATOM     11  C   UNL     1     137.433 135.862 132.359  1.00  0.00     0.041 C 
ATOM     12  O   UNL     1     137.676 135.850 131.124  1.00  0.00    -0.550 OA
ATOM     13  O   UNL     1     138.432 136.223 133.254  1.00  0.00    -0.550 OA
ENDBRANCH  10  11
ENDBRANCH   9  10
ENDBRANCH   8   9
ENDBRANCH   1   8
TORSDOF 8
ENDMDL
MODEL 2
REMARK VINA RESULT:    -4.699      2.987      4.747
REMARK INTER + INTRA:          -7.318
REMARK INTER:                  -6.640
REMARK INTRA:                  -0.678
REMARK UNBOUND:                -0.422
REMARK SMILES O=C([O-])CCCCCCCC(=O)[O-]
REMARK SMILES IDX 7 1 6 2 5 3 4 4 2 5 1 6 3 7 8 8 9 9 10 10 11 11 12 12 13 13
REMARK H PARENT
REMARK Flexibility Score: inf
ROOT
ATOM      1  C   UNL     1     135.440 135.169 133.050  1.00  0.00     0.000 C 
ENDROOT
BRANCH   1   2
ATOM      2  C   UNL     1     134.270 136.154 133.190  1.00  0.00     0.000 C 
BRANCH   2   3
ATOM      3  C   UNL     1     132.999 135.494 133.757  1.00  0.00     0.006 C 
BRANCH   3   4
ATOM      4  C   UNL     1     131.744 135.690 132.892  1.00  0.00     0.053 C 
BRANCH   4   5
ATOM      5  C   UNL     1     131.594 137.110 132.439  1.00  0.00     0.041 C 
ATOM      6  O   UNL     1     131.323 138.015 133.272  1.00  0.00    -0.550 OA
ATOM      7  O   UNL     1     131.783 137.438 131.103  1.00  0.00    -0.550 OA
ENDBRANCH   4   5
ENDBRANCH   3   4
ENDBRANCH   2   3
ENDBRANCH   1   2
BRANCH   1   8
ATOM      8  C   UNL     1     135.229 133.936 133.937  1.00  0.00     0.000 C 
BRANCH   8   9
ATOM      9  C   UNL     1     135.644 132.654 133.206  1.00  0.00     0.006 C 
BRANCH   9  10
ATOM     10  C   UNL     1     134.611 131.543 133.418  1.00  0.00     0.053 C 
BRANCH  10  11
ATOM     11  C   UNL     1     133.329 131.878 132.724  1.00  0.00     0.041 C 
ATOM     12  O   UNL     1     132.230 131.736 133.321  1.00  0.00    -0.550 OA
ATOM     13  O   UNL     1     133.351 132.396 131.435  1.00  0.00    -0.550 OA
ENDBRANCH  10  11
ENDBRANCH   9  10
ENDBRANCH   8   9
ENDBRANCH   1   8
TORSDOF 8
ENDMDL
MODEL 3
REMARK VINA RESULT:    -4.691      2.958      3.585
REMARK INTER + INTRA:          -7.307
REMARK INTER:                  -6.579
REMARK INTRA:                  -0.728
REMARK UNBOUND:                -0.422
REMARK SMILES O=C([O-])CCCCCCCC(=O)[O-]
REMARK SMILES IDX 7 1 6 2 5 3 4 4 2 5 1 6 3 7 8 8 9 9 10 10 11 11 12 12 13 13
REMARK H PARENT
REMARK Flexibility Score: inf
ROOT
ATOM      1  C   UNL     1     133.677 133.923 134.102  1.00  0.00     0.000 C 
ENDROOT
BRANCH   1   2
ATOM      2  C   UNL     1     133.743 132.730 133.137  1.00  0.00     0.000 C 
BRANCH   2   3
ATOM      3  C   UNL     1     132.558 131.760 133.305  1.00  0.00     0.006 C 
BRANCH   3   4
ATOM      4  C   UNL     1     131.185 132.444 133.384  1.00  0.00     0.053 C 
BRANCH   4   5
ATOM      5  C   UNL     1     130.159 131.737 132.551  1.00  0.00     0.041 C 
ATOM      6  O   UNL     1     130.276 131.703 131.298  1.00  0.00    -0.550 OA
ATOM      7  O   UNL     1     129.093 131.091 133.162  1.00  0.00    -0.550 OA
ENDBRANCH   4   5
ENDBRANCH   3   4
ENDBRANCH   2   3
ENDBRANCH   1   2
BRANCH   1   8
ATOM      8  C   UNL     1     134.189 135.202 133.430  1.00  0.00     0.000 C 
BRANCH   8   9
ATOM      9  C   UNL     1     133.192 136.353 133.605  1.00  0.00     0.006 C 
BRANCH   9  10
ATOM     10  C   UNL     1     131.822 135.987 133.027  1.00  0.00     0.053 C 
BRANCH  10  11
ATOM     11  C   UNL     1     131.869 135.978 131.532  1.00  0.00     0.041 C 
ATOM     12  O   UNL     1     131.956 137.060 130.894  1.00  0.00    -0.550 OA
ATOM     13  O   UNL     1     131.867 134.771 130.844  1.00  0.00    -0.550 OA
ENDBRANCH  10  11
ENDBRANCH   9  10
ENDBRANCH   8   9
ENDBRANCH   1   8
TORSDOF 8
ENDMDL
MODEL 4
REMARK VINA RESULT:    -4.664      2.772      5.437
REMARK INTER + INTRA:          -7.266
REMARK INTER:                  -6.586
REMARK INTRA:                  -0.681
REMARK UNBOUND:                -0.422
REMARK SMILES O=C([O-])CCCCCCCC(=O)[O-]
REMARK SMILES IDX 7 1 6 2 5 3 4 4 2 5 1 6 3 7 8 8 9 9 10 10 11 11 12 12 13 13
REMARK H PARENT
REMARK Flexibility Score: inf
ROOT
ATOM      1  C   UNL     1     134.181 133.488 134.237  1.00  0.00     0.000 C 
ENDROOT
BRANCH   1   2
ATOM      2  C   UNL     1     135.130 134.365 133.406  1.00  0.00     0.000 C 
BRANCH   2   3
ATOM      3  C   UNL     1     134.493 135.704 132.989  1.00  0.00     0.006 C 
BRANCH   3   4
ATOM      4  C   UNL     1     133.153 136.008 133.676  1.00  0.00     0.053 C 
BRANCH   4   5
ATOM      5  C   UNL     1     132.063 136.274 132.682  1.00  0.00     0.041 C 
ATOM      6  O   UNL     1     131.292 137.257 132.837  1.00  0.00    -0.550 OA
ATOM      7  O   UNL     1     131.922 135.455 131.570  1.00  0.00    -0.550 OA
ENDBRANCH   4   5
ENDBRANCH   3   4
ENDBRANCH   2   3
ENDBRANCH   1   2
BRANCH   1   8
ATOM      8  C   UNL     1     134.205 132.035 133.745  1.00  0.00     0.000 C 
BRANCH   8   9
ATOM      9  C   UNL     1     133.022 131.750 132.813  1.00  0.00     0.006 C 
BRANCH   9  10
ATOM     10  C   UNL     1     131.738 132.398 133.340  1.00  0.00     0.053 C 
BRANCH  10  11
ATOM     11  C   UNL     1     130.557 131.950 132.538  1.00  0.00     0.041 C 
ATOM     12  O   UNL     1     130.554 132.082 131.287  1.00  0.00    -0.550 OA
ATOM     13  O   UNL     1     129.479 131.340 133.168  1.00  0.00    -0.550 OA
ENDBRANCH  10  11
ENDBRANCH   9  10
ENDBRANCH   8   9
ENDBRANCH   1   8
TORSDOF 8
ENDMDL
MODEL 5
REMARK VINA RESULT:    -4.648      2.039      2.733
REMARK INTER + INTRA:          -7.244
REMARK INTER:                  -6.607
REMARK INTRA:                  -0.636
REMARK UNBOUND:                -0.422
REMARK SMILES O=C([O-])CCCCCCCC(=O)[O-]
REMARK SMILES IDX 7 1 6 2 5 3 4 4 2 5 1 6 3 7 8 8 9 9 10 10 11 11 12 12 13 13
REMARK H PARENT
REMARK Flexibility Score: inf
ROOT
ATOM      1  C   UNL     1     132.375 135.578 133.329  1.00  0.00     0.000 C 
ENDROOT
BRANCH   1   2
ATOM      2  C   UNL     1     131.420 134.426 132.979  1.00  0.00     0.000 C 
BRANCH   2   3
ATOM      3  C   UNL     1     131.748 133.127 133.739  1.00  0.00     0.006 C 
BRANCH   3   4
ATOM      4  C   UNL     1     131.595 131.848 132.902  1.00  0.00     0.053 C 
BRANCH   4   5
ATOM      5  C   UNL     1     130.174 131.623 132.480  1.00  0.00     0.041 C 
ATOM      6  O   UNL     1     129.291 131.371 133.341  1.00  0.00    -0.550 OA
ATOM      7  O   UNL     1     129.823 131.724 131.140  1.00  0.00    -0.550 OA
ENDBRANCH   4   5
ENDBRANCH   3   4
ENDBRANCH   2   3
ENDBRANCH   1   2
BRANCH   1   8
ATOM      8  C   UNL     1     133.632 135.054 134.034  1.00  0.00     0.000 C 
BRANCH   8   9
ATOM      9  C   UNL     1     134.897 135.422 133.251  1.00  0.00     0.006 C 
BRANCH   9  10
ATOM     10  C   UNL     1     135.982 134.356 133.426  1.00  0.00     0.053 C 
BRANCH  10  11
ATOM     11  C   UNL     1     135.586 133.087 132.740  1.00  0.00     0.041 C 
ATOM     12  O   UNL     1     135.505 133.043 131.485  1.00  0.00    -0.550 OA
ATOM     13  O   UNL     1     135.354 131.937 133.485  1.00  0.00    -0.550 OA
ENDBRANCH  10  11
ENDBRANCH   9  10
ENDBRANCH   8   9
ENDBRANCH   1   8
TORSDOF 8
ENDMDL
MODEL 6
REMARK VINA RESULT:    -4.646      2.402      5.208
REMARK INTER + INTRA:          -7.241
REMARK INTER:                  -6.634
REMARK INTRA:                  -0.607
REMARK UNBOUND:                -0.422
REMARK SMILES O=C([O-])CCCCCCCC(=O)[O-]
REMARK SMILES IDX 7 1 6 2 5 3 4 4 2 5 1 6 3 7 8 8 9 9 10 10 11 11 12 12 13 13
REMARK H PARENT
REMARK Flexibility Score: inf
ROOT
ATOM      1  C   UNL     1     133.580 133.838 134.342  1.00  0.00     0.000 C 
ENDROOT
BRANCH   1   2
ATOM      2  C   UNL     1     133.268 135.267 133.873  1.00  0.00     0.000 C 
BRANCH   2   3
ATOM      3  C   UNL     1     134.353 135.839 132.942  1.00  0.00     0.006 C 
BRANCH   3   4
ATOM      4  C   UNL     1     135.763 135.284 133.196  1.00  0.00     0.053 C 
BRANCH   4   5
ATOM      5  C   UNL     1     136.564 135.192 131.933  1.00  0.00     0.041 C 
ATOM      6  O   UNL     1     137.596 135.899 131.786  1.00  0.00    -0.550 OA
ATOM      7  O   UNL     1     136.188 134.304 130.934  1.00  0.00    -0.550 OA
ENDBRANCH   4   5
ENDBRANCH   3   4
ENDBRANCH   2   3
ENDBRANCH   1   2
BRANCH   1   8
ATOM      8  C   UNL     1     132.582 132.835 133.750  1.00  0.00     0.000 C 
BRANCH   8   9
ATOM      9  C   UNL     1     133.309 131.668 133.074  1.00  0.00     0.006 C 
BRANCH   9  10
ATOM     10  C   UNL     1     134.793 131.653 133.450  1.00  0.00     0.053 C 
BRANCH  10  11
ATOM     11  C   UNL     1     135.536 130.659 132.614  1.00  0.00     0.041 C 
ATOM     12  O   UNL     1     136.084 129.662 133.152  1.00  0.00    -0.550 OA
ATOM     13  O   UNL     1     135.581 130.808 131.233  1.00  0.00    -0.550 OA
ENDBRANCH  10  11
ENDBRANCH   9  10
ENDBRANCH   8   9
ENDBRANCH   1   8
TORSDOF 8
ENDMDL
MODEL 7
REMARK VINA RESULT:    -4.638      1.953      5.856
REMARK INTER + INTRA:          -7.229
REMARK INTER:                  -6.500
REMARK INTRA:                  -0.728
REMARK UNBOUND:                -0.422
REMARK SMILES O=C([O-])CCCCCCCC(=O)[O-]
REMARK SMILES IDX 7 1 6 2 5 3 4 4 2 5 1 6 3 7 8 8 9 9 10 10 11 11 12 12 13 13
REMARK H PARENT
REMARK Flexibility Score: inf
ROOT
ATOM      1  C   UNL     1     132.421 135.127 132.522  1.00  0.00     0.000 C 
ENDROOT
BRANCH   1   2
ATOM      2  C   UNL     1     133.371 135.884 133.462  1.00  0.00     0.000 C 
BRANCH   2   3
ATOM      3  C   UNL     1     134.856 135.645 133.129  1.00  0.00     0.006 C 
BRANCH   3   4
ATOM      4  C   UNL     1     135.458 134.392 133.784  1.00  0.00     0.053 C 
BRANCH   4   5
ATOM      5  C   UNL     1     135.614 133.269 132.804  1.00  0.00     0.041 C 
ATOM      6  O   UNL     1     135.572 133.498 131.567  1.00  0.00    -0.550 OA
ATOM      7  O   UNL     1     135.837 131.976 133.259  1.00  0.00    -0.550 OA
ENDBRANCH   4   5
ENDBRANCH   3   4
ENDBRANCH   2   3
ENDBRANCH   1   2
BRANCH   1   8
ATOM      8  C   UNL     1     131.392 134.315 133.319  1.00  0.00     0.000 C 
BRANCH   8   9
ATOM      9  C   UNL     1     131.983 132.978 133.781  1.00  0.00     0.006 C 
BRANCH   9  10
ATOM     10  C   UNL     1     131.866 131.917 132.683  1.00  0.00     0.053 C 
BRANCH  10  11
ATOM     11  C   UNL     1     130.438 131.744 132.270  1.00  0.00     0.041 C 
ATOM     12  O   UNL     1     130.098 131.932 131.073  1.00  0.00    -0.550 OA
ATOM     13  O   UNL     1     129.492 131.327 133.198  1.00  0.00    -0.550 OA
ENDBRANCH  10  11
ENDBRANCH   9  10
ENDBRANCH   8   9
ENDBRANCH   1   8
TORSDOF 8
ENDMDL
MODEL 8
REMARK VINA RESULT:    -4.559      2.091      5.604
REMARK INTER + INTRA:          -7.112
REMARK INTER:                  -6.504
REMARK INTRA:                  -0.609
REMARK UNBOUND:                -0.422
REMARK SMILES O=C([O-])CCCCCCCC(=O)[O-]
REMARK SMILES IDX 7 1 6 2 5 3 4 4 2 5 1 6 3 7 8 8 9 9 10 10 11 11 12 12 13 13
REMARK H PARENT
REMARK Flexibility Score: inf
ROOT
ATOM      1  C   UNL     1     135.587 133.164 133.016  1.00  0.00     0.000 C 
ENDROOT
BRANCH   1   2
ATOM      2  C   UNL     1     136.021 134.446 133.743  1.00  0.00     0.000 C 
BRANCH   2   3
ATOM      3  C   UNL     1     136.082 135.670 132.809  1.00  0.00     0.006 C 
BRANCH   3   4
ATOM      4  C   UNL     1     137.430 135.854 132.095  1.00  0.00     0.053 C 
BRANCH   4   5
ATOM      5  C   UNL     1     137.299 135.716 130.609  1.00  0.00     0.041 C 
ATOM      6  O   UNL     1     137.761 136.605 129.847  1.00  0.00    -0.550 OA
ATOM      7  O   UNL     1     136.695 134.589 130.067  1.00  0.00    -0.550 OA
ENDBRANCH   4   5
ENDBRANCH   3   4
ENDBRANCH   2   3
ENDBRANCH   1   2
BRANCH   1   8
ATOM      8  C   UNL     1     134.416 132.491 133.743  1.00  0.00     0.000 C 
BRANCH   8   9
ATOM      9  C   UNL     1     133.518 133.532 134.421  1.00  0.00     0.006 C 
BRANCH   9  10
ATOM     10  C   UNL     1     132.164 133.633 133.714  1.00  0.00     0.053 C 
BRANCH  10  11
ATOM     11  C   UNL     1     132.107 134.863 132.864  1.00  0.00     0.041 C 
ATOM     12  O   UNL     1     132.701 134.894 131.754  1.00  0.00    -0.550 OA
ATOM     13  O   UNL     1     131.356 135.958 133.273  1.00  0.00    -0.550 OA
ENDBRANCH  10  11
ENDBRANCH   9  10
ENDBRANCH   8   9
ENDBRANCH   1   8
TORSDOF 8
ENDMDL
MODEL 9
REMARK VINA RESULT:    -4.533      1.913      2.934
REMARK INTER + INTRA:          -7.075
REMARK INTER:                  -6.375
REMARK INTRA:                  -0.699
REMARK UNBOUND:                -0.422
REMARK SMILES O=C([O-])CCCCCCCC(=O)[O-]
REMARK SMILES IDX 7 1 6 2 5 3 4 4 2 5 1 6 3 7 8 8 9 9 10 10 11 11 12 12 13 13
REMARK H PARENT
REMARK Flexibility Score: inf
ROOT
ATOM      1  C   UNL     1     131.927 134.497 132.945  1.00  0.00     0.000 C 
ENDROOT
BRANCH   1   2
ATOM      2  C   UNL     1     131.574 133.201 133.691  1.00  0.00     0.000 C 
BRANCH   2   3
ATOM      3  C   UNL     1     132.048 131.937 132.949  1.00  0.00     0.006 C 
BRANCH   3   4
ATOM      4  C   UNL     1     133.460 131.468 133.335  1.00  0.00     0.053 C 
BRANCH   4   5
ATOM      5  C   UNL     1     134.409 131.540 132.177  1.00  0.00     0.041 C 
ATOM      6  O   UNL     1     135.392 130.756 132.115  1.00  0.00    -0.550 OA
ATOM      7  O   UNL     1     134.189 132.452 131.154  1.00  0.00    -0.550 OA
ENDBRANCH   4   5
ENDBRANCH   3   4
ENDBRANCH   2   3
ENDBRANCH   1   2
BRANCH   1   8
ATOM      8  C   UNL     1     132.919 135.343 133.752  1.00  0.00     0.000 C 
BRANCH   8   9
ATOM      9  C   UNL     1     134.163 135.675 132.922  1.00  0.00     0.006 C 
BRANCH   9  10
ATOM     10  C   UNL     1     135.385 134.906 133.431  1.00  0.00     0.053 C 
BRANCH  10  11
ATOM     11  C   UNL     1     136.627 135.379 132.743  1.00  0.00     0.041 C 
ATOM     12  O   UNL     1     137.631 135.728 133.416  1.00  0.00    -0.550 OA
ATOM     13  O   UNL     1     136.693 135.386 131.355  1.00  0.00    -0.550 OA
ENDBRANCH  10  11
ENDBRANCH   9  10
ENDBRANCH   8   9
ENDBRANCH   1   8
TORSDOF 8
ENDMDL
