MODEL 1
REMARK VINA RESULT:    -3.934      0.000      0.000
REMARK INTER + INTRA:          -4.977
REMARK INTER:                  -5.084
REMARK INTRA:                   0.108
REMARK UNBOUND:                 0.108
REMARK SMILES CO[C@@]1(CO)O[C@H](CO)[C@H](O)[C@@H]1O
REMARK SMILES IDX 3 1 12 2 10 3 7 4 6 5 2 6 1 7 4 8 5 9 13 11 11 13 8 15 9 16
REMARK H PARENT 5 10 13 12 11 14 9 17
REMARK Flexibility Score: inf
ROOT
ATOM      1  C   UNL     1      11.394  -3.743   1.914  1.00  0.00     0.221 C 
ATOM      2  C   UNL     1      10.084  -2.920   1.920  1.00  0.00     0.207 C 
ATOM      3  C   UNL     1       9.295  -3.605   3.007  1.00  0.00     0.180 C 
ATOM      4  C   UNL     1       9.791  -5.050   2.931  1.00  0.00     0.179 C 
ATOM      5  O   UNL     1      11.067  -5.059   2.324  1.00  0.00    -0.337 OA
ENDROOT
BRANCH   1   6
ATOM      6  O   UNL     1      12.299  -3.229   2.893  1.00  0.00    -0.349 OA
ATOM      7  C   UNL     1      12.174  -1.837   3.125  1.00  0.00     0.198 C 
ENDBRANCH   1   6
BRANCH   1   8
ATOM      8  C   UNL     1      12.047  -3.854   0.505  1.00  0.00     0.224 C 
BRANCH   8   9
ATOM      9  O   UNL     1      13.213  -3.078   0.439  1.00  0.00    -0.391 OA
ATOM     10  H   UNL     1      13.954  -3.668   0.736  1.00  0.00     0.210 HD
ENDBRANCH   8   9
ENDBRANCH   1   8
BRANCH   2  11
ATOM     11  O   UNL     1       9.414  -3.016   0.686  1.00  0.00    -0.385 OA
ATOM     12  H   UNL     1       9.944  -2.495   0.027  1.00  0.00     0.211 HD
ENDBRANCH   2  11
BRANCH   3  13
ATOM     13  O   UNL     1       7.906  -3.488   2.821  1.00  0.00    -0.387 OA
ATOM     14  H   UNL     1       7.744  -2.573   2.474  1.00  0.00     0.211 HD
ENDBRANCH   3  13
BRANCH   4  15
ATOM     15  C   UNL     1       8.854  -5.985   2.147  1.00  0.00     0.191 C 
BRANCH  15  16
ATOM     16  O   UNL     1       8.525  -5.419   0.906  1.00  0.00    -0.394 OA
ATOM     17  H   UNL     1       7.549  -5.236   0.924  1.00  0.00     0.210 HD
ENDBRANCH  15  16
ENDBRANCH   4  15
TORSDOF 7
ENDMDL
MODEL 2
REMARK VINA RESULT:    -3.725      3.178      5.861
REMARK INTER + INTRA:          -4.707
REMARK INTER:                  -3.915
REMARK INTRA:                  -0.791
REMARK UNBOUND:                 0.108
REMARK SMILES CO[C@@]1(CO)O[C@H](CO)[C@H](O)[C@@H]1O
REMARK SMILES IDX 3 1 12 2 10 3 7 4 6 5 2 6 1 7 4 8 5 9 13 11 11 13 8 15 9 16
REMARK H PARENT 5 10 13 12 11 14 9 17
REMARK Flexibility Score: inf
ROOT
ATOM      1  C   UNL     1       6.190  -7.059   1.958  1.00  0.00     0.221 C 
ATOM      2  C   UNL     1       7.349  -7.144   0.937  1.00  0.00     0.207 C 
ATOM      3  C   UNL     1       8.550  -7.245   1.844  1.00  0.00     0.180 C 
ATOM      4  C   UNL     1       8.110  -6.464   3.083  1.00  0.00     0.179 C 
ATOM      5  O   UNL     1       6.697  -6.438   3.124  1.00  0.00    -0.337 OA
ENDROOT
BRANCH   1   6
ATOM      6  O   UNL     1       5.783  -8.373   2.345  1.00  0.00    -0.349 OA
ATOM      7  C   UNL     1       4.381  -8.579   2.316  1.00  0.00     0.198 C 
ENDBRANCH   1   6
BRANCH   1   8
ATOM      8  C   UNL     1       4.995  -6.192   1.464  1.00  0.00     0.224 C 
BRANCH   8   9
ATOM      9  O   UNL     1       5.099  -4.882   1.955  1.00  0.00    -0.391 OA
ATOM     10  H   UNL     1       4.176  -4.519   1.970  1.00  0.00     0.210 HD
ENDBRANCH   8   9
ENDBRANCH   1   8
BRANCH   2  11
ATOM     11  O   UNL     1       7.422  -5.980   0.149  1.00  0.00    -0.385 OA
ATOM     12  H   UNL     1       7.622  -5.226   0.764  1.00  0.00     0.211 HD
ENDBRANCH   2  11
BRANCH   3  13
ATOM     13  O   UNL     1       9.718  -6.732   1.254  1.00  0.00    -0.387 OA
ATOM     14  H   UNL     1       9.850  -5.825   1.635  1.00  0.00     0.211 HD
ENDBRANCH   3  13
BRANCH   4  15
ATOM     15  C   UNL     1       8.641  -5.020   3.125  1.00  0.00     0.191 C 
BRANCH  15  16
ATOM     16  O   UNL     1       7.640  -4.120   2.733  1.00  0.00    -0.394 OA
ATOM     17  H   UNL     1       6.849  -4.663   2.477  1.00  0.00     0.210 HD
ENDBRANCH  15  16
ENDBRANCH   4  15
TORSDOF 7
ENDMDL
MODEL 3
REMARK VINA RESULT:    -3.510      1.845      2.605
REMARK INTER + INTRA:          -4.428
REMARK INTER:                  -3.890
REMARK INTRA:                  -0.538
REMARK UNBOUND:                 0.108
REMARK SMILES CO[C@@]1(CO)O[C@H](CO)[C@H](O)[C@@H]1O
REMARK SMILES IDX 3 1 12 2 10 3 7 4 6 5 2 6 1 7 4 8 5 9 13 11 11 13 8 15 9 16
REMARK H PARENT 5 10 13 12 11 14 9 17
REMARK Flexibility Score: inf
ROOT
ATOM      1  C   UNL     1      10.344  -4.466   2.010  1.00  0.00     0.221 C 
ATOM      2  C   UNL     1       8.939  -5.101   2.135  1.00  0.00     0.207 C 
ATOM      3  C   UNL     1       9.208  -6.266   3.053  1.00  0.00     0.180 C 
ATOM      4  C   UNL     1      10.655  -6.636   2.722  1.00  0.00     0.179 C 
ATOM      5  O   UNL     1      11.292  -5.507   2.157  1.00  0.00    -0.337 OA
ENDROOT
BRANCH   1   6
ATOM      6  O   UNL     1      10.569  -3.560   3.092  1.00  0.00    -0.349 OA
ATOM      7  C   UNL     1      11.716  -2.742   2.935  1.00  0.00     0.198 C 
ENDBRANCH   1   6
BRANCH   1   8
ATOM      8  C   UNL     1      10.602  -3.808   0.623  1.00  0.00     0.224 C 
BRANCH   8   9
ATOM      9  O   UNL     1       9.455  -3.139   0.172  1.00  0.00    -0.391 OA
ATOM     10  H   UNL     1       9.777  -2.335  -0.311  1.00  0.00     0.210 HD
ENDBRANCH   8   9
ENDBRANCH   1   8
BRANCH   2  11
ATOM     11  O   UNL     1       8.469  -5.552   0.888  1.00  0.00    -0.385 OA
ATOM     12  H   UNL     1       8.774  -6.492   0.786  1.00  0.00     0.211 HD
ENDBRANCH   2  11
BRANCH   3  13
ATOM     13  O   UNL     1       8.309  -7.329   2.856  1.00  0.00    -0.387 OA
ATOM     14  H   UNL     1       8.858  -8.124   2.631  1.00  0.00     0.211 HD
ENDBRANCH   3  13
BRANCH   4  15
ATOM     15  C   UNL     1      10.783  -7.823   1.751  1.00  0.00     0.191 C 
BRANCH  15  16
ATOM     16  O   UNL     1      10.608  -9.035   2.436  1.00  0.00    -0.394 OA
ATOM     17  H   UNL     1      11.320  -9.080   3.127  1.00  0.00     0.210 HD
ENDBRANCH  15  16
ENDBRANCH   4  15
TORSDOF 7
ENDMDL
MODEL 4
REMARK VINA RESULT:    -3.472      1.407      3.765
REMARK INTER + INTRA:          -4.379
REMARK INTER:                  -3.506
REMARK INTRA:                  -0.873
REMARK UNBOUND:                 0.108
REMARK SMILES CO[C@@]1(CO)O[C@H](CO)[C@H](O)[C@@H]1O
REMARK SMILES IDX 3 1 12 2 10 3 7 4 6 5 2 6 1 7 4 8 5 9 13 11 11 13 8 15 9 16
REMARK H PARENT 5 10 13 12 11 14 9 17
REMARK Flexibility Score: inf
ROOT
ATOM      1  C   UNL     1      10.629  -5.238   2.016  1.00  0.00     0.221 C 
ATOM      2  C   UNL     1      11.413  -4.568   0.863  1.00  0.00     0.207 C 
ATOM      3  C   UNL     1      12.429  -3.748   1.618  1.00  0.00     0.180 C 
ATOM      4  C   UNL     1      11.695  -3.404   2.915  1.00  0.00     0.179 C 
ATOM      5  O   UNL     1      10.674  -4.359   3.125  1.00  0.00    -0.337 OA
ENDROOT
BRANCH   1   6
ATOM      6  O   UNL     1      11.290  -6.437   2.424  1.00  0.00    -0.349 OA
ATOM      7  C   UNL     1      10.556  -7.621   2.167  1.00  0.00     0.198 C 
ENDBRANCH   1   6
BRANCH   1   8
ATOM      8  C   UNL     1       9.126  -5.474   1.684  1.00  0.00     0.224 C 
BRANCH   8   9
ATOM      9  O   UNL     1       8.367  -4.336   1.993  1.00  0.00    -0.391 OA
ATOM     10  H   UNL     1       8.107  -4.428   2.945  1.00  0.00     0.210 HD
ENDBRANCH   8   9
ENDBRANCH   1   8
BRANCH   2  11
ATOM     11  O   UNL     1      10.579  -3.735   0.094  1.00  0.00    -0.385 OA
ATOM     12  H   UNL     1      11.011  -3.633  -0.795  1.00  0.00     0.211 HD
ENDBRANCH   2  11
BRANCH   3  13
ATOM     13  O   UNL     1      12.846  -2.612   0.903  1.00  0.00    -0.387 OA
ATOM     14  H   UNL     1      12.039  -2.251   0.453  1.00  0.00     0.211 HD
ENDBRANCH   3  13
BRANCH   4  15
ATOM     15  C   UNL     1      11.075  -1.996   2.921  1.00  0.00     0.191 C 
BRANCH  15  16
ATOM     16  O   UNL     1       9.943  -1.957   2.093  1.00  0.00    -0.394 OA
ATOM     17  H   UNL     1       9.719  -0.999   1.958  1.00  0.00     0.210 HD
ENDBRANCH  15  16
ENDBRANCH   4  15
TORSDOF 7
ENDMDL
MODEL 5
REMARK VINA RESULT:    -3.347      1.854      4.355
REMARK INTER + INTRA:          -4.218
REMARK INTER:                  -3.869
REMARK INTRA:                  -0.349
REMARK UNBOUND:                 0.108
REMARK SMILES CO[C@@]1(CO)O[C@H](CO)[C@H](O)[C@@H]1O
REMARK SMILES IDX 3 1 12 2 10 3 7 4 6 5 2 6 1 7 4 8 5 9 13 11 11 13 8 15 9 16
REMARK H PARENT 5 10 13 12 11 14 9 17
REMARK Flexibility Score: inf
ROOT
ATOM      1  C   UNL     1       8.180  -6.021   1.993  1.00  0.00     0.221 C 
ATOM      2  C   UNL     1       9.597  -6.459   2.433  1.00  0.00     0.207 C 
ATOM      3  C   UNL     1      10.209  -5.145   2.850  1.00  0.00     0.180 C 
ATOM      4  C   UNL     1       9.504  -4.136   1.942  1.00  0.00     0.179 C 
ATOM      5  O   UNL     1       8.278  -4.693   1.511  1.00  0.00    -0.337 OA
ENDROOT
BRANCH   1   6
ATOM      6  O   UNL     1       7.309  -5.976   3.124  1.00  0.00    -0.349 OA
ATOM      7  C   UNL     1       6.107  -5.259   2.903  1.00  0.00     0.198 C 
ENDBRANCH   1   6
BRANCH   1   8
ATOM      8  C   UNL     1       7.601  -6.883   0.834  1.00  0.00     0.224 C 
BRANCH   8   9
ATOM      9  O   UNL     1       7.243  -6.073  -0.254  1.00  0.00    -0.391 OA
ATOM     10  H   UNL     1       7.377  -6.626  -1.066  1.00  0.00     0.210 HD
ENDBRANCH   8   9
ENDBRANCH   1   8
BRANCH   2  11
ATOM     11  O   UNL     1      10.315  -7.020   1.361  1.00  0.00    -0.385 OA
ATOM     12  H   UNL     1      10.193  -6.415   0.582  1.00  0.00     0.211 HD
ENDBRANCH   2  11
BRANCH   3  13
ATOM     13  O   UNL     1      11.608  -5.131   2.708  1.00  0.00    -0.387 OA
ATOM     14  H   UNL     1      11.806  -4.536   1.939  1.00  0.00     0.211 HD
ENDBRANCH   3  13
BRANCH   4  15
ATOM     15  C   UNL     1      10.331  -3.728   0.710  1.00  0.00     0.191 C 
BRANCH  15  16
ATOM     16  O   UNL     1       9.505  -3.613  -0.417  1.00  0.00    -0.394 OA
ATOM     17  H   UNL     1       9.026  -4.478  -0.513  1.00  0.00     0.210 HD
ENDBRANCH  15  16
ENDBRANCH   4  15
TORSDOF 7
ENDMDL
MODEL 6
REMARK VINA RESULT:    -3.264      8.931     11.515
REMARK INTER + INTRA:          -4.110
REMARK INTER:                  -3.282
REMARK INTRA:                  -0.828
REMARK UNBOUND:                 0.108
REMARK SMILES CO[C@@]1(CO)O[C@H](CO)[C@H](O)[C@@H]1O
REMARK SMILES IDX 3 1 12 2 10 3 7 4 6 5 2 6 1 7 4 8 5 9 13 11 11 13 8 15 9 16
REMARK H PARENT 5 10 13 12 11 14 9 17
REMARK Flexibility Score: inf
ROOT
ATOM      1  C   UNL     1      -0.375  -8.645   1.438  1.00  0.00     0.221 C 
ATOM      2  C   UNL     1       0.704  -9.194   0.474  1.00  0.00     0.207 C 
ATOM      3  C   UNL     1       1.727  -9.741   1.437  1.00  0.00     0.180 C 
ATOM      4  C   UNL     1       1.574  -8.828   2.654  1.00  0.00     0.179 C 
ATOM      5  O   UNL     1       0.283  -8.251   2.628  1.00  0.00    -0.337 OA
ENDROOT
BRANCH   1   6
ATOM      6  O   UNL     1      -1.280  -9.689   1.804  1.00  0.00    -0.349 OA
ATOM      7  C   UNL     1      -2.647  -9.358   1.634  1.00  0.00     0.198 C 
ENDBRANCH   1   6
BRANCH   1   8
ATOM      8  C   UNL     1      -1.112  -7.389   0.888  1.00  0.00     0.224 C 
BRANCH   8   9
ATOM      9  O   UNL     1      -0.258  -6.276   0.886  1.00  0.00    -0.391 OA
ATOM     10  H   UNL     1      -0.138  -6.019   1.837  1.00  0.00     0.210 HD
ENDBRANCH   8   9
ENDBRANCH   1   8
BRANCH   2  11
ATOM     11  O   UNL     1       1.261  -8.166  -0.309  1.00  0.00    -0.385 OA
ATOM     12  H   UNL     1       0.800  -7.324  -0.052  1.00  0.00     0.211 HD
ENDBRANCH   2  11
BRANCH   3  13
ATOM     13  O   UNL     1       3.028  -9.735   0.904  1.00  0.00    -0.387 OA
ATOM     14  H   UNL     1       2.932  -9.875  -0.074  1.00  0.00     0.211 HD
ENDBRANCH   3  13
BRANCH   4  15
ATOM     15  C   UNL     1       2.625  -7.706   2.723  1.00  0.00     0.191 C 
BRANCH  15  16
ATOM     16  O   UNL     1       2.412  -6.774   1.696  1.00  0.00    -0.394 OA
ATOM     17  H   UNL     1       2.984  -7.050   0.933  1.00  0.00     0.210 HD
ENDBRANCH  15  16
ENDBRANCH   4  15
TORSDOF 7
ENDMDL
MODEL 7
REMARK VINA RESULT:    -3.230      9.080     11.406
REMARK INTER + INTRA:          -4.066
REMARK INTER:                  -3.643
REMARK INTRA:                  -0.423
REMARK UNBOUND:                 0.108
REMARK SMILES CO[C@@]1(CO)O[C@H](CO)[C@H](O)[C@@H]1O
REMARK SMILES IDX 3 1 12 2 10 3 7 4 6 5 2 6 1 7 4 8 5 9 13 11 11 13 8 15 9 16
REMARK H PARENT 5 10 13 12 11 14 9 17
REMARK Flexibility Score: inf
ROOT
ATOM      1  C   UNL     1      -0.059  -7.935   1.417  1.00  0.00     0.221 C 
ATOM      2  C   UNL     1       1.220  -8.044   2.279  1.00  0.00     0.207 C 
ATOM      3  C   UNL     1       2.304  -7.896   1.241  1.00  0.00     0.180 C 
ATOM      4  C   UNL     1       1.660  -8.490  -0.013  1.00  0.00     0.179 C 
ATOM      5  O   UNL     1       0.255  -8.432   0.129  1.00  0.00    -0.337 OA
ENDROOT
BRANCH   1   6
ATOM      6  O   UNL     1      -0.416  -6.562   1.243  1.00  0.00    -0.349 OA
ATOM      7  C   UNL     1      -1.772  -6.355   0.889  1.00  0.00     0.198 C 
ENDBRANCH   1   6
BRANCH   1   8
ATOM      8  C   UNL     1      -1.243  -8.789   1.959  1.00  0.00     0.224 C 
BRANCH   8   9
ATOM      9  O   UNL     1      -1.187 -10.093   1.444  1.00  0.00    -0.391 OA
ATOM     10  H   UNL     1      -1.647 -10.671   2.106  1.00  0.00     0.210 HD
ENDBRANCH   8   9
ENDBRANCH   1   8
BRANCH   2  11
ATOM     11  O   UNL     1       1.307  -9.300   2.909  1.00  0.00    -0.385 OA
ATOM     12  H   UNL     1       0.449  -9.770   2.737  1.00  0.00     0.211 HD
ENDBRANCH   2  11
BRANCH   3  13
ATOM     13  O   UNL     1       3.497  -8.544   1.608  1.00  0.00    -0.387 OA
ATOM     14  H   UNL     1       3.235  -9.430   1.972  1.00  0.00     0.211 HD
ENDBRANCH   3  13
BRANCH   4  15
ATOM     15  C   UNL     1       2.078  -9.944  -0.293  1.00  0.00     0.191 C 
BRANCH  15  16
ATOM     16  O   UNL     1       2.336 -10.124  -1.660  1.00  0.00    -0.394 OA
ATOM     17  H   UNL     1       1.802 -10.909  -1.952  1.00  0.00     0.210 HD
ENDBRANCH  15  16
ENDBRANCH   4  15
TORSDOF 7
ENDMDL
MODEL 8
REMARK VINA RESULT:    -3.174      2.987      5.183
REMARK INTER + INTRA:          -3.994
REMARK INTER:                  -3.242
REMARK INTRA:                  -0.752
REMARK UNBOUND:                 0.108
REMARK SMILES CO[C@@]1(CO)O[C@H](CO)[C@H](O)[C@@H]1O
REMARK SMILES IDX 3 1 12 2 10 3 7 4 6 5 2 6 1 7 4 8 5 9 13 11 11 13 8 15 9 16
REMARK H PARENT 5 10 13 12 11 14 9 17
REMARK Flexibility Score: inf
ROOT
ATOM      1  C   UNL     1       7.722  -7.573   1.973  1.00  0.00     0.221 C 
ATOM      2  C   UNL     1       8.205  -6.673   0.812  1.00  0.00     0.207 C 
ATOM      3  C   UNL     1       9.016  -5.634   1.546  1.00  0.00     0.180 C 
ATOM      4  C   UNL     1       8.317  -5.551   2.904  1.00  0.00     0.179 C 
ATOM      5  O   UNL     1       7.612  -6.756   3.125  1.00  0.00    -0.337 OA
ENDROOT
BRANCH   1   6
ATOM      6  O   UNL     1       8.712  -8.559   2.272  1.00  0.00    -0.349 OA
ATOM      7  C   UNL     1       9.407  -9.046   1.137  1.00  0.00     0.198 C 
ENDBRANCH   1   6
BRANCH   1   8
ATOM      8  C   UNL     1       6.319  -8.200   1.725  1.00  0.00     0.224 C 
BRANCH   8   9
ATOM      9  O   UNL     1       5.305  -7.324   2.141  1.00  0.00    -0.391 OA
ATOM     10  H   UNL     1       5.765  -6.526   2.508  1.00  0.00     0.210 HD
ENDBRANCH   8   9
ENDBRANCH   1   8
BRANCH   2  11
ATOM     11  O   UNL     1       7.121  -6.073   0.145  1.00  0.00    -0.385 OA
ATOM     12  H   UNL     1       6.707  -6.774  -0.424  1.00  0.00     0.211 HD
ENDBRANCH   2  11
BRANCH   3  13
ATOM     13  O   UNL     1       9.054  -4.402   0.870  1.00  0.00    -0.387 OA
ATOM     14  H   UNL     1       8.286  -3.872   1.207  1.00  0.00     0.211 HD
ENDBRANCH   3  13
BRANCH   4  15
ATOM     15  C   UNL     1       7.341  -4.368   3.027  1.00  0.00     0.191 C 
BRANCH  15  16
ATOM     16  O   UNL     1       6.047  -4.762   2.658  1.00  0.00    -0.394 OA
ATOM     17  H   UNL     1       6.082  -5.001   1.695  1.00  0.00     0.210 HD
ENDBRANCH  15  16
ENDBRANCH   4  15
TORSDOF 7
ENDMDL
MODEL 9
REMARK VINA RESULT:    -3.120      2.951      4.292
REMARK INTER + INTRA:          -3.924
REMARK INTER:                  -3.081
REMARK INTRA:                  -0.843
REMARK UNBOUND:                 0.108
REMARK SMILES CO[C@@]1(CO)O[C@H](CO)[C@H](O)[C@@H]1O
REMARK SMILES IDX 3 1 12 2 10 3 7 4 6 5 2 6 1 7 4 8 5 9 13 11 11 13 8 15 9 16
REMARK H PARENT 5 10 13 12 11 14 9 17
REMARK Flexibility Score: inf
ROOT
ATOM      1  C   UNL     1       8.973  -6.961   2.204  1.00  0.00     0.221 C 
ATOM      2  C   UNL     1       8.081  -6.060   1.317  1.00  0.00     0.207 C 
ATOM      3  C   UNL     1       6.934  -5.753   2.246  1.00  0.00     0.180 C 
ATOM      4  C   UNL     1       6.861  -7.003   3.125  1.00  0.00     0.179 C 
ATOM      5  O   UNL     1       8.120  -7.645   3.103  1.00  0.00    -0.337 OA
ENDROOT
BRANCH   1   6
ATOM      6  O   UNL     1       9.839  -6.154   3.005  1.00  0.00    -0.349 OA
ATOM      7  C   UNL     1      10.707  -5.318   2.260  1.00  0.00     0.198 C 
ENDBRANCH   1   6
BRANCH   1   8
ATOM      8  C   UNL     1       9.749  -8.044   1.399  1.00  0.00     0.224 C 
BRANCH   8   9
ATOM      9  O   UNL     1       8.989  -9.217   1.289  1.00  0.00    -0.391 OA
ATOM     10  H   UNL     1       8.665  -9.423   2.204  1.00  0.00     0.210 HD
ENDBRANCH   8   9
ENDBRANCH   1   8
BRANCH   2  11
ATOM     11  O   UNL     1       7.625  -6.752   0.180  1.00  0.00    -0.385 OA
ATOM     12  H   UNL     1       7.817  -7.715   0.332  1.00  0.00     0.211 HD
ENDBRANCH   2  11
BRANCH   3  13
ATOM     13  O   UNL     1       5.736  -5.492   1.558  1.00  0.00    -0.387 OA
ATOM     14  H   UNL     1       5.095  -5.145   2.232  1.00  0.00     0.211 HD
ENDBRANCH   3  13
BRANCH   4  15
ATOM     15  C   UNL     1       5.778  -8.005   2.687  1.00  0.00     0.191 C 
BRANCH  15  16
ATOM     16  O   UNL     1       6.342  -9.022   1.903  1.00  0.00    -0.394 OA
ATOM     17  H   UNL     1       7.075  -8.607   1.377  1.00  0.00     0.210 HD
ENDBRANCH  15  16
ENDBRANCH   4  15
TORSDOF 7
ENDMDL
