MODEL 1
REMARK VINA RESULT:    11.570      0.000      0.000
REMARK INTER + INTRA:          18.083
REMARK INTER:                  16.981
REMARK INTRA:                   1.102
REMARK UNBOUND:                 1.102
REMARK SMILES CC(C)(O)CC[C@@H](O)[C@](C)(O)[C@H]1CC[C@]2(O)C3=CC(=O)[C@@H]4C[C@H](O)[C@H](O)C[C@]4(C)[C@H]3CC[C@]12C
REMARK SMILES IDX 6 1 7 2 9 3 10 4 12 5 34 6 33 7 32 8 15 9 31 10 17 11 14 12
REMARK SMILES IDX 13 13 30 14 18 15 28 16 19 17 21 18 27 19 29 20 20 21 22 22
REMARK SMILES IDX 25 23 23 24 16 25 26 27 24 29 11 31 8 33 5 35 2 36 1 37 3 38
REMARK SMILES IDX 4 39
REMARK H PARENT 16 26 26 28 24 30 11 32 8 34 4 40
REMARK Flexibility Score: inf
ROOT
ATOM      1  C   UNL     1      -5.574  34.675  25.287  1.00  0.00     0.038 C 
ENDROOT
BRANCH   1   2
ATOM      2  C   UNL     1      -6.022  33.412  26.064  1.00  0.00     0.146 C 
BRANCH   2   3
ATOM      3  C   UNL     1      -5.157  33.113  27.358  1.00  0.00     0.091 C 
ATOM      4  C   UNL     1      -6.125  32.815  28.549  1.00  0.00     0.045 C 
BRANCH   3   5
ATOM      5  C   UNL     1      -4.159  31.901  27.126  1.00  0.00     0.032 C 
ATOM      6  C   UNL     1      -5.833  30.300  28.458  1.00  0.00     0.015 C 
ATOM      7  C   UNL     1      -4.435  30.487  27.804  1.00  0.00     0.006 C 
ATOM      8  C   UNL     1      -4.276  29.393  26.699  1.00  0.00     0.011 C 
ATOM      9  C   UNL     1      -3.304  30.346  28.870  1.00  0.00     0.092 C 
ATOM     10  C   UNL     1      -4.194  27.973  27.254  1.00  0.00     0.009 C 
ATOM     11  C   UNL     1      -2.905  28.903  29.231  1.00  0.00    -0.031 C 
ATOM     12  C   UNL     1      -2.118  31.052  28.226  1.00  0.00     0.041 C 
ATOM     13  C   UNL     1      -2.709  32.264  27.532  1.00  0.00     0.010 C 
ATOM     14  C   UNL     1      -2.966  27.800  28.169  1.00  0.00     0.025 C 
ATOM     15  C   UNL     1      -2.227  28.696  30.379  1.00  0.00     0.050 C 
ATOM     16  C   UNL     1      -2.845  26.343  28.782  1.00  0.00    -0.013 C 
ATOM     17  C   UNL     1      -1.638  27.393  30.727  1.00  0.00     0.159 C 
ATOM     18  C   UNL     1      -1.603  26.275  29.723  1.00  0.00     0.070 C 
ATOM     19  C   UNL     1      -2.695  25.226  27.698  1.00  0.00     0.042 C 
ATOM     20  C   UNL     1      -4.121  26.008  29.611  1.00  0.00     0.013 C 
ATOM     21  O   UNL     1      -1.093  27.237  31.850  1.00  0.00    -0.295 OA
ATOM     22  C   UNL     1      -0.267  26.329  28.955  1.00  0.00     0.047 C 
ATOM     23  C   UNL     1      -1.347  25.218  26.946  1.00  0.00     0.143 C 
ATOM     24  C   UNL     1      -0.158  25.204  27.924  1.00  0.00     0.143 C 
BRANCH   9  25
ATOM     25  O   UNL     1      -3.647  31.083  30.031  1.00  0.00    -0.385 OA
ATOM     26  H   UNL     1      -3.490  32.044  29.852  1.00  0.00     0.211 HD
ENDBRANCH   9  25
BRANCH  23  27
ATOM     27  O   UNL     1      -1.241  26.310  26.067  1.00  0.00    -0.390 OA
ATOM     28  H   UNL     1      -0.901  25.952  25.206  1.00  0.00     0.211 HD
ENDBRANCH  23  27
BRANCH  24  29
ATOM     29  O   UNL     1       1.049  25.344  27.226  1.00  0.00    -0.390 OA
ATOM     30  H   UNL     1       0.920  24.922  26.338  1.00  0.00     0.211 HD
ENDBRANCH  24  29
ENDBRANCH   3   5
BRANCH   3  31
ATOM     31  O   UNL     1      -4.377  34.261  27.629  1.00  0.00    -0.387 OA
ATOM     32  H   UNL     1      -3.972  34.581  26.785  1.00  0.00     0.211 HD
ENDBRANCH   3  31
ENDBRANCH   2   3
BRANCH   2  33
ATOM     33  O   UNL     1      -5.987  32.310  25.186  1.00  0.00    -0.390 OA
ATOM     34  H   UNL     1      -5.060  31.970  25.167  1.00  0.00     0.211 HD
ENDBRANCH   2  33
ENDBRANCH   1   2
BRANCH   1  35
ATOM     35  C   UNL     1      -6.125  34.692  23.847  1.00  0.00     0.037 C 
BRANCH  35  36
ATOM     36  C   UNL     1      -5.122  34.153  22.784  1.00  0.00     0.059 C 
ATOM     37  C   UNL     1      -3.928  33.487  23.501  1.00  0.00     0.042 C 
ATOM     38  C   UNL     1      -5.789  33.104  21.878  1.00  0.00     0.042 C 
BRANCH  36  39
ATOM     39  O   UNL     1      -4.654  35.206  21.975  1.00  0.00    -0.390 OA
ATOM     40  H   UNL     1      -4.849  36.060  22.444  1.00  0.00     0.211 HD
ENDBRANCH  36  39
ENDBRANCH  35  36
ENDBRANCH   1  35
TORSDOF 11
ENDMDL
MODEL 2
REMARK VINA RESULT:    11.925      1.624      2.453
REMARK INTER + INTRA:          18.603
REMARK INTER:                  16.785
REMARK INTRA:                   1.818
REMARK UNBOUND:                 1.102
REMARK SMILES CC(C)(O)CC[C@@H](O)[C@](C)(O)[C@H]1CC[C@]2(O)C3=CC(=O)[C@@H]4C[C@H](O)[C@H](O)C[C@]4(C)[C@H]3CC[C@]12C
REMARK SMILES IDX 6 1 7 2 9 3 10 4 12 5 34 6 33 7 32 8 15 9 31 10 17 11 14 12
REMARK SMILES IDX 13 13 30 14 18 15 28 16 19 17 21 18 27 19 29 20 20 21 22 22
REMARK SMILES IDX 25 23 23 24 16 25 26 27 24 29 11 31 8 33 5 35 2 36 1 37 3 38
REMARK SMILES IDX 4 39
REMARK H PARENT 16 26 26 28 24 30 11 32 8 34 4 40
REMARK Flexibility Score: inf
ROOT
ATOM      1  C   UNL     1      -5.384  35.115  25.458  1.00  0.00     0.038 C 
ENDROOT
BRANCH   1   2
ATOM      2  C   UNL     1      -4.464  34.066  26.130  1.00  0.00     0.146 C 
BRANCH   2   3
ATOM      3  C   UNL     1      -5.246  32.945  26.932  1.00  0.00     0.091 C 
ATOM      4  C   UNL     1      -6.113  32.120  25.924  1.00  0.00     0.045 C 
BRANCH   3   5
ATOM      5  C   UNL     1      -4.254  31.996  27.728  1.00  0.00     0.032 C 
ATOM      6  C   UNL     1      -4.611  30.106  25.873  1.00  0.00     0.015 C 
ATOM      7  C   UNL     1      -4.028  30.490  27.262  1.00  0.00     0.006 C 
ATOM      8  C   UNL     1      -2.487  30.233  27.221  1.00  0.00     0.011 C 
ATOM      9  C   UNL     1      -4.688  29.638  28.392  1.00  0.00     0.092 C 
ATOM     10  C   UNL     1      -2.119  28.755  27.105  1.00  0.00     0.009 C 
ATOM     11  C   UNL     1      -4.112  28.222  28.580  1.00  0.00    -0.031 C 
ATOM     12  C   UNL     1      -4.435  30.458  29.650  1.00  0.00     0.041 C 
ATOM     13  C   UNL     1      -4.628  31.901  29.228  1.00  0.00     0.010 C 
ATOM     14  C   UNL     1      -2.626  27.955  28.320  1.00  0.00     0.025 C 
ATOM     15  C   UNL     1      -4.852  27.316  29.253  1.00  0.00     0.050 C 
ATOM     16  C   UNL     1      -2.279  26.411  28.239  1.00  0.00    -0.013 C 
ATOM     17  C   UNL     1      -4.325  26.001  29.649  1.00  0.00     0.159 C 
ATOM     18  C   UNL     1      -2.867  25.678  29.484  1.00  0.00     0.070 C 
ATOM     19  C   UNL     1      -0.743  26.124  28.185  1.00  0.00     0.042 C 
ATOM     20  C   UNL     1      -2.905  25.793  26.952  1.00  0.00     0.013 C 
ATOM     21  O   UNL     1      -5.088  25.165  30.199  1.00  0.00    -0.295 OA
ATOM     22  C   UNL     1      -2.123  26.028  30.789  1.00  0.00     0.047 C 
ATOM     23  C   UNL     1       0.025  26.412  29.493  1.00  0.00     0.143 C 
ATOM     24  C   UNL     1      -0.629  25.707  30.695  1.00  0.00     0.143 C 
BRANCH   9  25
ATOM     25  O   UNL     1      -6.091  29.594  28.199  1.00  0.00    -0.385 OA
ATOM     26  H   UNL     1      -6.279  29.682  27.231  1.00  0.00     0.211 HD
ENDBRANCH   9  25
BRANCH  23  27
ATOM     27  O   UNL     1       0.128  27.793  29.736  1.00  0.00    -0.390 OA
ATOM     28  H   UNL     1       0.609  28.185  28.960  1.00  0.00     0.211 HD
ENDBRANCH  23  27
BRANCH  24  29
ATOM     29  O   UNL     1      -0.005  26.099  31.888  1.00  0.00    -0.390 OA
ATOM     30  H   UNL     1       0.036  25.298  32.470  1.00  0.00     0.211 HD
ENDBRANCH  24  29
ENDBRANCH   3   5
BRANCH   3  31
ATOM     31  O   UNL     1      -6.072  33.591  27.881  1.00  0.00    -0.387 OA
ATOM     32  H   UNL     1      -5.931  34.568  27.815  1.00  0.00     0.211 HD
ENDBRANCH   3  31
ENDBRANCH   2   3
BRANCH   2  33
ATOM     33  O   UNL     1      -3.562  34.738  26.979  1.00  0.00    -0.390 OA
ATOM     34  H   UNL     1      -4.080  35.109  27.733  1.00  0.00     0.211 HD
ENDBRANCH   2  33
ENDBRANCH   1   2
BRANCH   1  35
ATOM     35  C   UNL     1      -6.125  34.535  24.236  1.00  0.00     0.037 C 
BRANCH  35  36
ATOM     36  C   UNL     1      -5.196  34.233  23.024  1.00  0.00     0.059 C 
ATOM     37  C   UNL     1      -4.080  33.262  23.464  1.00  0.00     0.042 C 
ATOM     38  C   UNL     1      -5.982  33.578  21.875  1.00  0.00     0.042 C 
BRANCH  36  39
ATOM     39  O   UNL     1      -4.616  35.424  22.543  1.00  0.00    -0.390 OA
ATOM     40  H   UNL     1      -4.784  36.136  23.216  1.00  0.00     0.211 HD
ENDBRANCH  36  39
ENDBRANCH  35  36
ENDBRANCH   1  35
TORSDOF 11
ENDMDL
