MODEL 1
REMARK VINA RESULT:    -6.581      0.000      0.000
REMARK INTER + INTRA:         -11.808
REMARK INTER:                 -10.043
REMARK INTRA:                  -1.765
REMARK UNBOUND:                -1.765
REMARK SMILES CC(=O)CCC=C(C)CCC=C(C)CCC=C(C)C
REMARK SMILES IDX 10 1 11 2 12 3 13 4 14 5 15 6 16 7 18 8 17 9 19 10 9 11 7 12
REMARK SMILES IDX 6 13 8 14 5 15 4 16 2 17 3 18 1 19
REMARK H PARENT
REMARK Flexibility Score: inf
ROOT
ATOM      1  C   UNL     1       3.534  10.437  28.939  1.00  0.00     0.032 C 
ENDROOT
BRANCH   1   2
ATOM      2  C   UNL     1       3.832  11.821  28.416  1.00  0.00    -0.028 C 
ATOM      3  C   UNL     1       3.562  12.241  27.159  1.00  0.00    -0.077 C 
ATOM      4  C   UNL     1       2.878  11.351  26.148  1.00  0.00     0.039 C 
BRANCH   3   5
ATOM      5  C   UNL     1       3.944  13.651  26.759  1.00  0.00     0.034 C 
BRANCH   5   6
ATOM      6  C   UNL     1       4.329  14.502  27.975  1.00  0.00     0.032 C 
BRANCH   6   7
ATOM      7  C   UNL     1       5.754  14.993  27.865  1.00  0.00    -0.028 C 
ATOM      8  C   UNL     1       7.898  15.923  28.620  1.00  0.00     0.039 C 
ATOM      9  C   UNL     1       6.514  15.402  28.906  1.00  0.00    -0.080 C 
ATOM     10  C   UNL     1       6.019  15.352  30.331  1.00  0.00     0.039 C 
ENDBRANCH   6   7
ENDBRANCH   5   6
ENDBRANCH   3   5
ENDBRANCH   1   2
BRANCH   1  11
ATOM     11  C   UNL     1       2.834  10.476  30.305  1.00  0.00     0.034 C 
BRANCH  11  12
ATOM     12  C   UNL     1       3.759  10.981  31.400  1.00  0.00    -0.077 C 
ATOM     13  C   UNL     1       3.788  12.269  31.816  1.00  0.00    -0.028 C 
ATOM     14  C   UNL     1       4.649   9.988  32.102  1.00  0.00     0.039 C 
BRANCH  13  15
ATOM     15  C   UNL     1       2.993  13.400  31.208  1.00  0.00     0.035 C 
BRANCH  15  16
ATOM     16  C   UNL     1       1.644  13.592  31.914  1.00  0.00     0.079 C 
BRANCH  16  17
ATOM     17  C   UNL     1       0.491  13.264  31.000  1.00  0.00     0.130 C 
ATOM     18  O   UNL     1      -0.571  12.896  31.478  1.00  0.00    -0.300 OA
ATOM     19  C   UNL     1       0.621  13.378  29.510  1.00  0.00     0.087 C 
ENDBRANCH  16  17
ENDBRANCH  15  16
ENDBRANCH  13  15
ENDBRANCH  11  12
ENDBRANCH   1  11
TORSDOF 9
ENDMDL
MODEL 2
REMARK VINA RESULT:    -6.364      1.468      3.522
REMARK INTER + INTRA:         -11.476
REMARK INTER:                  -9.398
REMARK INTRA:                  -2.078
REMARK UNBOUND:                -1.765
REMARK SMILES CC(=O)CCC=C(C)CCC=C(C)CCC=C(C)C
REMARK SMILES IDX 10 1 11 2 12 3 13 4 14 5 15 6 16 7 18 8 17 9 19 10 9 11 7 12
REMARK SMILES IDX 6 13 8 14 5 15 4 16 2 17 3 18 1 19
REMARK H PARENT
REMARK Flexibility Score: inf
ROOT
ATOM      1  C   UNL     1       2.690  11.264  31.751  1.00  0.00     0.032 C 
ENDROOT
BRANCH   1   2
ATOM      2  C   UNL     1       3.088  12.720  31.758  1.00  0.00    -0.028 C 
ATOM      3  C   UNL     1       4.129  13.228  32.458  1.00  0.00    -0.077 C 
ATOM      4  C   UNL     1       5.039  12.352  33.285  1.00  0.00     0.039 C 
BRANCH   3   5
ATOM      5  C   UNL     1       4.396  14.718  32.396  1.00  0.00     0.034 C 
BRANCH   5   6
ATOM      6  C   UNL     1       5.598  15.042  31.501  1.00  0.00     0.032 C 
BRANCH   6   7
ATOM      7  C   UNL     1       5.319  14.670  30.062  1.00  0.00    -0.028 C 
ATOM      8  C   UNL     1       5.549  14.731  27.618  1.00  0.00     0.039 C 
ATOM      9  C   UNL     1       5.991  15.155  28.994  1.00  0.00    -0.080 C 
ATOM     10  C   UNL     1       7.160  16.099  29.140  1.00  0.00     0.039 C 
ENDBRANCH   6   7
ENDBRANCH   5   6
ENDBRANCH   3   5
ENDBRANCH   1   2
BRANCH   1  11
ATOM     11  C   UNL     1       2.427  10.745  30.330  1.00  0.00     0.034 C 
BRANCH  11  12
ATOM     12  C   UNL     1       3.602  11.016  29.404  1.00  0.00    -0.077 C 
ATOM     13  C   UNL     1       3.540  11.863  28.350  1.00  0.00    -0.028 C 
ATOM     14  C   UNL     1       4.922  10.356  29.708  1.00  0.00     0.039 C 
BRANCH  13  15
ATOM     15  C   UNL     1       2.298  12.582  27.880  1.00  0.00     0.035 C 
BRANCH  15  16
ATOM     16  C   UNL     1       2.069  13.888  28.653  1.00  0.00     0.079 C 
BRANCH  16  17
ATOM     17  C   UNL     1       0.631  14.032  29.082  1.00  0.00     0.130 C 
ATOM     18  O   UNL     1      -0.206  14.392  28.270  1.00  0.00    -0.300 OA
ATOM     19  C   UNL     1       0.206  13.744  30.492  1.00  0.00     0.087 C 
ENDBRANCH  16  17
ENDBRANCH  15  16
ENDBRANCH  13  15
ENDBRANCH  11  12
ENDBRANCH   1  11
TORSDOF 9
ENDMDL
MODEL 3
REMARK VINA RESULT:    -6.160      2.085      4.008
REMARK INTER + INTRA:         -11.165
REMARK INTER:                  -8.782
REMARK INTRA:                  -2.383
REMARK UNBOUND:                -1.765
REMARK SMILES CC(=O)CCC=C(C)CCC=C(C)CCC=C(C)C
REMARK SMILES IDX 10 1 11 2 12 3 13 4 14 5 15 6 16 7 18 8 17 9 19 10 9 11 7 12
REMARK SMILES IDX 6 13 8 14 5 15 4 16 2 17 3 18 1 19
REMARK H PARENT
REMARK Flexibility Score: inf
ROOT
ATOM      1  C   UNL     1       5.002  10.366  29.314  1.00  0.00     0.032 C 
ENDROOT
BRANCH   1   2
ATOM      2  C   UNL     1       4.831  11.813  28.918  1.00  0.00    -0.028 C 
ATOM      3  C   UNL     1       3.969  12.253  27.973  1.00  0.00    -0.077 C 
ATOM      4  C   UNL     1       3.041  11.314  27.238  1.00  0.00     0.039 C 
BRANCH   3   5
ATOM      5  C   UNL     1       3.924  13.733  27.654  1.00  0.00     0.034 C 
BRANCH   5   6
ATOM      6  C   UNL     1       2.529  14.323  27.895  1.00  0.00     0.032 C 
BRANCH   6   7
ATOM      7  C   UNL     1       1.999  13.928  29.254  1.00  0.00    -0.028 C 
ATOM      8  C   UNL     1       0.326  13.494  30.999  1.00  0.00     0.039 C 
ATOM      9  C   UNL     1       0.689  13.841  29.579  1.00  0.00    -0.080 C 
ATOM     10  C   UNL     1      -0.407  14.079  28.569  1.00  0.00     0.039 C 
ENDBRANCH   6   7
ENDBRANCH   5   6
ENDBRANCH   3   5
ENDBRANCH   1   2
BRANCH   1  11
ATOM     11  C   UNL     1       4.659  10.130  30.792  1.00  0.00     0.034 C 
BRANCH  11  12
ATOM     12  C   UNL     1       3.271  10.642  31.139  1.00  0.00    -0.077 C 
ATOM     13  C   UNL     1       3.050  11.770  31.855  1.00  0.00    -0.028 C 
ATOM     14  C   UNL     1       2.076   9.893  30.609  1.00  0.00     0.039 C 
BRANCH  13  15
ATOM     15  C   UNL     1       4.122  12.624  32.489  1.00  0.00     0.035 C 
BRANCH  15  16
ATOM     16  C   UNL     1       3.893  14.117  32.220  1.00  0.00     0.079 C 
BRANCH  16  17
ATOM     17  C   UNL     1       5.192  14.838  31.962  1.00  0.00     0.130 C 
ATOM     18  O   UNL     1       5.880  15.197  32.905  1.00  0.00    -0.300 OA
ATOM     19  C   UNL     1       5.659  15.125  30.565  1.00  0.00     0.087 C 
ENDBRANCH  16  17
ENDBRANCH  15  16
ENDBRANCH  13  15
ENDBRANCH  11  12
ENDBRANCH   1  11
TORSDOF 9
ENDMDL
MODEL 4
REMARK VINA RESULT:    -6.127      1.272      4.574
REMARK INTER + INTRA:         -11.116
REMARK INTER:                  -9.518
REMARK INTRA:                  -1.598
REMARK UNBOUND:                -1.765
REMARK SMILES CC(=O)CCC=C(C)CCC=C(C)CCC=C(C)C
REMARK SMILES IDX 10 1 11 2 12 3 13 4 14 5 15 6 16 7 18 8 17 9 19 10 9 11 7 12
REMARK SMILES IDX 6 13 8 14 5 15 4 16 2 17 3 18 1 19
REMARK H PARENT
REMARK Flexibility Score: inf
ROOT
ATOM      1  C   UNL     1       5.149  14.247  27.647  1.00  0.00     0.032 C 
ENDROOT
BRANCH   1   2
ATOM      2  C   UNL     1       5.070  14.320  29.153  1.00  0.00    -0.028 C 
ATOM      3  C   UNL     1       5.828  15.134  29.923  1.00  0.00    -0.077 C 
ATOM      4  C   UNL     1       6.820  16.104  29.325  1.00  0.00     0.039 C 
BRANCH   3   5
ATOM      5  C   UNL     1       5.665  15.081  31.428  1.00  0.00     0.034 C 
BRANCH   5   6
ATOM      6  C   UNL     1       4.343  14.418  31.832  1.00  0.00     0.032 C 
BRANCH   6   7
ATOM      7  C   UNL     1       4.589  13.150  32.618  1.00  0.00    -0.028 C 
ATOM      8  C   UNL     1       4.505  10.752  33.141  1.00  0.00     0.039 C 
ATOM      9  C   UNL     1       4.246  11.908  32.211  1.00  0.00    -0.080 C 
ATOM     10  C   UNL     1       3.617  11.649  30.863  1.00  0.00     0.039 C 
ENDBRANCH   6   7
ENDBRANCH   5   6
ENDBRANCH   3   5
ENDBRANCH   1   2
BRANCH   1  11
ATOM     11  C   UNL     1       3.758  14.225  26.998  1.00  0.00     0.034 C 
BRANCH  11  12
ATOM     12  C   UNL     1       2.983  12.971  27.365  1.00  0.00    -0.077 C 
ATOM     13  C   UNL     1       1.920  12.971  28.205  1.00  0.00    -0.028 C 
ATOM     14  C   UNL     1       3.375  11.669  26.717  1.00  0.00     0.039 C 
BRANCH  13  15
ATOM     15  C   UNL     1       1.410  14.172  28.966  1.00  0.00     0.035 C 
BRANCH  15  16
ATOM     16  C   UNL     1       0.103  13.862  29.708  1.00  0.00     0.079 C 
BRANCH  16  17
ATOM     17  C   UNL     1       0.355  13.536  31.158  1.00  0.00     0.130 C 
ATOM     18  O   UNL     1       1.288  14.065  31.742  1.00  0.00    -0.300 OA
ATOM     19  C   UNL     1      -0.519  12.569  31.902  1.00  0.00     0.087 C 
ENDBRANCH  16  17
ENDBRANCH  15  16
ENDBRANCH  13  15
ENDBRANCH  11  12
ENDBRANCH   1  11
TORSDOF 9
ENDMDL
MODEL 5
REMARK VINA RESULT:    -5.925      1.385      3.746
REMARK INTER + INTRA:         -10.806
REMARK INTER:                  -9.151
REMARK INTRA:                  -1.655
REMARK UNBOUND:                -1.765
REMARK SMILES CC(=O)CCC=C(C)CCC=C(C)CCC=C(C)C
REMARK SMILES IDX 10 1 11 2 12 3 13 4 14 5 15 6 16 7 18 8 17 9 19 10 9 11 7 12
REMARK SMILES IDX 6 13 8 14 5 15 4 16 2 17 3 18 1 19
REMARK H PARENT
REMARK Flexibility Score: inf
ROOT
ATOM      1  C   UNL     1       5.251  14.756  31.462  1.00  0.00     0.032 C 
ENDROOT
BRANCH   1   2
ATOM      2  C   UNL     1       4.833  14.386  30.060  1.00  0.00    -0.028 C 
ATOM      3  C   UNL     1       5.489  14.763  28.938  1.00  0.00    -0.077 C 
ATOM      4  C   UNL     1       6.761  15.576  28.991  1.00  0.00     0.039 C 
BRANCH   3   5
ATOM      5  C   UNL     1       4.939  14.343  27.591  1.00  0.00     0.034 C 
BRANCH   5   6
ATOM      6  C   UNL     1       4.064  13.089  27.700  1.00  0.00     0.032 C 
BRANCH   6   7
ATOM      7  C   UNL     1       4.813  11.961  28.372  1.00  0.00    -0.028 C 
ATOM      8  C   UNL     1       5.121   9.875  29.632  1.00  0.00     0.039 C 
ATOM      9  C   UNL     1       4.235  10.883  28.947  1.00  0.00    -0.080 C 
ATOM     10  C   UNL     1       2.741  10.662  28.922  1.00  0.00     0.039 C 
ENDBRANCH   6   7
ENDBRANCH   5   6
ENDBRANCH   3   5
ENDBRANCH   1   2
BRANCH   1  11
ATOM     11  C   UNL     1       4.177  14.393  32.498  1.00  0.00     0.034 C 
BRANCH  11  12
ATOM     12  C   UNL     1       3.639  12.988  32.285  1.00  0.00    -0.077 C 
ATOM     13  C   UNL     1       2.397  12.730  31.809  1.00  0.00    -0.028 C 
ATOM     14  C   UNL     1       4.551  11.821  32.557  1.00  0.00     0.039 C 
BRANCH  13  15
ATOM     15  C   UNL     1       1.342  13.770  31.515  1.00  0.00     0.035 C 
BRANCH  15  16
ATOM     16  C   UNL     1       0.187  13.190  30.688  1.00  0.00     0.079 C 
BRANCH  16  17
ATOM     17  C   UNL     1       0.164  13.762  29.293  1.00  0.00     0.130 C 
ATOM     18  O   UNL     1      -0.827  13.611  28.597  1.00  0.00    -0.300 OA
ATOM     19  C   UNL     1       1.338  14.515  28.741  1.00  0.00     0.087 C 
ENDBRANCH  16  17
ENDBRANCH  15  16
ENDBRANCH  13  15
ENDBRANCH  11  12
ENDBRANCH   1  11
TORSDOF 9
ENDMDL
MODEL 6
REMARK VINA RESULT:    -5.837      1.253      4.052
REMARK INTER + INTRA:         -10.673
REMARK INTER:                  -9.277
REMARK INTRA:                  -1.395
REMARK UNBOUND:                -1.765
REMARK SMILES CC(=O)CCC=C(C)CCC=C(C)CCC=C(C)C
REMARK SMILES IDX 10 1 11 2 12 3 13 4 14 5 15 6 16 7 18 8 17 9 19 10 9 11 7 12
REMARK SMILES IDX 6 13 8 14 5 15 4 16 2 17 3 18 1 19
REMARK H PARENT
REMARK Flexibility Score: inf
ROOT
ATOM      1  C   UNL     1       6.129  15.517  31.436  1.00  0.00     0.032 C 
ENDROOT
BRANCH   1   2
ATOM      2  C   UNL     1       5.634  15.010  30.103  1.00  0.00    -0.028 C 
ATOM      3  C   UNL     1       6.234  15.259  28.917  1.00  0.00    -0.077 C 
ATOM      4  C   UNL     1       7.515  16.054  28.820  1.00  0.00     0.039 C 
BRANCH   3   5
ATOM      5  C   UNL     1       5.609  14.712  27.650  1.00  0.00     0.034 C 
BRANCH   5   6
ATOM      6  C   UNL     1       4.125  14.381  27.846  1.00  0.00     0.032 C 
BRANCH   6   7
ATOM      7  C   UNL     1       3.638  13.420  26.785  1.00  0.00    -0.028 C 
ATOM      8  C   UNL     1       2.962  11.271  25.808  1.00  0.00     0.039 C 
ATOM      9  C   UNL     1       3.384  12.108  26.988  1.00  0.00    -0.080 C 
ATOM     10  C   UNL     1       3.507  11.466  28.348  1.00  0.00     0.039 C 
ENDBRANCH   6   7
ENDBRANCH   5   6
ENDBRANCH   3   5
ENDBRANCH   1   2
BRANCH   1  11
ATOM     11  C   UNL     1       5.047  15.431  32.523  1.00  0.00     0.034 C 
BRANCH  11  12
ATOM     12  C   UNL     1       4.904  14.019  33.066  1.00  0.00    -0.077 C 
ATOM     13  C   UNL     1       4.018  13.118  32.577  1.00  0.00    -0.028 C 
ATOM     14  C   UNL     1       5.834  13.575  34.165  1.00  0.00     0.039 C 
BRANCH  13  15
ATOM     15  C   UNL     1       2.992  13.399  31.506  1.00  0.00     0.035 C 
BRANCH  15  16
ATOM     16  C   UNL     1       1.869  12.352  31.505  1.00  0.00     0.079 C 
BRANCH  16  17
ATOM     17  C   UNL     1       0.531  12.977  31.199  1.00  0.00     0.130 C 
ATOM     18  O   UNL     1      -0.416  12.764  31.939  1.00  0.00    -0.300 OA
ATOM     19  C   UNL     1       0.339  13.855  29.998  1.00  0.00     0.087 C 
ENDBRANCH  16  17
ENDBRANCH  15  16
ENDBRANCH  13  15
ENDBRANCH  11  12
ENDBRANCH   1  11
TORSDOF 9
ENDMDL
MODEL 7
REMARK VINA RESULT:    -5.813      1.324      3.678
REMARK INTER + INTRA:         -10.636
REMARK INTER:                  -9.650
REMARK INTRA:                  -0.985
REMARK UNBOUND:                -1.765
REMARK SMILES CC(=O)CCC=C(C)CCC=C(C)CCC=C(C)C
REMARK SMILES IDX 10 1 11 2 12 3 13 4 14 5 15 6 16 7 18 8 17 9 19 10 9 11 7 12
REMARK SMILES IDX 6 13 8 14 5 15 4 16 2 17 3 18 1 19
REMARK H PARENT
REMARK Flexibility Score: inf
ROOT
ATOM      1  C   UNL     1       3.844  11.195  28.271  1.00  0.00     0.032 C 
ENDROOT
BRANCH   1   2
ATOM      2  C   UNL     1       3.632  11.624  29.703  1.00  0.00    -0.028 C 
ATOM      3  C   UNL     1       4.205  11.030  30.775  1.00  0.00    -0.077 C 
ATOM      4  C   UNL     1       5.171   9.878  30.629  1.00  0.00     0.039 C 
BRANCH   3   5
ATOM      5  C   UNL     1       3.879  11.546  32.161  1.00  0.00     0.034 C 
BRANCH   5   6
ATOM      6  C   UNL     1       3.570  13.047  32.149  1.00  0.00     0.032 C 
BRANCH   6   7
ATOM      7  C   UNL     1       4.466  13.779  31.176  1.00  0.00    -0.028 C 
ATOM      8  C   UNL     1       6.039  15.492  30.388  1.00  0.00     0.039 C 
ATOM      9  C   UNL     1       5.251  14.834  31.490  1.00  0.00    -0.080 C 
ATOM     10  C   UNL     1       5.360  15.364  32.900  1.00  0.00     0.039 C 
ENDBRANCH   6   7
ENDBRANCH   5   6
ENDBRANCH   3   5
ENDBRANCH   1   2
BRANCH   1  11
ATOM     11  C   UNL     1       3.105  12.108  27.282  1.00  0.00     0.034 C 
BRANCH  11  12
ATOM     12  C   UNL     1       3.242  13.574  27.656  1.00  0.00    -0.077 C 
ATOM     13  C   UNL     1       2.276  14.272  28.300  1.00  0.00    -0.028 C 
ATOM     14  C   UNL     1       4.540  14.275  27.352  1.00  0.00     0.039 C 
BRANCH  13  15
ATOM     15  C   UNL     1       0.906  13.743  28.652  1.00  0.00     0.035 C 
BRANCH  15  16
ATOM     16  C   UNL     1       0.540  14.040  30.113  1.00  0.00     0.079 C 
BRANCH  16  17
ATOM     17  C   UNL     1       0.364  12.771  30.908  1.00  0.00     0.130 C 
ATOM     18  O   UNL     1       0.791  11.718  30.463  1.00  0.00    -0.300 OA
ATOM     19  C   UNL     1      -0.330  12.776  32.238  1.00  0.00     0.087 C 
ENDBRANCH  16  17
ENDBRANCH  15  16
ENDBRANCH  13  15
ENDBRANCH  11  12
ENDBRANCH   1  11
TORSDOF 9
ENDMDL
MODEL 8
REMARK VINA RESULT:    -5.804      2.139      4.240
REMARK INTER + INTRA:         -10.622
REMARK INTER:                  -8.511
REMARK INTRA:                  -2.111
REMARK UNBOUND:                -1.765
REMARK SMILES CC(=O)CCC=C(C)CCC=C(C)CCC=C(C)C
REMARK SMILES IDX 10 1 11 2 12 3 13 4 14 5 15 6 16 7 18 8 17 9 19 10 9 11 7 12
REMARK SMILES IDX 6 13 8 14 5 15 4 16 2 17 3 18 1 19
REMARK H PARENT
REMARK Flexibility Score: inf
ROOT
ATOM      1  C   UNL     1       1.137  11.267  31.770  1.00  0.00     0.032 C 
ENDROOT
BRANCH   1   2
ATOM      2  C   UNL     1       2.018  10.946  30.587  1.00  0.00    -0.028 C 
ATOM      3  C   UNL     1       3.298  10.518  30.677  1.00  0.00    -0.077 C 
ATOM      4  C   UNL     1       3.967  10.273  32.009  1.00  0.00     0.039 C 
BRANCH   3   5
ATOM      5  C   UNL     1       4.077  10.263  29.403  1.00  0.00     0.034 C 
BRANCH   5   6
ATOM      6  C   UNL     1       3.899  11.401  28.392  1.00  0.00     0.032 C 
BRANCH   6   7
ATOM      7  C   UNL     1       4.846  12.543  28.685  1.00  0.00    -0.028 C 
ATOM      8  C   UNL     1       5.854  14.771  28.456  1.00  0.00     0.039 C 
ATOM      9  C   UNL     1       4.796  13.759  28.098  1.00  0.00    -0.080 C 
ATOM     10  C   UNL     1       3.721  14.130  27.105  1.00  0.00     0.039 C 
ENDBRANCH   6   7
ENDBRANCH   5   6
ENDBRANCH   3   5
ENDBRANCH   1   2
BRANCH   1  11
ATOM     11  C   UNL     1       0.325  12.552  31.552  1.00  0.00     0.034 C 
BRANCH  11  12
ATOM     12  C   UNL     1       1.005  13.489  30.568  1.00  0.00    -0.077 C 
ATOM     13  C   UNL     1       2.187  14.102  30.818  1.00  0.00    -0.028 C 
ATOM     14  C   UNL     1       0.366  13.703  29.221  1.00  0.00     0.039 C 
BRANCH  13  15
ATOM     15  C   UNL     1       2.949  14.029  32.119  1.00  0.00     0.035 C 
BRANCH  15  16
ATOM     16  C   UNL     1       4.464  13.957  31.888  1.00  0.00     0.079 C 
BRANCH  16  17
ATOM     17  C   UNL     1       5.145  15.245  32.275  1.00  0.00     0.130 C 
ATOM     18  O   UNL     1       6.179  15.572  31.715  1.00  0.00    -0.300 OA
ATOM     19  C   UNL     1       4.577  16.136  33.341  1.00  0.00     0.087 C 
ENDBRANCH  16  17
ENDBRANCH  15  16
ENDBRANCH  13  15
ENDBRANCH  11  12
ENDBRANCH   1  11
TORSDOF 9
ENDMDL
MODEL 9
REMARK VINA RESULT:    -5.803      2.134      5.239
REMARK INTER + INTRA:         -10.620
REMARK INTER:                  -9.118
REMARK INTRA:                  -1.502
REMARK UNBOUND:                -1.765
REMARK SMILES CC(=O)CCC=C(C)CCC=C(C)CCC=C(C)C
REMARK SMILES IDX 10 1 11 2 12 3 13 4 14 5 15 6 16 7 18 8 17 9 19 10 9 11 7 12
REMARK SMILES IDX 6 13 8 14 5 15 4 16 2 17 3 18 1 19
REMARK H PARENT
REMARK Flexibility Score: inf
ROOT
ATOM      1  C   UNL     1       3.373  10.147  29.359  1.00  0.00     0.032 C 
ENDROOT
BRANCH   1   2
ATOM      2  C   UNL     1       2.361  10.931  30.158  1.00  0.00    -0.028 C 
ATOM      3  C   UNL     1       2.525  11.307  31.448  1.00  0.00    -0.077 C 
ATOM      4  C   UNL     1       3.792  11.004  32.213  1.00  0.00     0.039 C 
BRANCH   3   5
ATOM      5  C   UNL     1       1.411  12.066  32.138  1.00  0.00     0.034 C 
BRANCH   5   6
ATOM      6  C   UNL     1       1.263  13.487  31.582  1.00  0.00     0.032 C 
BRANCH   6   7
ATOM      7  C   UNL     1       0.130  13.565  30.585  1.00  0.00    -0.028 C 
ATOM      8  C   UNL     1      -0.997  14.088  28.466  1.00  0.00     0.039 C 
ATOM      9  C   UNL     1       0.245  14.015  29.315  1.00  0.00    -0.080 C 
ATOM     10  C   UNL     1       1.570  14.441  28.731  1.00  0.00     0.039 C 
ENDBRANCH   6   7
ENDBRANCH   5   6
ENDBRANCH   3   5
ENDBRANCH   1   2
BRANCH   1  11
ATOM     11  C   UNL     1       4.499  11.042  28.820  1.00  0.00     0.034 C 
BRANCH  11  12
ATOM     12  C   UNL     1       3.981  12.057  27.815  1.00  0.00    -0.077 C 
ATOM     13  C   UNL     1       4.362  13.357  27.804  1.00  0.00    -0.028 C 
ATOM     14  C   UNL     1       3.042  11.584  26.736  1.00  0.00     0.039 C 
BRANCH  13  15
ATOM     15  C   UNL     1       5.265  14.008  28.824  1.00  0.00     0.035 C 
BRANCH  15  16
ATOM     16  C   UNL     1       4.626  14.031  30.219  1.00  0.00     0.079 C 
BRANCH  16  17
ATOM     17  C   UNL     1       5.379  14.938  31.158  1.00  0.00     0.130 C 
ATOM     18  O   UNL     1       6.343  15.565  30.746  1.00  0.00    -0.300 OA
ATOM     19  C   UNL     1       4.970  15.086  32.594  1.00  0.00     0.087 C 
ENDBRANCH  16  17
ENDBRANCH  15  16
ENDBRANCH  13  15
ENDBRANCH  11  12
ENDBRANCH   1  11
TORSDOF 9
ENDMDL
