MODEL 1
REMARK VINA RESULT:    52.946      0.000      0.000
REMARK INTER + INTRA:          59.272
REMARK INTER:                  59.136
REMARK INTRA:                   0.136
REMARK UNBOUND:                 0.136
REMARK SMILES CC1(C)CC[C@]2(C(=O)[O-])[C@H](O)C[C@]3(C)C(=CC[C@H]4[C@@]5(C)CC[C@H](O)C(C)(C)[C@H]5CC[C@@]43C)[C@H]2C1
REMARK SMILES IDX 6 1 5 2 33 3 10 4 4 5 34 6 15 7 12 8 2 9 16 10 13 11 1 12
REMARK SMILES IDX 3 13 17 14 31 15 14 16 18 17 30 18 32 19 19 20 29 21 21 22
REMARK SMILES IDX 20 23 28 24 22 25 25 26 23 27 26 28 27 29 7 30 8 31 9 32
REMARK SMILES IDX 11 33 24 35
REMARK H PARENT 11 34 24 36
REMARK Flexibility Score: inf
ROOT
ATOM      1  C   UNL     1      46.614 -55.966 313.789  1.00  0.00     0.042 C 
ATOM      2  C   UNL     1      45.876 -55.974 312.406  1.00  0.00     0.017 C 
ATOM      3  C   UNL     1      46.071 -54.817 314.701  1.00  0.00     0.030 C 
ATOM      4  C   UNL     1      46.376 -57.301 314.567  1.00  0.00     0.127 C 
ATOM      5  C   UNL     1      44.562 -55.173 312.400  1.00  0.00     0.007 C 
ATOM      6  C   UNL     1      45.849 -53.503 313.921  1.00  0.00     0.015 C 
ATOM      7  C   UNL     1      46.898 -54.768 315.981  1.00  0.00    -0.063 C 
ATOM      8  C   UNL     1      47.039 -57.294 315.986  1.00  0.00     0.044 C 
ATOM      9  C   UNL     1      44.758 -53.674 312.807  1.00  0.00    -0.035 C 
ATOM     10  C   UNL     1      47.884 -53.843 316.104  1.00  0.00    -0.027 C 
ATOM     11  C   UNL     1      46.793 -56.018 316.894  1.00  0.00    -0.003 C 
ATOM     12  C   UNL     1      45.160 -52.849 311.565  1.00  0.00     0.011 C 
ATOM     13  C   UNL     1      43.407 -53.132 313.326  1.00  0.00     0.011 C 
ATOM     14  C   UNL     1      48.999 -53.923 317.108  1.00  0.00     0.032 C 
ATOM     15  C   UNL     1      47.834 -55.922 318.135  1.00  0.00    -0.020 C 
ATOM     16  C   UNL     1      45.331 -56.121 317.439  1.00  0.00     0.017 C 
ATOM     17  C   UNL     1      49.213 -55.376 317.596  1.00  0.00     0.006 C 
ATOM     18  C   UNL     1      48.074 -57.306 318.785  1.00  0.00     0.008 C 
ATOM     19  C   UNL     1      47.227 -54.981 319.235  1.00  0.00     0.012 C 
ATOM     20  C   UNL     1      50.563 -55.590 318.443  1.00  0.00    -0.025 C 
ATOM     21  C   UNL     1      49.170 -57.276 319.845  1.00  0.00     0.005 C 
ATOM     22  C   UNL     1      50.810 -54.405 319.435  1.00  0.00     0.010 C 
ATOM     23  C   UNL     1      51.731 -55.594 317.393  1.00  0.00     0.012 C 
ATOM     24  C   UNL     1      50.561 -56.983 319.221  1.00  0.00     0.003 C 
ATOM     25  C   UNL     1      51.984 -54.604 320.398  1.00  0.00     0.033 C 
ATOM     26  C   UNL     1      51.747 -57.172 320.275  1.00  0.00    -0.006 C 
ATOM     27  C   UNL     1      51.855 -55.913 321.189  1.00  0.00     0.120 C 
ATOM     28  C   UNL     1      51.503 -58.405 321.193  1.00  0.00     0.014 C 
ATOM     29  C   UNL     1      53.094 -57.469 319.551  1.00  0.00     0.014 C 
ENDROOT
BRANCH   1  30
ATOM     30  C   UNL     1      48.113 -55.828 313.495  1.00  0.00     0.051 C 
ATOM     31  O   UNL     1      48.575 -54.797 312.939  1.00  0.00    -0.549 OA
ATOM     32  O   UNL     1      48.980 -56.891 313.726  1.00  0.00    -0.549 OA
ENDBRANCH   1  30
BRANCH   4  33
ATOM     33  O   UNL     1      45.000 -57.578 314.657  1.00  0.00    -0.392 OA
ATOM     34  H   UNL     1      44.819 -57.854 315.594  1.00  0.00     0.210 HD
ENDBRANCH   4  33
BRANCH  27  35
ATOM     35  O   UNL     1      52.902 -56.035 322.125  1.00  0.00    -0.393 OA
ATOM     36  H   UNL     1      52.588 -55.669 322.992  1.00  0.00     0.210 HD
ENDBRANCH  27  35
TORSDOF 3
ENDMDL
