MODEL 1
REMARK VINA RESULT:    -4.825      0.000      0.000
REMARK INTER + INTRA:          -8.249
REMARK INTER:                  -7.646
REMARK INTRA:                  -0.603
REMARK UNBOUND:                -0.603
REMARK SMILES CCCCCCCCCCCC(=O)[O-]
REMARK SMILES IDX 7 1 8 2 9 3 10 4 11 5 12 6 13 7 14 8 6 9 5 10 4 11 3 12 2 13
REMARK SMILES IDX 1 14
REMARK H PARENT
REMARK Flexibility Score: inf
ROOT
ATOM      1  C   UNL     1       1.480  25.225  47.730  1.00  0.00     0.000 C 
ENDROOT
BRANCH   1   2
ATOM      2  C   UNL     1       1.368  24.393  49.015  1.00  0.00     0.000 C 
BRANCH   2   3
ATOM      3  C   UNL     1       2.558  23.437  49.218  1.00  0.00     0.000 C 
BRANCH   3   4
ATOM      4  C   UNL     1       3.015  23.270  50.679  1.00  0.00     0.006 C 
BRANCH   4   5
ATOM      5  C   UNL     1       2.525  21.962  51.313  1.00  0.00     0.053 C 
BRANCH   5   6
ATOM      6  C   UNL     1       1.416  22.233  52.278  1.00  0.00     0.041 C 
ATOM      7  O   UNL     1       1.611  22.114  53.517  1.00  0.00    -0.550 OA
ATOM      8  O   UNL     1       0.181  22.666  51.815  1.00  0.00    -0.550 OA
ENDBRANCH   5   6
ENDBRANCH   4   5
ENDBRANCH   3   4
ENDBRANCH   2   3
ENDBRANCH   1   2
BRANCH   1   9
ATOM      9  C   UNL     1       0.860  24.484  46.539  1.00  0.00     0.000 C 
BRANCH   9  10
ATOM     10  C   UNL     1       1.880  24.304  45.409  1.00  0.00    -0.000 C 
BRANCH  10  11
ATOM     11  C   UNL     1       2.437  22.876  45.389  1.00  0.00    -0.000 C 
BRANCH  11  12
ATOM     12  C   UNL     1       3.417  22.682  44.227  1.00  0.00    -0.000 C 
BRANCH  12  13
ATOM     13  C   UNL     1       2.680  22.271  42.948  1.00  0.00    -0.003 C 
ATOM     14  C   UNL     1       1.562  21.276  43.252  1.00  0.00     0.004 C 
ENDBRANCH  12  13
ENDBRANCH  11  12
ENDBRANCH  10  11
ENDBRANCH   9  10
ENDBRANCH   1   9
TORSDOF 10
ENDMDL
MODEL 2
REMARK VINA RESULT:    -4.808      1.417      1.796
REMARK INTER + INTRA:          -8.221
REMARK INTER:                  -7.803
REMARK INTRA:                  -0.418
REMARK UNBOUND:                -0.603
REMARK SMILES CCCCCCCCCCCC(=O)[O-]
REMARK SMILES IDX 7 1 8 2 9 3 10 4 11 5 12 6 13 7 14 8 6 9 5 10 4 11 3 12 2 13
REMARK SMILES IDX 1 14
REMARK H PARENT
REMARK Flexibility Score: inf
ROOT
ATOM      1  C   UNL     1       1.211  25.044  47.767  1.00  0.00     0.000 C 
ENDROOT
BRANCH   1   2
ATOM      2  C   UNL     1       1.769  24.031  48.777  1.00  0.00     0.000 C 
BRANCH   2   3
ATOM      3  C   UNL     1       1.398  24.368  50.233  1.00  0.00     0.000 C 
BRANCH   3   4
ATOM      4  C   UNL     1       1.618  23.225  51.240  1.00  0.00     0.006 C 
BRANCH   4   5
ATOM      5  C   UNL     1       2.582  22.149  50.724  1.00  0.00     0.053 C 
BRANCH   5   6
ATOM      6  C   UNL     1       3.691  21.928  51.702  1.00  0.00     0.041 C 
ATOM      7  O   UNL     1       4.839  22.394  51.474  1.00  0.00    -0.550 OA
ATOM      8  O   UNL     1       3.447  21.251  52.890  1.00  0.00    -0.550 OA
ENDBRANCH   5   6
ENDBRANCH   4   5
ENDBRANCH   3   4
ENDBRANCH   2   3
ENDBRANCH   1   2
BRANCH   1   9
ATOM      9  C   UNL     1       0.902  24.369  46.425  1.00  0.00     0.000 C 
BRANCH   9  10
ATOM     10  C   UNL     1       2.174  24.202  45.585  1.00  0.00    -0.000 C 
BRANCH  10  11
ATOM     11  C   UNL     1       2.502  22.721  45.367  1.00  0.00    -0.000 C 
BRANCH  11  12
ATOM     12  C   UNL     1       2.752  22.423  43.884  1.00  0.00    -0.000 C 
BRANCH  12  13
ATOM     13  C   UNL     1       1.687  21.474  43.326  1.00  0.00    -0.003 C 
ATOM     14  C   UNL     1       1.923  21.189  41.845  1.00  0.00     0.004 C 
ENDBRANCH  12  13
ENDBRANCH  11  12
ENDBRANCH  10  11
ENDBRANCH   9  10
ENDBRANCH   1   9
TORSDOF 10
ENDMDL
MODEL 3
REMARK VINA RESULT:    -4.642      1.669      2.213
REMARK INTER + INTRA:          -7.958
REMARK INTER:                  -7.322
REMARK INTRA:                  -0.636
REMARK UNBOUND:                -0.603
REMARK SMILES CCCCCCCCCCCC(=O)[O-]
REMARK SMILES IDX 7 1 8 2 9 3 10 4 11 5 12 6 13 7 14 8 6 9 5 10 4 11 3 12 2 13
REMARK SMILES IDX 1 14
REMARK H PARENT
REMARK Flexibility Score: inf
ROOT
ATOM      1  C   UNL     1       1.901  25.557  48.948  1.00  0.00     0.000 C 
ENDROOT
BRANCH   1   2
ATOM      2  C   UNL     1       2.039  24.137  49.516  1.00  0.00     0.000 C 
BRANCH   2   3
ATOM      3  C   UNL     1       1.190  23.909  50.779  1.00  0.00     0.000 C 
BRANCH   3   4
ATOM      4  C   UNL     1       1.234  22.477  51.342  1.00  0.00     0.006 C 
BRANCH   4   5
ATOM      5  C   UNL     1       2.194  22.330  52.529  1.00  0.00     0.053 C 
BRANCH   5   6
ATOM      6  C   UNL     1       3.400  21.540  52.130  1.00  0.00     0.041 C 
ATOM      7  O   UNL     1       3.391  20.284  52.217  1.00  0.00    -0.550 OA
ATOM      8  O   UNL     1       4.517  22.187  51.617  1.00  0.00    -0.550 OA
ENDBRANCH   5   6
ENDBRANCH   4   5
ENDBRANCH   3   4
ENDBRANCH   2   3
ENDBRANCH   1   2
BRANCH   1   9
ATOM      9  C   UNL     1       1.902  25.539  47.415  1.00  0.00     0.000 C 
BRANCH   9  10
ATOM     10  C   UNL     1       0.971  24.447  46.874  1.00  0.00    -0.000 C 
BRANCH  10  11
ATOM     11  C   UNL     1       1.412  23.986  45.481  1.00  0.00    -0.000 C 
BRANCH  11  12
ATOM     12  C   UNL     1       2.433  22.846  45.574  1.00  0.00    -0.000 C 
BRANCH  12  13
ATOM     13  C   UNL     1       3.072  22.567  44.210  1.00  0.00    -0.003 C 
ATOM     14  C   UNL     1       3.614  23.849  43.582  1.00  0.00     0.004 C 
ENDBRANCH  12  13
ENDBRANCH  11  12
ENDBRANCH  10  11
ENDBRANCH   9  10
ENDBRANCH   1   9
TORSDOF 10
ENDMDL
MODEL 4
REMARK VINA RESULT:    -4.623      3.779      7.009
REMARK INTER + INTRA:          -7.928
REMARK INTER:                  -7.355
REMARK INTRA:                  -0.573
REMARK UNBOUND:                -0.603
REMARK SMILES CCCCCCCCCCCC(=O)[O-]
REMARK SMILES IDX 7 1 8 2 9 3 10 4 11 5 12 6 13 7 14 8 6 9 5 10 4 11 3 12 2 13
REMARK SMILES IDX 1 14
REMARK H PARENT
REMARK Flexibility Score: inf
ROOT
ATOM      1  C   UNL     1       1.668  23.973  47.909  1.00  0.00     0.000 C 
ENDROOT
BRANCH   1   2
ATOM      2  C   UNL     1       0.945  24.428  46.633  1.00  0.00     0.000 C 
BRANCH   2   3
ATOM      3  C   UNL     1       1.787  24.224  45.361  1.00  0.00     0.000 C 
BRANCH   3   4
ATOM      4  C   UNL     1       2.394  22.818  45.202  1.00  0.00     0.006 C 
BRANCH   4   5
ATOM      5  C   UNL     1       3.150  22.639  43.879  1.00  0.00     0.053 C 
BRANCH   5   6
ATOM      6  C   UNL     1       2.311  21.886  42.896  1.00  0.00     0.041 C 
ATOM      7  O   UNL     1       1.386  21.132  43.300  1.00  0.00    -0.550 OA
ATOM      8  O   UNL     1       2.517  22.054  41.533  1.00  0.00    -0.550 OA
ENDBRANCH   5   6
ENDBRANCH   4   5
ENDBRANCH   3   4
ENDBRANCH   2   3
ENDBRANCH   1   2
BRANCH   1   9
ATOM      9  C   UNL     1       1.765  25.118  48.925  1.00  0.00     0.000 C 
BRANCH   9  10
ATOM     10  C   UNL     1       2.137  24.591  50.316  1.00  0.00    -0.000 C 
BRANCH  10  11
ATOM     11  C   UNL     1       0.896  24.104  51.071  1.00  0.00    -0.000 C 
BRANCH  11  12
ATOM     12  C   UNL     1       1.035  22.629  51.467  1.00  0.00    -0.000 C 
BRANCH  12  13
ATOM     13  C   UNL     1       2.385  22.063  51.015  1.00  0.00    -0.003 C 
ATOM     14  C   UNL     1       3.039  21.244  52.125  1.00  0.00     0.004 C 
ENDBRANCH  12  13
ENDBRANCH  11  12
ENDBRANCH  10  11
ENDBRANCH   9  10
ENDBRANCH   1   9
TORSDOF 10
ENDMDL
MODEL 5
REMARK VINA RESULT:    -4.619      1.496      2.429
REMARK INTER + INTRA:          -7.922
REMARK INTER:                  -7.144
REMARK INTRA:                  -0.778
REMARK UNBOUND:                -0.603
REMARK SMILES CCCCCCCCCCCC(=O)[O-]
REMARK SMILES IDX 7 1 8 2 9 3 10 4 11 5 12 6 13 7 14 8 6 9 5 10 4 11 3 12 2 13
REMARK SMILES IDX 1 14
REMARK H PARENT
REMARK Flexibility Score: inf
ROOT
ATOM      1  C   UNL     1       1.245  24.223  45.821  1.00  0.00     0.000 C 
ENDROOT
BRANCH   1   2
ATOM      2  C   UNL     1       0.789  24.600  47.238  1.00  0.00     0.000 C 
BRANCH   2   3
ATOM      3  C   UNL     1       1.963  24.837  48.204  1.00  0.00     0.000 C 
BRANCH   3   4
ATOM      4  C   UNL     1       1.794  24.207  49.599  1.00  0.00     0.006 C 
BRANCH   4   5
ATOM      5  C   UNL     1       2.614  22.924  49.780  1.00  0.00     0.053 C 
BRANCH   5   6
ATOM      6  C   UNL     1       2.125  22.155  50.966  1.00  0.00     0.041 C 
ATOM      7  O   UNL     1       2.886  21.337  51.548  1.00  0.00    -0.550 OA
ATOM      8  O   UNL     1       0.846  22.375  51.459  1.00  0.00    -0.550 OA
ENDBRANCH   5   6
ENDBRANCH   4   5
ENDBRANCH   3   4
ENDBRANCH   2   3
ENDBRANCH   1   2
BRANCH   1   9
ATOM      9  C   UNL     1       2.327  23.137  45.862  1.00  0.00     0.000 C 
BRANCH   9  10
ATOM     10  C   UNL     1       2.360  22.341  44.552  1.00  0.00    -0.000 C 
BRANCH  10  11
ATOM     11  C   UNL     1       3.581  22.722  43.707  1.00  0.00    -0.000 C 
BRANCH  11  12
ATOM     12  C   UNL     1       3.251  23.872  42.748  1.00  0.00    -0.000 C 
BRANCH  12  13
ATOM     13  C   UNL     1       4.211  25.049  42.949  1.00  0.00    -0.003 C 
ATOM     14  C   UNL     1       3.552  26.169  43.748  1.00  0.00     0.004 C 
ENDBRANCH  12  13
ENDBRANCH  11  12
ENDBRANCH  10  11
ENDBRANCH   9  10
ENDBRANCH   1   9
TORSDOF 10
ENDMDL
MODEL 6
REMARK VINA RESULT:    -4.543      3.853      6.974
REMARK INTER + INTRA:          -7.802
REMARK INTER:                  -7.206
REMARK INTRA:                  -0.596
REMARK UNBOUND:                -0.603
REMARK SMILES CCCCCCCCCCCC(=O)[O-]
REMARK SMILES IDX 7 1 8 2 9 3 10 4 11 5 12 6 13 7 14 8 6 9 5 10 4 11 3 12 2 13
REMARK SMILES IDX 1 14
REMARK H PARENT
REMARK Flexibility Score: inf
ROOT
ATOM      1  C   UNL     1       1.890  24.051  48.360  1.00  0.00     0.000 C 
ENDROOT
BRANCH   1   2
ATOM      2  C   UNL     1       1.434  24.864  47.140  1.00  0.00     0.000 C 
BRANCH   2   3
ATOM      3  C   UNL     1       1.227  23.999  45.884  1.00  0.00     0.000 C 
BRANCH   3   4
ATOM      4  C   UNL     1       2.371  23.015  45.577  1.00  0.00     0.006 C 
BRANCH   4   5
ATOM      5  C   UNL     1       2.107  22.160  44.331  1.00  0.00     0.053 C 
BRANCH   5   6
ATOM      6  C   UNL     1       2.874  22.691  43.162  1.00  0.00     0.041 C 
ATOM      7  O   UNL     1       3.809  23.516  43.340  1.00  0.00    -0.550 OA
ATOM      8  O   UNL     1       2.589  22.239  41.880  1.00  0.00    -0.550 OA
ENDBRANCH   5   6
ENDBRANCH   4   5
ENDBRANCH   3   4
ENDBRANCH   2   3
ENDBRANCH   1   2
BRANCH   1   9
ATOM      9  C   UNL     1       1.279  24.607  49.652  1.00  0.00     0.000 C 
BRANCH   9  10
ATOM     10  C   UNL     1       1.317  23.563  50.774  1.00  0.00    -0.000 C 
BRANCH  10  11
ATOM     11  C   UNL     1       2.360  22.478  50.483  1.00  0.00    -0.000 C 
BRANCH  11  12
ATOM     12  C   UNL     1       2.775  21.752  51.768  1.00  0.00    -0.000 C 
BRANCH  12  13
ATOM     13  C   UNL     1       4.189  22.158  52.196  1.00  0.00    -0.003 C 
ATOM     14  C   UNL     1       4.957  22.786  51.036  1.00  0.00     0.004 C 
ENDBRANCH  12  13
ENDBRANCH  11  12
ENDBRANCH  10  11
ENDBRANCH   9  10
ENDBRANCH   1   9
TORSDOF 10
ENDMDL
MODEL 7
REMARK VINA RESULT:    -4.437      2.408      3.078
REMARK INTER + INTRA:          -7.633
REMARK INTER:                  -7.046
REMARK INTRA:                  -0.587
REMARK UNBOUND:                -0.603
REMARK SMILES CCCCCCCCCCCC(=O)[O-]
REMARK SMILES IDX 7 1 8 2 9 3 10 4 11 5 12 6 13 7 14 8 6 9 5 10 4 11 3 12 2 13
REMARK SMILES IDX 1 14
REMARK H PARENT
REMARK Flexibility Score: inf
ROOT
ATOM      1  C   UNL     1       2.308  24.821  49.492  1.00  0.00     0.000 C 
ENDROOT
BRANCH   1   2
ATOM      2  C   UNL     1       2.156  24.026  50.797  1.00  0.00     0.000 C 
BRANCH   2   3
ATOM      3  C   UNL     1       2.711  22.594  50.696  1.00  0.00     0.000 C 
BRANCH   3   4
ATOM      4  C   UNL     1       3.986  22.332  51.519  1.00  0.00     0.006 C 
BRANCH   4   5
ATOM      5  C   UNL     1       5.239  22.964  50.899  1.00  0.00     0.053 C 
BRANCH   5   6
ATOM      6  C   UNL     1       5.905  23.873  51.882  1.00  0.00     0.041 C 
ATOM      7  O   UNL     1       5.246  24.372  52.831  1.00  0.00    -0.550 OA
ATOM      8  O   UNL     1       7.266  24.131  51.779  1.00  0.00    -0.550 OA
ENDBRANCH   5   6
ENDBRANCH   4   5
ENDBRANCH   3   4
ENDBRANCH   2   3
ENDBRANCH   1   2
BRANCH   1   9
ATOM      9  C   UNL     1       1.680  24.068  48.313  1.00  0.00     0.000 C 
BRANCH   9  10
ATOM     10  C   UNL     1       1.503  24.990  47.100  1.00  0.00    -0.000 C 
BRANCH  10  11
ATOM     11  C   UNL     1       1.372  24.180  45.806  1.00  0.00    -0.000 C 
BRANCH  11  12
ATOM     12  C   UNL     1       2.374  23.019  45.777  1.00  0.00    -0.000 C 
BRANCH  12  13
ATOM     13  C   UNL     1       2.797  22.693  44.341  1.00  0.00    -0.003 C 
ATOM     14  C   UNL     1       1.814  21.729  43.682  1.00  0.00     0.004 C 
ENDBRANCH  12  13
ENDBRANCH  11  12
ENDBRANCH  10  11
ENDBRANCH   9  10
ENDBRANCH   1   9
TORSDOF 10
ENDMDL
MODEL 8
REMARK VINA RESULT:    -4.241      3.540      6.732
REMARK INTER + INTRA:          -7.323
REMARK INTER:                  -6.571
REMARK INTRA:                  -0.752
REMARK UNBOUND:                -0.603
REMARK SMILES CCCCCCCCCCCC(=O)[O-]
REMARK SMILES IDX 7 1 8 2 9 3 10 4 11 5 12 6 13 7 14 8 6 9 5 10 4 11 3 12 2 13
REMARK SMILES IDX 1 14
REMARK H PARENT
REMARK Flexibility Score: inf
ROOT
ATOM      1  C   UNL     1       1.385  24.222  49.901  1.00  0.00     0.000 C 
ENDROOT
BRANCH   1   2
ATOM      2  C   UNL     1       2.000  24.061  48.503  1.00  0.00     0.000 C 
BRANCH   2   3
ATOM      3  C   UNL     1       1.142  24.694  47.393  1.00  0.00     0.000 C 
BRANCH   3   4
ATOM      4  C   UNL     1       1.287  24.039  46.007  1.00  0.00     0.006 C 
BRANCH   4   5
ATOM      5  C   UNL     1       2.394  22.978  45.959  1.00  0.00     0.053 C 
BRANCH   5   6
ATOM      6  C   UNL     1       2.645  22.550  44.548  1.00  0.00     0.041 C 
ATOM      7  O   UNL     1       1.817  21.809  43.954  1.00  0.00    -0.550 OA
ATOM      8  O   UNL     1       3.768  23.007  43.871  1.00  0.00    -0.550 OA
ENDBRANCH   5   6
ENDBRANCH   4   5
ENDBRANCH   3   4
ENDBRANCH   2   3
ENDBRANCH   1   2
BRANCH   1   9
ATOM      9  C   UNL     1       1.604  22.961  50.746  1.00  0.00     0.000 C 
BRANCH   9  10
ATOM     10  C   UNL     1       3.064  22.498  50.679  1.00  0.00    -0.000 C 
BRANCH  10  11
ATOM     11  C   UNL     1       3.754  22.653  52.039  1.00  0.00    -0.000 C 
BRANCH  11  12
ATOM     12  C   UNL     1       4.362  24.052  52.193  1.00  0.00    -0.000 C 
BRANCH  12  13
ATOM     13  C   UNL     1       5.219  24.417  50.977  1.00  0.00    -0.003 C 
ATOM     14  C   UNL     1       6.669  23.985  51.174  1.00  0.00     0.004 C 
ENDBRANCH  12  13
ENDBRANCH  11  12
ENDBRANCH  10  11
ENDBRANCH   9  10
ENDBRANCH   1   9
TORSDOF 10
ENDMDL
MODEL 9
REMARK VINA RESULT:    -4.202      4.739      8.819
REMARK INTER + INTRA:          -7.261
REMARK INTER:                  -6.499
REMARK INTRA:                  -0.762
REMARK UNBOUND:                -0.603
REMARK SMILES CCCCCCCCCCCC(=O)[O-]
REMARK SMILES IDX 7 1 8 2 9 3 10 4 11 5 12 6 13 7 14 8 6 9 5 10 4 11 3 12 2 13
REMARK SMILES IDX 1 14
REMARK H PARENT
REMARK Flexibility Score: inf
ROOT
ATOM      1  C   UNL     1      -0.185  25.660  53.935  1.00  0.00     0.000 C 
ENDROOT
BRANCH   1   2
ATOM      2  C   UNL     1       0.286  24.214  53.721  1.00  0.00     0.000 C 
BRANCH   2   3
ATOM      3  C   UNL     1       0.986  24.004  52.366  1.00  0.00     0.000 C 
BRANCH   3   4
ATOM      4  C   UNL     1       0.871  22.582  51.789  1.00  0.00     0.006 C 
BRANCH   4   5
ATOM      5  C   UNL     1       2.054  22.203  50.889  1.00  0.00     0.053 C 
BRANCH   5   6
ATOM      6  C   UNL     1       3.216  21.754  51.716  1.00  0.00     0.041 C 
ATOM      7  O   UNL     1       3.123  20.722  52.432  1.00  0.00    -0.550 OA
ATOM      8  O   UNL     1       4.419  22.446  51.659  1.00  0.00    -0.550 OA
ENDBRANCH   5   6
ENDBRANCH   4   5
ENDBRANCH   3   4
ENDBRANCH   2   3
ENDBRANCH   1   2
BRANCH   1   9
ATOM      9  C   UNL     1      -1.300  25.726  54.985  1.00  0.00     0.000 C 
BRANCH   9  10
ATOM     10  C   UNL     1      -2.089  24.412  55.036  1.00  0.00    -0.000 C 
BRANCH  10  11
ATOM     11  C   UNL     1      -2.187  23.883  56.472  1.00  0.00    -0.000 C 
BRANCH  11  12
ATOM     12  C   UNL     1      -0.924  24.222  57.272  1.00  0.00    -0.000 C 
BRANCH  12  13
ATOM     13  C   UNL     1       0.056  23.044  57.277  1.00  0.00    -0.003 C 
ATOM     14  C   UNL     1       0.429  22.644  58.702  1.00  0.00     0.004 C 
ENDBRANCH  12  13
ENDBRANCH  11  12
ENDBRANCH  10  11
ENDBRANCH   9  10
ENDBRANCH   1   9
TORSDOF 10
ENDMDL
