MODEL 1
REMARK VINA RESULT:    -4.716      0.000      0.000
REMARK INTER + INTRA:          -8.164
REMARK INTER:                  -6.783
REMARK INTRA:                  -1.380
REMARK UNBOUND:                -1.380
REMARK SMILES CC(C)=CCCC(C)=CCCC(C)=CCO
REMARK SMILES IDX 10 1 9 2 7 3 8 4 6 5 5 6 4 7 1 8 2 9 3 10 11 11 12 12 14 13
REMARK SMILES IDX 13 14 15 15 16 16
REMARK H PARENT 16 17
REMARK Flexibility Score: inf
ROOT
ATOM      1  C   UNL     1      -5.632  11.089 -14.024  1.00  0.00     0.032 C 
ENDROOT
BRANCH   1   2
ATOM      2  C   UNL     1      -5.339  11.553 -15.430  1.00  0.00    -0.028 C 
ATOM      3  C   UNL     1      -4.142  12.024 -15.850  1.00  0.00    -0.077 C 
ATOM      4  C   UNL     1      -2.936  12.066 -14.941  1.00  0.00     0.039 C 
BRANCH   3   5
ATOM      5  C   UNL     1      -4.003  12.506 -17.277  1.00  0.00     0.034 C 
BRANCH   5   6
ATOM      6  C   UNL     1      -4.728  13.841 -17.476  1.00  0.00     0.032 C 
BRANCH   6   7
ATOM      7  C   UNL     1      -3.766  14.996 -17.353  1.00  0.00    -0.028 C 
ATOM      8  C   UNL     1      -4.411  15.488 -14.982  1.00  0.00     0.039 C 
ATOM      9  C   UNL     1      -3.638  15.766 -16.248  1.00  0.00    -0.080 C 
ATOM     10  C   UNL     1      -2.664  16.916 -16.245  1.00  0.00     0.039 C 
ENDBRANCH   6   7
ENDBRANCH   5   6
ENDBRANCH   3   5
ENDBRANCH   1   2
BRANCH   1  11
ATOM     11  C   UNL     1      -6.145  12.235 -13.137  1.00  0.00     0.034 C 
BRANCH  11  12
ATOM     12  C   UNL     1      -5.374  12.331 -11.832  1.00  0.00    -0.075 C 
ATOM     13  C   UNL     1      -5.548  13.342 -10.950  1.00  0.00    -0.000 C 
ATOM     14  C   UNL     1      -4.346  11.275 -11.516  1.00  0.00     0.039 C 
BRANCH  13  15
ATOM     15  C   UNL     1      -6.558  14.449 -11.108  1.00  0.00     0.183 C 
BRANCH  15  16
ATOM     16  O   UNL     1      -5.957  15.697 -10.902  1.00  0.00    -0.392 OA
ATOM     17  H   UNL     1      -5.018  15.616 -11.214  1.00  0.00     0.210 HD
ENDBRANCH  15  16
ENDBRANCH  13  15
ENDBRANCH  11  12
ENDBRANCH   1  11
TORSDOF 8
ENDMDL
MODEL 2
REMARK VINA RESULT:    -4.577      1.696      3.288
REMARK INTER + INTRA:          -7.964
REMARK INTER:                  -6.767
REMARK INTRA:                  -1.197
REMARK UNBOUND:                -1.380
REMARK SMILES CC(C)=CCCC(C)=CCCC(C)=CCO
REMARK SMILES IDX 10 1 9 2 7 3 8 4 6 5 5 6 4 7 1 8 2 9 3 10 11 11 12 12 14 13
REMARK SMILES IDX 13 14 15 15 16 16
REMARK H PARENT 16 17
REMARK Flexibility Score: inf
ROOT
ATOM      1  C   UNL     1      -3.668  12.670 -15.460  1.00  0.00     0.032 C 
ENDROOT
BRANCH   1   2
ATOM      2  C   UNL     1      -3.252  14.118 -15.547  1.00  0.00    -0.028 C 
ATOM      3  C   UNL     1      -4.087  15.170 -15.384  1.00  0.00    -0.077 C 
ATOM      4  C   UNL     1      -5.542  14.986 -15.019  1.00  0.00     0.039 C 
BRANCH   3   5
ATOM      5  C   UNL     1      -3.544  16.571 -15.552  1.00  0.00     0.034 C 
BRANCH   5   6
ATOM      6  C   UNL     1      -2.498  16.621 -16.670  1.00  0.00     0.032 C 
BRANCH   6   7
ATOM      7  C   UNL     1      -3.031  17.359 -17.872  1.00  0.00    -0.028 C 
ATOM      8  C   UNL     1      -3.700  15.259 -19.063  1.00  0.00     0.039 C 
ATOM      9  C   UNL     1      -3.544  16.757 -18.969  1.00  0.00    -0.080 C 
ATOM     10  C   UNL     1      -4.023  17.593 -20.128  1.00  0.00     0.039 C 
ENDBRANCH   6   7
ENDBRANCH   5   6
ENDBRANCH   3   5
ENDBRANCH   1   2
BRANCH   1  11
ATOM     11  C   UNL     1      -3.501  12.110 -14.039  1.00  0.00     0.034 C 
BRANCH  11  12
ATOM     12  C   UNL     1      -4.820  11.628 -13.459  1.00  0.00    -0.075 C 
ATOM     13  C   UNL     1      -5.077  11.618 -12.132  1.00  0.00    -0.000 C 
ATOM     14  C   UNL     1      -5.879  11.107 -14.397  1.00  0.00     0.039 C 
BRANCH  13  15
ATOM     15  C   UNL     1      -4.137  12.136 -11.075  1.00  0.00     0.183 C 
BRANCH  15  16
ATOM     16  O   UNL     1      -4.713  13.212 -10.387  1.00  0.00    -0.392 OA
ATOM     17  H   UNL     1      -5.302  12.822  -9.690  1.00  0.00     0.210 HD
ENDBRANCH  15  16
ENDBRANCH  13  15
ENDBRANCH  11  12
ENDBRANCH   1  11
TORSDOF 8
ENDMDL
MODEL 3
REMARK VINA RESULT:    -4.567      1.476      5.013
REMARK INTER + INTRA:          -7.949
REMARK INTER:                  -6.711
REMARK INTRA:                  -1.238
REMARK UNBOUND:                -1.380
REMARK SMILES CC(C)=CCCC(C)=CCCC(C)=CCO
REMARK SMILES IDX 10 1 9 2 7 3 8 4 6 5 5 6 4 7 1 8 2 9 3 10 11 11 12 12 14 13
REMARK SMILES IDX 13 14 15 15 16 16
REMARK H PARENT 16 17
REMARK Flexibility Score: inf
ROOT
ATOM      1  C   UNL     1      -3.766  13.905 -16.707  1.00  0.00     0.032 C 
ENDROOT
BRANCH   1   2
ATOM      2  C   UNL     1      -4.628  12.855 -16.051  1.00  0.00    -0.028 C 
ATOM      3  C   UNL     1      -5.981  12.866 -16.041  1.00  0.00    -0.077 C 
ATOM      4  C   UNL     1      -6.776  13.928 -16.766  1.00  0.00     0.039 C 
BRANCH   3   5
ATOM      5  C   UNL     1      -6.718  11.775 -15.299  1.00  0.00     0.034 C 
BRANCH   5   6
ATOM      6  C   UNL     1      -5.751  10.937 -14.457  1.00  0.00     0.032 C 
BRANCH   6   7
ATOM      7  C   UNL     1      -5.803  11.352 -13.008  1.00  0.00    -0.028 C 
ATOM      8  C   UNL     1      -3.344  11.816 -12.887  1.00  0.00     0.039 C 
ATOM      9  C   UNL     1      -4.723  11.718 -12.281  1.00  0.00    -0.080 C 
ATOM     10  C   UNL     1      -4.886  12.086 -10.829  1.00  0.00     0.039 C 
ENDBRANCH   6   7
ENDBRANCH   5   6
ENDBRANCH   3   5
ENDBRANCH   1   2
BRANCH   1  11
ATOM     11  C   UNL     1      -3.034  14.774 -15.672  1.00  0.00     0.034 C 
BRANCH  11  12
ATOM     12  C   UNL     1      -3.298  16.256 -15.886  1.00  0.00    -0.075 C 
ATOM     13  C   UNL     1      -4.318  16.912 -15.290  1.00  0.00    -0.000 C 
ATOM     14  C   UNL     1      -2.408  17.023 -16.830  1.00  0.00     0.039 C 
BRANCH  13  15
ATOM     15  C   UNL     1      -5.270  16.293 -14.298  1.00  0.00     0.183 C 
BRANCH  15  16
ATOM     16  O   UNL     1      -5.032  16.790 -13.010  1.00  0.00    -0.392 OA
ATOM     17  H   UNL     1      -4.814  17.754 -13.113  1.00  0.00     0.210 HD
ENDBRANCH  15  16
ENDBRANCH  13  15
ENDBRANCH  11  12
ENDBRANCH   1  11
TORSDOF 8
ENDMDL
MODEL 4
REMARK VINA RESULT:    -4.404      1.711      3.649
REMARK INTER + INTRA:          -7.716
REMARK INTER:                  -5.902
REMARK INTRA:                  -1.814
REMARK UNBOUND:                -1.380
REMARK SMILES CC(C)=CCCC(C)=CCCC(C)=CCO
REMARK SMILES IDX 10 1 9 2 7 3 8 4 6 5 5 6 4 7 1 8 2 9 3 10 11 11 12 12 14 13
REMARK SMILES IDX 13 14 15 15 16 16
REMARK H PARENT 16 17
REMARK Flexibility Score: inf
ROOT
ATOM      1  C   UNL     1      -7.005  14.707 -13.315  1.00  0.00     0.032 C 
ENDROOT
BRANCH   1   2
ATOM      2  C   UNL     1      -5.762  15.447 -13.745  1.00  0.00    -0.028 C 
ATOM      3  C   UNL     1      -5.508  15.854 -15.009  1.00  0.00    -0.077 C 
ATOM      4  C   UNL     1      -6.506  15.660 -16.127  1.00  0.00     0.039 C 
BRANCH   3   5
ATOM      5  C   UNL     1      -4.194  16.541 -15.309  1.00  0.00     0.034 C 
BRANCH   5   6
ATOM      6  C   UNL     1      -3.361  15.717 -16.295  1.00  0.00     0.032 C 
BRANCH   6   7
ATOM      7  C   UNL     1      -2.847  14.458 -15.642  1.00  0.00    -0.028 C 
ATOM      8  C   UNL     1      -4.167  12.950 -17.145  1.00  0.00     0.039 C 
ATOM      9  C   UNL     1      -3.227  13.208 -15.993  1.00  0.00    -0.080 C 
ATOM     10  C   UNL     1      -2.671  12.020 -15.252  1.00  0.00     0.039 C 
ENDBRANCH   6   7
ENDBRANCH   5   6
ENDBRANCH   3   5
ENDBRANCH   1   2
BRANCH   1  11
ATOM     11  C   UNL     1      -6.672  13.476 -12.458  1.00  0.00     0.034 C 
BRANCH  11  12
ATOM     12  C   UNL     1      -6.264  12.285 -13.310  1.00  0.00    -0.075 C 
ATOM     13  C   UNL     1      -5.320  11.398 -12.924  1.00  0.00    -0.000 C 
ATOM     14  C   UNL     1      -6.912  12.100 -14.658  1.00  0.00     0.039 C 
BRANCH  13  15
ATOM     15  C   UNL     1      -4.609  11.429 -11.595  1.00  0.00     0.183 C 
BRANCH  15  16
ATOM     16  O   UNL     1      -3.529  12.321 -11.635  1.00  0.00    -0.392 OA
ATOM     17  H   UNL     1      -3.585  12.797 -12.505  1.00  0.00     0.210 HD
ENDBRANCH  15  16
ENDBRANCH  13  15
ENDBRANCH  11  12
ENDBRANCH   1  11
TORSDOF 8
ENDMDL
MODEL 5
REMARK VINA RESULT:    -4.385      1.489      3.234
REMARK INTER + INTRA:          -7.688
REMARK INTER:                  -6.056
REMARK INTRA:                  -1.632
REMARK UNBOUND:                -1.380
REMARK SMILES CC(C)=CCCC(C)=CCCC(C)=CCO
REMARK SMILES IDX 10 1 9 2 7 3 8 4 6 5 5 6 4 7 1 8 2 9 3 10 11 11 12 12 14 13
REMARK SMILES IDX 13 14 15 15 16 16
REMARK H PARENT 16 17
REMARK Flexibility Score: inf
ROOT
ATOM      1  C   UNL     1      -3.076  12.433 -15.270  1.00  0.00     0.032 C 
ENDROOT
BRANCH   1   2
ATOM      2  C   UNL     1      -2.889  13.928 -15.360  1.00  0.00    -0.028 C 
ATOM      3  C   UNL     1      -3.333  14.699 -16.379  1.00  0.00    -0.077 C 
ATOM      4  C   UNL     1      -4.140  14.126 -17.522  1.00  0.00     0.039 C 
BRANCH   3   5
ATOM      5  C   UNL     1      -3.029  16.180 -16.366  1.00  0.00     0.034 C 
BRANCH   5   6
ATOM      6  C   UNL     1      -4.262  16.986 -15.946  1.00  0.00     0.032 C 
BRANCH   6   7
ATOM      7  C   UNL     1      -4.744  16.558 -14.582  1.00  0.00    -0.028 C 
ATOM      8  C   UNL     1      -6.865  15.562 -15.469  1.00  0.00     0.039 C 
ATOM      9  C   UNL     1      -5.928  15.946 -14.351  1.00  0.00    -0.080 C 
ATOM     10  C   UNL     1      -6.324  15.588 -12.941  1.00  0.00     0.039 C 
ENDBRANCH   6   7
ENDBRANCH   5   6
ENDBRANCH   3   5
ENDBRANCH   1   2
BRANCH   1  11
ATOM     11  C   UNL     1      -3.423  11.983 -13.843  1.00  0.00     0.034 C 
BRANCH  11  12
ATOM     12  C   UNL     1      -4.924  11.946 -13.609  1.00  0.00    -0.075 C 
ATOM     13  C   UNL     1      -5.474  11.939 -12.374  1.00  0.00    -0.000 C 
ATOM     14  C   UNL     1      -5.844  11.880 -14.802  1.00  0.00     0.039 C 
BRANCH  13  15
ATOM     15  C   UNL     1      -4.691  12.034 -11.090  1.00  0.00     0.183 C 
BRANCH  15  16
ATOM     16  O   UNL     1      -4.802  13.318 -10.540  1.00  0.00    -0.392 OA
ATOM     17  H   UNL     1      -5.773  13.505 -10.447  1.00  0.00     0.210 HD
ENDBRANCH  15  16
ENDBRANCH  13  15
ENDBRANCH  11  12
ENDBRANCH   1  11
TORSDOF 8
ENDMDL
MODEL 6
REMARK VINA RESULT:    -4.337      2.507      5.562
REMARK INTER + INTRA:          -7.619
REMARK INTER:                  -6.185
REMARK INTRA:                  -1.434
REMARK UNBOUND:                -1.380
REMARK SMILES CC(C)=CCCC(C)=CCCC(C)=CCO
REMARK SMILES IDX 10 1 9 2 7 3 8 4 6 5 5 6 4 7 1 8 2 9 3 10 11 11 12 12 14 13
REMARK SMILES IDX 13 14 15 15 16 16
REMARK H PARENT 16 17
REMARK Flexibility Score: inf
ROOT
ATOM      1  C   UNL     1      -6.529  14.966 -17.142  1.00  0.00     0.032 C 
ENDROOT
BRANCH   1   2
ATOM      2  C   UNL     1      -6.900  13.583 -16.666  1.00  0.00    -0.028 C 
ATOM      3  C   UNL     1      -7.023  13.223 -15.368  1.00  0.00    -0.077 C 
ATOM      4  C   UNL     1      -6.863  14.220 -14.244  1.00  0.00     0.039 C 
BRANCH   3   5
ATOM      5  C   UNL     1      -7.348  11.784 -15.033  1.00  0.00     0.034 C 
BRANCH   5   6
ATOM      6  C   UNL     1      -6.075  10.997 -14.711  1.00  0.00     0.032 C 
BRANCH   6   7
ATOM      7  C   UNL     1      -5.816  10.979 -13.225  1.00  0.00    -0.028 C 
ATOM      8  C   UNL     1      -3.597  12.123 -13.437  1.00  0.00     0.039 C 
ATOM      9  C   UNL     1      -4.691  11.453 -12.642  1.00  0.00    -0.080 C 
ATOM     10  C   UNL     1      -4.524  11.358 -11.148  1.00  0.00     0.039 C 
ENDBRANCH   6   7
ENDBRANCH   5   6
ENDBRANCH   3   5
ENDBRANCH   1   2
BRANCH   1  11
ATOM     11  C   UNL     1      -5.110  15.010 -17.729  1.00  0.00     0.034 C 
BRANCH  11  12
ATOM     12  C   UNL     1      -4.046  14.851 -16.656  1.00  0.00    -0.075 C 
ATOM     13  C   UNL     1      -3.403  13.684 -16.428  1.00  0.00    -0.000 C 
ATOM     14  C   UNL     1      -3.714  16.034 -15.782  1.00  0.00     0.039 C 
BRANCH  13  15
ATOM     15  C   UNL     1      -3.600  12.428 -17.236  1.00  0.00     0.183 C 
BRANCH  15  16
ATOM     16  O   UNL     1      -2.680  11.444 -16.850  1.00  0.00    -0.392 OA
ATOM     17  H   UNL     1      -2.191  11.174 -17.671  1.00  0.00     0.210 HD
ENDBRANCH  15  16
ENDBRANCH  13  15
ENDBRANCH  11  12
ENDBRANCH   1  11
TORSDOF 8
ENDMDL
MODEL 7
REMARK VINA RESULT:    -4.326      2.016      5.785
REMARK INTER + INTRA:          -7.603
REMARK INTER:                  -6.434
REMARK INTRA:                  -1.169
REMARK UNBOUND:                -1.380
REMARK SMILES CC(C)=CCCC(C)=CCCC(C)=CCO
REMARK SMILES IDX 10 1 9 2 7 3 8 4 6 5 5 6 4 7 1 8 2 9 3 10 11 11 12 12 14 13
REMARK SMILES IDX 13 14 15 15 16 16
REMARK H PARENT 16 17
REMARK Flexibility Score: inf
ROOT
ATOM      1  C   UNL     1      -4.824  14.864 -19.112  1.00  0.00     0.032 C 
ENDROOT
BRANCH   1   2
ATOM      2  C   UNL     1      -4.068  13.858 -18.279  1.00  0.00    -0.028 C 
ATOM      3  C   UNL     1      -4.607  13.130 -17.275  1.00  0.00    -0.077 C 
ATOM      4  C   UNL     1      -6.077  13.209 -16.931  1.00  0.00     0.039 C 
BRANCH   3   5
ATOM      5  C   UNL     1      -3.718  12.195 -16.486  1.00  0.00     0.034 C 
BRANCH   5   6
ATOM      6  C   UNL     1      -3.147  12.897 -15.250  1.00  0.00     0.032 C 
BRANCH   6   7
ATOM      7  C   UNL     1      -3.327  12.046 -14.019  1.00  0.00    -0.028 C 
ATOM      8  C   UNL     1      -5.414  13.235 -13.307  1.00  0.00     0.039 C 
ATOM      9  C   UNL     1      -4.324  12.209 -13.119  1.00  0.00    -0.080 C 
ATOM     10  C   UNL     1      -4.391  11.318 -11.905  1.00  0.00     0.039 C 
ENDBRANCH   6   7
ENDBRANCH   5   6
ENDBRANCH   3   5
ENDBRANCH   1   2
BRANCH   1  11
ATOM     11  C   UNL     1      -4.731  16.281 -18.525  1.00  0.00     0.034 C 
BRANCH  11  12
ATOM     12  C   UNL     1      -3.292  16.759 -18.423  1.00  0.00    -0.075 C 
ATOM     13  C   UNL     1      -2.667  16.954 -17.240  1.00  0.00    -0.000 C 
ATOM     14  C   UNL     1      -2.535  17.062 -19.690  1.00  0.00     0.039 C 
BRANCH  13  15
ATOM     15  C   UNL     1      -3.277  16.664 -15.893  1.00  0.00     0.183 C 
BRANCH  15  16
ATOM     16  O   UNL     1      -3.567  17.856 -15.216  1.00  0.00    -0.392 OA
ATOM     17  H   UNL     1      -3.012  18.564 -15.636  1.00  0.00     0.210 HD
ENDBRANCH  15  16
ENDBRANCH  13  15
ENDBRANCH  11  12
ENDBRANCH   1  11
TORSDOF 8
ENDMDL
MODEL 8
REMARK VINA RESULT:    -4.311      2.473      5.860
REMARK INTER + INTRA:          -7.581
REMARK INTER:                  -6.156
REMARK INTRA:                  -1.425
REMARK UNBOUND:                -1.380
REMARK SMILES CC(C)=CCCC(C)=CCCC(C)=CCO
REMARK SMILES IDX 10 1 9 2 7 3 8 4 6 5 5 6 4 7 1 8 2 9 3 10 11 11 12 12 14 13
REMARK SMILES IDX 13 14 15 15 16 16
REMARK H PARENT 16 17
REMARK Flexibility Score: inf
ROOT
ATOM      1  C   UNL     1      -6.181  15.433 -15.267  1.00  0.00     0.032 C 
ENDROOT
BRANCH   1   2
ATOM      2  C   UNL     1      -6.555  15.002 -13.870  1.00  0.00    -0.028 C 
ATOM      3  C   UNL     1      -6.429  15.774 -12.767  1.00  0.00    -0.077 C 
ATOM      4  C   UNL     1      -5.952  17.206 -12.845  1.00  0.00     0.039 C 
BRANCH   3   5
ATOM      5  C   UNL     1      -6.794  15.194 -11.419  1.00  0.00     0.034 C 
BRANCH   5   6
ATOM      6  C   UNL     1      -6.928  13.670 -11.499  1.00  0.00     0.032 C 
BRANCH   6   7
ATOM      7  C   UNL     1      -5.590  13.003 -11.303  1.00  0.00    -0.028 C 
ATOM      8  C   UNL     1      -5.891  11.468 -13.260  1.00  0.00     0.039 C 
ATOM      9  C   UNL     1      -5.126  11.988 -12.068  1.00  0.00    -0.080 C 
ATOM     10  C   UNL     1      -3.784  11.374 -11.765  1.00  0.00     0.039 C 
ENDBRANCH   6   7
ENDBRANCH   5   6
ENDBRANCH   3   5
ENDBRANCH   1   2
BRANCH   1  11
ATOM     11  C   UNL     1      -5.296  14.393 -15.971  1.00  0.00     0.034 C 
BRANCH  11  12
ATOM     12  C   UNL     1      -3.820  14.616 -15.684  1.00  0.00    -0.075 C 
ATOM     13  C   UNL     1      -2.939  13.601 -15.543  1.00  0.00    -0.000 C 
ATOM     14  C   UNL     1      -3.318  16.028 -15.516  1.00  0.00     0.039 C 
BRANCH  13  15
ATOM     15  C   UNL     1      -3.280  12.143 -15.715  1.00  0.00     0.183 C 
BRANCH  15  16
ATOM     16  O   UNL     1      -2.917  11.700 -16.993  1.00  0.00    -0.392 OA
ATOM     17  H   UNL     1      -2.370  12.421 -17.401  1.00  0.00     0.210 HD
ENDBRANCH  15  16
ENDBRANCH  13  15
ENDBRANCH  11  12
ENDBRANCH   1  11
TORSDOF 8
ENDMDL
MODEL 9
REMARK VINA RESULT:    -4.302      1.827      5.146
REMARK INTER + INTRA:          -7.569
REMARK INTER:                  -6.101
REMARK INTRA:                  -1.467
REMARK UNBOUND:                -1.380
REMARK SMILES CC(C)=CCCC(C)=CCCC(C)=CCO
REMARK SMILES IDX 10 1 9 2 7 3 8 4 6 5 5 6 4 7 1 8 2 9 3 10 11 11 12 12 14 13
REMARK SMILES IDX 13 14 15 15 16 16
REMARK H PARENT 16 17
REMARK Flexibility Score: inf
ROOT
ATOM      1  C   UNL     1      -6.425  15.122 -17.083  1.00  0.00     0.032 C 
ENDROOT
BRANCH   1   2
ATOM      2  C   UNL     1      -6.879  13.753 -16.641  1.00  0.00    -0.028 C 
ATOM      3  C   UNL     1      -7.014  13.366 -15.352  1.00  0.00    -0.077 C 
ATOM      4  C   UNL     1      -6.781  14.320 -14.203  1.00  0.00     0.039 C 
BRANCH   3   5
ATOM      5  C   UNL     1      -7.428  11.943 -15.052  1.00  0.00     0.034 C 
BRANCH   5   6
ATOM      6  C   UNL     1      -6.202  11.056 -14.817  1.00  0.00     0.032 C 
BRANCH   6   7
ATOM      7  C   UNL     1      -5.849  11.005 -13.352  1.00  0.00    -0.028 C 
ATOM      8  C   UNL     1      -3.689  12.235 -13.667  1.00  0.00     0.039 C 
ATOM      9  C   UNL     1      -4.705  11.503 -12.827  1.00  0.00    -0.080 C 
ATOM     10  C   UNL     1      -4.440  11.371 -11.349  1.00  0.00     0.039 C 
ENDBRANCH   6   7
ENDBRANCH   5   6
ENDBRANCH   3   5
ENDBRANCH   1   2
BRANCH   1  11
ATOM     11  C   UNL     1      -5.079  15.069 -17.822  1.00  0.00     0.034 C 
BRANCH  11  12
ATOM     12  C   UNL     1      -4.019  14.334 -17.019  1.00  0.00    -0.075 C 
ATOM     13  C   UNL     1      -3.248  14.943 -16.090  1.00  0.00    -0.000 C 
ATOM     14  C   UNL     1      -3.789  12.868 -17.289  1.00  0.00     0.039 C 
BRANCH  13  15
ATOM     15  C   UNL     1      -3.381  16.388 -15.685  1.00  0.00     0.183 C 
BRANCH  15  16
ATOM     16  O   UNL     1      -3.998  16.494 -14.432  1.00  0.00    -0.392 OA
ATOM     17  H   UNL     1      -3.742  17.380 -14.062  1.00  0.00     0.210 HD
ENDBRANCH  15  16
ENDBRANCH  13  15
ENDBRANCH  11  12
ENDBRANCH   1  11
TORSDOF 8
ENDMDL
