MODEL 1
REMARK VINA RESULT:    -3.217      0.000      0.000
REMARK INTER + INTRA:          -4.061
REMARK INTER:                  -3.781
REMARK INTRA:                  -0.280
REMARK UNBOUND:                -0.280
REMARK SMILES O=c1c(O)c(-c2ccc(O)cc2)oc2cc(O)cc(O)c12
REMARK SMILES IDX 5 1 3 2 2 3 1 4 21 5 19 6 18 7 16 8 15 9 14 10 13 11 6 12
REMARK SMILES IDX 7 13 8 14 9 15 12 16 11 17 10 18 4 20 20 22 17 24
REMARK H PARENT 10 19 4 21 20 23 17 25
REMARK Flexibility Score: inf
ROOT
ATOM      1  C   UNL     1     -23.646 -19.023 -13.109  1.00  0.00     0.180 A 
ATOM      2  C   UNL     1     -22.288 -18.884 -12.773  1.00  0.00     0.208 A 
ATOM      3  C   UNL     1     -21.608 -17.718 -13.158  1.00  0.00     0.238 A 
ATOM      4  O   UNL     1     -20.375 -17.632 -12.920  1.00  0.00    -0.285 OA
ATOM      5  C   UNL     1     -22.306 -16.681 -13.823  1.00  0.00     0.111 A 
ATOM      6  C   UNL     1     -21.728 -15.437 -14.220  1.00  0.00     0.134 A 
ATOM      7  C   UNL     1     -22.489 -14.529 -14.967  1.00  0.00     0.093 A 
ATOM      8  C   UNL     1     -23.826 -14.792 -15.275  1.00  0.00     0.123 A 
ATOM      9  C   UNL     1     -24.415 -15.978 -14.847  1.00  0.00     0.094 A 
ATOM     10  C   UNL     1     -23.671 -16.921 -14.133  1.00  0.00     0.146 A 
ATOM     11  O   UNL     1     -24.265 -18.048 -13.762  1.00  0.00    -0.452 OA
ENDROOT
BRANCH   1  12
ATOM     12  C   UNL     1     -24.426 -20.230 -12.751  1.00  0.00     0.021 A 
ATOM     13  C   UNL     1     -25.013 -20.320 -11.478  1.00  0.00     0.016 A 
ATOM     14  C   UNL     1     -25.773 -21.439 -11.125  1.00  0.00     0.047 A 
ATOM     15  C   UNL     1     -25.969 -22.474 -12.045  1.00  0.00     0.115 A 
ATOM     16  C   UNL     1     -24.644 -21.265 -13.678  1.00  0.00     0.016 A 
ATOM     17  C   UNL     1     -25.405 -22.383 -13.324  1.00  0.00     0.047 A 
BRANCH  15  18
ATOM     18  O   UNL     1     -26.729 -23.584 -11.680  1.00  0.00    -0.508 OA
ATOM     19  H   UNL     1     -26.737 -23.929 -10.728  1.00  0.00     0.293 HD
ENDBRANCH  15  18
ENDBRANCH   1  12
BRANCH   2  20
ATOM     20  O   UNL     1     -21.635 -19.886 -12.049  1.00  0.00    -0.502 OA
ATOM     21  H   UNL     1     -22.129 -20.528 -11.440  1.00  0.00     0.293 HD
ENDBRANCH   2  20
BRANCH   6  22
ATOM     22  O   UNL     1     -20.431 -15.034 -13.887  1.00  0.00    -0.507 OA
ATOM     23  H   UNL     1     -20.008 -15.141 -12.979  1.00  0.00     0.293 HD
ENDBRANCH   6  22
BRANCH   8  24
ATOM     24  O   UNL     1     -24.580 -13.875 -16.005  1.00  0.00    -0.508 OA
ATOM     25  H   UNL     1     -24.709 -13.971 -17.005  1.00  0.00     0.293 HD
ENDBRANCH   8  24
TORSDOF 5
ENDMDL
MODEL 2
REMARK VINA RESULT:    -3.070      1.611      3.045
REMARK INTER + INTRA:          -3.888
REMARK INTER:                  -3.940
REMARK INTRA:                   0.051
REMARK UNBOUND:                -0.280
REMARK SMILES O=c1c(O)c(-c2ccc(O)cc2)oc2cc(O)cc(O)c12
REMARK SMILES IDX 5 1 3 2 2 3 1 4 21 5 19 6 18 7 16 8 15 9 14 10 13 11 6 12
REMARK SMILES IDX 7 13 8 14 9 15 12 16 11 17 10 18 4 20 20 22 17 24
REMARK H PARENT 10 19 4 21 20 23 17 25
REMARK Flexibility Score: inf
ROOT
ATOM      1  C   UNL     1     -23.287 -18.516 -13.413  1.00  0.00     0.180 A 
ATOM      2  C   UNL     1     -24.341 -17.964 -14.160  1.00  0.00     0.208 A 
ATOM      3  C   UNL     1     -24.231 -16.641 -14.621  1.00  0.00     0.238 A 
ATOM      4  O   UNL     1     -25.209 -16.129 -15.224  1.00  0.00    -0.285 OA
ATOM      5  C   UNL     1     -23.045 -15.907 -14.377  1.00  0.00     0.111 A 
ATOM      6  C   UNL     1     -22.805 -14.576 -14.834  1.00  0.00     0.134 A 
ATOM      7  C   UNL     1     -21.637 -13.911 -14.442  1.00  0.00     0.093 A 
ATOM      8  C   UNL     1     -20.671 -14.551 -13.663  1.00  0.00     0.123 A 
ATOM      9  C   UNL     1     -20.870 -15.867 -13.256  1.00  0.00     0.094 A 
ATOM     10  C   UNL     1     -22.042 -16.545 -13.599  1.00  0.00     0.146 A 
ATOM     11  O   UNL     1     -22.201 -17.791 -13.172  1.00  0.00    -0.452 OA
ENDROOT
BRANCH   1  12
ATOM     12  C   UNL     1     -23.337 -19.897 -12.882  1.00  0.00     0.021 A 
ATOM     13  C   UNL     1     -24.465 -20.317 -12.156  1.00  0.00     0.016 A 
ATOM     14  C   UNL     1     -24.545 -21.623 -11.664  1.00  0.00     0.047 A 
ATOM     15  C   UNL     1     -23.507 -22.530 -11.904  1.00  0.00     0.115 A 
ATOM     16  C   UNL     1     -22.307 -20.820 -13.137  1.00  0.00     0.016 A 
ATOM     17  C   UNL     1     -22.389 -22.126 -12.645  1.00  0.00     0.047 A 
BRANCH  15  18
ATOM     18  O   UNL     1     -23.600 -23.828 -11.408  1.00  0.00    -0.508 OA
ATOM     19  H   UNL     1     -24.443 -24.163 -10.955  1.00  0.00     0.293 HD
ENDBRANCH  15  18
ENDBRANCH   1  12
BRANCH   2  20
ATOM     20  O   UNL     1     -25.472 -18.730 -14.456  1.00  0.00    -0.502 OA
ATOM     21  H   UNL     1     -26.328 -18.669 -13.916  1.00  0.00     0.293 HD
ENDBRANCH   2  20
BRANCH   6  22
ATOM     22  O   UNL     1     -23.661 -13.876 -15.690  1.00  0.00    -0.507 OA
ATOM     23  H   UNL     1     -24.663 -13.986 -15.722  1.00  0.00     0.293 HD
ENDBRANCH   6  22
BRANCH   8  24
ATOM     24  O   UNL     1     -19.503 -13.886 -13.291  1.00  0.00    -0.508 OA
ATOM     25  H   UNL     1     -18.588 -14.278 -13.478  1.00  0.00     0.293 HD
ENDBRANCH   8  24
TORSDOF 5
ENDMDL
MODEL 3
REMARK VINA RESULT:    -0.579      1.703      6.821
REMARK INTER + INTRA:          -0.961
REMARK INTER:                  -0.721
REMARK INTRA:                  -0.240
REMARK UNBOUND:                -0.280
REMARK SMILES O=c1c(O)c(-c2ccc(O)cc2)oc2cc(O)cc(O)c12
REMARK SMILES IDX 5 1 3 2 2 3 1 4 21 5 19 6 18 7 16 8 15 9 14 10 13 11 6 12
REMARK SMILES IDX 7 13 8 14 9 15 12 16 11 17 10 18 4 20 20 22 17 24
REMARK H PARENT 10 19 4 21 20 23 17 25
REMARK Flexibility Score: inf
ROOT
ATOM      1  C   UNL     1     -23.622 -19.109 -13.034  1.00  0.00     0.180 A 
ATOM      2  C   UNL     1     -24.114 -19.351 -11.740  1.00  0.00     0.208 A 
ATOM      3  C   UNL     1     -24.829 -20.534 -11.493  1.00  0.00     0.238 A 
ATOM      4  O   UNL     1     -25.331 -20.709 -10.352  1.00  0.00    -0.285 OA
ATOM      5  C   UNL     1     -24.994 -21.486 -12.527  1.00  0.00     0.111 A 
ATOM      6  C   UNL     1     -25.662 -22.740 -12.378  1.00  0.00     0.134 A 
ATOM      7  C   UNL     1     -25.857 -23.556 -13.499  1.00  0.00     0.093 A 
ATOM      8  C   UNL     1     -25.354 -23.194 -14.750  1.00  0.00     0.123 A 
ATOM      9  C   UNL     1     -24.654 -22.000 -14.896  1.00  0.00     0.094 A 
ATOM     10  C   UNL     1     -24.475 -21.145 -13.804  1.00  0.00     0.146 A 
ATOM     11  O   UNL     1     -23.822 -20.006 -13.992  1.00  0.00    -0.452 OA
ENDROOT
BRANCH   1  12
ATOM     12  C   UNL     1     -22.873 -17.878 -13.375  1.00  0.00     0.021 A 
ATOM     13  C   UNL     1     -23.532 -16.831 -14.040  1.00  0.00     0.016 A 
ATOM     14  C   UNL     1     -22.851 -15.650 -14.351  1.00  0.00     0.047 A 
ATOM     15  C   UNL     1     -21.509 -15.495 -13.989  1.00  0.00     0.115 A 
ATOM     16  C   UNL     1     -21.529 -17.708 -12.995  1.00  0.00     0.016 A 
ATOM     17  C   UNL     1     -20.851 -16.526 -13.307  1.00  0.00     0.047 A 
BRANCH  15  18
ATOM     18  O   UNL     1     -20.843 -14.313 -14.307  1.00  0.00    -0.508 OA
ATOM     19  H   UNL     1     -19.867 -14.177 -14.074  1.00  0.00     0.293 HD
ENDBRANCH  15  18
ENDBRANCH   1  12
BRANCH   2  20
ATOM     20  O   UNL     1     -23.875 -18.433 -10.713  1.00  0.00    -0.502 OA
ATOM     21  H   UNL     1     -23.146 -17.732 -10.768  1.00  0.00     0.293 HD
ENDBRANCH   2  20
BRANCH   6  22
ATOM     22  O   UNL     1     -26.126 -23.240 -11.157  1.00  0.00    -0.507 OA
ATOM     23  H   UNL     1     -27.068 -23.142 -10.813  1.00  0.00     0.293 HD
ENDBRANCH   6  22
BRANCH   8  24
ATOM     24  O   UNL     1     -25.539 -24.020 -15.857  1.00  0.00    -0.508 OA
ATOM     25  H   UNL     1     -26.454 -24.377 -16.105  1.00  0.00     0.293 HD
ENDBRANCH   8  24
TORSDOF 5
ENDMDL
