MODEL 1
REMARK VINA RESULT:    -6.308      0.000      0.000
REMARK INTER + INTRA:          -8.038
REMARK INTER:                  -7.783
REMARK INTRA:                  -0.255
REMARK UNBOUND:                -0.255
REMARK SMILES O=c1c(O)c(-c2cc(O)c(O)c(O)c2)oc2cc(O)cc(O)c12
REMARK SMILES IDX 5 1 3 2 2 3 1 4 23 5 21 6 20 7 18 8 17 9 16 10 15 11 6 12
REMARK SMILES IDX 7 13 8 14 14 15 10 16 12 17 9 18 11 20 13 22 4 24 22 26
REMARK SMILES IDX 19 28
REMARK H PARENT 9 19 11 21 13 23 4 25 22 27 19 29
REMARK Flexibility Score: inf
ROOT
ATOM      1  C   UNL     1     -16.572  -1.698   3.830  1.00  0.00     0.180 A 
ATOM      2  C   UNL     1     -16.822  -0.497   3.143  1.00  0.00     0.208 A 
ATOM      3  C   UNL     1     -18.133  -0.211   2.729  1.00  0.00     0.238 A 
ATOM      4  O   UNL     1     -18.340   0.840   2.067  1.00  0.00    -0.285 OA
ATOM      5  C   UNL     1     -19.179  -1.119   3.021  1.00  0.00     0.111 A 
ATOM      6  C   UNL     1     -20.550  -0.911   2.684  1.00  0.00     0.134 A 
ATOM      7  C   UNL     1     -21.478  -1.935   2.907  1.00  0.00     0.093 A 
ATOM      8  C   UNL     1     -21.100  -3.133   3.511  1.00  0.00     0.123 A 
ATOM      9  C   UNL     1     -19.772  -3.324   3.898  1.00  0.00     0.094 A 
ATOM     10  C   UNL     1     -18.815  -2.335   3.657  1.00  0.00     0.146 A 
ATOM     11  O   UNL     1     -17.562  -2.560   4.032  1.00  0.00    -0.452 OA
ENDROOT
BRANCH   1  12
ATOM     12  C   UNL     1     -15.222  -2.058   4.320  1.00  0.00     0.029 A 
ATOM     13  C   UNL     1     -14.192  -2.411   3.431  1.00  0.00     0.062 A 
ATOM     14  C   UNL     1     -12.914  -2.725   3.912  1.00  0.00     0.162 A 
ATOM     15  C   UNL     1     -14.944  -1.988   5.694  1.00  0.00     0.062 A 
ATOM     16  C   UNL     1     -12.650  -2.675   5.287  1.00  0.00     0.200 A 
ATOM     17  C   UNL     1     -13.667  -2.303   6.181  1.00  0.00     0.162 A 
BRANCH  14  18
ATOM     18  O   UNL     1     -11.896  -3.082   3.029  1.00  0.00    -0.504 OA
ATOM     19  H   UNL     1     -11.982  -2.928   2.031  1.00  0.00     0.293 HD
ENDBRANCH  14  18
BRANCH  16  20
ATOM     20  O   UNL     1     -11.372  -2.996   5.748  1.00  0.00    -0.502 OA
ATOM     21  H   UNL     1     -11.049  -3.953   5.818  1.00  0.00     0.293 HD
ENDBRANCH  16  20
BRANCH  17  22
ATOM     22  O   UNL     1     -13.407  -2.245   7.549  1.00  0.00    -0.504 OA
ATOM     23  H   UNL     1     -13.135  -3.069   8.074  1.00  0.00     0.293 HD
ENDBRANCH  17  22
ENDBRANCH   1  12
BRANCH   2  24
ATOM     24  O   UNL     1     -15.771   0.374   2.846  1.00  0.00    -0.502 OA
ATOM     25  H   UNL     1     -14.902   0.058   2.433  1.00  0.00     0.293 HD
ENDBRANCH   2  24
BRANCH   6  26
ATOM     26  O   UNL     1     -21.053   0.284   2.160  1.00  0.00    -0.507 OA
ATOM     27  H   UNL     1     -20.695   1.202   2.377  1.00  0.00     0.293 HD
ENDBRANCH   6  26
BRANCH   8  28
ATOM     28  O   UNL     1     -22.053  -4.125   3.730  1.00  0.00    -0.508 OA
ATOM     29  H   UNL     1     -23.019  -4.003   3.450  1.00  0.00     0.293 HD
ENDBRANCH   8  28
TORSDOF 7
ENDMDL
MODEL 2
REMARK VINA RESULT:    -6.293      1.375      7.117
REMARK INTER + INTRA:          -8.020
REMARK INTER:                  -7.655
REMARK INTRA:                  -0.365
REMARK UNBOUND:                -0.255
REMARK SMILES O=c1c(O)c(-c2cc(O)c(O)c(O)c2)oc2cc(O)cc(O)c12
REMARK SMILES IDX 5 1 3 2 2 3 1 4 23 5 21 6 20 7 18 8 17 9 16 10 15 11 6 12
REMARK SMILES IDX 7 13 8 14 14 15 10 16 12 17 9 18 11 20 13 22 4 24 22 26
REMARK SMILES IDX 19 28
REMARK H PARENT 9 19 11 21 13 23 4 25 22 27 19 29
REMARK Flexibility Score: inf
ROOT
ATOM      1  C   UNL     1     -16.447  -1.375   3.935  1.00  0.00     0.180 A 
ATOM      2  C   UNL     1     -16.019  -0.995   5.220  1.00  0.00     0.208 A 
ATOM      3  C   UNL     1     -14.699  -1.273   5.608  1.00  0.00     0.238 A 
ATOM      4  O   UNL     1     -14.340  -0.980   6.778  1.00  0.00    -0.285 OA
ATOM      5  C   UNL     1     -13.819  -1.913   4.703  1.00  0.00     0.111 A 
ATOM      6  C   UNL     1     -12.449  -2.208   4.977  1.00  0.00     0.134 A 
ATOM      7  C   UNL     1     -11.708  -2.959   4.057  1.00  0.00     0.093 A 
ATOM      8  C   UNL     1     -12.264  -3.371   2.847  1.00  0.00     0.123 A 
ATOM      9  C   UNL     1     -13.585  -3.038   2.543  1.00  0.00     0.094 A 
ATOM     10  C   UNL     1     -14.362  -2.319   3.456  1.00  0.00     0.146 A 
ATOM     11  O   UNL     1     -15.616  -2.031   3.133  1.00  0.00    -0.452 OA
ENDROOT
BRANCH   1  12
ATOM     12  C   UNL     1     -17.815  -1.093   3.446  1.00  0.00     0.029 A 
ATOM     13  C   UNL     1     -18.119   0.103   2.772  1.00  0.00     0.062 A 
ATOM     14  C   UNL     1     -19.415   0.340   2.295  1.00  0.00     0.162 A 
ATOM     15  C   UNL     1     -18.818  -2.063   3.603  1.00  0.00     0.062 A 
ATOM     16  C   UNL     1     -20.417  -0.623   2.476  1.00  0.00     0.200 A 
ATOM     17  C   UNL     1     -20.117  -1.830   3.129  1.00  0.00     0.162 A 
BRANCH  14  18
ATOM     18  O   UNL     1     -19.716   1.530   1.634  1.00  0.00    -0.504 OA
ATOM     19  H   UNL     1     -19.743   2.417   2.124  1.00  0.00     0.293 HD
ENDBRANCH  14  18
BRANCH  16  20
ATOM     20  O   UNL     1     -21.703  -0.367   1.998  1.00  0.00    -0.502 OA
ATOM     21  H   UNL     1     -22.145   0.539   2.100  1.00  0.00     0.293 HD
ENDBRANCH  16  20
BRANCH  17  22
ATOM     22  O   UNL     1     -21.108  -2.794   3.304  1.00  0.00    -0.504 OA
ATOM     23  H   UNL     1     -22.062  -2.638   2.995  1.00  0.00     0.293 HD
ENDBRANCH  17  22
ENDBRANCH   1  12
BRANCH   2  24
ATOM     24  O   UNL     1     -16.912  -0.384   6.105  1.00  0.00    -0.502 OA
ATOM     25  H   UNL     1     -16.923  -0.592   7.096  1.00  0.00     0.293 HD
ENDBRANCH   2  24
BRANCH   6  26
ATOM     26  O   UNL     1     -11.767  -1.765   6.115  1.00  0.00    -0.507 OA
ATOM     27  H   UNL     1     -10.792  -1.938   6.303  1.00  0.00     0.293 HD
ENDBRANCH   6  26
BRANCH   8  28
ATOM     28  O   UNL     1     -11.493  -4.106   1.949  1.00  0.00    -0.508 OA
ATOM     29  H   UNL     1     -10.481  -4.102   1.994  1.00  0.00     0.293 HD
ENDBRANCH   8  28
TORSDOF 7
ENDMDL
MODEL 3
REMARK VINA RESULT:    -6.279      1.393      7.169
REMARK INTER + INTRA:          -8.003
REMARK INTER:                  -7.647
REMARK INTRA:                  -0.355
REMARK UNBOUND:                -0.255
REMARK SMILES O=c1c(O)c(-c2cc(O)c(O)c(O)c2)oc2cc(O)cc(O)c12
REMARK SMILES IDX 5 1 3 2 2 3 1 4 23 5 21 6 20 7 18 8 17 9 16 10 15 11 6 12
REMARK SMILES IDX 7 13 8 14 14 15 10 16 12 17 9 18 11 20 13 22 4 24 22 26
REMARK SMILES IDX 19 28
REMARK H PARENT 9 19 11 21 13 23 4 25 22 27 19 29
REMARK Flexibility Score: inf
ROOT
ATOM      1  C   UNL     1     -16.498  -1.413   3.890  1.00  0.00     0.180 A 
ATOM      2  C   UNL     1     -16.089  -0.942   5.151  1.00  0.00     0.208 A 
ATOM      3  C   UNL     1     -14.764  -1.160   5.561  1.00  0.00     0.238 A 
ATOM      4  O   UNL     1     -14.420  -0.785   6.713  1.00  0.00    -0.285 OA
ATOM      5  C   UNL     1     -13.861  -1.830   4.702  1.00  0.00     0.111 A 
ATOM      6  C   UNL     1     -12.486  -2.070   5.000  1.00  0.00     0.134 A 
ATOM      7  C   UNL     1     -11.719  -2.856   4.132  1.00  0.00     0.093 A 
ATOM      8  C   UNL     1     -12.257  -3.357   2.948  1.00  0.00     0.123 A 
ATOM      9  C   UNL     1     -13.584  -3.080   2.617  1.00  0.00     0.094 A 
ATOM     10  C   UNL     1     -14.385  -2.328   3.480  1.00  0.00     0.146 A 
ATOM     11  O   UNL     1     -15.645  -2.094   3.134  1.00  0.00    -0.452 OA
ENDROOT
BRANCH   1  12
ATOM     12  C   UNL     1     -17.871  -1.199   3.378  1.00  0.00     0.029 A 
ATOM     13  C   UNL     1     -18.890  -2.140   3.604  1.00  0.00     0.062 A 
ATOM     14  C   UNL     1     -20.189  -1.909   3.132  1.00  0.00     0.162 A 
ATOM     15  C   UNL     1     -18.179  -0.007   2.705  1.00  0.00     0.062 A 
ATOM     16  C   UNL     1     -20.484  -0.726   2.440  1.00  0.00     0.200 A 
ATOM     17  C   UNL     1     -19.476   0.230   2.228  1.00  0.00     0.162 A 
BRANCH  14  18
ATOM     18  O   UNL     1     -21.196  -2.847   3.351  1.00  0.00    -0.504 OA
ATOM     19  H   UNL     1     -21.378  -3.223   4.274  1.00  0.00     0.293 HD
ENDBRANCH  14  18
BRANCH  16  20
ATOM     20  O   UNL     1     -21.782  -0.515   1.974  1.00  0.00    -0.502 OA
ATOM     21  H   UNL     1     -22.597  -0.820   2.492  1.00  0.00     0.293 HD
ENDBRANCH  16  20
BRANCH  17  22
ATOM     22  O   UNL     1     -19.767   1.410   1.547  1.00  0.00    -0.504 OA
ATOM     23  H   UNL     1     -19.479   2.315   1.905  1.00  0.00     0.293 HD
ENDBRANCH  17  22
ENDBRANCH   1  12
BRANCH   2  24
ATOM     24  O   UNL     1     -17.003  -0.303   5.992  1.00  0.00    -0.502 OA
ATOM     25  H   UNL     1     -17.078  -0.520   6.978  1.00  0.00     0.293 HD
ENDBRANCH   2  24
BRANCH   6  26
ATOM     26  O   UNL     1     -11.823  -1.539   6.111  1.00  0.00    -0.507 OA
ATOM     27  H   UNL     1     -11.161  -2.044   6.680  1.00  0.00     0.293 HD
ENDBRANCH   6  26
BRANCH   8  28
ATOM     28  O   UNL     1     -11.460  -4.125   2.100  1.00  0.00    -0.508 OA
ATOM     29  H   UNL     1     -10.976  -3.713   1.310  1.00  0.00     0.293 HD
ENDBRANCH   8  28
TORSDOF 7
ENDMDL
MODEL 4
REMARK VINA RESULT:    -5.989      1.213      3.301
REMARK INTER + INTRA:          -7.644
REMARK INTER:                  -7.331
REMARK INTRA:                  -0.313
REMARK UNBOUND:                -0.255
REMARK SMILES O=c1c(O)c(-c2cc(O)c(O)c(O)c2)oc2cc(O)cc(O)c12
REMARK SMILES IDX 5 1 3 2 2 3 1 4 23 5 21 6 20 7 18 8 17 9 16 10 15 11 6 12
REMARK SMILES IDX 7 13 8 14 14 15 10 16 12 17 9 18 11 20 13 22 4 24 22 26
REMARK SMILES IDX 19 28
REMARK H PARENT 9 19 11 21 13 23 4 25 22 27 19 29
REMARK Flexibility Score: inf
ROOT
ATOM      1  C   UNL     1     -16.633  -1.935   4.110  1.00  0.00     0.180 A 
ATOM      2  C   UNL     1     -17.602  -2.938   4.290  1.00  0.00     0.208 A 
ATOM      3  C   UNL     1     -18.911  -2.709   3.833  1.00  0.00     0.238 A 
ATOM      4  O   UNL     1     -19.786  -3.589   4.046  1.00  0.00    -0.285 OA
ATOM      5  C   UNL     1     -19.229  -1.490   3.188  1.00  0.00     0.111 A 
ATOM      6  C   UNL     1     -20.512  -1.169   2.651  1.00  0.00     0.134 A 
ATOM      7  C   UNL     1     -20.748   0.117   2.151  1.00  0.00     0.093 A 
ATOM      8  C   UNL     1     -19.733   1.072   2.109  1.00  0.00     0.123 A 
ATOM      9  C   UNL     1     -18.459   0.750   2.578  1.00  0.00     0.094 A 
ATOM     10  C   UNL     1     -18.201  -0.514   3.116  1.00  0.00     0.146 A 
ATOM     11  O   UNL     1     -16.979  -0.777   3.560  1.00  0.00    -0.452 OA
ENDROOT
BRANCH   1  12
ATOM     12  C   UNL     1     -15.228  -2.113   4.543  1.00  0.00     0.029 A 
ATOM     13  C   UNL     1     -14.858  -1.992   5.893  1.00  0.00     0.062 A 
ATOM     14  C   UNL     1     -13.527  -2.187   6.286  1.00  0.00     0.162 A 
ATOM     15  C   UNL     1     -14.254  -2.468   3.597  1.00  0.00     0.062 A 
ATOM     16  C   UNL     1     -12.556  -2.519   5.333  1.00  0.00     0.200 A 
ATOM     17  C   UNL     1     -12.920  -2.663   3.984  1.00  0.00     0.162 A 
BRANCH  14  18
ATOM     18  O   UNL     1     -13.162  -2.059   7.625  1.00  0.00    -0.504 OA
ATOM     19  H   UNL     1     -13.796  -1.671   8.313  1.00  0.00     0.293 HD
ENDBRANCH  14  18
BRANCH  16  20
ATOM     20  O   UNL     1     -11.235  -2.705   5.742  1.00  0.00    -0.502 OA
ATOM     21  H   UNL     1     -10.493  -2.069   5.474  1.00  0.00     0.293 HD
ENDBRANCH  16  20
BRANCH  17  22
ATOM     22  O   UNL     1     -11.959  -3.000   3.033  1.00  0.00    -0.504 OA
ATOM     23  H   UNL     1     -11.756  -3.967   2.802  1.00  0.00     0.293 HD
ENDBRANCH  17  22
ENDBRANCH   1  12
BRANCH   2  24
ATOM     24  O   UNL     1     -17.272  -4.125   4.948  1.00  0.00    -0.502 OA
ATOM     25  H   UNL     1     -16.741  -4.139   5.811  1.00  0.00     0.293 HD
ENDBRANCH   2  24
BRANCH   6  26
ATOM     26  O   UNL     1     -21.570  -2.078   2.559  1.00  0.00    -0.507 OA
ATOM     27  H   UNL     1     -22.271  -2.218   3.270  1.00  0.00     0.293 HD
ENDBRANCH   6  26
BRANCH   8  28
ATOM     28  O   UNL     1     -20.000   2.338   1.592  1.00  0.00    -0.508 OA
ATOM     29  H   UNL     1     -19.283   3.052   1.541  1.00  0.00     0.293 HD
ENDBRANCH   8  28
TORSDOF 7
ENDMDL
MODEL 5
REMARK VINA RESULT:    -5.939      1.414      7.143
REMARK INTER + INTRA:          -7.583
REMARK INTER:                  -7.228
REMARK INTRA:                  -0.355
REMARK UNBOUND:                -0.255
REMARK SMILES O=c1c(O)c(-c2cc(O)c(O)c(O)c2)oc2cc(O)cc(O)c12
REMARK SMILES IDX 5 1 3 2 2 3 1 4 23 5 21 6 20 7 18 8 17 9 16 10 15 11 6 12
REMARK SMILES IDX 7 13 8 14 14 15 10 16 12 17 9 18 11 20 13 22 4 24 22 26
REMARK SMILES IDX 19 28
REMARK H PARENT 9 19 11 21 13 23 4 25 22 27 19 29
REMARK Flexibility Score: inf
ROOT
ATOM      1  C   UNL     1     -16.653  -1.601   3.112  1.00  0.00     0.180 A 
ATOM      2  C   UNL     1     -15.948  -2.283   2.105  1.00  0.00     0.208 A 
ATOM      3  C   UNL     1     -14.615  -2.658   2.343  1.00  0.00     0.238 A 
ATOM      4  O   UNL     1     -13.972  -3.219   1.418  1.00  0.00    -0.285 OA
ATOM      5  C   UNL     1     -14.011  -2.360   3.588  1.00  0.00     0.111 A 
ATOM      6  C   UNL     1     -12.680  -2.727   3.950  1.00  0.00     0.134 A 
ATOM      7  C   UNL     1     -12.143  -2.268   5.159  1.00  0.00     0.093 A 
ATOM      8  C   UNL     1     -12.906  -1.510   6.046  1.00  0.00     0.123 A 
ATOM      9  C   UNL     1     -14.228  -1.194   5.728  1.00  0.00     0.094 A 
ATOM     10  C   UNL     1     -14.781  -1.608   4.513  1.00  0.00     0.146 A 
ATOM     11  O   UNL     1     -16.038  -1.279   4.244  1.00  0.00    -0.452 OA
ENDROOT
BRANCH   1  12
ATOM     12  C   UNL     1     -18.068  -1.196   2.945  1.00  0.00     0.029 A 
ATOM     13  C   UNL     1     -18.411   0.066   2.430  1.00  0.00     0.062 A 
ATOM     14  C   UNL     1     -19.755   0.422   2.257  1.00  0.00     0.162 A 
ATOM     15  C   UNL     1     -19.088  -2.110   3.248  1.00  0.00     0.062 A 
ATOM     16  C   UNL     1     -20.769  -0.488   2.584  1.00  0.00     0.200 A 
ATOM     17  C   UNL     1     -20.435  -1.759   3.079  1.00  0.00     0.162 A 
BRANCH  14  18
ATOM     18  O   UNL     1     -20.093   1.677   1.753  1.00  0.00    -0.504 OA
ATOM     19  H   UNL     1     -19.386   2.373   1.546  1.00  0.00     0.293 HD
ENDBRANCH  14  18
BRANCH  16  20
ATOM     20  O   UNL     1     -22.103  -0.114   2.409  1.00  0.00    -0.502 OA
ATOM     21  H   UNL     1     -22.610   0.416   3.107  1.00  0.00     0.293 HD
ENDBRANCH  16  20
BRANCH  17  22
ATOM     22  O   UNL     1     -21.441  -2.670   3.398  1.00  0.00    -0.504 OA
ATOM     23  H   UNL     1     -21.725  -3.397   2.751  1.00  0.00     0.293 HD
ENDBRANCH  17  22
ENDBRANCH   1  12
BRANCH   2  24
ATOM     24  O   UNL     1     -16.556  -2.547   0.876  1.00  0.00    -0.502 OA
ATOM     25  H   UNL     1     -17.243  -1.926   0.465  1.00  0.00     0.293 HD
ENDBRANCH   2  24
BRANCH   6  26
ATOM     26  O   UNL     1     -11.862  -3.559   3.180  1.00  0.00    -0.507 OA
ATOM     27  H   UNL     1     -11.689  -3.440   2.193  1.00  0.00     0.293 HD
ENDBRANCH   6  26
BRANCH   8  28
ATOM     28  O   UNL     1     -12.343  -1.081   7.246  1.00  0.00    -0.508 OA
ATOM     29  H   UNL     1     -12.911  -0.686   7.986  1.00  0.00     0.293 HD
ENDBRANCH   8  28
TORSDOF 7
ENDMDL
MODEL 6
REMARK VINA RESULT:    -5.889      1.482      7.219
REMARK INTER + INTRA:          -7.522
REMARK INTER:                  -7.159
REMARK INTRA:                  -0.363
REMARK UNBOUND:                -0.255
REMARK SMILES O=c1c(O)c(-c2cc(O)c(O)c(O)c2)oc2cc(O)cc(O)c12
REMARK SMILES IDX 5 1 3 2 2 3 1 4 23 5 21 6 20 7 18 8 17 9 16 10 15 11 6 12
REMARK SMILES IDX 7 13 8 14 14 15 10 16 12 17 9 18 11 20 13 22 4 24 22 26
REMARK SMILES IDX 19 28
REMARK H PARENT 9 19 11 21 13 23 4 25 22 27 19 29
REMARK Flexibility Score: inf
ROOT
ATOM      1  C   UNL     1     -16.695  -1.771   3.045  1.00  0.00     0.180 A 
ATOM      2  C   UNL     1     -16.072  -2.539   2.045  1.00  0.00     0.208 A 
ATOM      3  C   UNL     1     -14.738  -2.937   2.226  1.00  0.00     0.238 A 
ATOM      4  O   UNL     1     -14.169  -3.577   1.302  1.00  0.00    -0.285 OA
ATOM      5  C   UNL     1     -14.049  -2.578   3.409  1.00  0.00     0.111 A 
ATOM      6  C   UNL     1     -12.708  -2.961   3.713  1.00  0.00     0.134 A 
ATOM      7  C   UNL     1     -12.084  -2.440   4.853  1.00  0.00     0.093 A 
ATOM      8  C   UNL     1     -12.770  -1.603   5.732  1.00  0.00     0.123 A 
ATOM      9  C   UNL     1     -14.100  -1.269   5.475  1.00  0.00     0.094 A 
ATOM     10  C   UNL     1     -14.740  -1.744   4.327  1.00  0.00     0.146 A 
ATOM     11  O   UNL     1     -16.002  -1.395   4.113  1.00  0.00    -0.452 OA
ENDROOT
BRANCH   1  12
ATOM     12  C   UNL     1     -18.106  -1.335   2.937  1.00  0.00     0.029 A 
ATOM     13  C   UNL     1     -19.153  -2.106   3.470  1.00  0.00     0.062 A 
ATOM     14  C   UNL     1     -20.479  -1.664   3.380  1.00  0.00     0.162 A 
ATOM     15  C   UNL     1     -18.403  -0.098   2.344  1.00  0.00     0.062 A 
ATOM     16  C   UNL     1     -20.770  -0.439   2.766  1.00  0.00     0.200 A 
ATOM     17  C   UNL     1     -19.729   0.349   2.248  1.00  0.00     0.162 A 
BRANCH  14  18
ATOM     18  O   UNL     1     -21.516  -2.435   3.903  1.00  0.00    -0.504 OA
ATOM     19  H   UNL     1     -22.467  -2.086   3.945  1.00  0.00     0.293 HD
ENDBRANCH  14  18
BRANCH  16  20
ATOM     20  O   UNL     1     -22.098  -0.017   2.680  1.00  0.00    -0.502 OA
ATOM     21  H   UNL     1     -22.513   0.597   3.370  1.00  0.00     0.293 HD
ENDBRANCH  16  20
BRANCH  17  22
ATOM     22  O   UNL     1     -20.013   1.572   1.643  1.00  0.00    -0.504 OA
ATOM     23  H   UNL     1     -19.920   2.448   2.146  1.00  0.00     0.293 HD
ENDBRANCH  17  22
ENDBRANCH   1  12
BRANCH   2  24
ATOM     24  O   UNL     1     -16.764  -2.863   0.875  1.00  0.00    -0.502 OA
ATOM     25  H   UNL     1     -17.745  -2.648   0.746  1.00  0.00     0.293 HD
ENDBRANCH   2  24
BRANCH   6  26
ATOM     26  O   UNL     1     -11.962  -3.865   2.952  1.00  0.00    -0.507 OA
ATOM     27  H   UNL     1     -12.343  -4.675   2.486  1.00  0.00     0.293 HD
ENDBRANCH   6  26
BRANCH   8  28
ATOM     28  O   UNL     1     -12.122  -1.114   6.865  1.00  0.00    -0.508 OA
ATOM     29  H   UNL     1     -12.517  -1.225   7.791  1.00  0.00     0.293 HD
ENDBRANCH   8  28
TORSDOF 7
ENDMDL
MODEL 7
REMARK VINA RESULT:    -5.408      2.211      7.465
REMARK INTER + INTRA:          -6.928
REMARK INTER:                  -6.604
REMARK INTRA:                  -0.324
REMARK UNBOUND:                -0.255
REMARK SMILES O=c1c(O)c(-c2cc(O)c(O)c(O)c2)oc2cc(O)cc(O)c12
REMARK SMILES IDX 5 1 3 2 2 3 1 4 23 5 21 6 20 7 18 8 17 9 16 10 15 11 6 12
REMARK SMILES IDX 7 13 8 14 14 15 10 16 12 17 9 18 11 20 13 22 4 24 22 26
REMARK SMILES IDX 19 28
REMARK H PARENT 9 19 11 21 13 23 4 25 22 27 19 29
REMARK Flexibility Score: inf
ROOT
ATOM      1  C   UNL     1     -20.088  -1.679   2.637  1.00  0.00     0.180 A 
ATOM      2  C   UNL     1     -19.445  -0.806   1.741  1.00  0.00     0.208 A 
ATOM      3  C   UNL     1     -18.041  -0.779   1.709  1.00  0.00     0.238 A 
ATOM      4  O   UNL     1     -17.472   0.044   0.944  1.00  0.00    -0.285 OA
ATOM      5  C   UNL     1     -17.300  -1.633   2.558  1.00  0.00     0.111 A 
ATOM      6  C   UNL     1     -15.875  -1.716   2.580  1.00  0.00     0.134 A 
ATOM      7  C   UNL     1     -15.244  -2.502   3.552  1.00  0.00     0.093 A 
ATOM      8  C   UNL     1     -15.985  -3.257   4.461  1.00  0.00     0.123 A 
ATOM      9  C   UNL     1     -17.379  -3.229   4.410  1.00  0.00     0.094 A 
ATOM     10  C   UNL     1     -18.038  -2.427   3.475  1.00  0.00     0.146 A 
ATOM     11  O   UNL     1     -19.365  -2.421   3.467  1.00  0.00    -0.452 OA
ENDROOT
BRANCH   1  12
ATOM     12  C   UNL     1     -21.564  -1.782   2.711  1.00  0.00     0.029 A 
ATOM     13  C   UNL     1     -22.297  -2.486   1.741  1.00  0.00     0.062 A 
ATOM     14  C   UNL     1     -23.691  -2.593   1.842  1.00  0.00     0.162 A 
ATOM     15  C   UNL     1     -22.241  -1.218   3.803  1.00  0.00     0.062 A 
ATOM     16  C   UNL     1     -24.363  -2.008   2.924  1.00  0.00     0.200 A 
ATOM     17  C   UNL     1     -23.636  -1.320   3.909  1.00  0.00     0.162 A 
BRANCH  14  18
ATOM     18  O   UNL     1     -24.417  -3.286   0.875  1.00  0.00    -0.504 OA
ATOM     19  H   UNL     1     -24.068  -4.145   0.464  1.00  0.00     0.293 HD
ENDBRANCH  14  18
BRANCH  16  20
ATOM     20  O   UNL     1     -25.751  -2.121   3.005  1.00  0.00    -0.502 OA
ATOM     21  H   UNL     1     -26.372  -1.554   2.440  1.00  0.00     0.293 HD
ENDBRANCH  16  20
BRANCH  17  22
ATOM     22  O   UNL     1     -24.299  -0.743   4.990  1.00  0.00    -0.504 OA
ATOM     23  H   UNL     1     -24.450  -1.251   5.855  1.00  0.00     0.293 HD
ENDBRANCH  17  22
ENDBRANCH   1  12
BRANCH   2  24
ATOM     24  O   UNL     1     -20.197   0.045   0.927  1.00  0.00    -0.502 OA
ATOM     25  H   UNL     1     -19.911   0.291  -0.013  1.00  0.00     0.293 HD
ENDBRANCH   2  24
BRANCH   6  26
ATOM     26  O   UNL     1     -15.041  -1.075   1.659  1.00  0.00    -0.507 OA
ATOM     27  H   UNL     1     -14.386  -0.344   1.890  1.00  0.00     0.293 HD
ENDBRANCH   6  26
BRANCH   8  28
ATOM     28  O   UNL     1     -15.324  -4.039   5.406  1.00  0.00    -0.508 OA
ATOM     29  H   UNL     1     -15.202  -5.037   5.277  1.00  0.00     0.293 HD
ENDBRANCH   8  28
TORSDOF 7
ENDMDL
MODEL 8
REMARK VINA RESULT:    -5.291      2.127      3.798
REMARK INTER + INTRA:          -6.784
REMARK INTER:                  -6.431
REMARK INTRA:                  -0.353
REMARK UNBOUND:                -0.255
REMARK SMILES O=c1c(O)c(-c2cc(O)c(O)c(O)c2)oc2cc(O)cc(O)c12
REMARK SMILES IDX 5 1 3 2 2 3 1 4 23 5 21 6 20 7 18 8 17 9 16 10 15 11 6 12
REMARK SMILES IDX 7 13 8 14 14 15 10 16 12 17 9 18 11 20 13 22 4 24 22 26
REMARK SMILES IDX 19 28
REMARK H PARENT 9 19 11 21 13 23 4 25 22 27 19 29
REMARK Flexibility Score: inf
ROOT
ATOM      1  C   UNL     1     -19.098  -2.062   3.131  1.00  0.00     0.180 A 
ATOM      2  C   UNL     1     -19.392  -2.959   2.089  1.00  0.00     0.208 A 
ATOM      3  C   UNL     1     -20.736  -3.215   1.771  1.00  0.00     0.238 A 
ATOM      4  O   UNL     1     -20.993  -4.061   0.875  1.00  0.00    -0.285 OA
ATOM      5  C   UNL     1     -21.766  -2.559   2.486  1.00  0.00     0.111 A 
ATOM      6  C   UNL     1     -23.160  -2.714   2.222  1.00  0.00     0.134 A 
ATOM      7  C   UNL     1     -24.095  -2.116   3.076  1.00  0.00     0.093 A 
ATOM      8  C   UNL     1     -23.689  -1.319   4.145  1.00  0.00     0.123 A 
ATOM      9  C   UNL     1     -22.328  -1.113   4.377  1.00  0.00     0.094 A 
ATOM     10  C   UNL     1     -21.370  -1.725   3.564  1.00  0.00     0.146 A 
ATOM     11  O   UNL     1     -20.087  -1.512   3.825  1.00  0.00    -0.452 OA
ENDROOT
BRANCH   1  12
ATOM     12  C   UNL     1     -17.706  -1.723   3.507  1.00  0.00     0.029 A 
ATOM     13  C   UNL     1     -17.026  -2.434   4.510  1.00  0.00     0.062 A 
ATOM     14  C   UNL     1     -15.701  -2.114   4.835  1.00  0.00     0.162 A 
ATOM     15  C   UNL     1     -17.029  -0.711   2.809  1.00  0.00     0.062 A 
ATOM     16  C   UNL     1     -15.039  -1.087   4.150  1.00  0.00     0.200 A 
ATOM     17  C   UNL     1     -15.704  -0.385   3.131  1.00  0.00     0.162 A 
BRANCH  14  18
ATOM     18  O   UNL     1     -15.032  -2.817   5.836  1.00  0.00    -0.504 OA
ATOM     19  H   UNL     1     -15.266  -3.778   6.057  1.00  0.00     0.293 HD
ENDBRANCH  14  18
BRANCH  16  20
ATOM     20  O   UNL     1     -13.721  -0.779   4.490  1.00  0.00    -0.502 OA
ATOM     21  H   UNL     1     -13.245  -1.231   5.262  1.00  0.00     0.293 HD
ENDBRANCH  16  20
BRANCH  17  22
ATOM     22  O   UNL     1     -15.047   0.633   2.441  1.00  0.00    -0.504 OA
ATOM     23  H   UNL     1     -15.005   0.647   1.428  1.00  0.00     0.293 HD
ENDBRANCH  17  22
ENDBRANCH   1  12
BRANCH   2  24
ATOM     24  O   UNL     1     -18.360  -3.613   1.412  1.00  0.00    -0.502 OA
ATOM     25  H   UNL     1     -17.465  -3.810   1.843  1.00  0.00     0.293 HD
ENDBRANCH   2  24
BRANCH   6  26
ATOM     26  O   UNL     1     -23.675  -3.413   1.126  1.00  0.00    -0.507 OA
ATOM     27  H   UNL     1     -23.142  -4.041   0.544  1.00  0.00     0.293 HD
ENDBRANCH   6  26
BRANCH   8  28
ATOM     28  O   UNL     1     -24.646  -0.728   4.966  1.00  0.00    -0.508 OA
ATOM     29  H   UNL     1     -25.582  -1.109   5.049  1.00  0.00     0.293 HD
ENDBRANCH   8  28
TORSDOF 7
ENDMDL
MODEL 9
REMARK VINA RESULT:    -5.252      1.578      6.837
REMARK INTER + INTRA:          -6.736
REMARK INTER:                  -6.404
REMARK INTRA:                  -0.331
REMARK UNBOUND:                -0.255
REMARK SMILES O=c1c(O)c(-c2cc(O)c(O)c(O)c2)oc2cc(O)cc(O)c12
REMARK SMILES IDX 5 1 3 2 2 3 1 4 23 5 21 6 20 7 18 8 17 9 16 10 15 11 6 12
REMARK SMILES IDX 7 13 8 14 14 15 10 16 12 17 9 18 11 20 13 22 4 24 22 26
REMARK SMILES IDX 19 28
REMARK H PARENT 9 19 11 21 13 23 4 25 22 27 19 29
REMARK Flexibility Score: inf
ROOT
ATOM      1  C   UNL     1     -17.889  -1.769   3.490  1.00  0.00     0.180 A 
ATOM      2  C   UNL     1     -16.980  -0.864   2.912  1.00  0.00     0.208 A 
ATOM      3  C   UNL     1     -15.665  -0.814   3.402  1.00  0.00     0.238 A 
ATOM      4  O   UNL     1     -14.873   0.036   2.918  1.00  0.00    -0.285 OA
ATOM      5  C   UNL     1     -15.271  -1.678   4.451  1.00  0.00     0.111 A 
ATOM      6  C   UNL     1     -13.954  -1.739   4.998  1.00  0.00     0.134 A 
ATOM      7  C   UNL     1     -13.709  -2.540   6.120  1.00  0.00     0.093 A 
ATOM      8  C   UNL     1     -14.715  -3.329   6.676  1.00  0.00     0.123 A 
ATOM      9  C   UNL     1     -15.992  -3.322   6.113  1.00  0.00     0.094 A 
ATOM     10  C   UNL     1     -16.277  -2.506   5.015  1.00  0.00     0.146 A 
ATOM     11  O   UNL     1     -17.506  -2.521   4.515  1.00  0.00    -0.452 OA
ENDROOT
BRANCH   1  12
ATOM     12  C   UNL     1     -19.284  -1.897   3.010  1.00  0.00     0.029 A 
ATOM     13  C   UNL     1     -19.670  -2.942   2.154  1.00  0.00     0.062 A 
ATOM     14  C   UNL     1     -21.000  -3.060   1.730  1.00  0.00     0.162 A 
ATOM     15  C   UNL     1     -20.256  -0.994   3.467  1.00  0.00     0.062 A 
ATOM     16  C   UNL     1     -21.961  -2.141   2.172  1.00  0.00     0.200 A 
ATOM     17  C   UNL     1     -21.589  -1.106   3.045  1.00  0.00     0.162 A 
BRANCH  14  18
ATOM     18  O   UNL     1     -21.379  -4.094   0.875  1.00  0.00    -0.504 OA
ATOM     19  H   UNL     1     -21.369  -3.979  -0.132  1.00  0.00     0.293 HD
ENDBRANCH  14  18
BRANCH  16  20
ATOM     20  O   UNL     1     -23.280  -2.272   1.736  1.00  0.00    -0.502 OA
ATOM     21  H   UNL     1     -24.066  -2.212   2.373  1.00  0.00     0.293 HD
ENDBRANCH  16  20
BRANCH  17  22
ATOM     22  O   UNL     1     -22.543  -0.193   3.492  1.00  0.00    -0.504 OA
ATOM     23  H   UNL     1     -23.390  -0.496   3.961  1.00  0.00     0.293 HD
ENDBRANCH  17  22
ENDBRANCH   1  12
BRANCH   2  24
ATOM     24  O   UNL     1     -17.397  -0.005   1.893  1.00  0.00    -0.502 OA
ATOM     25  H   UNL     1     -16.766   0.342   1.181  1.00  0.00     0.293 HD
ENDBRANCH   2  24
BRANCH   6  26
ATOM     26  O   UNL     1     -12.854  -1.063   4.463  1.00  0.00    -0.507 OA
ATOM     27  H   UNL     1     -12.569  -0.131   4.725  1.00  0.00     0.293 HD
ENDBRANCH   6  26
BRANCH   8  28
ATOM     28  O   UNL     1     -14.433  -4.125   7.785  1.00  0.00    -0.508 OA
ATOM     29  H   UNL     1     -14.479  -3.756   8.727  1.00  0.00     0.293 HD
ENDBRANCH   8  28
TORSDOF 7
ENDMDL
