MODEL 1
REMARK VINA RESULT:    -6.903      0.000      0.000
REMARK INTER + INTRA:         -12.444
REMARK INTER:                 -10.737
REMARK INTRA:                  -1.707
REMARK UNBOUND:                -1.707
REMARK SMILES COc1cc(CNC(=O)CCCCC=CC(C)C)ccc1O
REMARK SMILES IDX 11 1 12 2 13 3 14 4 15 5 16 6 17 7 18 8 10 9 8 10 9 11 7 12
REMARK SMILES IDX 6 14 5 15 4 16 19 17 3 18 20 19 21 20 2 21 1 22 22 23
REMARK H PARENT 7 13 22 24
REMARK Flexibility Score: inf
ROOT
ATOM      1  C   UNL     1     112.569 109.948 114.940  1.00  0.00     0.010 C 
ENDROOT
BRANCH   1   2
ATOM      2  C   UNL     1     112.467 111.055 116.001  1.00  0.00     0.005 C 
BRANCH   2   3
ATOM      3  C   UNL     1     112.219 112.435 115.382  1.00  0.00     0.027 C 
BRANCH   3   4
ATOM      4  C   UNL     1     110.781 112.868 115.550  1.00  0.00    -0.031 C 
ATOM      5  C   UNL     1     109.808 112.705 114.634  1.00  0.00    -0.028 C 
BRANCH   5   6
ATOM      6  C   UNL     1     109.972 111.996 113.307  1.00  0.00     0.005 C 
ATOM      7  C   UNL     1     109.467 112.887 112.168  1.00  0.00     0.012 C 
ATOM      8  C   UNL     1     109.209 110.669 113.315  1.00  0.00     0.012 C 
ENDBRANCH   5   6
ENDBRANCH   3   4
ENDBRANCH   2   3
ENDBRANCH   1   2
BRANCH   1   9
ATOM      9  C   UNL     1     113.310 110.411 113.682  1.00  0.00     0.100 C 
BRANCH   9  10
ATOM     10  C   UNL     1     112.906 109.604 112.486  1.00  0.00     0.220 C 
ATOM     11  O   UNL     1     113.149 108.366 112.464  1.00  0.00    -0.275 OA
ATOM     12  N   UNL     1     112.194 110.218 111.404  1.00  0.00    -0.352 N 
ATOM     13  H   UNL     1     112.053 111.252 111.423  1.00  0.00     0.163 HD
BRANCH  12  14
ATOM     14  C   UNL     1     111.388 109.438 110.471  1.00  0.00     0.151 C 
BRANCH  14  15
ATOM     15  C   UNL     1     110.970 110.312 109.323  1.00  0.00    -0.025 A 
ATOM     16  C   UNL     1     111.946 110.953 108.551  1.00  0.00     0.056 A 
ATOM     17  C   UNL     1     109.615 110.576 109.082  1.00  0.00     0.009 A 
ATOM     18  C   UNL     1     111.578 111.848 107.526  1.00  0.00     0.160 A 
ATOM     19  C   UNL     1     109.243 111.455 108.065  1.00  0.00     0.050 A 
ATOM     20  C   UNL     1     110.214 112.090 107.286  1.00  0.00     0.157 A 
BRANCH  18  21
ATOM     21  O   UNL     1     112.536 112.508 106.742  1.00  0.00    -0.493 OA
ATOM     22  C   UNL     1     113.162 111.947 105.588  1.00  0.00     0.278 C 
ENDBRANCH  18  21
BRANCH  20  23
ATOM     23  O   UNL     1     109.805 112.970 106.280  1.00  0.00    -0.504 OA
ATOM     24  H   UNL     1     110.396 113.199 105.490  1.00  0.00     0.293 HD
ENDBRANCH  20  23
ENDBRANCH  14  15
ENDBRANCH  12  14
ENDBRANCH   9  10
ENDBRANCH   1   9
TORSDOF 10
ENDMDL
MODEL 2
REMARK VINA RESULT:    -6.899      2.125      3.759
REMARK INTER + INTRA:         -12.437
REMARK INTER:                 -10.817
REMARK INTRA:                  -1.620
REMARK UNBOUND:                -1.707
REMARK SMILES COc1cc(CNC(=O)CCCCC=CC(C)C)ccc1O
REMARK SMILES IDX 11 1 12 2 13 3 14 4 15 5 16 6 17 7 18 8 10 9 8 10 9 11 7 12
REMARK SMILES IDX 6 14 5 15 4 16 19 17 3 18 20 19 21 20 2 21 1 22 22 23
REMARK H PARENT 7 13 22 24
REMARK Flexibility Score: inf
ROOT
ATOM      1  C   UNL     1     109.751 112.326 114.899  1.00  0.00     0.010 C 
ENDROOT
BRANCH   1   2
ATOM      2  C   UNL     1     109.670 111.297 116.038  1.00  0.00     0.005 C 
BRANCH   2   3
ATOM      3  C   UNL     1     110.054 109.887 115.577  1.00  0.00     0.027 C 
BRANCH   3   4
ATOM      4  C   UNL     1     111.501 109.577 115.880  1.00  0.00    -0.031 C 
ATOM      5  C   UNL     1     112.522 109.707 115.013  1.00  0.00    -0.028 C 
BRANCH   5   6
ATOM      6  C   UNL     1     112.404 110.252 113.606  1.00  0.00     0.005 C 
ATOM      7  C   UNL     1     112.988 109.252 112.603  1.00  0.00     0.012 C 
ATOM      8  C   UNL     1     113.130 111.596 113.493  1.00  0.00     0.012 C 
ENDBRANCH   5   6
ENDBRANCH   3   4
ENDBRANCH   2   3
ENDBRANCH   1   2
BRANCH   1   9
ATOM      9  C   UNL     1     108.972 111.885 113.657  1.00  0.00     0.100 C 
BRANCH   9  10
ATOM     10  C   UNL     1     109.409 112.648 112.443  1.00  0.00     0.220 C 
ATOM     11  O   UNL     1     109.071 113.857 112.317  1.00  0.00    -0.275 OA
ATOM     12  N   UNL     1     110.253 112.030 111.464  1.00  0.00    -0.352 N 
ATOM     13  H   UNL     1     110.473 111.015 111.564  1.00  0.00     0.163 HD
BRANCH  12  14
ATOM     14  C   UNL     1     111.069 112.816 110.545  1.00  0.00     0.151 C 
BRANCH  14  15
ATOM     15  C   UNL     1     111.500 111.950 109.395  1.00  0.00    -0.025 A 
ATOM     16  C   UNL     1     110.660 111.807 108.285  1.00  0.00     0.056 A 
ATOM     17  C   UNL     1     112.682 111.200 109.469  1.00  0.00     0.009 A 
ATOM     18  C   UNL     1     110.999 110.931 107.235  1.00  0.00     0.160 A 
ATOM     19  C   UNL     1     113.028 110.335 108.430  1.00  0.00     0.050 A 
ATOM     20  C   UNL     1     112.196 110.198 107.315  1.00  0.00     0.157 A 
BRANCH  18  21
ATOM     21  O   UNL     1     110.172 110.765 106.113  1.00  0.00    -0.493 OA
ATOM     22  C   UNL     1     109.047 109.890 106.060  1.00  0.00     0.278 C 
ENDBRANCH  18  21
BRANCH  20  23
ATOM     23  O   UNL     1     112.571 109.318 106.296  1.00  0.00    -0.504 OA
ATOM     24  H   UNL     1     112.650 109.611 105.330  1.00  0.00     0.293 HD
ENDBRANCH  20  23
ENDBRANCH  14  15
ENDBRANCH  12  14
ENDBRANCH   9  10
ENDBRANCH   1   9
TORSDOF 10
ENDMDL
MODEL 3
REMARK VINA RESULT:    -6.835      1.874      3.392
REMARK INTER + INTRA:         -12.338
REMARK INTER:                 -10.975
REMARK INTRA:                  -1.363
REMARK UNBOUND:                -1.707
REMARK SMILES COc1cc(CNC(=O)CCCCC=CC(C)C)ccc1O
REMARK SMILES IDX 11 1 12 2 13 3 14 4 15 5 16 6 17 7 18 8 10 9 8 10 9 11 7 12
REMARK SMILES IDX 6 14 5 15 4 16 19 17 3 18 20 19 21 20 2 21 1 22 22 23
REMARK H PARENT 7 13 22 24
REMARK Flexibility Score: inf
ROOT
ATOM      1  C   UNL     1     108.864 111.985 113.165  1.00  0.00     0.010 C 
ENDROOT
BRANCH   1   2
ATOM      2  C   UNL     1     109.537 112.430 114.473  1.00  0.00     0.005 C 
BRANCH   2   3
ATOM      3  C   UNL     1     110.451 111.348 115.056  1.00  0.00     0.027 C 
BRANCH   3   4
ATOM      4  C   UNL     1     111.876 111.834 115.183  1.00  0.00    -0.031 C 
ATOM      5  C   UNL     1     112.827 111.711 114.238  1.00  0.00    -0.028 C 
BRANCH   5   6
ATOM      6  C   UNL     1     112.611 111.127 112.859  1.00  0.00     0.005 C 
ATOM      7  C   UNL     1     113.198 109.714 112.788  1.00  0.00     0.012 C 
ATOM      8  C   UNL     1     113.257 112.019 111.796  1.00  0.00     0.012 C 
ENDBRANCH   5   6
ENDBRANCH   3   4
ENDBRANCH   2   3
ENDBRANCH   1   2
BRANCH   1   9
ATOM      9  C   UNL     1     109.291 110.578 112.737  1.00  0.00     0.100 C 
BRANCH   9  10
ATOM     10  C   UNL     1     109.247 110.427 111.246  1.00  0.00     0.220 C 
ATOM     11  O   UNL     1     108.776 109.368 110.746  1.00  0.00    -0.275 OA
ATOM     12  N   UNL     1     109.677 111.498 110.397  1.00  0.00    -0.352 N 
ATOM     13  H   UNL     1     110.111 112.339 110.834  1.00  0.00     0.163 HD
BRANCH  12  14
ATOM     14  C   UNL     1     109.239 111.602 109.009  1.00  0.00     0.151 C 
BRANCH  14  15
ATOM     15  C   UNL     1     110.423 111.897 108.133  1.00  0.00    -0.025 A 
ATOM     16  C   UNL     1     110.236 112.096 106.760  1.00  0.00     0.056 A 
ATOM     17  C   UNL     1     111.723 111.871 108.656  1.00  0.00     0.009 A 
ATOM     18  C   UNL     1     111.339 112.284 105.904  1.00  0.00     0.160 A 
ATOM     19  C   UNL     1     112.821 112.064 107.816  1.00  0.00     0.050 A 
ATOM     20  C   UNL     1     112.636 112.272 106.446  1.00  0.00     0.157 A 
BRANCH  18  21
ATOM     21  O   UNL     1     111.179 112.480 104.524  1.00  0.00    -0.493 OA
ATOM     22  C   UNL     1     110.897 111.441 103.588  1.00  0.00     0.278 C 
ENDBRANCH  18  21
BRANCH  20  23
ATOM     23  O   UNL     1     113.758 112.455 105.634  1.00  0.00    -0.504 OA
ATOM     24  H   UNL     1     113.727 112.318 104.631  1.00  0.00     0.293 HD
ENDBRANCH  20  23
ENDBRANCH  14  15
ENDBRANCH  12  14
ENDBRANCH   9  10
ENDBRANCH   1   9
TORSDOF 10
ENDMDL
MODEL 4
REMARK VINA RESULT:    -6.829      1.313      2.001
REMARK INTER + INTRA:         -12.328
REMARK INTER:                 -10.702
REMARK INTRA:                  -1.626
REMARK UNBOUND:                -1.707
REMARK SMILES COc1cc(CNC(=O)CCCCC=CC(C)C)ccc1O
REMARK SMILES IDX 11 1 12 2 13 3 14 4 15 5 16 6 17 7 18 8 10 9 8 10 9 11 7 12
REMARK SMILES IDX 6 14 5 15 4 16 19 17 3 18 20 19 21 20 2 21 1 22 22 23
REMARK H PARENT 7 13 22 24
REMARK Flexibility Score: inf
ROOT
ATOM      1  C   UNL     1     112.416 109.856 114.797  1.00  0.00     0.010 C 
ENDROOT
BRANCH   1   2
ATOM      2  C   UNL     1     111.448 110.805 115.522  1.00  0.00     0.005 C 
BRANCH   2   3
ATOM      3  C   UNL     1     111.353 112.173 114.839  1.00  0.00     0.027 C 
BRANCH   3   4
ATOM      4  C   UNL     1     109.918 112.553 114.552  1.00  0.00    -0.031 C 
ATOM      5  C   UNL     1     109.289 112.384 113.375  1.00  0.00    -0.028 C 
BRANCH   5   6
ATOM      6  C   UNL     1     109.891 111.721 112.155  1.00  0.00     0.005 C 
ATOM      7  C   UNL     1     109.889 112.694 110.971  1.00  0.00     0.012 C 
ATOM      8  C   UNL     1     109.109 110.455 111.797  1.00  0.00     0.012 C 
ENDBRANCH   5   6
ENDBRANCH   3   4
ENDBRANCH   2   3
ENDBRANCH   1   2
BRANCH   1   9
ATOM      9  C   UNL     1     113.131 110.533 113.625  1.00  0.00     0.100 C 
BRANCH   9  10
ATOM     10  C   UNL     1     113.051 109.697 112.383  1.00  0.00     0.220 C 
ATOM     11  O   UNL     1     113.205 108.447 112.469  1.00  0.00    -0.275 OA
ATOM     12  N   UNL     1     112.741 110.301 111.122  1.00  0.00    -0.352 N 
ATOM     13  H   UNL     1     112.672 111.341 111.069  1.00  0.00     0.163 HD
BRANCH  12  14
ATOM     14  C   UNL     1     112.202 109.526 110.009  1.00  0.00     0.151 C 
BRANCH  14  15
ATOM     15  C   UNL     1     112.123 110.397 108.788  1.00  0.00    -0.025 A 
ATOM     16  C   UNL     1     111.249 110.054 107.749  1.00  0.00     0.056 A 
ATOM     17  C   UNL     1     112.990 111.487 108.629  1.00  0.00     0.009 A 
ATOM     18  C   UNL     1     111.221 110.803 106.556  1.00  0.00     0.160 A 
ATOM     19  C   UNL     1     112.964 112.237 107.453  1.00  0.00     0.050 A 
ATOM     20  C   UNL     1     112.085 111.903 106.418  1.00  0.00     0.157 A 
BRANCH  18  21
ATOM     21  O   UNL     1     110.358 110.477 105.498  1.00  0.00    -0.493 OA
ATOM     22  C   UNL     1     109.148 109.735 105.641  1.00  0.00     0.278 C 
ENDBRANCH  18  21
BRANCH  20  23
ATOM     23  O   UNL     1     112.091 112.673 105.252  1.00  0.00    -0.504 OA
ATOM     24  H   UNL     1     111.411 113.404 105.084  1.00  0.00     0.293 HD
ENDBRANCH  20  23
ENDBRANCH  14  15
ENDBRANCH  12  14
ENDBRANCH   9  10
ENDBRANCH   1   9
TORSDOF 10
ENDMDL
MODEL 5
REMARK VINA RESULT:    -6.815      2.082      3.283
REMARK INTER + INTRA:         -12.306
REMARK INTER:                 -10.727
REMARK INTRA:                  -1.579
REMARK UNBOUND:                -1.707
REMARK SMILES COc1cc(CNC(=O)CCCCC=CC(C)C)ccc1O
REMARK SMILES IDX 11 1 12 2 13 3 14 4 15 5 16 6 17 7 18 8 10 9 8 10 9 11 7 12
REMARK SMILES IDX 6 14 5 15 4 16 19 17 3 18 20 19 21 20 2 21 1 22 22 23
REMARK H PARENT 7 13 22 24
REMARK Flexibility Score: inf
ROOT
ATOM      1  C   UNL     1     109.884 112.484 114.861  1.00  0.00     0.010 C 
ENDROOT
BRANCH   1   2
ATOM      2  C   UNL     1     111.133 111.836 115.480  1.00  0.00     0.005 C 
BRANCH   2   3
ATOM      3  C   UNL     1     112.410 112.171 114.703  1.00  0.00     0.027 C 
BRANCH   3   4
ATOM      4  C   UNL     1     113.205 110.927 114.378  1.00  0.00    -0.031 C 
ATOM      5  C   UNL     1     113.221 110.305 113.185  1.00  0.00    -0.028 C 
BRANCH   5   6
ATOM      6  C   UNL     1     112.500 110.785 111.944  1.00  0.00     0.005 C 
ATOM      7  C   UNL     1     112.373 109.641 110.933  1.00  0.00     0.012 C 
ATOM      8  C   UNL     1     113.250 111.962 111.314  1.00  0.00     0.012 C 
ENDBRANCH   5   6
ENDBRANCH   3   4
ENDBRANCH   2   3
ENDBRANCH   1   2
BRANCH   1   9
ATOM      9  C   UNL     1     109.349 111.695 113.662  1.00  0.00     0.100 C 
BRANCH   9  10
ATOM     10  C   UNL     1     109.299 112.547 112.430  1.00  0.00     0.220 C 
ATOM     11  O   UNL     1     109.154 113.795 112.547  1.00  0.00    -0.275 OA
ATOM     12  N   UNL     1     109.473 111.959 111.135  1.00  0.00    -0.352 N 
ATOM     13  H   UNL     1     109.537 110.920 111.063  1.00  0.00     0.163 HD
BRANCH  12  14
ATOM     14  C   UNL     1     109.893 112.749 109.982  1.00  0.00     0.151 C 
BRANCH  14  15
ATOM     15  C   UNL     1     110.174 111.831 108.826  1.00  0.00    -0.025 A 
ATOM     16  C   UNL     1     111.376 111.955 108.120  1.00  0.00     0.056 A 
ATOM     17  C   UNL     1     109.201 110.926 108.379  1.00  0.00     0.009 A 
ATOM     18  C   UNL     1     111.624 111.169 106.978  1.00  0.00     0.160 A 
ATOM     19  C   UNL     1     109.442 110.139 107.253  1.00  0.00     0.050 A 
ATOM     20  C   UNL     1     110.646 110.254 106.552  1.00  0.00     0.157 A 
BRANCH  18  21
ATOM     21  O   UNL     1     112.819 111.278 106.250  1.00  0.00    -0.493 OA
ATOM     22  C   UNL     1     113.107 112.322 105.321  1.00  0.00     0.278 C 
ENDBRANCH  18  21
BRANCH  20  23
ATOM     23  O   UNL     1     110.850 109.454 105.424  1.00  0.00    -0.504 OA
ATOM     24  H   UNL     1     111.506 108.682 105.421  1.00  0.00     0.293 HD
ENDBRANCH  20  23
ENDBRANCH  14  15
ENDBRANCH  12  14
ENDBRANCH   9  10
ENDBRANCH   1   9
TORSDOF 10
ENDMDL
MODEL 6
REMARK VINA RESULT:    -6.809      2.014      2.288
REMARK INTER + INTRA:         -12.297
REMARK INTER:                 -10.962
REMARK INTRA:                  -1.335
REMARK UNBOUND:                -1.707
REMARK SMILES COc1cc(CNC(=O)CCCCC=CC(C)C)ccc1O
REMARK SMILES IDX 11 1 12 2 13 3 14 4 15 5 16 6 17 7 18 8 10 9 8 10 9 11 7 12
REMARK SMILES IDX 6 14 5 15 4 16 19 17 3 18 20 19 21 20 2 21 1 22 22 23
REMARK H PARENT 7 13 22 24
REMARK Flexibility Score: inf
ROOT
ATOM      1  C   UNL     1     113.303 110.693 113.182  1.00  0.00     0.010 C 
ENDROOT
BRANCH   1   2
ATOM      2  C   UNL     1     112.725 110.468 114.589  1.00  0.00     0.005 C 
BRANCH   2   3
ATOM      3  C   UNL     1     111.861 111.643 115.058  1.00  0.00     0.027 C 
BRANCH   3   4
ATOM      4  C   UNL     1     110.428 111.222 115.286  1.00  0.00    -0.031 C 
ATOM      5  C   UNL     1     109.473 111.167 114.339  1.00  0.00    -0.028 C 
BRANCH   5   6
ATOM      6  C   UNL     1     109.691 111.452 112.868  1.00  0.00     0.005 C 
ATOM      7  C   UNL     1     109.112 112.823 112.506  1.00  0.00     0.012 C 
ATOM      8  C   UNL     1     109.038 110.363 112.013  1.00  0.00     0.012 C 
ENDBRANCH   5   6
ENDBRANCH   3   4
ENDBRANCH   2   3
ENDBRANCH   1   2
BRANCH   1   9
ATOM      9  C   UNL     1     112.897 112.046 112.593  1.00  0.00     0.100 C 
BRANCH   9  10
ATOM     10  C   UNL     1     112.907 112.011 111.094  1.00  0.00     0.220 C 
ATOM     11  O   UNL     1     113.226 113.051 110.454  1.00  0.00    -0.275 OA
ATOM     12  N   UNL     1     112.617 110.794 110.396  1.00  0.00    -0.352 N 
ATOM     13  H   UNL     1     112.304 109.965 110.947  1.00  0.00     0.163 HD
BRANCH  12  14
ATOM     14  C   UNL     1     113.053 110.573 109.022  1.00  0.00     0.151 C 
BRANCH  14  15
ATOM     15  C   UNL     1     111.854 110.316 108.154  1.00  0.00    -0.025 A 
ATOM     16  C   UNL     1     112.022 110.143 106.775  1.00  0.00     0.056 A 
ATOM     17  C   UNL     1     110.561 110.356 108.692  1.00  0.00     0.009 A 
ATOM     18  C   UNL     1     110.907 109.991 105.928  1.00  0.00     0.160 A 
ATOM     19  C   UNL     1     109.451 110.199 107.861  1.00  0.00     0.050 A 
ATOM     20  C   UNL     1     109.616 110.016 106.485  1.00  0.00     0.157 A 
BRANCH  18  21
ATOM     21  O   UNL     1     111.048 109.821 104.542  1.00  0.00    -0.493 OA
ATOM     22  C   UNL     1     112.267 110.007 103.825  1.00  0.00     0.278 C 
ENDBRANCH  18  21
BRANCH  20  23
ATOM     23  O   UNL     1     108.482 109.870 105.682  1.00  0.00    -0.504 OA
ATOM     24  H   UNL     1     108.320 109.042 105.121  1.00  0.00     0.293 HD
ENDBRANCH  20  23
ENDBRANCH  14  15
ENDBRANCH  12  14
ENDBRANCH   9  10
ENDBRANCH   1   9
TORSDOF 10
ENDMDL
MODEL 7
REMARK VINA RESULT:    -6.699      3.173      7.841
REMARK INTER + INTRA:         -12.127
REMARK INTER:                 -10.408
REMARK INTRA:                  -1.719
REMARK UNBOUND:                -1.707
REMARK SMILES COc1cc(CNC(=O)CCCCC=CC(C)C)ccc1O
REMARK SMILES IDX 11 1 12 2 13 3 14 4 15 5 16 6 17 7 18 8 10 9 8 10 9 11 7 12
REMARK SMILES IDX 6 14 5 15 4 16 19 17 3 18 20 19 21 20 2 21 1 22 22 23
REMARK H PARENT 7 13 22 24
REMARK Flexibility Score: inf
ROOT
ATOM      1  C   UNL     1     109.479 111.594 110.481  1.00  0.00     0.010 C 
ENDROOT
BRANCH   1   2
ATOM      2  C   UNL     1     110.364 111.168 109.298  1.00  0.00     0.005 C 
BRANCH   2   3
ATOM      3  C   UNL     1     111.638 110.448 109.753  1.00  0.00     0.027 C 
BRANCH   3   4
ATOM      4  C   UNL     1     112.744 111.427 110.074  1.00  0.00    -0.031 C 
ATOM      5  C   UNL     1     113.145 111.768 111.313  1.00  0.00    -0.028 C 
BRANCH   5   6
ATOM      6  C   UNL     1     112.603 111.176 112.596  1.00  0.00     0.005 C 
ATOM      7  C   UNL     1     112.842 112.140 113.762  1.00  0.00     0.012 C 
ATOM      8  C   UNL     1     113.269 109.828 112.883  1.00  0.00     0.012 C 
ENDBRANCH   5   6
ENDBRANCH   3   4
ENDBRANCH   2   3
ENDBRANCH   1   2
BRANCH   1   9
ATOM      9  C   UNL     1     109.131 110.422 111.403  1.00  0.00     0.100 C 
BRANCH   9  10
ATOM     10  C   UNL     1     109.142 110.841 112.842  1.00  0.00     0.220 C 
ATOM     11  O   UNL     1     108.875 112.038 113.139  1.00  0.00    -0.275 OA
ATOM     12  N   UNL     1     109.391 109.879 113.875  1.00  0.00    -0.352 N 
ATOM     13  H   UNL     1     109.661 108.910 113.600  1.00  0.00     0.163 HD
BRANCH  12  14
ATOM     14  C   UNL     1     108.967 110.103 115.252  1.00  0.00     0.151 C 
BRANCH  14  15
ATOM     15  C   UNL     1     110.177 110.205 116.136  1.00  0.00    -0.025 A 
ATOM     16  C   UNL     1     110.159 111.068 117.238  1.00  0.00     0.056 A 
ATOM     17  C   UNL     1     111.360 109.527 115.810  1.00  0.00     0.009 A 
ATOM     18  C   UNL     1     111.310 111.250 118.028  1.00  0.00     0.160 A 
ATOM     19  C   UNL     1     112.503 109.696 116.592  1.00  0.00     0.050 A 
ATOM     20  C   UNL     1     112.485 110.551 117.698  1.00  0.00     0.157 A 
BRANCH  18  21
ATOM     21  O   UNL     1     111.320 112.113 119.134  1.00  0.00    -0.493 OA
ATOM     22  C   UNL     1     110.150 112.625 119.771  1.00  0.00     0.278 C 
ENDBRANCH  18  21
BRANCH  20  23
ATOM     23  O   UNL     1     113.649 110.701 118.455  1.00  0.00    -0.504 OA
ATOM     24  H   UNL     1     113.699 111.324 119.252  1.00  0.00     0.293 HD
ENDBRANCH  20  23
ENDBRANCH  14  15
ENDBRANCH  12  14
ENDBRANCH   9  10
ENDBRANCH   1   9
TORSDOF 10
ENDMDL
MODEL 8
REMARK VINA RESULT:    -6.680      2.188      6.931
REMARK INTER + INTRA:         -12.096
REMARK INTER:                 -10.321
REMARK INTRA:                  -1.775
REMARK UNBOUND:                -1.707
REMARK SMILES COc1cc(CNC(=O)CCCCC=CC(C)C)ccc1O
REMARK SMILES IDX 11 1 12 2 13 3 14 4 15 5 16 6 17 7 18 8 10 9 8 10 9 11 7 12
REMARK SMILES IDX 6 14 5 15 4 16 19 17 3 18 20 19 21 20 2 21 1 22 22 23
REMARK H PARENT 7 13 22 24
REMARK Flexibility Score: inf
ROOT
ATOM      1  C   UNL     1     112.741 110.894 105.888  1.00  0.00     0.010 C 
ENDROOT
BRANCH   1   2
ATOM      2  C   UNL     1     111.851 111.283 104.696  1.00  0.00     0.005 C 
BRANCH   2   3
ATOM      3  C   UNL     1     110.498 111.849 105.139  1.00  0.00     0.027 C 
BRANCH   3   4
ATOM      4  C   UNL     1     109.503 110.748 105.425  1.00  0.00    -0.031 C 
ATOM      5  C   UNL     1     109.138 110.329 106.651  1.00  0.00    -0.028 C 
BRANCH   5   6
ATOM      6  C   UNL     1     109.610 110.937 107.954  1.00  0.00     0.005 C 
ATOM      7  C   UNL     1     109.522 109.903 109.080  1.00  0.00     0.012 C 
ATOM      8  C   UNL     1     108.769 112.168 108.302  1.00  0.00     0.012 C 
ENDBRANCH   5   6
ENDBRANCH   3   4
ENDBRANCH   2   3
ENDBRANCH   1   2
BRANCH   1   9
ATOM      9  C   UNL     1     112.976 112.064 106.848  1.00  0.00     0.100 C 
BRANCH   9  10
ATOM     10  C   UNL     1     113.022 111.597 108.272  1.00  0.00     0.220 C 
ATOM     11  O   UNL     1     113.289 110.389 108.518  1.00  0.00    -0.275 OA
ATOM     12  N   UNL     1     112.825 112.526 109.345  1.00  0.00    -0.352 N 
ATOM     13  H   UNL     1     112.552 113.506 109.114  1.00  0.00     0.163 HD
BRANCH  12  14
ATOM     14  C   UNL     1     113.304 112.253 110.696  1.00  0.00     0.151 C 
BRANCH  14  15
ATOM     15  C   UNL     1     112.133 111.972 111.593  1.00  0.00    -0.025 A 
ATOM     16  C   UNL     1     112.285 111.098 112.676  1.00  0.00     0.056 A 
ATOM     17  C   UNL     1     110.865 112.489 111.296  1.00  0.00     0.009 A 
ATOM     18  C   UNL     1     111.181 110.748 113.478  1.00  0.00     0.160 A 
ATOM     19  C   UNL     1     109.767 112.153 112.090  1.00  0.00     0.050 A 
ATOM     20  C   UNL     1     109.918 111.288 113.178  1.00  0.00     0.157 A 
BRANCH  18  21
ATOM     21  O   UNL     1     111.306 109.871 114.566  1.00  0.00    -0.493 OA
ATOM     22  C   UNL     1     111.631 110.273 115.896  1.00  0.00     0.278 C 
ENDBRANCH  18  21
BRANCH  20  23
ATOM     23  O   UNL     1     108.797 110.968 113.947  1.00  0.00    -0.504 OA
ATOM     24  H   UNL     1     108.602 111.419 114.833  1.00  0.00     0.293 HD
ENDBRANCH  20  23
ENDBRANCH  14  15
ENDBRANCH  12  14
ENDBRANCH   9  10
ENDBRANCH   1   9
TORSDOF 10
ENDMDL
MODEL 9
REMARK VINA RESULT:    -6.617      2.942      7.763
REMARK INTER + INTRA:         -11.999
REMARK INTER:                 -10.615
REMARK INTRA:                  -1.383
REMARK UNBOUND:                -1.707
REMARK SMILES COc1cc(CNC(=O)CCCCC=CC(C)C)ccc1O
REMARK SMILES IDX 11 1 12 2 13 3 14 4 15 5 16 6 17 7 18 8 10 9 8 10 9 11 7 12
REMARK SMILES IDX 6 14 5 15 4 16 19 17 3 18 20 19 21 20 2 21 1 22 22 23
REMARK H PARENT 7 13 22 24
REMARK Flexibility Score: inf
ROOT
ATOM      1  C   UNL     1     109.632 111.214 111.472  1.00  0.00     0.010 C 
ENDROOT
BRANCH   1   2
ATOM      2  C   UNL     1     109.174 110.479 110.202  1.00  0.00     0.005 C 
BRANCH   2   3
ATOM      3  C   UNL     1     109.206 111.381 108.963  1.00  0.00     0.027 C 
BRANCH   3   4
ATOM      4  C   UNL     1     109.662 110.623 107.737  1.00  0.00    -0.031 C 
ATOM      5  C   UNL     1     110.921 110.597 107.263  1.00  0.00    -0.028 C 
BRANCH   5   6
ATOM      6  C   UNL     1     112.111 111.266 107.917  1.00  0.00     0.005 C 
ATOM      7  C   UNL     1     112.921 112.038 106.871  1.00  0.00     0.012 C 
ATOM      8  C   UNL     1     112.996 110.223 108.604  1.00  0.00     0.012 C 
ENDBRANCH   5   6
ENDBRANCH   3   4
ENDBRANCH   2   3
ENDBRANCH   1   2
BRANCH   1   9
ATOM      9  C   UNL     1     110.983 111.911 111.289  1.00  0.00     0.100 C 
BRANCH   9  10
ATOM     10  C   UNL     1     111.982 111.434 112.299  1.00  0.00     0.220 C 
ATOM     11  O   UNL     1     112.850 112.238 112.738  1.00  0.00    -0.275 OA
ATOM     12  N   UNL     1     111.916 110.095 112.806  1.00  0.00    -0.352 N 
ATOM     13  H   UNL     1     111.224 109.436 112.388  1.00  0.00     0.163 HD
BRANCH  12  14
ATOM     14  C   UNL     1     112.526 109.724 114.078  1.00  0.00     0.151 C 
BRANCH  14  15
ATOM     15  C   UNL     1     111.537 109.942 115.188  1.00  0.00    -0.025 A 
ATOM     16  C   UNL     1     111.997 110.250 116.474  1.00  0.00     0.056 A 
ATOM     17  C   UNL     1     110.168 109.735 114.975  1.00  0.00     0.009 A 
ATOM     18  C   UNL     1     111.096 110.370 117.550  1.00  0.00     0.160 A 
ATOM     19  C   UNL     1     109.268 109.859 116.035  1.00  0.00     0.050 A 
ATOM     20  C   UNL     1     109.723 110.176 117.318  1.00  0.00     0.157 A 
BRANCH  18  21
ATOM     21  O   UNL     1     111.531 110.673 118.849  1.00  0.00    -0.493 OA
ATOM     22  C   UNL     1     112.102 109.727 119.752  1.00  0.00     0.278 C 
ENDBRANCH  18  21
BRANCH  20  23
ATOM     23  O   UNL     1     108.794 110.285 118.356  1.00  0.00    -0.504 OA
ATOM     24  H   UNL     1     107.797 110.334 118.186  1.00  0.00     0.293 HD
ENDBRANCH  20  23
ENDBRANCH  14  15
ENDBRANCH  12  14
ENDBRANCH   9  10
ENDBRANCH   1   9
TORSDOF 10
ENDMDL
