MODEL 1
REMARK VINA RESULT:    -4.902      0.000      0.000
REMARK INTER + INTRA:          -8.164
REMARK INTER:                  -6.764
REMARK INTRA:                  -1.399
REMARK UNBOUND:                -1.399
REMARK SMILES CCCCc1cccc(O)c1CCCC
REMARK SMILES IDX 5 1 11 2 9 3 8 4 7 5 6 6 4 7 3 8 2 9 1 10 12 11 13 12 14 13
REMARK SMILES IDX 15 14 10 15
REMARK H PARENT 10 16
REMARK Flexibility Score: inf
ROOT
ATOM      1  C   UNL     1     112.437   8.274 -26.381  1.00  0.00    -0.041 A 
ATOM      2  C   UNL     1     112.247   8.078 -24.977  1.00  0.00    -0.003 A 
ATOM      3  C   UNL     1     111.089   7.377 -24.538  1.00  0.00     0.119 A 
ATOM      4  C   UNL     1     110.195   6.844 -25.471  1.00  0.00     0.046 A 
ATOM      5  C   UNL     1     110.414   6.999 -26.833  1.00  0.00     0.004 A 
ATOM      6  C   UNL     1     111.521   7.710 -27.286  1.00  0.00     0.004 A 
ENDROOT
BRANCH   1   7
ATOM      7  C   UNL     1     113.586   9.074 -26.967  1.00  0.00     0.036 C 
BRANCH   7   8
ATOM      8  C   UNL     1     113.080  10.287 -27.762  1.00  0.00     0.004 C 
BRANCH   8   9
ATOM      9  C   UNL     1     112.970  11.553 -26.899  1.00  0.00    -0.003 C 
ATOM     10  C   UNL     1     111.570  11.749 -26.319  1.00  0.00     0.004 C 
ENDBRANCH   8   9
ENDBRANCH   7   8
ENDBRANCH   1   7
BRANCH   2  11
ATOM     11  C   UNL     1     113.278   8.538 -23.958  1.00  0.00     0.040 C 
BRANCH  11  12
ATOM     12  C   UNL     1     112.913   9.921 -23.384  1.00  0.00     0.005 C 
BRANCH  12  13
ATOM     13  C   UNL     1     114.149  10.735 -22.971  1.00  0.00    -0.003 C 
ATOM     14  C   UNL     1     115.160  10.883 -24.106  1.00  0.00     0.004 C 
ENDBRANCH  12  13
ENDBRANCH  11  12
ENDBRANCH   2  11
BRANCH   3  15
ATOM     15  O   UNL     1     110.785   7.190 -23.186  1.00  0.00    -0.508 OA
ATOM     16  H   UNL     1     109.870   7.337 -22.784  1.00  0.00     0.293 HD
ENDBRANCH   3  15
TORSDOF 7
ENDMDL
MODEL 2
REMARK VINA RESULT:    -4.753     14.116     16.207
REMARK INTER + INTRA:          -7.959
REMARK INTER:                  -6.811
REMARK INTRA:                  -1.148
REMARK UNBOUND:                -1.399
REMARK SMILES CCCCc1cccc(O)c1CCCC
REMARK SMILES IDX 5 1 11 2 9 3 8 4 7 5 6 6 4 7 3 8 2 9 1 10 12 11 13 12 14 13
REMARK SMILES IDX 15 14 10 15
REMARK H PARENT 10 16
REMARK Flexibility Score: inf
ROOT
ATOM      1  C   UNL     1     111.247   8.398 -39.679  1.00  0.00    -0.041 A 
ATOM      2  C   UNL     1     111.660   8.190 -41.032  1.00  0.00    -0.003 A 
ATOM      3  C   UNL     1     112.320   9.251 -41.713  1.00  0.00     0.119 A 
ATOM      4  C   UNL     1     112.607  10.444 -41.044  1.00  0.00     0.046 A 
ATOM      5  C   UNL     1     112.244  10.617 -39.715  1.00  0.00     0.004 A 
ATOM      6  C   UNL     1     111.568   9.607 -39.039  1.00  0.00     0.004 A 
ENDROOT
BRANCH   1   7
ATOM      7  C   UNL     1     110.465   7.375 -38.876  1.00  0.00     0.036 C 
BRANCH   7   8
ATOM      8  C   UNL     1     109.042   7.867 -38.572  1.00  0.00     0.004 C 
BRANCH   8   9
ATOM      9  C   UNL     1     108.285   8.303 -39.836  1.00  0.00    -0.003 C 
ATOM     10  C   UNL     1     106.848   8.734 -39.542  1.00  0.00     0.004 C 
ENDBRANCH   8   9
ENDBRANCH   7   8
ENDBRANCH   1   7
BRANCH   2  11
ATOM     11  C   UNL     1     111.471   6.852 -41.731  1.00  0.00     0.040 C 
BRANCH  11  12
ATOM     12  C   UNL     1     110.262   6.889 -42.685  1.00  0.00     0.005 C 
BRANCH  12  13
ATOM     13  C   UNL     1     109.503   5.555 -42.729  1.00  0.00    -0.003 C 
ATOM     14  C   UNL     1     109.225   4.991 -41.337  1.00  0.00     0.004 C 
ENDBRANCH  12  13
ENDBRANCH  11  12
ENDBRANCH   2  11
BRANCH   3  15
ATOM     15  O   UNL     1     112.706   9.165 -43.055  1.00  0.00    -0.508 OA
ATOM     16  H   UNL     1     113.558   8.726 -43.373  1.00  0.00     0.293 HD
ENDBRANCH   3  15
TORSDOF 7
ENDMDL
MODEL 3
REMARK VINA RESULT:    -4.355     13.579     15.775
REMARK INTER + INTRA:          -7.409
REMARK INTER:                  -6.208
REMARK INTRA:                  -1.201
REMARK UNBOUND:                -1.399
REMARK SMILES CCCCc1cccc(O)c1CCCC
REMARK SMILES IDX 5 1 11 2 9 3 8 4 7 5 6 6 4 7 3 8 2 9 1 10 12 11 13 12 14 13
REMARK SMILES IDX 15 14 10 15
REMARK H PARENT 10 16
REMARK Flexibility Score: inf
ROOT
ATOM      1  C   UNL     1     111.836   8.189 -41.310  1.00  0.00    -0.041 A 
ATOM      2  C   UNL     1     111.872   8.266 -39.882  1.00  0.00    -0.003 A 
ATOM      3  C   UNL     1     112.289   9.485 -39.277  1.00  0.00     0.119 A 
ATOM      4  C   UNL     1     112.596  10.594 -40.069  1.00  0.00     0.046 A 
ATOM      5  C   UNL     1     112.510  10.523 -41.453  1.00  0.00     0.004 A 
ATOM      6  C   UNL     1     112.139   9.333 -42.069  1.00  0.00     0.004 A 
ENDROOT
BRANCH   1   7
ATOM      7  C   UNL     1     111.489   6.923 -42.072  1.00  0.00     0.036 C 
BRANCH   7   8
ATOM      8  C   UNL     1     110.126   7.042 -42.770  1.00  0.00     0.004 C 
BRANCH   8   9
ATOM      9  C   UNL     1     109.483   5.675 -43.044  1.00  0.00    -0.003 C 
ATOM     10  C   UNL     1     109.251   4.867 -41.767  1.00  0.00     0.004 C 
ENDBRANCH   8   9
ENDBRANCH   7   8
ENDBRANCH   1   7
BRANCH   2  11
ATOM     11  C   UNL     1     111.417   7.109 -39.006  1.00  0.00     0.040 C 
BRANCH  11  12
ATOM     12  C   UNL     1     110.078   7.429 -38.315  1.00  0.00     0.005 C 
BRANCH  12  13
ATOM     13  C   UNL     1     108.866   7.153 -39.217  1.00  0.00    -0.003 C 
ATOM     14  C   UNL     1     108.256   8.432 -39.788  1.00  0.00     0.004 C 
ENDBRANCH  12  13
ENDBRANCH  11  12
ENDBRANCH   2  11
BRANCH   3  15
ATOM     15  O   UNL     1     112.416   9.637 -37.892  1.00  0.00    -0.508 OA
ATOM     16  H   UNL     1     112.612  10.515 -37.433  1.00  0.00     0.293 HD
ENDBRANCH   3  15
TORSDOF 7
ENDMDL
MODEL 4
REMARK VINA RESULT:    -4.279      1.383      3.473
REMARK INTER + INTRA:          -7.305
REMARK INTER:                  -5.970
REMARK INTRA:                  -1.335
REMARK UNBOUND:                -1.399
REMARK SMILES CCCCc1cccc(O)c1CCCC
REMARK SMILES IDX 5 1 11 2 9 3 8 4 7 5 6 6 4 7 3 8 2 9 1 10 12 11 13 12 14 13
REMARK SMILES IDX 15 14 10 15
REMARK H PARENT 10 16
REMARK Flexibility Score: inf
ROOT
ATOM      1  C   UNL     1     112.282   8.027 -24.894  1.00  0.00    -0.041 A 
ATOM      2  C   UNL     1     112.155   7.911 -26.314  1.00  0.00    -0.003 A 
ATOM      3  C   UNL     1     111.045   7.192 -26.841  1.00  0.00     0.119 A 
ATOM      4  C   UNL     1     110.076   6.668 -25.982  1.00  0.00     0.046 A 
ATOM      5  C   UNL     1     110.184   6.828 -24.607  1.00  0.00     0.004 A 
ATOM      6  C   UNL     1     111.277   7.497 -24.067  1.00  0.00     0.004 A 
ENDROOT
BRANCH   1   7
ATOM      7  C   UNL     1     113.461   8.696 -24.211  1.00  0.00     0.036 C 
BRANCH   7   8
ATOM      8  C   UNL     1     113.000   9.800 -23.247  1.00  0.00     0.004 C 
BRANCH   8   9
ATOM      9  C   UNL     1     114.100  10.836 -22.969  1.00  0.00    -0.003 C 
ATOM     10  C   UNL     1     115.140  10.904 -24.087  1.00  0.00     0.004 C 
ENDBRANCH   8   9
ENDBRANCH   7   8
ENDBRANCH   1   7
BRANCH   2  11
ATOM     11  C   UNL     1     113.132   8.588 -27.263  1.00  0.00     0.040 C 
BRANCH  11  12
ATOM     12  C   UNL     1     112.535   9.885 -27.842  1.00  0.00     0.005 C 
BRANCH  12  13
ATOM     13  C   UNL     1     112.859  11.119 -26.987  1.00  0.00    -0.003 C 
ATOM     14  C   UNL     1     111.645  11.633 -26.215  1.00  0.00     0.004 C 
ENDBRANCH  12  13
ENDBRANCH  11  12
ENDBRANCH   2  11
BRANCH   3  15
ATOM     15  O   UNL     1     110.868   6.973 -28.211  1.00  0.00    -0.508 OA
ATOM     16  H   UNL     1     110.034   7.224 -28.723  1.00  0.00     0.293 HD
ENDBRANCH   3  15
TORSDOF 7
ENDMDL
MODEL 5
REMARK VINA RESULT:    -4.227     13.595     16.018
REMARK INTER + INTRA:          -7.233
REMARK INTER:                  -6.239
REMARK INTRA:                  -0.994
REMARK UNBOUND:                -1.399
REMARK SMILES CCCCc1cccc(O)c1CCCC
REMARK SMILES IDX 5 1 11 2 9 3 8 4 7 5 6 6 4 7 3 8 2 9 1 10 12 11 13 12 14 13
REMARK SMILES IDX 15 14 10 15
REMARK H PARENT 10 16
REMARK Flexibility Score: inf
ROOT
ATOM      1  C   UNL     1     110.987   8.420 -39.652  1.00  0.00    -0.041 A 
ATOM      2  C   UNL     1     111.461   8.173 -40.978  1.00  0.00    -0.003 A 
ATOM      3  C   UNL     1     112.146   9.217 -41.662  1.00  0.00     0.119 A 
ATOM      4  C   UNL     1     112.398  10.431 -41.018  1.00  0.00     0.046 A 
ATOM      5  C   UNL     1     111.975  10.643 -39.712  1.00  0.00     0.004 A 
ATOM      6  C   UNL     1     111.274   9.651 -39.036  1.00  0.00     0.004 A 
ENDROOT
BRANCH   1   7
ATOM      7  C   UNL     1     110.174   7.419 -38.853  1.00  0.00     0.036 C 
BRANCH   7   8
ATOM      8  C   UNL     1     110.791   7.169 -37.468  1.00  0.00     0.004 C 
BRANCH   8   9
ATOM      9  C   UNL     1     111.741   5.962 -37.455  1.00  0.00    -0.003 C 
ATOM     10  C   UNL     1     111.313   4.866 -38.430  1.00  0.00     0.004 C 
ENDBRANCH   8   9
ENDBRANCH   7   8
ENDBRANCH   1   7
BRANCH   2  11
ATOM     11  C   UNL     1     111.309   6.813 -41.642  1.00  0.00     0.040 C 
BRANCH  11  12
ATOM     12  C   UNL     1     110.294   6.870 -42.800  1.00  0.00     0.005 C 
BRANCH  12  13
ATOM     13  C   UNL     1     109.417   5.612 -42.880  1.00  0.00    -0.003 C 
ATOM     14  C   UNL     1     109.204   4.957 -41.516  1.00  0.00     0.004 C 
ENDBRANCH  12  13
ENDBRANCH  11  12
ENDBRANCH   2  11
BRANCH   3  15
ATOM     15  O   UNL     1     112.592   9.092 -42.981  1.00  0.00    -0.508 OA
ATOM     16  H   UNL     1     112.000   8.834 -43.758  1.00  0.00     0.293 HD
ENDBRANCH   3  15
TORSDOF 7
ENDMDL
MODEL 6
REMARK VINA RESULT:    -4.102      1.299      1.908
REMARK INTER + INTRA:          -7.060
REMARK INTER:                  -6.248
REMARK INTRA:                  -0.812
REMARK UNBOUND:                -1.399
REMARK SMILES CCCCc1cccc(O)c1CCCC
REMARK SMILES IDX 5 1 11 2 9 3 8 4 7 5 6 6 4 7 3 8 2 9 1 10 12 11 13 12 14 13
REMARK SMILES IDX 15 14 10 15
REMARK H PARENT 10 16
REMARK Flexibility Score: inf
ROOT
ATOM      1  C   UNL     1     111.772   7.976 -26.726  1.00  0.00    -0.041 A 
ATOM      2  C   UNL     1     111.864   7.967 -25.298  1.00  0.00    -0.003 A 
ATOM      3  C   UNL     1     110.909   7.214 -24.559  1.00  0.00     0.119 A 
ATOM      4  C   UNL     1     109.944   6.455 -25.226  1.00  0.00     0.046 A 
ATOM      5  C   UNL     1     109.894   6.432 -26.613  1.00  0.00     0.004 A 
ATOM      6  C   UNL     1     110.794   7.187 -27.357  1.00  0.00     0.004 A 
ENDROOT
BRANCH   1   7
ATOM      7  C   UNL     1     112.677   8.804 -27.618  1.00  0.00     0.036 C 
BRANCH   7   8
ATOM      8  C   UNL     1     113.626   7.915 -28.437  1.00  0.00     0.004 C 
BRANCH   8   9
ATOM      9  C   UNL     1     115.049   8.489 -28.517  1.00  0.00    -0.003 C 
ATOM     10  C   UNL     1     115.644   8.782 -27.140  1.00  0.00     0.004 C 
ENDBRANCH   8   9
ENDBRANCH   7   8
ENDBRANCH   1   7
BRANCH   2  11
ATOM     11  C   UNL     1     112.988   8.683 -24.564  1.00  0.00     0.040 C 
BRANCH  11  12
ATOM     12  C   UNL     1     112.497  10.009 -23.954  1.00  0.00     0.005 C 
BRANCH  12  13
ATOM     13  C   UNL     1     113.519  10.632 -22.991  1.00  0.00    -0.003 C 
ATOM     14  C   UNL     1     114.937  10.632 -23.559  1.00  0.00     0.004 C 
ENDBRANCH  12  13
ENDBRANCH  11  12
ENDBRANCH   2  11
BRANCH   3  15
ATOM     15  O   UNL     1     110.881   7.193 -23.161  1.00  0.00    -0.508 OA
ATOM     16  H   UNL     1     110.618   7.982 -22.587  1.00  0.00     0.293 HD
ENDBRANCH   3  15
TORSDOF 7
ENDMDL
MODEL 7
REMARK VINA RESULT:    -4.098     14.084     15.573
REMARK INTER + INTRA:          -7.055
REMARK INTER:                  -6.282
REMARK INTRA:                  -0.773
REMARK UNBOUND:                -1.399
REMARK SMILES CCCCc1cccc(O)c1CCCC
REMARK SMILES IDX 5 1 11 2 9 3 8 4 7 5 6 6 4 7 3 8 2 9 1 10 12 11 13 12 14 13
REMARK SMILES IDX 15 14 10 15
REMARK H PARENT 10 16
REMARK Flexibility Score: inf
ROOT
ATOM      1  C   UNL     1     110.254   8.438 -40.043  1.00  0.00    -0.041 A 
ATOM      2  C   UNL     1     111.236   9.093 -40.850  1.00  0.00    -0.003 A 
ATOM      3  C   UNL     1     111.629   8.482 -42.074  1.00  0.00     0.119 A 
ATOM      4  C   UNL     1     111.016   7.300 -42.497  1.00  0.00     0.046 A 
ATOM      5  C   UNL     1     110.028   6.698 -41.729  1.00  0.00     0.004 A 
ATOM      6  C   UNL     1     109.652   7.258 -40.513  1.00  0.00     0.004 A 
ENDROOT
BRANCH   1   7
ATOM      7  C   UNL     1     109.814   8.946 -38.682  1.00  0.00     0.036 C 
BRANCH   7   8
ATOM      8  C   UNL     1     108.412   8.434 -38.316  1.00  0.00     0.004 C 
BRANCH   8   9
ATOM      9  C   UNL     1     107.315   9.475 -38.586  1.00  0.00    -0.003 C 
ATOM     10  C   UNL     1     106.296   9.001 -39.622  1.00  0.00     0.004 C 
ENDBRANCH   8   9
ENDBRANCH   7   8
ENDBRANCH   1   7
BRANCH   2  11
ATOM     11  C   UNL     1     111.816  10.446 -40.465  1.00  0.00     0.040 C 
BRANCH  11  12
ATOM     12  C   UNL     1     113.154  10.285 -39.719  1.00  0.00     0.005 C 
BRANCH  12  13
ATOM     13  C   UNL     1     114.156  11.399 -40.054  1.00  0.00    -0.003 C 
ATOM     14  C   UNL     1     115.258  10.931 -41.003  1.00  0.00     0.004 C 
ENDBRANCH  12  13
ENDBRANCH  11  12
ENDBRANCH   2  11
BRANCH   3  15
ATOM     15  O   UNL     1     112.625   9.014 -42.899  1.00  0.00    -0.508 OA
ATOM     16  H   UNL     1     113.156   8.474 -43.569  1.00  0.00     0.293 HD
ENDBRANCH   3  15
TORSDOF 7
ENDMDL
MODEL 8
REMARK VINA RESULT:    -3.942     12.659     14.700
REMARK INTER + INTRA:          -6.839
REMARK INTER:                  -5.570
REMARK INTRA:                  -1.269
REMARK UNBOUND:                -1.399
REMARK SMILES CCCCc1cccc(O)c1CCCC
REMARK SMILES IDX 5 1 11 2 9 3 8 4 7 5 6 6 4 7 3 8 2 9 1 10 12 11 13 12 14 13
REMARK SMILES IDX 15 14 10 15
REMARK H PARENT 10 16
REMARK Flexibility Score: inf
ROOT
ATOM      1  C   UNL     1     111.975   8.763 -39.255  1.00  0.00    -0.041 A 
ATOM      2  C   UNL     1     112.262   9.362 -40.521  1.00  0.00    -0.003 A 
ATOM      3  C   UNL     1     112.162   8.559 -41.693  1.00  0.00     0.119 A 
ATOM      4  C   UNL     1     111.733   7.232 -41.600  1.00  0.00     0.046 A 
ATOM      5  C   UNL     1     111.410   6.675 -40.370  1.00  0.00     0.004 A 
ATOM      6  C   UNL     1     111.533   7.429 -39.208  1.00  0.00     0.004 A 
ENDROOT
BRANCH   1   7
ATOM      7  C   UNL     1     112.126   9.490 -37.931  1.00  0.00     0.036 C 
BRANCH   7   8
ATOM      8  C   UNL     1     113.294   8.926 -37.108  1.00  0.00     0.004 C 
BRANCH   8   9
ATOM      9  C   UNL     1     114.564   9.781 -37.225  1.00  0.00    -0.003 C 
ATOM     10  C   UNL     1     114.627  10.888 -36.173  1.00  0.00     0.004 C 
ENDBRANCH   8   9
ENDBRANCH   7   8
ENDBRANCH   1   7
BRANCH   2  11
ATOM     11  C   UNL     1     112.604  10.839 -40.650  1.00  0.00     0.040 C 
BRANCH  11  12
ATOM     12  C   UNL     1     114.126  11.050 -40.753  1.00  0.00     0.005 C 
BRANCH  12  13
ATOM     13  C   UNL     1     114.584  12.375 -40.126  1.00  0.00    -0.003 C 
ATOM     14  C   UNL     1     113.593  12.909 -39.094  1.00  0.00     0.004 C 
ENDBRANCH  12  13
ENDBRANCH  11  12
ENDBRANCH   2  11
BRANCH   3  15
ATOM     15  O   UNL     1     112.482   9.037 -42.967  1.00  0.00    -0.508 OA
ATOM     16  H   UNL     1     112.344   9.992 -43.266  1.00  0.00     0.293 HD
ENDBRANCH   3  15
TORSDOF 7
ENDMDL
MODEL 9
REMARK VINA RESULT:    -3.869     13.366     15.105
REMARK INTER + INTRA:          -6.739
REMARK INTER:                  -5.429
REMARK INTRA:                  -1.310
REMARK UNBOUND:                -1.399
REMARK SMILES CCCCc1cccc(O)c1CCCC
REMARK SMILES IDX 5 1 11 2 9 3 8 4 7 5 6 6 4 7 3 8 2 9 1 10 12 11 13 12 14 13
REMARK SMILES IDX 15 14 10 15
REMARK H PARENT 10 16
REMARK Flexibility Score: inf
ROOT
ATOM      1  C   UNL     1     111.488   7.611 -41.522  1.00  0.00    -0.041 A 
ATOM      2  C   UNL     1     110.959   7.200 -40.258  1.00  0.00    -0.003 A 
ATOM      3  C   UNL     1     109.853   6.304 -40.241  1.00  0.00     0.119 A 
ATOM      4  C   UNL     1     109.342   5.797 -41.439  1.00  0.00     0.046 A 
ATOM      5  C   UNL     1     109.895   6.165 -42.659  1.00  0.00     0.004 A 
ATOM      6  C   UNL     1     110.954   7.065 -42.702  1.00  0.00     0.004 A 
ENDROOT
BRANCH   1   7
ATOM      7  C   UNL     1     112.610   8.622 -41.671  1.00  0.00     0.036 C 
BRANCH   7   8
ATOM      8  C   UNL     1     112.070  10.060 -41.709  1.00  0.00     0.004 C 
BRANCH   8   9
ATOM      9  C   UNL     1     112.995  11.056 -40.995  1.00  0.00    -0.003 C 
ATOM     10  C   UNL     1     114.445  10.574 -40.936  1.00  0.00     0.004 C 
ENDBRANCH   8   9
ENDBRANCH   7   8
ENDBRANCH   1   7
BRANCH   2  11
ATOM     11  C   UNL     1     111.588   7.642 -38.945  1.00  0.00     0.040 C 
BRANCH  11  12
ATOM     12  C   UNL     1     110.850   8.859 -38.357  1.00  0.00     0.005 C 
BRANCH  12  13
ATOM     13  C   UNL     1     111.802   9.862 -37.689  1.00  0.00    -0.003 C 
ATOM     14  C   UNL     1     113.235   9.341 -37.599  1.00  0.00     0.004 C 
ENDBRANCH  12  13
ENDBRANCH  11  12
ENDBRANCH   2  11
BRANCH   3  15
ATOM     15  O   UNL     1     109.229   5.895 -39.059  1.00  0.00    -0.508 OA
ATOM     16  H   UNL     1     108.316   6.209 -38.761  1.00  0.00     0.293 HD
ENDBRANCH   3  15
TORSDOF 7
ENDMDL
