MODEL 1
REMARK VINA RESULT:    -4.035      0.000      0.000
REMARK INTER + INTRA:         -12.109
REMARK INTER:                  -8.752
REMARK INTRA:                  -3.357
REMARK UNBOUND:                -3.357
REMARK SMILES CCCCCCCCCCCCCCCCCCCCCC(=O)[O-]
REMARK SMILES IDX 12 1 11 2 10 3 9 4 8 5 7 6 6 7 5 8 4 9 3 10 2 11 1 12 13 13
REMARK SMILES IDX 14 14 15 15 16 16 17 17 18 18 19 19 20 20 21 21 22 22 23 23
REMARK SMILES IDX 24 24
REMARK H PARENT
REMARK Flexibility Score: inf
ROOT
ATOM      1  C   UNL     1     -11.494 -22.971  35.664  1.00  0.00     0.000 C 
ENDROOT
BRANCH   1   2
ATOM      2  C   UNL     1      -9.993 -22.748  35.381  1.00  0.00     0.000 C 
BRANCH   2   3
ATOM      3  C   UNL     1      -9.716 -21.997  34.068  1.00  0.00     0.000 C 
BRANCH   3   4
ATOM      4  C   UNL     1      -8.991 -20.661  34.281  1.00  0.00    -0.000 C 
BRANCH   4   5
ATOM      5  C   UNL     1      -8.206 -20.255  33.027  1.00  0.00    -0.000 C 
BRANCH   5   6
ATOM      6  C   UNL     1      -8.155 -18.728  32.878  1.00  0.00    -0.000 C 
BRANCH   6   7
ATOM      7  C   UNL     1      -7.083 -18.123  33.796  1.00  0.00    -0.000 C 
BRANCH   7   8
ATOM      8  C   UNL     1      -5.655 -18.481  33.357  1.00  0.00    -0.000 C 
BRANCH   8   9
ATOM      9  C   UNL     1      -4.787 -18.986  34.519  1.00  0.00    -0.000 C 
BRANCH   9  10
ATOM     10  C   UNL     1      -4.296 -20.416  34.255  1.00  0.00    -0.000 C 
BRANCH  10  11
ATOM     11  C   UNL     1      -4.472 -21.297  35.497  1.00  0.00    -0.003 C 
ATOM     12  C   UNL     1      -5.833 -21.989  35.494  1.00  0.00     0.004 C 
ENDBRANCH  10  11
ENDBRANCH   9  10
ENDBRANCH   8   9
ENDBRANCH   7   8
ENDBRANCH   6   7
ENDBRANCH   5   6
ENDBRANCH   4   5
ENDBRANCH   3   4
ENDBRANCH   2   3
ENDBRANCH   1   2
BRANCH   1  13
ATOM     13  C   UNL     1     -12.382 -21.934  34.960  1.00  0.00     0.000 C 
BRANCH  13  14
ATOM     14  C   UNL     1     -13.266 -21.194  35.975  1.00  0.00     0.000 C 
BRANCH  14  15
ATOM     15  C   UNL     1     -13.259 -19.669  35.774  1.00  0.00     0.000 C 
BRANCH  15  16
ATOM     16  C   UNL     1     -11.999 -19.111  35.083  1.00  0.00     0.000 C 
BRANCH  16  17
ATOM     17  C   UNL     1     -12.294 -17.979  34.075  1.00  0.00     0.000 C 
BRANCH  17  18
ATOM     18  C   UNL     1     -11.698 -18.268  32.686  1.00  0.00     0.000 C 
BRANCH  18  19
ATOM     19  C   UNL     1     -11.988 -19.695  32.199  1.00  0.00     0.000 C 
BRANCH  19  20
ATOM     20  C   UNL     1     -11.214 -20.050  30.921  1.00  0.00     0.006 C 
BRANCH  20  21
ATOM     21  C   UNL     1     -10.680 -18.789  30.234  1.00  0.00     0.053 C 
BRANCH  21  22
ATOM     22  C   UNL     1      -9.657 -19.149  29.203  1.00  0.00     0.041 C 
ATOM     23  O   UNL     1      -8.506 -18.639  29.247  1.00  0.00    -0.550 OA
ATOM     24  O   UNL     1      -9.958 -20.086  28.223  1.00  0.00    -0.550 OA
ENDBRANCH  21  22
ENDBRANCH  20  21
ENDBRANCH  19  20
ENDBRANCH  18  19
ENDBRANCH  17  18
ENDBRANCH  16  17
ENDBRANCH  15  16
ENDBRANCH  14  15
ENDBRANCH  13  14
ENDBRANCH   1  13
TORSDOF 20
ENDMDL
MODEL 2
REMARK VINA RESULT:    -3.983      1.036      2.000
REMARK INTER + INTRA:         -11.998
REMARK INTER:                 -10.036
REMARK INTRA:                  -1.961
REMARK UNBOUND:                -3.357
REMARK SMILES CCCCCCCCCCCCCCCCCCCCCC(=O)[O-]
REMARK SMILES IDX 12 1 11 2 10 3 9 4 8 5 7 6 6 7 5 8 4 9 3 10 2 11 1 12 13 13
REMARK SMILES IDX 14 14 15 15 16 16 17 17 18 18 19 19 20 20 21 21 22 22 23 23
REMARK SMILES IDX 24 24
REMARK H PARENT
REMARK Flexibility Score: inf
ROOT
ATOM      1  C   UNL     1      -9.634 -22.081  34.205  1.00  0.00     0.000 C 
ENDROOT
BRANCH   1   2
ATOM      2  C   UNL     1      -9.324 -20.570  34.256  1.00  0.00     0.000 C 
BRANCH   2   3
ATOM      3  C   UNL     1      -8.146 -20.150  33.361  1.00  0.00     0.000 C 
BRANCH   3   4
ATOM      4  C   UNL     1      -8.373 -18.801  32.664  1.00  0.00    -0.000 C 
BRANCH   4   5
ATOM      5  C   UNL     1      -7.049 -18.212  32.161  1.00  0.00    -0.000 C 
BRANCH   5   6
ATOM      6  C   UNL     1      -6.091 -17.930  33.327  1.00  0.00    -0.000 C 
BRANCH   6   7
ATOM      7  C   UNL     1      -4.797 -18.746  33.183  1.00  0.00    -0.000 C 
BRANCH   7   8
ATOM      8  C   UNL     1      -3.913 -18.682  34.437  1.00  0.00    -0.000 C 
BRANCH   8   9
ATOM      9  C   UNL     1      -2.985 -19.899  34.572  1.00  0.00    -0.000 C 
BRANCH   9  10
ATOM     10  C   UNL     1      -3.668 -21.025  35.359  1.00  0.00    -0.000 C 
BRANCH  10  11
ATOM     11  C   UNL     1      -5.146 -20.703  35.612  1.00  0.00    -0.003 C 
ATOM     12  C   UNL     1      -5.990 -21.974  35.637  1.00  0.00     0.004 C 
ENDBRANCH  10  11
ENDBRANCH   9  10
ENDBRANCH   8   9
ENDBRANCH   7   8
ENDBRANCH   6   7
ENDBRANCH   5   6
ENDBRANCH   4   5
ENDBRANCH   3   4
ENDBRANCH   2   3
ENDBRANCH   1   2
BRANCH   1  13
ATOM     13  C   UNL     1     -10.380 -22.568  35.457  1.00  0.00     0.000 C 
BRANCH  13  14
ATOM     14  C   UNL     1     -11.885 -22.280  35.341  1.00  0.00     0.000 C 
BRANCH  14  15
ATOM     15  C   UNL     1     -12.217 -20.783  35.456  1.00  0.00     0.000 C 
BRANCH  15  16
ATOM     16  C   UNL     1     -13.264 -20.270  34.449  1.00  0.00     0.000 C 
BRANCH  16  17
ATOM     17  C   UNL     1     -12.654 -19.509  33.251  1.00  0.00     0.000 C 
BRANCH  17  18
ATOM     18  C   UNL     1     -12.244 -20.455  32.109  1.00  0.00     0.000 C 
BRANCH  18  19
ATOM     19  C   UNL     1     -11.456 -19.741  31.000  1.00  0.00     0.000 C 
BRANCH  19  20
ATOM     20  C   UNL     1     -10.347 -20.623  30.405  1.00  0.00     0.006 C 
BRANCH  20  21
ATOM     21  C   UNL     1     -10.380 -20.586  28.873  1.00  0.00     0.053 C 
BRANCH  21  22
ATOM     22  C   UNL     1      -9.598 -19.418  28.361  1.00  0.00     0.041 C 
ATOM     23  O   UNL     1      -9.710 -19.058  27.160  1.00  0.00    -0.550 OA
ATOM     24  O   UNL     1      -8.785 -18.695  29.224  1.00  0.00    -0.550 OA
ENDBRANCH  21  22
ENDBRANCH  20  21
ENDBRANCH  19  20
ENDBRANCH  18  19
ENDBRANCH  17  18
ENDBRANCH  16  17
ENDBRANCH  15  16
ENDBRANCH  14  15
ENDBRANCH  13  14
ENDBRANCH   1  13
TORSDOF 20
ENDMDL
MODEL 3
REMARK VINA RESULT:    -3.963      2.269      6.534
REMARK INTER + INTRA:         -11.953
REMARK INTER:                  -9.586
REMARK INTRA:                  -2.366
REMARK UNBOUND:                -3.357
REMARK SMILES CCCCCCCCCCCCCCCCCCCCCC(=O)[O-]
REMARK SMILES IDX 12 1 11 2 10 3 9 4 8 5 7 6 6 7 5 8 4 9 3 10 2 11 1 12 13 13
REMARK SMILES IDX 14 14 15 15 16 16 17 17 18 18 19 19 20 20 21 21 22 22 23 23
REMARK SMILES IDX 24 24
REMARK H PARENT
REMARK Flexibility Score: inf
ROOT
ATOM      1  C   UNL     1      -3.809 -20.206  34.239  1.00  0.00     0.000 C 
ENDROOT
BRANCH   1   2
ATOM      2  C   UNL     1      -3.563 -18.683  34.283  1.00  0.00     0.000 C 
BRANCH   2   3
ATOM      3  C   UNL     1      -4.529 -17.876  33.399  1.00  0.00     0.000 C 
BRANCH   3   4
ATOM      4  C   UNL     1      -5.665 -18.729  32.816  1.00  0.00    -0.000 C 
BRANCH   4   5
ATOM      5  C   UNL     1      -7.018 -18.022  32.968  1.00  0.00    -0.000 C 
BRANCH   5   6
ATOM      6  C   UNL     1      -7.922 -18.293  31.758  1.00  0.00    -0.000 C 
BRANCH   6   7
ATOM      7  C   UNL     1      -9.366 -18.567  32.203  1.00  0.00    -0.000 C 
BRANCH   7   8
ATOM      8  C   UNL     1     -10.010 -19.736  31.442  1.00  0.00    -0.000 C 
BRANCH   8   9
ATOM      9  C   UNL     1     -11.116 -19.280  30.479  1.00  0.00    -0.000 C 
BRANCH   9  10
ATOM     10  C   UNL     1     -10.558 -18.326  29.416  1.00  0.00    -0.000 C 
BRANCH  10  11
ATOM     11  C   UNL     1      -9.453 -19.001  28.595  1.00  0.00    -0.003 C 
ATOM     12  C   UNL     1      -9.792 -18.998  27.106  1.00  0.00     0.004 C 
ENDBRANCH  10  11
ENDBRANCH   9  10
ENDBRANCH   8   9
ENDBRANCH   7   8
ENDBRANCH   6   7
ENDBRANCH   5   6
ENDBRANCH   4   5
ENDBRANCH   3   4
ENDBRANCH   2   3
ENDBRANCH   1   2
BRANCH   1  13
ATOM     13  C   UNL     1      -3.586 -20.874  35.604  1.00  0.00     0.000 C 
BRANCH  13  14
ATOM     14  C   UNL     1      -4.760 -21.799  35.957  1.00  0.00     0.000 C 
BRANCH  14  15
ATOM     15  C   UNL     1      -6.129 -21.173  35.642  1.00  0.00     0.000 C 
BRANCH  15  16
ATOM     16  C   UNL     1      -6.889 -21.828  34.472  1.00  0.00     0.000 C 
BRANCH  16  17
ATOM     17  C   UNL     1      -8.319 -21.278  34.275  1.00  0.00     0.000 C 
BRANCH  17  18
ATOM     18  C   UNL     1      -9.351 -22.400  34.069  1.00  0.00     0.000 C 
BRANCH  18  19
ATOM     19  C   UNL     1     -10.167 -22.696  35.336  1.00  0.00     0.000 C 
BRANCH  19  20
ATOM     20  C   UNL     1     -11.269 -21.653  35.583  1.00  0.00     0.006 C 
BRANCH  20  21
ATOM     21  C   UNL     1     -11.901 -21.199  34.264  1.00  0.00     0.053 C 
BRANCH  21  22
ATOM     22  C   UNL     1     -12.582 -19.878  34.437  1.00  0.00     0.041 C 
ATOM     23  O   UNL     1     -13.095 -19.294  33.447  1.00  0.00    -0.550 OA
ATOM     24  O   UNL     1     -12.694 -19.316  35.702  1.00  0.00    -0.550 OA
ENDBRANCH  21  22
ENDBRANCH  20  21
ENDBRANCH  19  20
ENDBRANCH  18  19
ENDBRANCH  17  18
ENDBRANCH  16  17
ENDBRANCH  15  16
ENDBRANCH  14  15
ENDBRANCH  13  14
ENDBRANCH   1  13
TORSDOF 20
ENDMDL
MODEL 4
REMARK VINA RESULT:    -3.835      0.904      2.225
REMARK INTER + INTRA:         -11.676
REMARK INTER:                  -9.111
REMARK INTRA:                  -2.565
REMARK UNBOUND:                -3.357
REMARK SMILES CCCCCCCCCCCCCCCCCCCCCC(=O)[O-]
REMARK SMILES IDX 12 1 11 2 10 3 9 4 8 5 7 6 6 7 5 8 4 9 3 10 2 11 1 12 13 13
REMARK SMILES IDX 14 14 15 15 16 16 17 17 18 18 19 19 20 20 21 21 22 22 23 23
REMARK SMILES IDX 24 24
REMARK H PARENT
REMARK Flexibility Score: inf
ROOT
ATOM      1  C   UNL     1     -11.183 -23.051  35.401  1.00  0.00     0.000 C 
ENDROOT
BRANCH   1   2
ATOM      2  C   UNL     1      -9.688 -22.670  35.379  1.00  0.00     0.000 C 
BRANCH   2   3
ATOM      3  C   UNL     1      -9.249 -21.965  34.084  1.00  0.00     0.000 C 
BRANCH   3   4
ATOM      4  C   UNL     1      -7.737 -21.706  34.024  1.00  0.00    -0.000 C 
BRANCH   4   5
ATOM      5  C   UNL     1      -7.077 -21.988  35.379  1.00  0.00    -0.000 C 
BRANCH   5   6
ATOM      6  C   UNL     1      -5.558 -22.154  35.230  1.00  0.00    -0.000 C 
BRANCH   6   7
ATOM      7  C   UNL     1      -4.839 -20.808  35.409  1.00  0.00    -0.000 C 
BRANCH   7   8
ATOM      8  C   UNL     1      -4.340 -20.220  34.080  1.00  0.00    -0.000 C 
BRANCH   8   9
ATOM      9  C   UNL     1      -4.046 -18.715  34.171  1.00  0.00    -0.000 C 
BRANCH   9  10
ATOM     10  C   UNL     1      -5.100 -17.904  33.408  1.00  0.00    -0.000 C 
BRANCH  10  11
ATOM     11  C   UNL     1      -6.026 -18.822  32.601  1.00  0.00    -0.003 C 
ATOM     12  C   UNL     1      -7.425 -18.224  32.479  1.00  0.00     0.004 C 
ENDBRANCH  10  11
ENDBRANCH   9  10
ENDBRANCH   8   9
ENDBRANCH   7   8
ENDBRANCH   6   7
ENDBRANCH   5   6
ENDBRANCH   4   5
ENDBRANCH   3   4
ENDBRANCH   2   3
ENDBRANCH   1   2
BRANCH   1  13
ATOM     13  C   UNL     1     -12.086 -21.908  34.912  1.00  0.00     0.000 C 
BRANCH  13  14
ATOM     14  C   UNL     1     -12.318 -20.880  36.029  1.00  0.00     0.000 C 
BRANCH  14  15
ATOM     15  C   UNL     1     -12.212 -19.427  35.535  1.00  0.00     0.000 C 
BRANCH  15  16
ATOM     16  C   UNL     1     -12.949 -19.135  34.213  1.00  0.00     0.000 C 
BRANCH  16  17
ATOM     17  C   UNL     1     -12.382 -17.923  33.442  1.00  0.00     0.000 C 
BRANCH  17  18
ATOM     18  C   UNL     1     -11.354 -18.340  32.376  1.00  0.00     0.000 C 
BRANCH  18  19
ATOM     19  C   UNL     1     -11.347 -19.854  32.119  1.00  0.00     0.000 C 
BRANCH  19  20
ATOM     20  C   UNL     1     -10.443 -20.247  30.939  1.00  0.00     0.006 C 
BRANCH  20  21
ATOM     21  C   UNL     1     -10.219 -19.057  30.000  1.00  0.00     0.053 C 
BRANCH  21  22
ATOM     22  C   UNL     1      -9.955 -19.534  28.606  1.00  0.00     0.041 C 
ATOM     23  O   UNL     1      -9.481 -18.746  27.746  1.00  0.00    -0.550 OA
ATOM     24  O   UNL     1     -10.186 -20.862  28.271  1.00  0.00    -0.550 OA
ENDBRANCH  21  22
ENDBRANCH  20  21
ENDBRANCH  19  20
ENDBRANCH  18  19
ENDBRANCH  17  18
ENDBRANCH  16  17
ENDBRANCH  15  16
ENDBRANCH  14  15
ENDBRANCH  13  14
ENDBRANCH   1  13
TORSDOF 20
ENDMDL
MODEL 5
REMARK VINA RESULT:    -3.832     21.112     22.968
REMARK INTER + INTRA:         -11.669
REMARK INTER:                  -9.263
REMARK INTRA:                  -2.406
REMARK UNBOUND:                -3.357
REMARK SMILES CCCCCCCCCCCCCCCCCCCCCC(=O)[O-]
REMARK SMILES IDX 12 1 11 2 10 3 9 4 8 5 7 6 6 7 5 8 4 9 3 10 2 11 1 12 13 13
REMARK SMILES IDX 14 14 15 15 16 16 17 17 18 18 19 19 20 20 21 21 22 22 23 23
REMARK SMILES IDX 24 24
REMARK H PARENT
REMARK Flexibility Score: inf
ROOT
ATOM      1  C   UNL     1       1.707 -37.494  19.950  1.00  0.00     0.000 C 
ENDROOT
BRANCH   1   2
ATOM      2  C   UNL     1       1.854 -37.876  18.462  1.00  0.00     0.000 C 
BRANCH   2   3
ATOM      3  C   UNL     1       3.246 -37.576  17.881  1.00  0.00     0.000 C 
BRANCH   3   4
ATOM      4  C   UNL     1       3.903 -36.337  18.506  1.00  0.00    -0.000 C 
BRANCH   4   5
ATOM      5  C   UNL     1       5.365 -36.616  18.875  1.00  0.00    -0.000 C 
BRANCH   5   6
ATOM      6  C   UNL     1       5.549 -38.065  19.345  1.00  0.00    -0.000 C 
BRANCH   6   7
ATOM      7  C   UNL     1       5.999 -38.113  20.813  1.00  0.00    -0.000 C 
BRANCH   7   8
ATOM      8  C   UNL     1       4.819 -38.123  21.795  1.00  0.00    -0.000 C 
BRANCH   8   9
ATOM      9  C   UNL     1       4.815 -36.904  22.730  1.00  0.00    -0.000 C 
BRANCH   9  10
ATOM     10  C   UNL     1       3.401 -36.323  22.867  1.00  0.00    -0.000 C 
BRANCH  10  11
ATOM     11  C   UNL     1       3.419 -34.795  22.742  1.00  0.00    -0.003 C 
ATOM     12  C   UNL     1       2.176 -34.176  23.377  1.00  0.00     0.004 C 
ENDBRANCH  10  11
ENDBRANCH   9  10
ENDBRANCH   8   9
ENDBRANCH   7   8
ENDBRANCH   6   7
ENDBRANCH   5   6
ENDBRANCH   4   5
ENDBRANCH   3   4
ENDBRANCH   2   3
ENDBRANCH   1   2
BRANCH   1  13
ATOM     13  C   UNL     1       0.990 -36.149  20.141  1.00  0.00     0.000 C 
BRANCH  13  14
ATOM     14  C   UNL     1      -0.083 -36.254  21.235  1.00  0.00     0.000 C 
BRANCH  14  15
ATOM     15  C   UNL     1      -0.613 -37.686  21.417  1.00  0.00     0.000 C 
BRANCH  15  16
ATOM     16  C   UNL     1      -1.836 -38.042  20.549  1.00  0.00     0.000 C 
BRANCH  16  17
ATOM     17  C   UNL     1      -2.999 -37.033  20.670  1.00  0.00     0.000 C 
BRANCH  17  18
ATOM     18  C   UNL     1      -3.274 -36.635  22.131  1.00  0.00     0.000 C 
BRANCH  18  19
ATOM     19  C   UNL     1      -3.585 -35.139  22.289  1.00  0.00     0.000 C 
BRANCH  19  20
ATOM     20  C   UNL     1      -2.504 -34.395  23.090  1.00  0.00     0.006 C 
BRANCH  20  21
ATOM     21  C   UNL     1      -2.937 -32.956  23.391  1.00  0.00     0.053 C 
BRANCH  21  22
ATOM     22  C   UNL     1      -2.120 -32.388  24.508  1.00  0.00     0.041 C 
ATOM     23  O   UNL     1      -1.762 -31.181  24.482  1.00  0.00    -0.550 OA
ATOM     24  O   UNL     1      -1.795 -33.178  25.604  1.00  0.00    -0.550 OA
ENDBRANCH  21  22
ENDBRANCH  20  21
ENDBRANCH  19  20
ENDBRANCH  18  19
ENDBRANCH  17  18
ENDBRANCH  16  17
ENDBRANCH  15  16
ENDBRANCH  14  15
ENDBRANCH  13  14
ENDBRANCH   1  13
TORSDOF 20
ENDMDL
MODEL 6
REMARK VINA RESULT:    -3.759     20.793     23.230
REMARK INTER + INTRA:         -11.511
REMARK INTER:                  -9.998
REMARK INTRA:                  -1.513
REMARK UNBOUND:                -3.357
REMARK SMILES CCCCCCCCCCCCCCCCCCCCCC(=O)[O-]
REMARK SMILES IDX 12 1 11 2 10 3 9 4 8 5 7 6 6 7 5 8 4 9 3 10 2 11 1 12 13 13
REMARK SMILES IDX 14 14 15 15 16 16 17 17 18 18 19 19 20 20 21 21 22 22 23 23
REMARK SMILES IDX 24 24
REMARK H PARENT
REMARK Flexibility Score: inf
ROOT
ATOM      1  C   UNL     1       0.097 -31.869  24.133  1.00  0.00     0.000 C 
ENDROOT
BRANCH   1   2
ATOM      2  C   UNL     1      -1.012 -32.853  24.563  1.00  0.00     0.000 C 
BRANCH   2   3
ATOM      3  C   UNL     1      -2.193 -32.919  23.580  1.00  0.00     0.000 C 
BRANCH   3   4
ATOM      4  C   UNL     1      -2.426 -34.328  23.017  1.00  0.00    -0.000 C 
BRANCH   4   5
ATOM      5  C   UNL     1      -1.376 -34.678  21.955  1.00  0.00    -0.000 C 
BRANCH   5   6
ATOM      6  C   UNL     1      -1.810 -35.895  21.128  1.00  0.00    -0.000 C 
BRANCH   6   7
ATOM      7  C   UNL     1      -3.198 -36.388  21.564  1.00  0.00    -0.000 C 
BRANCH   7   8
ATOM      8  C   UNL     1      -3.446 -37.860  21.202  1.00  0.00    -0.000 C 
BRANCH   8   9
ATOM      9  C   UNL     1      -3.364 -38.121  19.690  1.00  0.00    -0.000 C 
BRANCH   9  10
ATOM     10  C   UNL     1      -4.741 -37.962  19.032  1.00  0.00    -0.000 C 
BRANCH  10  11
ATOM     11  C   UNL     1      -4.616 -37.342  17.635  1.00  0.00    -0.003 C 
ATOM     12  C   UNL     1      -4.887 -35.841  17.672  1.00  0.00     0.004 C 
ENDBRANCH  10  11
ENDBRANCH   9  10
ENDBRANCH   8   9
ENDBRANCH   7   8
ENDBRANCH   6   7
ENDBRANCH   5   6
ENDBRANCH   4   5
ENDBRANCH   3   4
ENDBRANCH   2   3
ENDBRANCH   1   2
BRANCH   1  13
ATOM     13  C   UNL     1       1.502 -32.473  24.275  1.00  0.00     0.000 C 
BRANCH  13  14
ATOM     14  C   UNL     1       1.635 -33.749  23.430  1.00  0.00     0.000 C 
BRANCH  14  15
ATOM     15  C   UNL     1       2.932 -34.523  23.717  1.00  0.00     0.000 C 
BRANCH  15  16
ATOM     16  C   UNL     1       3.385 -35.474  22.592  1.00  0.00     0.000 C 
BRANCH  16  17
ATOM     17  C   UNL     1       4.779 -36.095  22.826  1.00  0.00     0.000 C 
BRANCH  17  18
ATOM     18  C   UNL     1       4.940 -37.450  22.115  1.00  0.00     0.000 C 
BRANCH  18  19
ATOM     19  C   UNL     1       5.690 -37.335  20.780  1.00  0.00     0.000 C 
BRANCH  19  20
ATOM     20  C   UNL     1       4.881 -37.895  19.600  1.00  0.00     0.006 C 
BRANCH  20  21
ATOM     21  C   UNL     1       4.655 -36.822  18.530  1.00  0.00     0.053 C 
BRANCH  21  22
ATOM     22  C   UNL     1       3.194 -36.541  18.371  1.00  0.00     0.041 C 
ATOM     23  O   UNL     1       2.573 -36.968  17.362  1.00  0.00    -0.550 OA
ATOM     24  O   UNL     1       2.507 -35.852  19.362  1.00  0.00    -0.550 OA
ENDBRANCH  21  22
ENDBRANCH  20  21
ENDBRANCH  19  20
ENDBRANCH  18  19
ENDBRANCH  17  18
ENDBRANCH  16  17
ENDBRANCH  15  16
ENDBRANCH  14  15
ENDBRANCH  13  14
ENDBRANCH   1  13
TORSDOF 20
ENDMDL
MODEL 7
REMARK VINA RESULT:    -3.702     21.108     23.339
REMARK INTER + INTRA:         -11.388
REMARK INTER:                  -9.174
REMARK INTRA:                  -2.214
REMARK UNBOUND:                -3.357
REMARK SMILES CCCCCCCCCCCCCCCCCCCCCC(=O)[O-]
REMARK SMILES IDX 12 1 11 2 10 3 9 4 8 5 7 6 6 7 5 8 4 9 3 10 2 11 1 12 13 13
REMARK SMILES IDX 14 14 15 15 16 16 17 17 18 18 19 19 20 20 21 21 22 22 23 23
REMARK SMILES IDX 24 24
REMARK H PARENT
REMARK Flexibility Score: inf
ROOT
ATOM      1  C   UNL     1       0.631 -36.656  21.311  1.00  0.00     0.000 C 
ENDROOT
BRANCH   1   2
ATOM      2  C   UNL     1      -0.128 -37.994  21.185  1.00  0.00     0.000 C 
BRANCH   2   3
ATOM      3  C   UNL     1      -1.605 -37.908  21.604  1.00  0.00     0.000 C 
BRANCH   3   4
ATOM      4  C   UNL     1      -2.519 -37.393  20.482  1.00  0.00    -0.000 C 
BRANCH   4   5
ATOM      5  C   UNL     1      -2.977 -35.956  20.762  1.00  0.00    -0.000 C 
BRANCH   5   6
ATOM      6  C   UNL     1      -3.185 -35.725  22.265  1.00  0.00    -0.000 C 
BRANCH   6   7
ATOM      7  C   UNL     1      -2.056 -34.861  22.848  1.00  0.00    -0.000 C 
BRANCH   7   8
ATOM      8  C   UNL     1      -2.461 -33.389  23.015  1.00  0.00    -0.000 C 
BRANCH   8   9
ATOM      9  C   UNL     1      -1.972 -32.786  24.340  1.00  0.00    -0.000 C 
BRANCH   9  10
ATOM     10  C   UNL     1      -0.778 -31.851  24.109  1.00  0.00    -0.000 C 
BRANCH  10  11
ATOM     11  C   UNL     1       0.440 -32.299  24.925  1.00  0.00    -0.003 C 
ATOM     12  C   UNL     1       1.696 -32.349  24.059  1.00  0.00     0.004 C 
ENDBRANCH  10  11
ENDBRANCH   9  10
ENDBRANCH   8   9
ENDBRANCH   7   8
ENDBRANCH   6   7
ENDBRANCH   5   6
ENDBRANCH   4   5
ENDBRANCH   3   4
ENDBRANCH   2   3
ENDBRANCH   1   2
BRANCH   1  13
ATOM     13  C   UNL     1       1.250 -36.206  19.979  1.00  0.00     0.000 C 
BRANCH  13  14
ATOM     14  C   UNL     1       1.425 -37.400  19.028  1.00  0.00     0.000 C 
BRANCH  14  15
ATOM     15  C   UNL     1       2.339 -37.082  17.833  1.00  0.00     0.000 C 
BRANCH  15  16
ATOM     16  C   UNL     1       3.747 -36.580  18.207  1.00  0.00     0.000 C 
BRANCH  16  17
ATOM     17  C   UNL     1       4.685 -37.691  18.728  1.00  0.00     0.000 C 
BRANCH  17  18
ATOM     18  C   UNL     1       5.819 -37.132  19.605  1.00  0.00     0.000 C 
BRANCH  18  19
ATOM     19  C   UNL     1       5.669 -37.515  21.085  1.00  0.00     0.000 C 
BRANCH  19  20
ATOM     20  C   UNL     1       4.234 -37.932  21.443  1.00  0.00     0.006 C 
BRANCH  20  21
ATOM     21  C   UNL     1       3.846 -37.427  22.836  1.00  0.00     0.053 C 
BRANCH  21  22
ATOM     22  C   UNL     1       4.142 -35.966  22.964  1.00  0.00     0.041 C 
ATOM     23  O   UNL     1       4.912 -35.552  23.870  1.00  0.00    -0.550 OA
ATOM     24  O   UNL     1       3.608 -35.066  22.050  1.00  0.00    -0.550 OA
ENDBRANCH  21  22
ENDBRANCH  20  21
ENDBRANCH  19  20
ENDBRANCH  18  19
ENDBRANCH  17  18
ENDBRANCH  16  17
ENDBRANCH  15  16
ENDBRANCH  14  15
ENDBRANCH  13  14
ENDBRANCH   1  13
TORSDOF 20
ENDMDL
MODEL 8
REMARK VINA RESULT:    -3.694     20.679     22.425
REMARK INTER + INTRA:         -11.369
REMARK INTER:                  -9.223
REMARK INTRA:                  -2.146
REMARK UNBOUND:                -3.357
REMARK SMILES CCCCCCCCCCCCCCCCCCCCCC(=O)[O-]
REMARK SMILES IDX 12 1 11 2 10 3 9 4 8 5 7 6 6 7 5 8 4 9 3 10 2 11 1 12 13 13
REMARK SMILES IDX 14 14 15 15 16 16 17 17 18 18 19 19 20 20 21 21 22 22 23 23
REMARK SMILES IDX 24 24
REMARK H PARENT
REMARK Flexibility Score: inf
ROOT
ATOM      1  C   UNL     1       0.924 -32.378  24.786  1.00  0.00     0.000 C 
ENDROOT
BRANCH   1   2
ATOM      2  C   UNL     1       1.978 -32.836  23.756  1.00  0.00     0.000 C 
BRANCH   2   3
ATOM      3  C   UNL     1       2.002 -34.358  23.531  1.00  0.00     0.000 C 
BRANCH   3   4
ATOM      4  C   UNL     1       2.743 -34.764  22.249  1.00  0.00    -0.000 C 
BRANCH   4   5
ATOM      5  C   UNL     1       2.195 -36.083  21.691  1.00  0.00    -0.000 C 
BRANCH   5   6
ATOM      6  C   UNL     1       1.505 -35.865  20.337  1.00  0.00    -0.000 C 
BRANCH   6   7
ATOM      7  C   UNL     1       1.255 -37.204  19.627  1.00  0.00    -0.000 C 
BRANCH   7   8
ATOM      8  C   UNL     1       2.492 -37.717  18.875  1.00  0.00    -0.000 C 
BRANCH   8   9
ATOM      9  C   UNL     1       3.235 -36.601  18.126  1.00  0.00    -0.000 C 
BRANCH   9  10
ATOM     10  C   UNL     1       4.730 -36.609  18.472  1.00  0.00    -0.000 C 
BRANCH  10  11
ATOM     11  C   UNL     1       5.051 -37.696  19.504  1.00  0.00    -0.003 C 
ATOM     12  C   UNL     1       5.512 -37.084  20.825  1.00  0.00     0.004 C 
ENDBRANCH  10  11
ENDBRANCH   9  10
ENDBRANCH   8   9
ENDBRANCH   7   8
ENDBRANCH   6   7
ENDBRANCH   5   6
ENDBRANCH   4   5
ENDBRANCH   3   4
ENDBRANCH   2   3
ENDBRANCH   1   2
BRANCH   1  13
ATOM     13  C   UNL     1      -0.256 -31.646  24.130  1.00  0.00     0.000 C 
BRANCH  13  14
ATOM     14  C   UNL     1      -1.583 -32.350  24.454  1.00  0.00     0.000 C 
BRANCH  14  15
ATOM     15  C   UNL     1      -2.274 -32.925  23.207  1.00  0.00     0.000 C 
BRANCH  15  16
ATOM     16  C   UNL     1      -2.504 -34.449  23.235  1.00  0.00     0.000 C 
BRANCH  16  17
ATOM     17  C   UNL     1      -2.045 -35.170  21.949  1.00  0.00     0.000 C 
BRANCH  17  18
ATOM     18  C   UNL     1      -2.687 -36.561  21.802  1.00  0.00     0.000 C 
BRANCH  18  19
ATOM     19  C   UNL     1      -1.835 -37.522  20.959  1.00  0.00     0.000 C 
BRANCH  19  20
ATOM     20  C   UNL     1      -2.619 -38.125  19.782  1.00  0.00     0.006 C 
BRANCH  20  21
ATOM     21  C   UNL     1      -4.054 -37.590  19.746  1.00  0.00     0.053 C 
BRANCH  21  22
ATOM     22  C   UNL     1      -4.413 -37.148  18.363  1.00  0.00     0.041 C 
ATOM     23  O   UNL     1      -4.683 -38.000  17.475  1.00  0.00    -0.550 OA
ATOM     24  O   UNL     1      -4.499 -35.794  18.067  1.00  0.00    -0.550 OA
ENDBRANCH  21  22
ENDBRANCH  20  21
ENDBRANCH  19  20
ENDBRANCH  18  19
ENDBRANCH  17  18
ENDBRANCH  16  17
ENDBRANCH  15  16
ENDBRANCH  14  15
ENDBRANCH  13  14
ENDBRANCH   1  13
TORSDOF 20
ENDMDL
MODEL 9
REMARK VINA RESULT:    -3.527      2.501      4.572
REMARK INTER + INTRA:         -11.007
REMARK INTER:                  -9.301
REMARK INTRA:                  -1.706
REMARK UNBOUND:                -3.357
REMARK SMILES CCCCCCCCCCCCCCCCCCCCCC(=O)[O-]
REMARK SMILES IDX 12 1 11 2 10 3 9 4 8 5 7 6 6 7 5 8 4 9 3 10 2 11 1 12 13 13
REMARK SMILES IDX 14 14 15 15 16 16 17 17 18 18 19 19 20 20 21 21 22 22 23 23
REMARK SMILES IDX 24 24
REMARK H PARENT
REMARK Flexibility Score: inf
ROOT
ATOM      1  C   UNL     1     -10.003 -20.505  29.731  1.00  0.00     0.000 C 
ENDROOT
BRANCH   1   2
ATOM      2  C   UNL     1      -9.716 -19.019  29.429  1.00  0.00     0.000 C 
BRANCH   2   3
ATOM      3  C   UNL     1      -8.358 -18.532  29.962  1.00  0.00     0.000 C 
BRANCH   3   4
ATOM      4  C   UNL     1      -8.152 -18.842  31.452  1.00  0.00    -0.000 C 
BRANCH   4   5
ATOM      5  C   UNL     1      -6.820 -18.270  31.954  1.00  0.00    -0.000 C 
BRANCH   5   6
ATOM      6  C   UNL     1      -5.869 -19.391  32.395  1.00  0.00    -0.000 C 
BRANCH   6   7
ATOM      7  C   UNL     1      -4.732 -18.835  33.266  1.00  0.00    -0.000 C 
BRANCH   7   8
ATOM      8  C   UNL     1      -5.243 -18.147  34.540  1.00  0.00    -0.000 C 
BRANCH   8   9
ATOM      9  C   UNL     1      -5.476 -19.134  35.694  1.00  0.00    -0.000 C 
BRANCH   9  10
ATOM     10  C   UNL     1      -4.283 -20.086  35.850  1.00  0.00    -0.000 C 
BRANCH  10  11
ATOM     11  C   UNL     1      -4.753 -21.519  36.125  1.00  0.00    -0.003 C 
ATOM     12  C   UNL     1      -5.846 -21.938  35.145  1.00  0.00     0.004 C 
ENDBRANCH  10  11
ENDBRANCH   9  10
ENDBRANCH   8   9
ENDBRANCH   7   8
ENDBRANCH   6   7
ENDBRANCH   5   6
ENDBRANCH   4   5
ENDBRANCH   3   4
ENDBRANCH   2   3
ENDBRANCH   1   2
BRANCH   1  13
ATOM     13  C   UNL     1     -10.735 -20.700  31.067  1.00  0.00     0.000 C 
BRANCH  13  14
ATOM     14  C   UNL     1     -11.661 -19.510  31.361  1.00  0.00     0.000 C 
BRANCH  14  15
ATOM     15  C   UNL     1     -11.999 -19.370  32.854  1.00  0.00     0.000 C 
BRANCH  15  16
ATOM     16  C   UNL     1     -13.504 -19.387  33.186  1.00  0.00     0.000 C 
BRANCH  16  17
ATOM     17  C   UNL     1     -13.848 -18.740  34.545  1.00  0.00     0.000 C 
BRANCH  17  18
ATOM     18  C   UNL     1     -13.308 -19.557  35.732  1.00  0.00     0.000 C 
BRANCH  18  19
ATOM     19  C   UNL     1     -14.006 -20.918  35.882  1.00  0.00     0.000 C 
BRANCH  19  20
ATOM     20  C   UNL     1     -13.013 -22.091  35.879  1.00  0.00     0.006 C 
BRANCH  20  21
ATOM     21  C   UNL     1     -11.578 -21.597  35.671  1.00  0.00     0.053 C 
BRANCH  21  22
ATOM     22  C   UNL     1     -10.665 -22.747  35.385  1.00  0.00     0.041 C 
ATOM     23  O   UNL     1      -9.419 -22.569  35.333  1.00  0.00    -0.550 OA
ATOM     24  O   UNL     1     -11.186 -24.024  35.225  1.00  0.00    -0.550 OA
ENDBRANCH  21  22
ENDBRANCH  20  21
ENDBRANCH  19  20
ENDBRANCH  18  19
ENDBRANCH  17  18
ENDBRANCH  16  17
ENDBRANCH  15  16
ENDBRANCH  14  15
ENDBRANCH  13  14
ENDBRANCH   1  13
TORSDOF 20
ENDMDL
