MODEL 1
REMARK VINA RESULT:    -5.066      0.000      0.000
REMARK INTER + INTRA:          -5.066
REMARK INTER:                  -5.066
REMARK INTRA:                   0.000
REMARK UNBOUND:                 0.000
REMARK SMILES O=c1ccc2ccc3occc3c2o1
REMARK SMILES IDX 6 1 7 2 8 3 12 4 11 5 10 6 9 7 13 8 5 9 4 10 3 11 2 12 1 13
REMARK SMILES IDX 14 14
REMARK H PARENT
REMARK Flexibility Score: inf
ROOT
ATOM      1  C   UNL     1    -116.582 -96.216  32.983  1.00  0.00     0.016 A 
ATOM      2  C   UNL     1    -115.769 -96.592  34.069  1.00  0.00     0.048 A 
ATOM      3  C   UNL     1    -115.662 -97.949  34.368  1.00  0.00     0.137 A 
ATOM      4  C   UNL     1    -116.318 -98.905  33.640  1.00  0.00     0.064 A 
ATOM      5  C   UNL     1    -115.998-100.123  34.195  1.00  0.00     0.054 A 
ATOM      6  C   UNL     1    -115.146 -99.812  35.250  1.00  0.00     0.196 A 
ATOM      7  O   UNL     1    -114.965 -98.505  35.328  1.00  0.00    -0.464 OA
ATOM      8  C   UNL     1    -117.131 -98.573  32.558  1.00  0.00     0.149 A 
ATOM      9  C   UNL     1    -117.264 -97.199  32.226  1.00  0.00     0.018 A 
ATOM     10  C   UNL     1    -118.077 -96.860  31.142  1.00  0.00     0.019 A 
ATOM     11  C   UNL     1    -118.726 -97.870  30.429  1.00  0.00     0.094 A 
ATOM     12  C   UNL     1    -118.546 -99.204  30.819  1.00  0.00     0.336 A 
ATOM     13  O   UNL     1    -119.124-100.125  30.186  1.00  0.00    -0.246 OA
ATOM     14  O   UNL     1    -117.766 -99.505  31.854  1.00  0.00    -0.422 OA
ENDROOT
TORSDOF 0
ENDMDL
MODEL 2
REMARK VINA RESULT:    -4.890     12.231     14.622
REMARK INTER + INTRA:          -4.890
REMARK INTER:                  -4.890
REMARK INTRA:                   0.000
REMARK UNBOUND:                 0.000
REMARK SMILES O=c1ccc2ccc3occc3c2o1
REMARK SMILES IDX 6 1 7 2 8 3 12 4 11 5 10 6 9 7 13 8 5 9 4 10 3 11 2 12 1 13
REMARK SMILES IDX 14 14
REMARK H PARENT
REMARK Flexibility Score: inf
ROOT
ATOM      1  C   UNL     1    -117.858 -99.109  47.719  1.00  0.00     0.016 A 
ATOM      2  C   UNL     1    -117.989 -99.741  46.468  1.00  0.00     0.048 A 
ATOM      3  C   UNL     1    -118.310 -98.951  45.365  1.00  0.00     0.137 A 
ATOM      4  C   UNL     1    -118.498 -97.599  45.473  1.00  0.00     0.064 A 
ATOM      5  C   UNL     1    -118.799 -97.135  44.213  1.00  0.00     0.054 A 
ATOM      6  C   UNL     1    -118.772 -98.269  43.407  1.00  0.00     0.196 A 
ATOM      7  O   UNL     1    -118.478 -99.339  44.124  1.00  0.00    -0.464 OA
ATOM      8  C   UNL     1    -118.377 -96.937  46.692  1.00  0.00     0.149 A 
ATOM      9  C   UNL     1    -118.051 -97.711  47.837  1.00  0.00     0.018 A 
ATOM     10  C   UNL     1    -117.928 -97.052  49.063  1.00  0.00     0.019 A 
ATOM     11  C   UNL     1    -118.128 -95.671  49.123  1.00  0.00     0.094 A 
ATOM     12  C   UNL     1    -118.449 -94.977  47.949  1.00  0.00     0.336 A 
ATOM     13  O   UNL     1    -118.632 -93.733  47.987  1.00  0.00    -0.246 OA
ATOM     14  O   UNL     1    -118.560 -95.624  46.791  1.00  0.00    -0.422 OA
ENDROOT
TORSDOF 0
ENDMDL
MODEL 3
REMARK VINA RESULT:    -4.537     10.776     13.231
REMARK INTER + INTRA:          -4.537
REMARK INTER:                  -4.537
REMARK INTRA:                   0.000
REMARK UNBOUND:                 0.000
REMARK SMILES O=c1ccc2ccc3occc3c2o1
REMARK SMILES IDX 6 1 7 2 8 3 12 4 11 5 10 6 9 7 13 8 5 9 4 10 3 11 2 12 1 13
REMARK SMILES IDX 14 14
REMARK H PARENT
REMARK Flexibility Score: inf
ROOT
ATOM      1  C   UNL     1    -118.125 -99.832  45.663  1.00  0.00     0.016 A 
ATOM      2  C   UNL     1    -118.344-100.125  44.304  1.00  0.00     0.048 A 
ATOM      3  C   UNL     1    -118.642 -99.068  43.445  1.00  0.00     0.137 A 
ATOM      4  C   UNL     1    -118.724 -97.776  43.890  1.00  0.00     0.064 A 
ATOM      5  C   UNL     1    -119.031 -96.996  42.799  1.00  0.00     0.054 A 
ATOM      6  C   UNL     1    -119.116 -97.894  41.740  1.00  0.00     0.196 A 
ATOM      7  O   UNL     1    -118.879 -99.125  42.158  1.00  0.00    -0.464 OA
ATOM      8  C   UNL     1    -118.513 -97.445  45.227  1.00  0.00     0.149 A 
ATOM      9  C   UNL     1    -118.208 -98.498  46.129  1.00  0.00     0.018 A 
ATOM     10  C   UNL     1    -117.995 -98.173  47.471  1.00  0.00     0.019 A 
ATOM     11  C   UNL     1    -118.090 -96.839  47.877  1.00  0.00     0.094 A 
ATOM     12  C   UNL     1    -118.396 -95.857  46.926  1.00  0.00     0.336 A 
ATOM     13  O   UNL     1    -118.484 -94.652  47.277  1.00  0.00    -0.246 OA
ATOM     14  O   UNL     1    -118.594 -96.188  45.652  1.00  0.00    -0.422 OA
ENDROOT
TORSDOF 0
ENDMDL
MODEL 4
REMARK VINA RESULT:    -4.432      1.470      4.947
REMARK INTER + INTRA:          -4.432
REMARK INTER:                  -4.432
REMARK INTRA:                   0.000
REMARK UNBOUND:                 0.000
REMARK SMILES O=c1ccc2ccc3occc3c2o1
REMARK SMILES IDX 6 1 7 2 8 3 12 4 11 5 10 6 9 7 13 8 5 9 4 10 3 11 2 12 1 13
REMARK SMILES IDX 14 14
REMARK H PARENT
REMARK Flexibility Score: inf
ROOT
ATOM      1  C   UNL     1    -117.799-100.122  31.685  1.00  0.00     0.016 A 
ATOM      2  C   UNL     1    -118.549 -99.399  30.737  1.00  0.00     0.048 A 
ATOM      3  C   UNL     1    -118.501 -98.007  30.787  1.00  0.00     0.137 A 
ATOM      4  C   UNL     1    -117.754 -97.342  31.721  1.00  0.00     0.064 A 
ATOM      5  C   UNL     1    -117.930 -95.996  31.490  1.00  0.00     0.054 A 
ATOM      6  C   UNL     1    -118.796 -95.939  30.403  1.00  0.00     0.196 A 
ATOM      7  O   UNL     1    -119.120 -97.157  30.005  1.00  0.00    -0.464 OA
ATOM      8  C   UNL     1    -116.999 -98.020  32.675  1.00  0.00     0.149 A 
ATOM      9  C   UNL     1    -117.024 -99.439  32.654  1.00  0.00     0.018 A 
ATOM     10  C   UNL     1    -116.268-100.125  33.607  1.00  0.00     0.019 A 
ATOM     11  C   UNL     1    -115.521 -99.402  34.540  1.00  0.00     0.094 A 
ATOM     12  C   UNL     1    -115.548 -98.002  34.497  1.00  0.00     0.336 A 
ATOM     13  O   UNL     1    -114.881 -97.336  35.330  1.00  0.00    -0.246 OA
ATOM     14  O   UNL     1    -116.275 -97.368  33.580  1.00  0.00    -0.422 OA
ENDROOT
TORSDOF 0
ENDMDL
MODEL 5
REMARK VINA RESULT:    -3.172      8.629     10.933
REMARK INTER + INTRA:          -3.172
REMARK INTER:                  -3.172
REMARK INTRA:                   0.000
REMARK UNBOUND:                 0.000
REMARK SMILES O=c1ccc2ccc3occc3c2o1
REMARK SMILES IDX 6 1 7 2 8 3 12 4 11 5 10 6 9 7 13 8 5 9 4 10 3 11 2 12 1 13
REMARK SMILES IDX 14 14
REMARK H PARENT
REMARK Flexibility Score: inf
ROOT
ATOM      1  C   UNL     1    -119.072 -96.777  42.198  1.00  0.00     0.016 A 
ATOM      2  C   UNL     1    -118.639 -97.203  40.928  1.00  0.00     0.048 A 
ATOM      3  C   UNL     1    -117.855 -98.353  40.854  1.00  0.00     0.137 A 
ATOM      4  C   UNL     1    -117.504 -99.063  41.971  1.00  0.00     0.064 A 
ATOM      5  C   UNL     1    -116.739-100.125  41.546  1.00  0.00     0.054 A 
ATOM      6  C   UNL     1    -116.677 -99.981  40.164  1.00  0.00     0.196 A 
ATOM      7  O   UNL     1    -117.354 -98.913  39.780  1.00  0.00    -0.464 OA
ATOM      8  C   UNL     1    -117.912 -98.675  43.245  1.00  0.00     0.149 A 
ATOM      9  C   UNL     1    -118.712 -97.507  43.357  1.00  0.00     0.018 A 
ATOM     10  C   UNL     1    -119.125 -97.113  44.633  1.00  0.00     0.019 A 
ATOM     11  C   UNL     1    -118.741 -97.870  45.742  1.00  0.00     0.094 A 
ATOM     12  C   UNL     1    -117.950 -99.010  45.549  1.00  0.00     0.336 A 
ATOM     13  O   UNL     1    -117.597 -99.702  46.539  1.00  0.00    -0.246 OA
ATOM     14  O   UNL     1    -117.568 -99.368  44.326  1.00  0.00    -0.422 OA
ENDROOT
TORSDOF 0
ENDMDL
MODEL 6
REMARK VINA RESULT:    -2.988      1.109      4.281
REMARK INTER + INTRA:          -2.988
REMARK INTER:                  -2.988
REMARK INTRA:                   0.000
REMARK UNBOUND:                 0.000
REMARK SMILES O=c1ccc2ccc3occc3c2o1
REMARK SMILES IDX 6 1 7 2 8 3 12 4 11 5 10 6 9 7 13 8 5 9 4 10 3 11 2 12 1 13
REMARK SMILES IDX 14 14
REMARK H PARENT
REMARK Flexibility Score: inf
ROOT
ATOM      1  C   UNL     1    -117.244 -96.206  32.093  1.00  0.00     0.016 A 
ATOM      2  C   UNL     1    -118.085 -96.576  31.027  1.00  0.00     0.048 A 
ATOM      3  C   UNL     1    -118.372 -97.929  30.857  1.00  0.00     0.137 A 
ATOM      4  C   UNL     1    -117.861 -98.887  31.691  1.00  0.00     0.064 A 
ATOM      5  C   UNL     1    -118.336-100.100  31.247  1.00  0.00     0.054 A 
ATOM      6  C   UNL     1    -119.124 -99.784  30.144  1.00  0.00     0.196 A 
ATOM      7  O   UNL     1    -119.125 -98.479  29.936  1.00  0.00    -0.464 OA
ATOM      8  C   UNL     1    -117.025 -98.562  32.757  1.00  0.00     0.149 A 
ATOM      9  C   UNL     1    -116.712 -97.192  32.959  1.00  0.00     0.018 A 
ATOM     10  C   UNL     1    -115.875 -96.859  34.027  1.00  0.00     0.019 A 
ATOM     11  C   UNL     1    -115.379 -97.872  34.851  1.00  0.00     0.094 A 
ATOM     12  C   UNL     1    -115.733 -99.201  34.586  1.00  0.00     0.336 A 
ATOM     13  O   UNL     1    -115.294-100.124  35.320  1.00  0.00    -0.246 OA
ATOM     14  O   UNL     1    -116.533 -99.497  33.564  1.00  0.00    -0.422 OA
ENDROOT
TORSDOF 0
ENDMDL
