MODEL 1
REMARK VINA RESULT:    -3.260      0.000      0.000
REMARK INTER + INTRA:          -3.917
REMARK INTER:                  -3.832
REMARK INTRA:                  -0.085
REMARK UNBOUND:                -0.085
REMARK SMILES CCCCC(=O)[O-]
REMARK SMILES IDX 4 1 5 2 6 3 7 4 3 5 2 6 1 7
REMARK H PARENT
REMARK Flexibility Score: inf
ROOT
ATOM      1  C   UNL     1      56.350  22.985  48.477  1.00  0.00     0.053 C 
ENDROOT
BRANCH   1   2
ATOM      2  C   UNL     1      55.361  23.810  47.713  1.00  0.00     0.041 C 
ATOM      3  O   UNL     1      54.126  23.607  47.850  1.00  0.00    -0.550 OA
ATOM      4  O   UNL     1      55.803  24.782  46.824  1.00  0.00    -0.550 OA
ENDBRANCH   1   2
BRANCH   1   5
ATOM      5  C   UNL     1      56.753  21.720  47.706  1.00  0.00     0.006 C 
BRANCH   5   6
ATOM      6  C   UNL     1      56.477  20.439  48.507  1.00  0.00    -0.003 C 
ATOM      7  C   UNL     1      55.693  20.744  49.780  1.00  0.00     0.004 C 
ENDBRANCH   5   6
ENDBRANCH   1   5
TORSDOF 3
ENDMDL
MODEL 2
REMARK VINA RESULT:    -3.249      0.203      1.241
REMARK INTER + INTRA:          -3.904
REMARK INTER:                  -3.824
REMARK INTRA:                  -0.080
REMARK UNBOUND:                -0.085
REMARK SMILES CCCCC(=O)[O-]
REMARK SMILES IDX 4 1 5 2 6 3 7 4 3 5 2 6 1 7
REMARK H PARENT
REMARK Flexibility Score: inf
ROOT
ATOM      1  C   UNL     1      56.242  23.101  48.478  1.00  0.00     0.053 C 
ENDROOT
BRANCH   1   2
ATOM      2  C   UNL     1      55.191  23.848  47.715  1.00  0.00     0.041 C 
ATOM      3  O   UNL     1      55.522  24.731  46.880  1.00  0.00    -0.550 OA
ATOM      4  O   UNL     1      53.846  23.594  47.951  1.00  0.00    -0.550 OA
ENDBRANCH   1   2
BRANCH   1   5
ATOM      5  C   UNL     1      56.753  21.881  47.699  1.00  0.00     0.006 C 
BRANCH   5   6
ATOM      6  C   UNL     1      56.438  20.560  48.416  1.00  0.00    -0.003 C 
ATOM      7  C   UNL     1      55.743  20.811  49.751  1.00  0.00     0.004 C 
ENDBRANCH   5   6
ENDBRANCH   1   5
TORSDOF 3
ENDMDL
MODEL 3
REMARK VINA RESULT:    -3.236      1.579      1.885
REMARK INTER + INTRA:          -3.888
REMARK INTER:                  -3.847
REMARK INTRA:                  -0.041
REMARK UNBOUND:                -0.085
REMARK SMILES CCCCC(=O)[O-]
REMARK SMILES IDX 4 1 5 2 6 3 7 4 3 5 2 6 1 7
REMARK H PARENT
REMARK Flexibility Score: inf
ROOT
ATOM      1  C   UNL     1      56.737  22.366  47.707  1.00  0.00     0.053 C 
ENDROOT
BRANCH   1   2
ATOM      2  C   UNL     1      57.135  23.791  47.472  1.00  0.00     0.041 C 
ATOM      3  O   UNL     1      56.866  24.674  48.328  1.00  0.00    -0.550 OA
ATOM      4  O   UNL     1      57.772  24.150  46.291  1.00  0.00    -0.550 OA
ENDBRANCH   1   2
BRANCH   1   5
ATOM      5  C   UNL     1      55.736  22.238  48.864  1.00  0.00     0.006 C 
BRANCH   5   6
ATOM      6  C   UNL     1      55.794  20.856  49.532  1.00  0.00    -0.003 C 
ATOM      7  C   UNL     1      56.437  19.825  48.608  1.00  0.00     0.004 C 
ENDBRANCH   5   6
ENDBRANCH   1   5
TORSDOF 3
ENDMDL
MODEL 4
REMARK VINA RESULT:    -3.197      0.948      1.229
REMARK INTER + INTRA:          -3.843
REMARK INTER:                  -3.810
REMARK INTRA:                  -0.033
REMARK UNBOUND:                -0.085
REMARK SMILES CCCCC(=O)[O-]
REMARK SMILES IDX 4 1 5 2 6 3 7 4 3 5 2 6 1 7
REMARK H PARENT
REMARK Flexibility Score: inf
ROOT
ATOM      1  C   UNL     1      56.368  22.902  48.220  1.00  0.00     0.053 C 
ENDROOT
BRANCH   1   2
ATOM      2  C   UNL     1      56.549  23.987  47.202  1.00  0.00     0.041 C 
ATOM      3  O   UNL     1      55.601  24.773  46.939  1.00  0.00    -0.550 OA
ATOM      4  O   UNL     1      57.752  24.108  46.519  1.00  0.00    -0.550 OA
ENDBRANCH   1   2
BRANCH   1   5
ATOM      5  C   UNL     1      56.768  21.528  47.666  1.00  0.00     0.006 C 
BRANCH   5   6
ATOM      6  C   UNL     1      56.418  20.388  48.632  1.00  0.00    -0.003 C 
ATOM      7  C   UNL     1      55.656  20.910  49.847  1.00  0.00     0.004 C 
ENDBRANCH   5   6
ENDBRANCH   1   5
TORSDOF 3
ENDMDL
MODEL 5
REMARK VINA RESULT:    -3.073      2.366      3.785
REMARK INTER + INTRA:          -3.697
REMARK INTER:                  -3.644
REMARK INTRA:                  -0.053
REMARK UNBOUND:                -0.085
REMARK SMILES CCCCC(=O)[O-]
REMARK SMILES IDX 4 1 5 2 6 3 7 4 3 5 2 6 1 7
REMARK H PARENT
REMARK Flexibility Score: inf
ROOT
ATOM      1  C   UNL     1      55.422  22.146  49.173  1.00  0.00     0.053 C 
ENDROOT
BRANCH   1   2
ATOM      2  C   UNL     1      56.390  21.370  48.334  1.00  0.00     0.041 C 
ATOM      3  O   UNL     1      57.041  21.945  47.422  1.00  0.00    -0.550 OA
ATOM      4  O   UNL     1      56.549  20.005  48.535  1.00  0.00    -0.550 OA
ENDBRANCH   1   2
BRANCH   1   5
ATOM      5  C   UNL     1      55.228  23.574  48.646  1.00  0.00     0.006 C 
BRANCH   5   6
ATOM      6  C   UNL     1      53.831  23.787  48.045  1.00  0.00    -0.003 C 
ATOM      7  C   UNL     1      53.873  24.788  46.894  1.00  0.00     0.004 C 
ENDBRANCH   5   6
ENDBRANCH   1   5
TORSDOF 3
ENDMDL
MODEL 6
REMARK VINA RESULT:    -3.039      2.608      3.714
REMARK INTER + INTRA:          -3.657
REMARK INTER:                  -3.630
REMARK INTRA:                  -0.027
REMARK UNBOUND:                -0.085
REMARK SMILES CCCCC(=O)[O-]
REMARK SMILES IDX 4 1 5 2 6 3 7 4 3 5 2 6 1 7
REMARK H PARENT
REMARK Flexibility Score: inf
ROOT
ATOM      1  C   UNL     1      55.849  22.457  48.858  1.00  0.00     0.053 C 
ENDROOT
BRANCH   1   2
ATOM      2  C   UNL     1      55.687  21.118  49.509  1.00  0.00     0.041 C 
ATOM      3  O   UNL     1      56.168  20.087  48.968  1.00  0.00    -0.550 OA
ATOM      4  O   UNL     1      54.977  21.001  50.697  1.00  0.00    -0.550 OA
ENDBRANCH   1   2
BRANCH   1   5
ATOM      5  C   UNL     1      56.791  22.392  47.648  1.00  0.00     0.006 C 
BRANCH   5   6
ATOM      6  C   UNL     1      57.246  23.786  47.192  1.00  0.00    -0.003 C 
ATOM      7  C   UNL     1      56.057  24.730  47.037  1.00  0.00     0.004 C 
ENDBRANCH   5   6
ENDBRANCH   1   5
TORSDOF 3
ENDMDL
MODEL 7
REMARK VINA RESULT:    -2.953      3.221      3.985
REMARK INTER + INTRA:          -3.556
REMARK INTER:                  -3.508
REMARK INTRA:                  -0.048
REMARK UNBOUND:                -0.085
REMARK SMILES CCCCC(=O)[O-]
REMARK SMILES IDX 4 1 5 2 6 3 7 4 3 5 2 6 1 7
REMARK H PARENT
REMARK Flexibility Score: inf
ROOT
ATOM      1  C   UNL     1      55.159  21.064  50.510  1.00  0.00     0.053 C 
ENDROOT
BRANCH   1   2
ATOM      2  C   UNL     1      55.051  21.725  51.850  1.00  0.00     0.041 C 
ATOM      3  O   UNL     1      56.085  22.146  52.434  1.00  0.00    -0.550 OA
ATOM      4  O   UNL     1      53.814  21.849  52.469  1.00  0.00    -0.550 OA
ENDBRANCH   1   2
BRANCH   1   5
ATOM      5  C   UNL     1      55.426  22.081  49.392  1.00  0.00     0.006 C 
BRANCH   5   6
ATOM      6  C   UNL     1      56.389  21.534  48.328  1.00  0.00    -0.003 C 
ATOM      7  C   UNL     1      56.600  20.032  48.496  1.00  0.00     0.004 C 
ENDBRANCH   5   6
ENDBRANCH   1   5
TORSDOF 3
ENDMDL
MODEL 8
REMARK VINA RESULT:    -2.899      1.685      2.147
REMARK INTER + INTRA:          -3.492
REMARK INTER:                  -3.386
REMARK INTRA:                  -0.106
REMARK UNBOUND:                -0.085
REMARK SMILES CCCCC(=O)[O-]
REMARK SMILES IDX 4 1 5 2 6 3 7 4 3 5 2 6 1 7
REMARK H PARENT
REMARK Flexibility Score: inf
ROOT
ATOM      1  C   UNL     1      54.924  23.295  48.124  1.00  0.00     0.053 C 
ENDROOT
BRANCH   1   2
ATOM      2  C   UNL     1      54.211  23.606  49.404  1.00  0.00     0.041 C 
ATOM      3  O   UNL     1      54.268  22.803  50.373  1.00  0.00    -0.550 OA
ATOM      4  O   UNL     1      53.456  24.766  49.517  1.00  0.00    -0.550 OA
ENDBRANCH   1   2
BRANCH   1   5
ATOM      5  C   UNL     1      56.401  22.952  48.362  1.00  0.00     0.006 C 
BRANCH   5   6
ATOM      6  C   UNL     1      56.792  21.604  47.740  1.00  0.00    -0.003 C 
ATOM      7  C   UNL     1      56.357  20.441  48.627  1.00  0.00     0.004 C 
ENDBRANCH   5   6
ENDBRANCH   1   5
TORSDOF 3
ENDMDL
MODEL 9
REMARK VINA RESULT:    -2.862      3.128      4.105
REMARK INTER + INTRA:          -3.449
REMARK INTER:                  -3.366
REMARK INTRA:                  -0.083
REMARK UNBOUND:                -0.085
REMARK SMILES CCCCC(=O)[O-]
REMARK SMILES IDX 4 1 5 2 6 3 7 4 3 5 2 6 1 7
REMARK H PARENT
REMARK Flexibility Score: inf
ROOT
ATOM      1  C   UNL     1      55.321  21.221  50.123  1.00  0.00     0.053 C 
ENDROOT
BRANCH   1   2
ATOM      2  C   UNL     1      55.222  21.720  51.532  1.00  0.00     0.041 C 
ATOM      3  O   UNL     1      54.247  21.386  52.255  1.00  0.00    -0.550 OA
ATOM      4  O   UNL     1      56.189  22.580  52.036  1.00  0.00    -0.550 OA
ENDBRANCH   1   2
BRANCH   1   5
ATOM      5  C   UNL     1      55.374  22.374  49.112  1.00  0.00     0.006 C 
BRANCH   5   6
ATOM      6  C   UNL     1      54.133  23.275  49.193  1.00  0.00    -0.003 C 
ATOM      7  C   UNL     1      53.818  23.902  47.838  1.00  0.00     0.004 C 
ENDBRANCH   5   6
ENDBRANCH   1   5
TORSDOF 3
ENDMDL
