MODEL 1
REMARK VINA RESULT:    -2.595      0.000      0.000
REMARK INTER + INTRA:          -2.595
REMARK INTER:                  -2.595
REMARK INTRA:                   0.000
REMARK UNBOUND:                 0.000
REMARK SMILES c1cc[nH]c1
REMARK SMILES IDX 1 1 5 2 4 3 3 4 2 5
REMARK H PARENT 4 6
REMARK Flexibility Score: inf
ROOT
ATOM      1  C   UNL     1      32.724  20.610  30.331  1.00  0.00     0.019 A 
ATOM      2  C   UNL     1      32.459  21.894  29.902  1.00  0.00     0.082 A 
ATOM      3  N   UNL     1      32.412  22.729  30.956  1.00  0.00    -0.368 N 
ATOM      4  C   UNL     1      32.644  21.991  32.056  1.00  0.00     0.082 A 
ATOM      5  C   UNL     1      32.842  20.672  31.705  1.00  0.00     0.019 A 
ATOM      6  H   UNL     1      32.230  23.757  30.925  1.00  0.00     0.165 HD
ENDROOT
TORSDOF 0
ENDMDL
MODEL 2
REMARK VINA RESULT:    -2.582      0.175      1.626
REMARK INTER + INTRA:          -2.582
REMARK INTER:                  -2.582
REMARK INTRA:                   0.000
REMARK UNBOUND:                 0.000
REMARK SMILES c1cc[nH]c1
REMARK SMILES IDX 1 1 5 2 4 3 3 4 2 5
REMARK H PARENT 4 6
REMARK Flexibility Score: inf
ROOT
ATOM      1  C   UNL     1      32.948  20.530  31.605  1.00  0.00     0.019 A 
ATOM      2  C   UNL     1      32.713  21.789  32.121  1.00  0.00     0.082 A 
ATOM      3  N   UNL     1      32.374  22.634  31.131  1.00  0.00    -0.368 N 
ATOM      4  C   UNL     1      32.390  21.929  29.987  1.00  0.00     0.082 A 
ATOM      5  C   UNL     1      32.742  20.620  30.243  1.00  0.00     0.019 A 
ATOM      6  H   UNL     1      32.142  23.647  31.233  1.00  0.00     0.165 HD
ENDROOT
TORSDOF 0
ENDMDL
MODEL 3
REMARK VINA RESULT:    -2.492      1.869      2.359
REMARK INTER + INTRA:          -2.492
REMARK INTER:                  -2.492
REMARK INTRA:                   0.000
REMARK UNBOUND:                 0.000
REMARK SMILES c1cc[nH]c1
REMARK SMILES IDX 1 1 5 2 4 3 3 4 2 5
REMARK H PARENT 4 6
REMARK Flexibility Score: inf
ROOT
ATOM      1  C   UNL     1      31.696  20.964  30.388  1.00  0.00     0.019 A 
ATOM      2  C   UNL     1      32.391  20.197  29.475  1.00  0.00     0.082 A 
ATOM      3  N   UNL     1      33.125  20.991  28.674  1.00  0.00    -0.368 N 
ATOM      4  C   UNL     1      32.905  22.258  29.065  1.00  0.00     0.082 A 
ATOM      5  C   UNL     1      32.023  22.279  30.126  1.00  0.00     0.019 A 
ATOM      6  H   UNL     1      33.748  20.681  27.896  1.00  0.00     0.165 HD
ENDROOT
TORSDOF 0
ENDMDL
MODEL 4
REMARK VINA RESULT:    -2.488     16.316     16.757
REMARK INTER + INTRA:          -2.488
REMARK INTER:                  -2.488
REMARK INTRA:                   0.000
REMARK UNBOUND:                 0.000
REMARK SMILES c1cc[nH]c1
REMARK SMILES IDX 1 1 5 2 4 3 3 4 2 5
REMARK H PARENT 4 6
REMARK Flexibility Score: inf
ROOT
ATOM      1  C   UNL     1      20.270  11.031  25.749  1.00  0.00     0.019 A 
ATOM      2  C   UNL     1      20.485   9.779  26.287  1.00  0.00     0.082 A 
ATOM      3  N   UNL     1      20.876   9.892  27.569  1.00  0.00    -0.368 N 
ATOM      4  C   UNL     1      20.914  11.204  27.857  1.00  0.00     0.082 A 
ATOM      5  C   UNL     1      20.544  11.941  26.751  1.00  0.00     0.019 A 
ATOM      6  H   UNL     1      21.107   9.107  28.218  1.00  0.00     0.165 HD
ENDROOT
TORSDOF 0
ENDMDL
MODEL 5
REMARK VINA RESULT:    -2.488     19.923     20.255
REMARK INTER + INTRA:          -2.488
REMARK INTER:                  -2.488
REMARK INTRA:                   0.000
REMARK UNBOUND:                 0.000
REMARK SMILES c1cc[nH]c1
REMARK SMILES IDX 1 1 5 2 4 3 3 4 2 5
REMARK H PARENT 4 6
REMARK Flexibility Score: inf
ROOT
ATOM      1  C   UNL     1      16.057   9.581  30.733  1.00  0.00     0.019 A 
ATOM      2  C   UNL     1      16.077   8.202  30.778  1.00  0.00     0.082 A 
ATOM      3  N   UNL     1      17.325   7.755  30.552  1.00  0.00    -0.368 N 
ATOM      4  C   UNL     1      18.104   8.834  30.362  1.00  0.00     0.082 A 
ATOM      5  C   UNL     1      17.350   9.984  30.467  1.00  0.00     0.019 A 
ATOM      6  H   UNL     1      17.631   6.757  30.529  1.00  0.00     0.165 HD
ENDROOT
TORSDOF 0
ENDMDL
MODEL 6
REMARK VINA RESULT:    -2.475     10.516     11.042
REMARK INTER + INTRA:          -2.475
REMARK INTER:                  -2.475
REMARK INTRA:                   0.000
REMARK UNBOUND:                 0.000
REMARK SMILES c1cc[nH]c1
REMARK SMILES IDX 1 1 5 2 4 3 3 4 2 5
REMARK H PARENT 4 6
REMARK Flexibility Score: inf
ROOT
ATOM      1  C   UNL     1      31.331  10.099  32.190  1.00  0.00     0.019 A 
ATOM      2  C   UNL     1      31.588  11.450  32.076  1.00  0.00     0.082 A 
ATOM      3  N   UNL     1      32.660  11.777  32.821  1.00  0.00    -0.368 N 
ATOM      4  C   UNL     1      33.090  10.649  33.411  1.00  0.00     0.082 A 
ATOM      5  C   UNL     1      32.289   9.588  33.043  1.00  0.00     0.019 A 
ATOM      6  H   UNL     1      33.078  12.728  32.921  1.00  0.00     0.165 HD
ENDROOT
TORSDOF 0
ENDMDL
MODEL 7
REMARK VINA RESULT:    -2.344     16.180     16.668
REMARK INTER + INTRA:          -2.344
REMARK INTER:                  -2.344
REMARK INTRA:                   0.000
REMARK UNBOUND:                 0.000
REMARK SMILES c1cc[nH]c1
REMARK SMILES IDX 1 1 5 2 4 3 3 4 2 5
REMARK H PARENT 4 6
REMARK Flexibility Score: inf
ROOT
ATOM      1  C   UNL     1      20.596  10.083  27.546  1.00  0.00     0.019 A 
ATOM      2  C   UNL     1      20.975  11.402  27.688  1.00  0.00     0.082 A 
ATOM      3  N   UNL     1      20.930  12.023  26.495  1.00  0.00    -0.368 N 
ATOM      4  C   UNL     1      20.528  11.113  25.591  1.00  0.00     0.082 A 
ATOM      5  C   UNL     1      20.311   9.898  26.208  1.00  0.00     0.019 A 
ATOM      6  H   UNL     1      21.165  13.023  26.308  1.00  0.00     0.165 HD
ENDROOT
TORSDOF 0
ENDMDL
MODEL 8
REMARK VINA RESULT:    -2.142     14.270     14.845
REMARK INTER + INTRA:          -2.142
REMARK INTER:                  -2.142
REMARK INTRA:                   0.000
REMARK UNBOUND:                 0.000
REMARK SMILES c1cc[nH]c1
REMARK SMILES IDX 1 1 5 2 4 3 3 4 2 5
REMARK H PARENT 4 6
REMARK Flexibility Score: inf
ROOT
ATOM      1  C   UNL     1      31.604   6.245  29.690  1.00  0.00     0.019 A 
ATOM      2  C   UNL     1      30.692   6.613  30.659  1.00  0.00     0.082 A 
ATOM      3  N   UNL     1      29.843   7.532  30.163  1.00  0.00    -0.368 N 
ATOM      4  C   UNL     1      30.203   7.756  28.888  1.00  0.00     0.082 A 
ATOM      5  C   UNL     1      31.292   6.975  28.560  1.00  0.00     0.019 A 
ATOM      6  H   UNL     1      29.053   7.986  30.674  1.00  0.00     0.165 HD
ENDROOT
TORSDOF 0
ENDMDL
MODEL 9
REMARK VINA RESULT:    -2.129     14.268     14.895
REMARK INTER + INTRA:          -2.129
REMARK INTER:                  -2.129
REMARK INTRA:                   0.000
REMARK UNBOUND:                 0.000
REMARK SMILES c1cc[nH]c1
REMARK SMILES IDX 1 1 5 2 4 3 3 4 2 5
REMARK H PARENT 4 6
REMARK Flexibility Score: inf
ROOT
ATOM      1  C   UNL     1      30.771   7.992  30.582  1.00  0.00     0.019 A 
ATOM      2  C   UNL     1      31.220   6.981  31.407  1.00  0.00     0.082 A 
ATOM      3  N   UNL     1      31.644   5.940  30.668  1.00  0.00    -0.368 N 
ATOM      4  C   UNL     1      31.471   6.275  29.378  1.00  0.00     0.082 A 
ATOM      5  C   UNL     1      30.931   7.542  29.287  1.00  0.00     0.019 A 
ATOM      6  H   UNL     1      32.035   5.041  31.029  1.00  0.00     0.165 HD
ENDROOT
TORSDOF 0
ENDMDL
