MODEL 1
REMARK VINA RESULT:    11.714      0.000      0.000
REMARK INTER + INTRA:          20.535
REMARK INTER:                  21.301
REMARK INTRA:                  -0.766
REMARK UNBOUND:                -0.766
REMARK SMILES CCCCCCCCCCCCCCCC(=O)[O-]
REMARK SMILES IDX 9 1 10 2 11 3 12 4 13 5 14 6 15 7 16 8 17 9 18 10 8 11 7 12
REMARK SMILES IDX 6 13 5 14 4 15 3 16 2 17 1 18
REMARK H PARENT
REMARK Flexibility Score: inf
ROOT
ATOM      1  C   UNL     1      15.770  51.136  61.264  1.00  0.00     0.000 C 
ENDROOT
BRANCH   1   2
ATOM      2  C   UNL     1      16.250  50.669  59.878  1.00  0.00     0.000 C 
BRANCH   2   3
ATOM      3  C   UNL     1      15.885  49.205  59.588  1.00  0.00     0.000 C 
BRANCH   3   4
ATOM      4  C   UNL     1      16.365  48.738  58.206  1.00  0.00     0.000 C 
BRANCH   4   5
ATOM      5  C   UNL     1      16.820  47.275  58.248  1.00  0.00     0.000 C 
BRANCH   5   6
ATOM      6  C   UNL     1      16.994  46.711  56.832  1.00  0.00     0.006 C 
BRANCH   6   7
ATOM      7  C   UNL     1      16.414  45.299  56.729  1.00  0.00     0.053 C 
BRANCH   7   8
ATOM      8  C   UNL     1      17.373  44.388  56.029  1.00  0.00     0.041 C 
ATOM      9  O   UNL     1      18.521  44.799  55.715  1.00  0.00    -0.550 OA
ATOM     10  O   UNL     1      16.981  43.102  55.678  1.00  0.00    -0.550 OA
ENDBRANCH   7   8
ENDBRANCH   6   7
ENDBRANCH   5   6
ENDBRANCH   4   5
ENDBRANCH   3   4
ENDBRANCH   2   3
ENDBRANCH   1   2
BRANCH   1  11
ATOM     11  C   UNL     1      14.890  52.393  61.190  1.00  0.00     0.000 C 
BRANCH  11  12
ATOM     12  C   UNL     1      15.283  53.319  60.025  1.00  0.00    -0.000 C 
BRANCH  12  13
ATOM     13  C   UNL     1      15.183  54.808  60.397  1.00  0.00    -0.000 C 
BRANCH  13  14
ATOM     14  C   UNL     1      14.272  55.052  61.612  1.00  0.00    -0.000 C 
BRANCH  14  15
ATOM     15  C   UNL     1      15.052  55.125  62.934  1.00  0.00    -0.000 C 
BRANCH  15  16
ATOM     16  C   UNL     1      16.576  55.125  62.719  1.00  0.00    -0.000 C 
BRANCH  16  17
ATOM     17  C   UNL     1      17.262  53.916  63.374  1.00  0.00    -0.003 C 
ATOM     18  C   UNL     1      18.279  53.241  62.454  1.00  0.00     0.004 C 
ENDBRANCH  16  17
ENDBRANCH  15  16
ENDBRANCH  14  15
ENDBRANCH  13  14
ENDBRANCH  12  13
ENDBRANCH  11  12
ENDBRANCH   1  11
TORSDOF 14
ENDMDL
MODEL 2
REMARK VINA RESULT:    11.859      0.994      1.450
REMARK INTER + INTRA:          20.799
REMARK INTER:                  21.001
REMARK INTRA:                  -0.202
REMARK UNBOUND:                -0.766
REMARK SMILES CCCCCCCCCCCCCCCC(=O)[O-]
REMARK SMILES IDX 9 1 10 2 11 3 12 4 13 5 14 6 15 7 16 8 17 9 18 10 8 11 7 12
REMARK SMILES IDX 6 13 5 14 4 15 3 16 2 17 1 18
REMARK H PARENT
REMARK Flexibility Score: inf
ROOT
ATOM      1  C   UNL     1      15.851  51.017  61.124  1.00  0.00     0.000 C 
ENDROOT
BRANCH   1   2
ATOM      2  C   UNL     1      15.742  49.631  60.464  1.00  0.00     0.000 C 
BRANCH   2   3
ATOM      3  C   UNL     1      16.536  49.538  59.151  1.00  0.00     0.000 C 
BRANCH   3   4
ATOM      4  C   UNL     1      16.073  48.375  58.262  1.00  0.00     0.000 C 
BRANCH   4   5
ATOM      5  C   UNL     1      17.248  47.459  57.901  1.00  0.00     0.000 C 
BRANCH   5   6
ATOM      6  C   UNL     1      16.953  46.660  56.625  1.00  0.00     0.006 C 
BRANCH   6   7
ATOM      7  C   UNL     1      16.185  45.375  56.947  1.00  0.00     0.053 C 
BRANCH   7   8
ATOM      8  C   UNL     1      16.948  44.177  56.477  1.00  0.00     0.041 C 
ATOM      9  O   UNL     1      16.916  43.107  57.139  1.00  0.00    -0.550 OA
ATOM     10  O   UNL     1      17.733  44.257  55.333  1.00  0.00    -0.550 OA
ENDBRANCH   7   8
ENDBRANCH   6   7
ENDBRANCH   5   6
ENDBRANCH   4   5
ENDBRANCH   3   4
ENDBRANCH   2   3
ENDBRANCH   1   2
BRANCH   1  11
ATOM     11  C   UNL     1      16.327  52.100  60.144  1.00  0.00     0.000 C 
BRANCH  11  12
ATOM     12  C   UNL     1      15.197  52.603  59.227  1.00  0.00    -0.000 C 
BRANCH  12  13
ATOM     13  C   UNL     1      14.893  54.096  59.432  1.00  0.00    -0.000 C 
BRANCH  13  14
ATOM     14  C   UNL     1      15.417  54.625  60.778  1.00  0.00    -0.000 C 
BRANCH  14  15
ATOM     15  C   UNL     1      14.291  55.124  61.698  1.00  0.00    -0.000 C 
BRANCH  15  16
ATOM     16  C   UNL     1      14.393  54.545  63.120  1.00  0.00    -0.000 C 
BRANCH  16  17
ATOM     17  C   UNL     1      15.579  55.125  63.908  1.00  0.00    -0.003 C 
ATOM     18  C   UNL     1      16.932  54.708  63.332  1.00  0.00     0.004 C 
ENDBRANCH  16  17
ENDBRANCH  15  16
ENDBRANCH  14  15
ENDBRANCH  13  14
ENDBRANCH  12  13
ENDBRANCH  11  12
ENDBRANCH   1  11
TORSDOF 14
ENDMDL
MODEL 3
REMARK VINA RESULT:    11.954      4.603      9.521
REMARK INTER + INTRA:          20.972
REMARK INTER:                  21.513
REMARK INTRA:                  -0.542
REMARK UNBOUND:                -0.766
REMARK SMILES CCCCCCCCCCCCCCCC(=O)[O-]
REMARK SMILES IDX 9 1 10 2 11 3 12 4 13 5 14 6 15 7 16 8 17 9 18 10 8 11 7 12
REMARK SMILES IDX 6 13 5 14 4 15 3 16 2 17 1 18
REMARK H PARENT
REMARK Flexibility Score: inf
ROOT
ATOM      1  C   UNL     1      15.622  49.923  60.415  1.00  0.00     0.000 C 
ENDROOT
BRANCH   1   2
ATOM      2  C   UNL     1      16.192  51.122  61.193  1.00  0.00     0.000 C 
BRANCH   2   3
ATOM      3  C   UNL     1      16.358  52.372  60.313  1.00  0.00     0.000 C 
BRANCH   3   4
ATOM      4  C   UNL     1      15.064  52.752  59.577  1.00  0.00     0.000 C 
BRANCH   4   5
ATOM      5  C   UNL     1      15.005  54.261  59.314  1.00  0.00     0.000 C 
BRANCH   5   6
ATOM      6  C   UNL     1      15.507  55.053  60.528  1.00  0.00     0.006 C 
BRANCH   6   7
ATOM      7  C   UNL     1      14.583  54.859  61.732  1.00  0.00     0.053 C 
BRANCH   7   8
ATOM      8  C   UNL     1      15.349  55.001  63.009  1.00  0.00     0.041 C 
ATOM      9  O   UNL     1      16.608  54.988  62.997  1.00  0.00    -0.550 OA
ATOM     10  O   UNL     1      14.673  55.098  64.219  1.00  0.00    -0.550 OA
ENDBRANCH   7   8
ENDBRANCH   6   7
ENDBRANCH   5   6
ENDBRANCH   4   5
ENDBRANCH   3   4
ENDBRANCH   2   3
ENDBRANCH   1   2
BRANCH   1  11
ATOM     11  C   UNL     1      16.364  49.671  59.094  1.00  0.00     0.000 C 
BRANCH  11  12
ATOM     12  C   UNL     1      16.842  48.215  58.954  1.00  0.00    -0.000 C 
BRANCH  12  13
ATOM     13  C   UNL     1      16.566  47.636  57.557  1.00  0.00    -0.000 C 
BRANCH  13  14
ATOM     14  C   UNL     1      15.881  46.260  57.614  1.00  0.00    -0.000 C 
BRANCH  14  15
ATOM     15  C   UNL     1      16.187  45.394  56.382  1.00  0.00    -0.000 C 
BRANCH  15  16
ATOM     16  C   UNL     1      17.673  45.436  55.987  1.00  0.00    -0.000 C 
BRANCH  16  17
ATOM     17  C   UNL     1      18.239  44.040  55.676  1.00  0.00    -0.003 C 
ATOM     18  C   UNL     1      17.173  42.945  55.724  1.00  0.00     0.004 C 
ENDBRANCH  16  17
ENDBRANCH  15  16
ENDBRANCH  14  15
ENDBRANCH  13  14
ENDBRANCH  12  13
ENDBRANCH  11  12
ENDBRANCH   1  11
TORSDOF 14
ENDMDL
MODEL 4
REMARK VINA RESULT:    12.248      1.027      2.073
REMARK INTER + INTRA:          21.507
REMARK INTER:                  22.500
REMARK INTRA:                  -0.993
REMARK UNBOUND:                -0.766
REMARK SMILES CCCCCCCCCCCCCCCC(=O)[O-]
REMARK SMILES IDX 9 1 10 2 11 3 12 4 13 5 14 6 15 7 16 8 17 9 18 10 8 11 7 12
REMARK SMILES IDX 6 13 5 14 4 15 3 16 2 17 1 18
REMARK H PARENT
REMARK Flexibility Score: inf
ROOT
ATOM      1  C   UNL     1      15.431  51.209  60.725  1.00  0.00     0.000 C 
ENDROOT
BRANCH   1   2
ATOM      2  C   UNL     1      15.730  49.704  60.600  1.00  0.00     0.000 C 
BRANCH   2   3
ATOM      3  C   UNL     1      16.389  49.342  59.259  1.00  0.00     0.000 C 
BRANCH   3   4
ATOM      4  C   UNL     1      15.822  48.052  58.651  1.00  0.00     0.000 C 
BRANCH   4   5
ATOM      5  C   UNL     1      16.947  47.084  58.267  1.00  0.00     0.000 C 
BRANCH   5   6
ATOM      6  C   UNL     1      16.765  46.565  56.835  1.00  0.00     0.006 C 
BRANCH   6   7
ATOM      7  C   UNL     1      16.508  45.056  56.826  1.00  0.00     0.053 C 
BRANCH   7   8
ATOM      8  C   UNL     1      17.573  44.348  56.049  1.00  0.00     0.041 C 
ATOM      9  O   UNL     1      18.705  44.878  55.899  1.00  0.00    -0.550 OA
ATOM     10  O   UNL     1      17.299  43.126  55.447  1.00  0.00    -0.550 OA
ENDBRANCH   7   8
ENDBRANCH   6   7
ENDBRANCH   5   6
ENDBRANCH   4   5
ENDBRANCH   3   4
ENDBRANCH   2   3
ENDBRANCH   1   2
BRANCH   1  11
ATOM     11  C   UNL     1      16.670  52.079  60.462  1.00  0.00     0.000 C 
BRANCH  11  12
ATOM     12  C   UNL     1      17.700  51.996  61.602  1.00  0.00    -0.000 C 
BRANCH  12  13
ATOM     13  C   UNL     1      17.830  53.319  62.375  1.00  0.00    -0.000 C 
BRANCH  13  14
ATOM     14  C   UNL     1      16.715  54.319  62.024  1.00  0.00    -0.000 C 
BRANCH  14  15
ATOM     15  C   UNL     1      16.236  55.125  63.241  1.00  0.00    -0.000 C 
BRANCH  15  16
ATOM     16  C   UNL     1      14.704  55.114  63.389  1.00  0.00    -0.000 C 
BRANCH  16  17
ATOM     17  C   UNL     1      14.031  54.097  62.453  1.00  0.00    -0.003 C 
ATOM     18  C   UNL     1      13.565  52.838  63.184  1.00  0.00     0.004 C 
ENDBRANCH  16  17
ENDBRANCH  15  16
ENDBRANCH  14  15
ENDBRANCH  13  14
ENDBRANCH  12  13
ENDBRANCH  11  12
ENDBRANCH   1  11
TORSDOF 14
ENDMDL
MODEL 5
REMARK VINA RESULT:    12.261      4.220      9.341
REMARK INTER + INTRA:          21.530
REMARK INTER:                  22.034
REMARK INTRA:                  -0.504
REMARK UNBOUND:                -0.766
REMARK SMILES CCCCCCCCCCCCCCCC(=O)[O-]
REMARK SMILES IDX 9 1 10 2 11 3 12 4 13 5 14 6 15 7 16 8 17 9 18 10 8 11 7 12
REMARK SMILES IDX 6 13 5 14 4 15 3 16 2 17 1 18
REMARK H PARENT
REMARK Flexibility Score: inf
ROOT
ATOM      1  C   UNL     1      15.442  51.334  60.172  1.00  0.00     0.000 C 
ENDROOT
BRANCH   1   2
ATOM      2  C   UNL     1      16.336  51.429  61.420  1.00  0.00     0.000 C 
BRANCH   2   3
ATOM      3  C   UNL     1      17.531  52.374  61.220  1.00  0.00     0.000 C 
BRANCH   3   4
ATOM      4  C   UNL     1      17.836  53.214  62.469  1.00  0.00     0.000 C 
BRANCH   4   5
ATOM      5  C   UNL     1      17.045  54.527  62.455  1.00  0.00     0.000 C 
BRANCH   5   6
ATOM      6  C   UNL     1      16.381  54.786  63.812  1.00  0.00     0.006 C 
BRANCH   6   7
ATOM      7  C   UNL     1      14.898  55.124  63.643  1.00  0.00     0.053 C 
BRANCH   7   8
ATOM      8  C   UNL     1      14.309  54.345  62.509  1.00  0.00     0.041 C 
ATOM      9  O   UNL     1      14.272  54.841  61.352  1.00  0.00    -0.550 OA
ATOM     10  O   UNL     1      13.756  53.091  62.739  1.00  0.00    -0.550 OA
ENDBRANCH   7   8
ENDBRANCH   6   7
ENDBRANCH   5   6
ENDBRANCH   4   5
ENDBRANCH   3   4
ENDBRANCH   2   3
ENDBRANCH   1   2
BRANCH   1  11
ATOM     11  C   UNL     1      16.176  50.725  58.967  1.00  0.00     0.000 C 
BRANCH  11  12
ATOM     12  C   UNL     1      16.426  49.215  59.131  1.00  0.00    -0.000 C 
BRANCH  12  13
ATOM     13  C   UNL     1      16.311  48.451  57.802  1.00  0.00    -0.000 C 
BRANCH  13  14
ATOM     14  C   UNL     1      17.162  47.169  57.784  1.00  0.00    -0.000 C 
BRANCH  14  15
ATOM     15  C   UNL     1      16.311  45.893  57.685  1.00  0.00    -0.000 C 
BRANCH  15  16
ATOM     16  C   UNL     1      16.429  45.212  56.311  1.00  0.00    -0.000 C 
BRANCH  16  17
ATOM     17  C   UNL     1      17.552  44.163  56.269  1.00  0.00    -0.003 C 
ATOM     18  C   UNL     1      17.287  43.050  55.256  1.00  0.00     0.004 C 
ENDBRANCH  16  17
ENDBRANCH  15  16
ENDBRANCH  14  15
ENDBRANCH  13  14
ENDBRANCH  12  13
ENDBRANCH  11  12
ENDBRANCH   1  11
TORSDOF 14
ENDMDL
MODEL 6
REMARK VINA RESULT:    12.616      3.651      8.873
REMARK INTER + INTRA:          22.176
REMARK INTER:                  21.722
REMARK INTRA:                   0.455
REMARK UNBOUND:                -0.766
REMARK SMILES CCCCCCCCCCCCCCCC(=O)[O-]
REMARK SMILES IDX 9 1 10 2 11 3 12 4 13 5 14 6 15 7 16 8 17 9 18 10 8 11 7 12
REMARK SMILES IDX 6 13 5 14 4 15 3 16 2 17 1 18
REMARK H PARENT
REMARK Flexibility Score: inf
ROOT
ATOM      1  C   UNL     1      15.319  51.987  60.677  1.00  0.00     0.000 C 
ENDROOT
BRANCH   1   2
ATOM      2  C   UNL     1      14.538  51.419  61.876  1.00  0.00     0.000 C 
BRANCH   2   3
ATOM      3  C   UNL     1      13.994  52.518  62.801  1.00  0.00     0.000 C 
BRANCH   3   4
ATOM      4  C   UNL     1      14.305  53.931  62.287  1.00  0.00     0.000 C 
BRANCH   4   5
ATOM      5  C   UNL     1      14.672  54.869  63.443  1.00  0.00     0.000 C 
BRANCH   5   6
ATOM      6  C   UNL     1      16.190  54.915  63.656  1.00  0.00     0.006 C 
BRANCH   6   7
ATOM      7  C   UNL     1      16.936  54.712  62.335  1.00  0.00     0.053 C 
BRANCH   7   8
ATOM      8  C   UNL     1      17.824  53.510  62.414  1.00  0.00     0.041 C 
ATOM      9  O   UNL     1      18.821  53.509  63.182  1.00  0.00    -0.550 OA
ATOM     10  O   UNL     1      17.578  52.409  61.602  1.00  0.00    -0.550 OA
ENDBRANCH   7   8
ENDBRANCH   6   7
ENDBRANCH   5   6
ENDBRANCH   4   5
ENDBRANCH   3   4
ENDBRANCH   2   3
ENDBRANCH   1   2
BRANCH   1  11
ATOM     11  C   UNL     1      15.251  51.074  59.444  1.00  0.00     0.000 C 
BRANCH  11  12
ATOM     12  C   UNL     1      15.894  49.698  59.693  1.00  0.00    -0.000 C 
BRANCH  12  13
ATOM     13  C   UNL     1      16.564  49.124  58.434  1.00  0.00    -0.000 C 
BRANCH  13  14
ATOM     14  C   UNL     1      16.418  47.596  58.333  1.00  0.00    -0.000 C 
BRANCH  14  15
ATOM     15  C   UNL     1      16.773  47.057  56.938  1.00  0.00    -0.000 C 
BRANCH  15  16
ATOM     16  C   UNL     1      17.430  45.667  56.993  1.00  0.00    -0.000 C 
BRANCH  16  17
ATOM     17  C   UNL     1      16.549  44.575  56.364  1.00  0.00    -0.003 C 
ATOM     18  C   UNL     1      17.361  43.511  55.627  1.00  0.00     0.004 C 
ENDBRANCH  16  17
ENDBRANCH  15  16
ENDBRANCH  14  15
ENDBRANCH  13  14
ENDBRANCH  12  13
ENDBRANCH  11  12
ENDBRANCH   1  11
TORSDOF 14
ENDMDL
MODEL 7
REMARK VINA RESULT:    12.740      4.310      9.254
REMARK INTER + INTRA:          22.400
REMARK INTER:                  23.227
REMARK INTRA:                  -0.827
REMARK UNBOUND:                -0.766
REMARK SMILES CCCCCCCCCCCCCCCC(=O)[O-]
REMARK SMILES IDX 9 1 10 2 11 3 12 4 13 5 14 6 15 7 16 8 17 9 18 10 8 11 7 12
REMARK SMILES IDX 6 13 5 14 4 15 3 16 2 17 1 18
REMARK H PARENT
REMARK Flexibility Score: inf
ROOT
ATOM      1  C   UNL     1      16.257  51.125  60.379  1.00  0.00     0.000 C 
ENDROOT
BRANCH   1   2
ATOM      2  C   UNL     1      14.816  51.430  60.826  1.00  0.00     0.000 C 
BRANCH   2   3
ATOM      3  C   UNL     1      14.450  50.740  62.150  1.00  0.00     0.000 C 
BRANCH   3   4
ATOM      4  C   UNL     1      13.568  51.618  63.050  1.00  0.00     0.000 C 
BRANCH   4   5
ATOM      5  C   UNL     1      13.712  53.100  62.682  1.00  0.00     0.000 C 
BRANCH   5   6
ATOM      6  C   UNL     1      14.375  53.889  63.818  1.00  0.00     0.006 C 
BRANCH   6   7
ATOM      7  C   UNL     1      15.099  55.125  63.278  1.00  0.00     0.053 C 
BRANCH   7   8
ATOM      8  C   UNL     1      16.007  54.749  62.150  1.00  0.00     0.041 C 
ATOM      9  O   UNL     1      17.121  54.212  62.387  1.00  0.00    -0.550 OA
ATOM     10  O   UNL     1      15.645  55.036  60.840  1.00  0.00    -0.550 OA
ENDBRANCH   7   8
ENDBRANCH   6   7
ENDBRANCH   5   6
ENDBRANCH   4   5
ENDBRANCH   3   4
ENDBRANCH   2   3
ENDBRANCH   1   2
BRANCH   1  11
ATOM     11  C   UNL     1      16.320  50.528  58.965  1.00  0.00     0.000 C 
BRANCH  11  12
ATOM     12  C   UNL     1      16.001  49.023  58.946  1.00  0.00    -0.000 C 
BRANCH  12  13
ATOM     13  C   UNL     1      16.530  48.324  57.683  1.00  0.00    -0.000 C 
BRANCH  13  14
ATOM     14  C   UNL     1      16.437  46.791  57.775  1.00  0.00    -0.000 C 
BRANCH  14  15
ATOM     15  C   UNL     1      17.807  46.105  57.647  1.00  0.00    -0.000 C 
BRANCH  15  16
ATOM     16  C   UNL     1      17.952  45.322  56.330  1.00  0.00    -0.000 C 
BRANCH  16  17
ATOM     17  C   UNL     1      16.743  44.415  56.048  1.00  0.00    -0.003 C 
ATOM     18  C   UNL     1      17.148  42.998  55.642  1.00  0.00     0.004 C 
ENDBRANCH  16  17
ENDBRANCH  15  16
ENDBRANCH  14  15
ENDBRANCH  13  14
ENDBRANCH  12  13
ENDBRANCH  11  12
ENDBRANCH   1  11
TORSDOF 14
ENDMDL
MODEL 8
REMARK VINA RESULT:    13.092      1.131      2.134
REMARK INTER + INTRA:          23.042
REMARK INTER:                  21.743
REMARK INTRA:                   1.299
REMARK UNBOUND:                -0.766
REMARK SMILES CCCCCCCCCCCCCCCC(=O)[O-]
REMARK SMILES IDX 9 1 10 2 11 3 12 4 13 5 14 6 15 7 16 8 17 9 18 10 8 11 7 12
REMARK SMILES IDX 6 13 5 14 4 15 3 16 2 17 1 18
REMARK H PARENT
REMARK Flexibility Score: inf
ROOT
ATOM      1  C   UNL     1      15.041  50.538  61.181  1.00  0.00     0.000 C 
ENDROOT
BRANCH   1   2
ATOM      2  C   UNL     1      16.201  51.309  60.527  1.00  0.00     0.000 C 
BRANCH   2   3
ATOM      3  C   UNL     1      16.865  50.522  59.386  1.00  0.00     0.000 C 
BRANCH   3   4
ATOM      4  C   UNL     1      16.276  49.114  59.219  1.00  0.00     0.000 C 
BRANCH   4   5
ATOM      5  C   UNL     1      16.658  48.517  57.859  1.00  0.00     0.000 C 
BRANCH   5   6
ATOM      6  C   UNL     1      16.981  47.023  57.983  1.00  0.00     0.006 C 
BRANCH   6   7
ATOM      7  C   UNL     1      16.255  46.212  56.907  1.00  0.00     0.053 C 
BRANCH   7   8
ATOM      8  C   UNL     1      17.060  45.011  56.523  1.00  0.00     0.041 C 
ATOM      9  O   UNL     1      16.499  43.892  56.385  1.00  0.00    -0.550 OA
ATOM     10  O   UNL     1      18.436  45.116  56.367  1.00  0.00    -0.550 OA
ENDBRANCH   7   8
ENDBRANCH   6   7
ENDBRANCH   5   6
ENDBRANCH   4   5
ENDBRANCH   3   4
ENDBRANCH   2   3
ENDBRANCH   1   2
BRANCH   1  11
ATOM     11  C   UNL     1      14.309  51.367  62.247  1.00  0.00     0.000 C 
BRANCH  11  12
ATOM     12  C   UNL     1      14.973  52.735  62.488  1.00  0.00    -0.000 C 
BRANCH  12  13
ATOM     13  C   UNL     1      13.993  53.774  63.056  1.00  0.00    -0.000 C 
BRANCH  13  14
ATOM     14  C   UNL     1      14.699  55.063  63.512  1.00  0.00    -0.000 C 
BRANCH  14  15
ATOM     15  C   UNL     1      16.167  55.125  63.063  1.00  0.00    -0.000 C 
BRANCH  15  16
ATOM     16  C   UNL     1      16.317  55.092  61.532  1.00  0.00    -0.000 C 
BRANCH  16  17
ATOM     17  C   UNL     1      14.968  54.939  60.812  1.00  0.00    -0.003 C 
ATOM     18  C   UNL     1      15.122  54.601  59.330  1.00  0.00     0.004 C 
ENDBRANCH  16  17
ENDBRANCH  15  16
ENDBRANCH  14  15
ENDBRANCH  13  14
ENDBRANCH  12  13
ENDBRANCH  11  12
ENDBRANCH   1  11
TORSDOF 14
ENDMDL
