MODEL 1
REMARK VINA RESULT:    -3.689      0.000      0.000
REMARK INTER + INTRA:          -5.561
REMARK INTER:                  -4.983
REMARK INTRA:                  -0.578
REMARK UNBOUND:                -0.578
REMARK SMILES [NH3+]CCCC[C@@H]([NH3+])C(=O)[O-]
REMARK SMILES IDX 4 1 3 2 2 3 1 4 5 8 6 9 7 10 8 14 9 15 10 16
REMARK H PARENT 1 5 1 6 1 7 7 11 7 12 7 13
REMARK Flexibility Score: inf
ROOT
ATOM      1  C   UNL     1     -23.789  85.217  75.154  1.00  0.00     0.012 C 
ENDROOT
BRANCH   1   2
ATOM      2  C   UNL     1     -23.702  84.611  76.563  1.00  0.00     0.061 C 
BRANCH   2   3
ATOM      3  C   UNL     1     -24.689  83.449  76.769  1.00  0.00     0.258 C 
BRANCH   3   4
ATOM      4  N   UNL     1     -25.136  82.872  75.499  1.00  0.00    -0.358 N 
ATOM      5  H   UNL     1     -24.653  81.957  75.354  1.00  0.00     0.344 HD
ATOM      6  H   UNL     1     -26.168  82.708  75.518  1.00  0.00     0.344 HD
ATOM      7  H   UNL     1     -24.888  83.505  74.705  1.00  0.00     0.344 HD
ENDBRANCH   3   4
ENDBRANCH   2   3
ENDBRANCH   1   2
BRANCH   1   8
ATOM      8  C   UNL     1     -24.589  86.528  75.169  1.00  0.00     0.072 C 
BRANCH   8   9
ATOM      9  C   UNL     1     -25.831  86.466  74.252  1.00  0.00     0.227 C 
BRANCH   9  10
ATOM     10  N   UNL     1     -25.627  85.489  73.177  1.00  0.00    -0.350 N 
ATOM     11  H   UNL     1     -26.059  84.574  73.442  1.00  0.00     0.345 HD
ATOM     12  H   UNL     1     -26.087  85.825  72.300  1.00  0.00     0.345 HD
ATOM     13  H   UNL     1     -24.606  85.346  72.995  1.00  0.00     0.345 HD
ENDBRANCH   9  10
BRANCH   9  14
ATOM     14  C   UNL     1     -27.066  86.115  75.040  1.00  0.00     0.099 C 
ATOM     15  O   UNL     1     -27.472  84.924  75.083  1.00  0.00    -0.544 OA
ATOM     16  O   UNL     1     -27.767  87.102  75.723  1.00  0.00    -0.544 OA
ENDBRANCH   9  14
ENDBRANCH   8   9
ENDBRANCH   1   8
TORSDOF 7
ENDMDL
MODEL 2
REMARK VINA RESULT:    -3.663      2.755      3.501
REMARK INTER + INTRA:          -5.526
REMARK INTER:                  -5.335
REMARK INTRA:                  -0.191
REMARK UNBOUND:                -0.578
REMARK SMILES [NH3+]CCCC[C@@H]([NH3+])C(=O)[O-]
REMARK SMILES IDX 4 1 3 2 2 3 1 4 5 8 6 9 7 10 8 14 9 15 10 16
REMARK H PARENT 1 5 1 6 1 7 7 11 7 12 7 13
REMARK Flexibility Score: inf
ROOT
ATOM      1  C   UNL     1     -27.539  84.296  75.334  1.00  0.00     0.012 C 
ENDROOT
BRANCH   1   2
ATOM      2  C   UNL     1     -26.948  83.228  74.402  1.00  0.00     0.061 C 
BRANCH   2   3
ATOM      3  C   UNL     1     -28.020  82.293  73.818  1.00  0.00     0.258 C 
BRANCH   3   4
ATOM      4  N   UNL     1     -27.848  82.084  72.379  1.00  0.00    -0.358 N 
ATOM      5  H   UNL     1     -28.723  82.378  71.887  1.00  0.00     0.344 HD
ATOM      6  H   UNL     1     -27.052  82.659  72.020  1.00  0.00     0.344 HD
ATOM      7  H   UNL     1     -27.681  81.072  72.175  1.00  0.00     0.344 HD
ENDBRANCH   3   4
ENDBRANCH   2   3
ENDBRANCH   1   2
BRANCH   1   8
ATOM      8  C   UNL     1     -27.012  85.693  74.973  1.00  0.00     0.072 C 
BRANCH   8   9
ATOM      9  C   UNL     1     -25.702  85.631  74.156  1.00  0.00     0.227 C 
BRANCH   9  10
ATOM     10  N   UNL     1     -25.774  86.536  73.003  1.00  0.00    -0.350 N 
ATOM     11  H   UNL     1     -24.865  86.524  72.485  1.00  0.00     0.345 HD
ATOM     12  H   UNL     1     -26.526  86.217  72.349  1.00  0.00     0.345 HD
ATOM     13  H   UNL     1     -25.981  87.514  73.312  1.00  0.00     0.345 HD
ENDBRANCH   9  10
BRANCH   9  14
ATOM     14  C   UNL     1     -24.515  85.985  75.014  1.00  0.00     0.099 C 
ATOM     15  O   UNL     1     -24.258  87.190  75.274  1.00  0.00    -0.544 OA
ATOM     16  O   UNL     1     -23.693  84.985  75.522  1.00  0.00    -0.544 OA
ENDBRANCH   9  14
ENDBRANCH   8   9
ENDBRANCH   1   8
TORSDOF 7
ENDMDL
MODEL 3
REMARK VINA RESULT:    -3.615      2.888      4.408
REMARK INTER + INTRA:          -5.460
REMARK INTER:                  -5.290
REMARK INTRA:                  -0.170
REMARK UNBOUND:                -0.578
REMARK SMILES [NH3+]CCCC[C@@H]([NH3+])C(=O)[O-]
REMARK SMILES IDX 4 1 3 2 2 3 1 4 5 8 6 9 7 10 8 14 9 15 10 16
REMARK H PARENT 1 5 1 6 1 7 7 11 7 12 7 13
REMARK Flexibility Score: inf
ROOT
ATOM      1  C   UNL     1     -23.827  85.210  75.125  1.00  0.00     0.012 C 
ENDROOT
BRANCH   1   2
ATOM      2  C   UNL     1     -24.556  86.562  75.105  1.00  0.00     0.061 C 
BRANCH   2   3
ATOM      3  C   UNL     1     -25.916  86.489  74.391  1.00  0.00     0.258 C 
BRANCH   3   4
ATOM      4  N   UNL     1     -25.779  86.544  72.934  1.00  0.00    -0.358 N 
ATOM      5  H   UNL     1     -24.770  86.678  72.693  1.00  0.00     0.344 HD
ATOM      6  H   UNL     1     -26.112  85.652  72.503  1.00  0.00     0.344 HD
ATOM      7  H   UNL     1     -26.319  87.353  72.548  1.00  0.00     0.344 HD
ENDBRANCH   3   4
ENDBRANCH   2   3
ENDBRANCH   1   2
BRANCH   1   8
ATOM      8  C   UNL     1     -23.814  84.614  76.541  1.00  0.00     0.072 C 
BRANCH   8   9
ATOM      9  C   UNL     1     -24.703  83.356  76.655  1.00  0.00     0.227 C 
BRANCH   9  10
ATOM     10  N   UNL     1     -25.156  82.926  75.327  1.00  0.00    -0.350 N 
ATOM     11  H   UNL     1     -25.663  82.015  75.402  1.00  0.00     0.345 HD
ATOM     12  H   UNL     1     -25.815  83.635  74.931  1.00  0.00     0.345 HD
ATOM     13  H   UNL     1     -24.343  82.815  74.677  1.00  0.00     0.345 HD
ENDBRANCH   9  10
BRANCH   9  14
ATOM     14  C   UNL     1     -23.964  82.233  77.335  1.00  0.00     0.099 C 
ATOM     15  O   UNL     1     -22.856  82.450  77.891  1.00  0.00    -0.544 OA
ATOM     16  O   UNL     1     -24.499  80.950  77.351  1.00  0.00    -0.544 OA
ENDBRANCH   9  14
ENDBRANCH   8   9
ENDBRANCH   1   8
TORSDOF 7
ENDMDL
MODEL 4
REMARK VINA RESULT:    -3.607      1.676      1.973
REMARK INTER + INTRA:          -5.450
REMARK INTER:                  -4.934
REMARK INTRA:                  -0.516
REMARK UNBOUND:                -0.578
REMARK SMILES [NH3+]CCCC[C@@H]([NH3+])C(=O)[O-]
REMARK SMILES IDX 4 1 3 2 2 3 1 4 5 8 6 9 7 10 8 14 9 15 10 16
REMARK H PARENT 1 5 1 6 1 7 7 11 7 12 7 13
REMARK Flexibility Score: inf
ROOT
ATOM      1  C   UNL     1     -23.895  84.932  76.467  1.00  0.00     0.012 C 
ENDROOT
BRANCH   1   2
ATOM      2  C   UNL     1     -23.850  83.477  76.956  1.00  0.00     0.061 C 
BRANCH   2   3
ATOM      3  C   UNL     1     -25.115  82.687  76.579  1.00  0.00     0.258 C 
BRANCH   3   4
ATOM      4  N   UNL     1     -25.267  82.546  75.129  1.00  0.00    -0.358 N 
ATOM      5  H   UNL     1     -26.232  82.203  74.921  1.00  0.00     0.344 HD
ATOM      6  H   UNL     1     -25.129  83.468  74.657  1.00  0.00     0.344 HD
ATOM      7  H   UNL     1     -24.583  81.847  74.758  1.00  0.00     0.344 HD
ENDBRANCH   3   4
ENDBRANCH   2   3
ENDBRANCH   1   2
BRANCH   1   8
ATOM      8  C   UNL     1     -25.132  85.658  77.016  1.00  0.00     0.072 C 
BRANCH   8   9
ATOM      9  C   UNL     1     -25.699  86.689  76.015  1.00  0.00     0.227 C 
BRANCH   9  10
ATOM     10  N   UNL     1     -24.704  87.729  75.732  1.00  0.00    -0.350 N 
ATOM     11  H   UNL     1     -23.925  87.675  76.428  1.00  0.00     0.345 HD
ATOM     12  H   UNL     1     -24.300  87.582  74.778  1.00  0.00     0.345 HD
ATOM     13  H   UNL     1     -25.139  88.679  75.776  1.00  0.00     0.345 HD
ENDBRANCH   9  10
BRANCH   9  14
ATOM     14  C   UNL     1     -26.123  86.019  74.733  1.00  0.00     0.099 C 
ATOM     15  O   UNL     1     -25.639  86.395  73.633  1.00  0.00    -0.544 OA
ATOM     16  O   UNL     1     -27.051  84.985  74.756  1.00  0.00    -0.544 OA
ENDBRANCH   9  14
ENDBRANCH   8   9
ENDBRANCH   1   8
TORSDOF 7
ENDMDL
MODEL 5
REMARK VINA RESULT:    -3.605      2.890      3.879
REMARK INTER + INTRA:          -5.447
REMARK INTER:                  -4.850
REMARK INTRA:                  -0.597
REMARK UNBOUND:                -0.578
REMARK SMILES [NH3+]CCCC[C@@H]([NH3+])C(=O)[O-]
REMARK SMILES IDX 4 1 3 2 2 3 1 4 5 8 6 9 7 10 8 14 9 15 10 16
REMARK H PARENT 1 5 1 6 1 7 7 11 7 12 7 13
REMARK Flexibility Score: inf
ROOT
ATOM      1  C   UNL     1     -25.273  86.891  74.506  1.00  0.00     0.012 C 
ENDROOT
BRANCH   1   2
ATOM      2  C   UNL     1     -26.408  87.386  75.414  1.00  0.00     0.061 C 
BRANCH   2   3
ATOM      3  C   UNL     1     -25.918  88.366  76.493  1.00  0.00     0.258 C 
BRANCH   3   4
ATOM      4  N   UNL     1     -25.400  87.673  77.675  1.00  0.00    -0.358 N 
ATOM      5  H   UNL     1     -25.423  88.329  78.489  1.00  0.00     0.344 HD
ATOM      6  H   UNL     1     -25.992  86.841  77.898  1.00  0.00     0.344 HD
ATOM      7  H   UNL     1     -24.410  87.377  77.519  1.00  0.00     0.344 HD
ENDBRANCH   3   4
ENDBRANCH   2   3
ENDBRANCH   1   2
BRANCH   1   8
ATOM      8  C   UNL     1     -25.113  85.367  74.609  1.00  0.00     0.072 C 
BRANCH   8   9
ATOM      9  C   UNL     1     -23.822  84.963  75.355  1.00  0.00     0.227 C 
BRANCH   9  10
ATOM     10  N   UNL     1     -22.951  86.129  75.542  1.00  0.00    -0.350 N 
ATOM     11  H   UNL     1     -22.299  86.219  74.729  1.00  0.00     0.345 HD
ATOM     12  H   UNL     1     -23.531  86.999  75.594  1.00  0.00     0.345 HD
ATOM     13  H   UNL     1     -22.393  86.037  76.422  1.00  0.00     0.345 HD
ENDBRANCH   9  10
BRANCH   9  14
ATOM     14  C   UNL     1     -24.142  84.340  76.689  1.00  0.00     0.099 C 
ATOM     15  O   UNL     1     -23.357  83.497  77.198  1.00  0.00    -0.544 OA
ATOM     16  O   UNL     1     -25.305  84.690  77.366  1.00  0.00    -0.544 OA
ENDBRANCH   9  14
ENDBRANCH   8   9
ENDBRANCH   1   8
TORSDOF 7
ENDMDL
MODEL 6
REMARK VINA RESULT:    -3.545      2.403      4.089
REMARK INTER + INTRA:          -5.366
REMARK INTER:                  -4.841
REMARK INTRA:                  -0.524
REMARK UNBOUND:                -0.578
REMARK SMILES [NH3+]CCCC[C@@H]([NH3+])C(=O)[O-]
REMARK SMILES IDX 4 1 3 2 2 3 1 4 5 8 6 9 7 10 8 14 9 15 10 16
REMARK H PARENT 1 5 1 6 1 7 7 11 7 12 7 13
REMARK Flexibility Score: inf
ROOT
ATOM      1  C   UNL     1     -27.170  84.731  75.122  1.00  0.00     0.012 C 
ENDROOT
BRANCH   1   2
ATOM      2  C   UNL     1     -26.964  86.227  74.841  1.00  0.00     0.061 C 
BRANCH   2   3
ATOM      3  C   UNL     1     -25.707  86.503  74.000  1.00  0.00     0.258 C 
BRANCH   3   4
ATOM      4  N   UNL     1     -24.679  87.218  74.761  1.00  0.00    -0.358 N 
ATOM      5  H   UNL     1     -25.067  87.473  75.698  1.00  0.00     0.344 HD
ATOM      6  H   UNL     1     -23.840  86.610  74.900  1.00  0.00     0.344 HD
ATOM      7  H   UNL     1     -24.406  88.098  74.266  1.00  0.00     0.344 HD
ENDBRANCH   3   4
ENDBRANCH   2   3
ENDBRANCH   1   2
BRANCH   1   8
ATOM      8  C   UNL     1     -26.460  84.312  76.418  1.00  0.00     0.072 C 
BRANCH   8   9
ATOM      9  C   UNL     1     -25.412  83.203  76.180  1.00  0.00     0.227 C 
BRANCH   9  10
ATOM     10  N   UNL     1     -25.355  82.849  74.757  1.00  0.00    -0.350 N 
ATOM     11  H   UNL     1     -26.288  82.498  74.441  1.00  0.00     0.345 HD
ATOM     12  H   UNL     1     -25.115  83.695  74.190  1.00  0.00     0.345 HD
ATOM     13  H   UNL     1     -24.635  82.109  74.589  1.00  0.00     0.345 HD
ENDBRANCH   9  10
BRANCH   9  14
ATOM     14  C   UNL     1     -24.050  83.637  76.657  1.00  0.00     0.099 C 
ATOM     15  O   UNL     1     -23.390  82.903  77.438  1.00  0.00    -0.544 OA
ATOM     16  O   UNL     1     -23.514  84.850  76.240  1.00  0.00    -0.544 OA
ENDBRANCH   9  14
ENDBRANCH   8   9
ENDBRANCH   1   8
TORSDOF 7
ENDMDL
MODEL 7
REMARK VINA RESULT:    -3.514      3.096      4.071
REMARK INTER + INTRA:          -5.325
REMARK INTER:                  -5.082
REMARK INTRA:                  -0.243
REMARK UNBOUND:                -0.578
REMARK SMILES [NH3+]CCCC[C@@H]([NH3+])C(=O)[O-]
REMARK SMILES IDX 4 1 3 2 2 3 1 4 5 8 6 9 7 10 8 14 9 15 10 16
REMARK H PARENT 1 5 1 6 1 7 7 11 7 12 7 13
REMARK Flexibility Score: inf
ROOT
ATOM      1  C   UNL     1     -27.150  87.024  75.530  1.00  0.00     0.012 C 
ENDROOT
BRANCH   1   2
ATOM      2  C   UNL     1     -26.673  88.388  76.051  1.00  0.00     0.061 C 
BRANCH   2   3
ATOM      3  C   UNL     1     -26.034  88.297  77.447  1.00  0.00     0.258 C 
BRANCH   3   4
ATOM      4  N   UNL     1     -25.283  89.507  77.791  1.00  0.00    -0.358 N 
ATOM      5  H   UNL     1     -24.982  89.445  78.791  1.00  0.00     0.344 HD
ATOM      6  H   UNL     1     -24.433  89.591  77.189  1.00  0.00     0.344 HD
ATOM      7  H   UNL     1     -25.887  90.353  77.681  1.00  0.00     0.344 HD
ENDBRANCH   3   4
ENDBRANCH   2   3
ENDBRANCH   1   2
BRANCH   1   8
ATOM      8  C   UNL     1     -26.235  86.514  74.407  1.00  0.00     0.072 C 
BRANCH   8   9
ATOM      9  C   UNL     1     -25.365  85.320  74.857  1.00  0.00     0.227 C 
BRANCH   9  10
ATOM     10  N   UNL     1     -25.183  84.372  73.751  1.00  0.00    -0.350 N 
ATOM     11  H   UNL     1     -24.276  83.865  73.864  1.00  0.00     0.345 HD
ATOM     12  H   UNL     1     -25.955  83.667  73.759  1.00  0.00     0.345 HD
ATOM     13  H   UNL     1     -25.186  84.872  72.832  1.00  0.00     0.345 HD
ENDBRANCH   9  10
BRANCH   9  14
ATOM     14  C   UNL     1     -24.023  85.789  75.358  1.00  0.00     0.099 C 
ATOM     15  O   UNL     1     -23.285  85.008  76.013  1.00  0.00    -0.544 OA
ATOM     16  O   UNL     1     -23.594  87.087  75.105  1.00  0.00    -0.544 OA
ENDBRANCH   9  14
ENDBRANCH   8   9
ENDBRANCH   1   8
TORSDOF 7
ENDMDL
MODEL 8
REMARK VINA RESULT:    -3.473      1.973      2.609
REMARK INTER + INTRA:          -5.268
REMARK INTER:                  -4.807
REMARK INTRA:                  -0.461
REMARK UNBOUND:                -0.578
REMARK SMILES [NH3+]CCCC[C@@H]([NH3+])C(=O)[O-]
REMARK SMILES IDX 4 1 3 2 2 3 1 4 5 8 6 9 7 10 8 14 9 15 10 16
REMARK H PARENT 1 5 1 6 1 7 7 11 7 12 7 13
REMARK Flexibility Score: inf
ROOT
ATOM      1  C   UNL     1     -27.444  84.224  75.121  1.00  0.00     0.012 C 
ENDROOT
BRANCH   1   2
ATOM      2  C   UNL     1     -26.870  83.676  76.436  1.00  0.00     0.061 C 
BRANCH   2   3
ATOM      3  C   UNL     1     -25.903  82.501  76.215  1.00  0.00     0.258 C 
BRANCH   3   4
ATOM      4  N   UNL     1     -24.505  82.935  76.175  1.00  0.00    -0.358 N 
ATOM      5  H   UNL     1     -23.889  82.111  76.362  1.00  0.00     0.344 HD
ATOM      6  H   UNL     1     -24.271  83.322  75.233  1.00  0.00     0.344 HD
ATOM      7  H   UNL     1     -24.326  83.654  76.913  1.00  0.00     0.344 HD
ENDBRANCH   3   4
ENDBRANCH   2   3
ENDBRANCH   1   2
BRANCH   1   8
ATOM      8  C   UNL     1     -27.036  85.690  74.911  1.00  0.00     0.072 C 
BRANCH   8   9
ATOM      9  C   UNL     1     -25.658  85.822  74.225  1.00  0.00     0.227 C 
BRANCH   9  10
ATOM     10  N   UNL     1     -25.767  86.639  73.011  1.00  0.00    -0.350 N 
ATOM     11  H   UNL     1     -26.584  86.323  72.441  1.00  0.00     0.345 HD
ATOM     12  H   UNL     1     -25.918  87.641  73.271  1.00  0.00     0.345 HD
ATOM     13  H   UNL     1     -24.896  86.564  72.435  1.00  0.00     0.345 HD
ENDBRANCH   9  10
BRANCH   9  14
ATOM     14  C   UNL     1     -24.644  86.424  75.162  1.00  0.00     0.099 C 
ATOM     15  O   UNL     1     -23.570  85.814  75.408  1.00  0.00    -0.544 OA
ATOM     16  O   UNL     1     -24.887  87.653  75.763  1.00  0.00    -0.544 OA
ENDBRANCH   9  14
ENDBRANCH   8   9
ENDBRANCH   1   8
TORSDOF 7
ENDMDL
MODEL 9
REMARK VINA RESULT:    -3.468      2.068      2.576
REMARK INTER + INTRA:          -5.263
REMARK INTER:                  -4.698
REMARK INTRA:                  -0.565
REMARK UNBOUND:                -0.578
REMARK SMILES [NH3+]CCCC[C@@H]([NH3+])C(=O)[O-]
REMARK SMILES IDX 4 1 3 2 2 3 1 4 5 8 6 9 7 10 8 14 9 15 10 16
REMARK H PARENT 1 5 1 6 1 7 7 11 7 12 7 13
REMARK Flexibility Score: inf
ROOT
ATOM      1  C   UNL     1     -25.272  83.346  76.183  1.00  0.00     0.012 C 
ENDROOT
BRANCH   1   2
ATOM      2  C   UNL     1     -26.701  82.980  75.757  1.00  0.00     0.061 C 
BRANCH   2   3
ATOM      3  C   UNL     1     -26.846  82.839  74.232  1.00  0.00     0.258 C 
BRANCH   3   4
ATOM      4  N   UNL     1     -25.547  82.781  73.557  1.00  0.00    -0.358 N 
ATOM      5  H   UNL     1     -25.674  82.340  72.617  1.00  0.00     0.344 HD
ATOM      6  H   UNL     1     -25.161  83.744  73.427  1.00  0.00     0.344 HD
ATOM      7  H   UNL     1     -24.877  82.197  74.107  1.00  0.00     0.344 HD
ENDBRANCH   3   4
ENDBRANCH   2   3
ENDBRANCH   1   2
BRANCH   1   8
ATOM      8  C   UNL     1     -25.207  84.792  76.699  1.00  0.00     0.072 C 
BRANCH   8   9
ATOM      9  C   UNL     1     -24.470  85.731  75.719  1.00  0.00     0.227 C 
BRANCH   9  10
ATOM     10  N   UNL     1     -23.398  85.008  75.024  1.00  0.00    -0.350 N 
ATOM     11  H   UNL     1     -23.362  84.018  75.360  1.00  0.00     0.345 HD
ATOM     12  H   UNL     1     -23.588  84.997  73.995  1.00  0.00     0.345 HD
ATOM     13  H   UNL     1     -22.472  85.464  75.197  1.00  0.00     0.345 HD
ENDBRANCH   9  10
BRANCH   9  14
ATOM     14  C   UNL     1     -25.426  86.322  74.716  1.00  0.00     0.099 C 
ATOM     15  O   UNL     1     -25.427  85.913  73.525  1.00  0.00    -0.544 OA
ATOM     16  O   UNL     1     -26.312  87.323  75.097  1.00  0.00    -0.544 OA
ENDBRANCH   9  14
ENDBRANCH   8   9
ENDBRANCH   1   8
TORSDOF 7
ENDMDL
