MODEL 1
REMARK VINA RESULT:    -3.131      0.000      0.000
REMARK INTER + INTRA:          -3.405
REMARK INTER:                  -3.405
REMARK INTRA:                   0.000
REMARK UNBOUND:                 0.000
REMARK SMILES [NH3+]CC(=O)[O-]
REMARK SMILES IDX 2 1 1 2 3 6 4 7 5 8
REMARK H PARENT 1 3 1 4 1 5
REMARK Flexibility Score: inf
ROOT
ATOM      1  C   UNL     1      29.629  18.041  21.478  1.00  0.00     0.312 C 
ENDROOT
BRANCH   1   2
ATOM      2  N   UNL     1      30.151  19.405  21.504  1.00  0.00    -0.353 N 
ATOM      3  H   UNL     1      30.179  19.762  22.487  1.00  0.00     0.344 HD
ATOM      4  H   UNL     1      31.122  19.407  21.115  1.00  0.00     0.344 HD
ATOM      5  H   UNL     1      29.550  20.030  20.918  1.00  0.00     0.344 HD
ENDBRANCH   1   2
BRANCH   1   6
ATOM      6  C   UNL     1      29.313  17.621  20.076  1.00  0.00     0.096 C 
ATOM      7  O   UNL     1      30.156  17.799  19.156  1.00  0.00    -0.544 OA
ATOM      8  O   UNL     1      28.108  16.990  19.794  1.00  0.00    -0.544 OA
ENDBRANCH   1   6
TORSDOF 2
ENDMDL
MODEL 2
REMARK VINA RESULT:    -3.124      0.076      1.450
REMARK INTER + INTRA:          -3.398
REMARK INTER:                  -3.398
REMARK INTRA:                   0.000
REMARK UNBOUND:                 0.000
REMARK SMILES [NH3+]CC(=O)[O-]
REMARK SMILES IDX 2 1 1 2 3 6 4 7 5 8
REMARK H PARENT 1 3 1 4 1 5
REMARK Flexibility Score: inf
ROOT
ATOM      1  C   UNL     1      29.601  18.009  21.469  1.00  0.00     0.312 C 
ENDROOT
BRANCH   1   2
ATOM      2  N   UNL     1      30.131  19.371  21.463  1.00  0.00    -0.353 N 
ATOM      3  H   UNL     1      29.664  19.942  22.205  1.00  0.00     0.344 HD
ATOM      4  H   UNL     1      31.158  19.339  21.656  1.00  0.00     0.344 HD
ATOM      5  H   UNL     1      29.976  19.812  20.527  1.00  0.00     0.344 HD
ENDBRANCH   1   2
BRANCH   1   6
ATOM      6  C   UNL     1      29.264  17.567  20.078  1.00  0.00     0.096 C 
ATOM      7  O   UNL     1      28.146  17.040  19.834  1.00  0.00    -0.544 OA
ATOM      8  O   UNL     1      30.165  17.783  19.043  1.00  0.00    -0.544 OA
ENDBRANCH   1   6
TORSDOF 2
ENDMDL
MODEL 3
REMARK VINA RESULT:    -2.993      2.204      2.669
REMARK INTER + INTRA:          -3.256
REMARK INTER:                  -3.256
REMARK INTRA:                   0.000
REMARK UNBOUND:                 0.000
REMARK SMILES [NH3+]CC(=O)[O-]
REMARK SMILES IDX 2 1 1 2 3 6 4 7 5 8
REMARK H PARENT 1 3 1 4 1 5
REMARK Flexibility Score: inf
ROOT
ATOM      1  C   UNL     1      29.609  17.601  19.532  1.00  0.00     0.312 C 
ENDROOT
BRANCH   1   2
ATOM      2  N   UNL     1      30.441  18.213  18.499  1.00  0.00    -0.353 N 
ATOM      3  H   UNL     1      30.885  17.471  17.909  1.00  0.00     0.344 HD
ATOM      4  H   UNL     1      29.843  18.816  17.890  1.00  0.00     0.344 HD
ATOM      5  H   UNL     1      31.183  18.805  18.939  1.00  0.00     0.344 HD
ENDBRANCH   1   2
BRANCH   1   6
ATOM      6  C   UNL     1      29.742  16.110  19.504  1.00  0.00     0.096 C 
ATOM      7  O   UNL     1      28.735  15.388  19.272  1.00  0.00    -0.544 OA
ATOM      8  O   UNL     1      30.986  15.519  19.685  1.00  0.00    -0.544 OA
ENDBRANCH   1   6
TORSDOF 2
ENDMDL
MODEL 4
REMARK VINA RESULT:    -2.962      2.567      2.708
REMARK INTER + INTRA:          -3.221
REMARK INTER:                  -3.221
REMARK INTRA:                   0.000
REMARK UNBOUND:                 0.000
REMARK SMILES [NH3+]CC(=O)[O-]
REMARK SMILES IDX 2 1 1 2 3 6 4 7 5 8
REMARK H PARENT 1 3 1 4 1 5
REMARK Flexibility Score: inf
ROOT
ATOM      1  C   UNL     1      29.492  17.048  19.097  1.00  0.00     0.312 C 
ENDROOT
BRANCH   1   2
ATOM      2  N   UNL     1      30.284  18.021  18.348  1.00  0.00    -0.353 N 
ATOM      3  H   UNL     1      30.903  17.530  17.662  1.00  0.00     0.344 HD
ATOM      4  H   UNL     1      29.640  18.659  17.828  1.00  0.00     0.344 HD
ATOM      5  H   UNL     1      30.867  18.590  19.005  1.00  0.00     0.344 HD
ENDBRANCH   1   2
BRANCH   1   6
ATOM      6  C   UNL     1      30.350  16.308  20.075  1.00  0.00     0.096 C 
ATOM      7  O   UNL     1      31.026  15.312  19.699  1.00  0.00    -0.544 OA
ATOM      8  O   UNL     1      30.444  16.746  21.390  1.00  0.00    -0.544 OA
ENDBRANCH   1   6
TORSDOF 2
ENDMDL
MODEL 5
REMARK VINA RESULT:    -2.925      1.976      2.590
REMARK INTER + INTRA:          -3.182
REMARK INTER:                  -3.182
REMARK INTRA:                   0.000
REMARK UNBOUND:                 0.000
REMARK SMILES [NH3+]CC(=O)[O-]
REMARK SMILES IDX 2 1 1 2 3 6 4 7 5 8
REMARK H PARENT 1 3 1 4 1 5
REMARK Flexibility Score: inf
ROOT
ATOM      1  C   UNL     1      29.793  17.008  19.092  1.00  0.00     0.312 C 
ENDROOT
BRANCH   1   2
ATOM      2  N   UNL     1      30.272  18.096  18.242  1.00  0.00    -0.353 N 
ATOM      3  H   UNL     1      30.865  17.714  17.470  1.00  0.00     0.344 HD
ATOM      4  H   UNL     1      29.451  18.591  17.826  1.00  0.00     0.344 HD
ATOM      5  H   UNL     1      30.827  18.777  18.810  1.00  0.00     0.344 HD
ENDBRANCH   1   2
BRANCH   1   6
ATOM      6  C   UNL     1      29.172  17.549  20.343  1.00  0.00     0.096 C 
ATOM      7  O   UNL     1      28.156  16.991  20.838  1.00  0.00    -0.544 OA
ATOM      8  O   UNL     1      29.744  18.638  20.989  1.00  0.00    -0.544 OA
ENDBRANCH   1   6
TORSDOF 2
ENDMDL
MODEL 6
REMARK VINA RESULT:    -2.892      2.513      3.063
REMARK INTER + INTRA:          -3.146
REMARK INTER:                  -3.146
REMARK INTRA:                   0.000
REMARK UNBOUND:                 0.000
REMARK SMILES [NH3+]CC(=O)[O-]
REMARK SMILES IDX 2 1 1 2 3 6 4 7 5 8
REMARK H PARENT 1 3 1 4 1 5
REMARK Flexibility Score: inf
ROOT
ATOM      1  C   UNL     1      29.575  18.260  21.542  1.00  0.00     0.312 C 
ENDROOT
BRANCH   1   2
ATOM      2  N   UNL     1      30.266  19.538  21.704  1.00  0.00    -0.353 N 
ATOM      3  H   UNL     1      31.294  19.411  21.560  1.00  0.00     0.344 HD
ATOM      4  H   UNL     1      29.905  20.214  20.993  1.00  0.00     0.344 HD
ATOM      5  H   UNL     1      30.088  19.923  22.660  1.00  0.00     0.344 HD
ENDBRANCH   1   2
BRANCH   1   6
ATOM      6  C   UNL     1      28.740  17.955  22.747  1.00  0.00     0.096 C 
ATOM      7  O   UNL     1      27.653  17.329  22.623  1.00  0.00    -0.544 OA
ATOM      8  O   UNL     1      29.186  18.316  24.012  1.00  0.00    -0.544 OA
ENDBRANCH   1   6
TORSDOF 2
ENDMDL
MODEL 7
REMARK VINA RESULT:    -2.859      2.502      2.849
REMARK INTER + INTRA:          -3.110
REMARK INTER:                  -3.110
REMARK INTRA:                   0.000
REMARK UNBOUND:                 0.000
REMARK SMILES [NH3+]CC(=O)[O-]
REMARK SMILES IDX 2 1 1 2 3 6 4 7 5 8
REMARK H PARENT 1 3 1 4 1 5
REMARK Flexibility Score: inf
ROOT
ATOM      1  C   UNL     1      28.657  15.655  19.519  1.00  0.00     0.312 C 
ENDROOT
BRANCH   1   2
ATOM      2  N   UNL     1      27.763  16.600  20.186  1.00  0.00    -0.353 N 
ATOM      3  H   UNL     1      28.321  17.325  20.695  1.00  0.00     0.344 HD
ATOM      4  H   UNL     1      27.167  17.072  19.469  1.00  0.00     0.344 HD
ATOM      5  H   UNL     1      27.145  16.093  20.861  1.00  0.00     0.344 HD
ENDBRANCH   1   2
BRANCH   1   6
ATOM      6  C   UNL     1      30.053  16.193  19.471  1.00  0.00     0.096 C 
ATOM      7  O   UNL     1      30.261  17.390  19.136  1.00  0.00    -0.544 OA
ATOM      8  O   UNL     1      31.122  15.387  19.844  1.00  0.00    -0.544 OA
ENDBRANCH   1   6
TORSDOF 2
ENDMDL
MODEL 8
REMARK VINA RESULT:    -2.846      2.488      2.772
REMARK INTER + INTRA:          -3.095
REMARK INTER:                  -3.095
REMARK INTRA:                   0.000
REMARK UNBOUND:                 0.000
REMARK SMILES [NH3+]CC(=O)[O-]
REMARK SMILES IDX 2 1 1 2 3 6 4 7 5 8
REMARK H PARENT 1 3 1 4 1 5
REMARK Flexibility Score: inf
ROOT
ATOM      1  C   UNL     1      28.566  15.759  19.463  1.00  0.00     0.312 C 
ENDROOT
BRANCH   1   2
ATOM      2  N   UNL     1      27.749  16.565  20.367  1.00  0.00    -0.353 N 
ATOM      3  H   UNL     1      26.734  16.366  20.209  1.00  0.00     0.344 HD
ATOM      4  H   UNL     1      27.992  16.324  21.355  1.00  0.00     0.344 HD
ATOM      5  H   UNL     1      27.937  17.582  20.210  1.00  0.00     0.344 HD
ENDBRANCH   1   2
BRANCH   1   6
ATOM      6  C   UNL     1      29.916  16.380  19.275  1.00  0.00     0.096 C 
ATOM      7  O   UNL     1      30.955  15.751  19.607  1.00  0.00    -0.544 OA
ATOM      8  O   UNL     1      30.028  17.634  18.686  1.00  0.00    -0.544 OA
ENDBRANCH   1   6
TORSDOF 2
ENDMDL
MODEL 9
REMARK VINA RESULT:    -2.763      2.604      2.635
REMARK INTER + INTRA:          -3.006
REMARK INTER:                  -3.006
REMARK INTRA:                   0.000
REMARK UNBOUND:                 0.000
REMARK SMILES [NH3+]CC(=O)[O-]
REMARK SMILES IDX 2 1 1 2 3 6 4 7 5 8
REMARK H PARENT 1 3 1 4 1 5
REMARK Flexibility Score: inf
ROOT
ATOM      1  C   UNL     1      28.065  16.518  22.597  1.00  0.00     0.312 C 
ENDROOT
BRANCH   1   2
ATOM      2  N   UNL     1      26.719  16.944  22.974  1.00  0.00    -0.353 N 
ATOM      3  H   UNL     1      26.523  16.679  23.967  1.00  0.00     0.344 HD
ATOM      4  H   UNL     1      26.650  17.983  22.881  1.00  0.00     0.344 HD
ATOM      5  H   UNL     1      26.013  16.499  22.344  1.00  0.00     0.344 HD
ENDBRANCH   1   2
BRANCH   1   6
ATOM      6  C   UNL     1      28.534  17.260  21.384  1.00  0.00     0.096 C 
ATOM      7  O   UNL     1      29.414  18.157  21.490  1.00  0.00    -0.544 OA
ATOM      8  O   UNL     1      28.036  16.928  20.130  1.00  0.00    -0.544 OA
ENDBRANCH   1   6
TORSDOF 2
ENDMDL
