MODEL 1
REMARK VINA RESULT:    -2.428      0.000      0.000
REMARK INTER + INTRA:          -2.428
REMARK INTER:                  -2.428
REMARK INTRA:                   0.000
REMARK UNBOUND:                 0.000
REMARK SMILES CC(=O)[O-]
REMARK SMILES IDX 1 1 2 2 3 3 4 4
REMARK H PARENT
REMARK Flexibility Score: inf
ROOT
ATOM      1  C   UNL     1      28.566   8.278  23.994  1.00  0.00     0.063 C 
ATOM      2  C   UNL     1      29.630   9.226  23.552  1.00  0.00     0.038 C 
ATOM      3  O   UNL     1      30.843   8.898  23.623  1.00  0.00    -0.550 OA
ATOM      4  O   UNL     1      29.281  10.477  23.061  1.00  0.00    -0.550 OA
ENDROOT
TORSDOF 0
ENDMDL
MODEL 2
REMARK VINA RESULT:    -2.406      0.356      1.636
REMARK INTER + INTRA:          -2.406
REMARK INTER:                  -2.406
REMARK INTRA:                   0.000
REMARK UNBOUND:                 0.000
REMARK SMILES CC(=O)[O-]
REMARK SMILES IDX 1 1 2 2 3 3 4 4
REMARK H PARENT
REMARK Flexibility Score: inf
ROOT
ATOM      1  C   UNL     1      28.581   8.238  24.122  1.00  0.00     0.063 C 
ATOM      2  C   UNL     1      29.727   9.055  23.628  1.00  0.00     0.038 C 
ATOM      3  O   UNL     1      29.524  10.065  22.905  1.00  0.00    -0.550 OA
ATOM      4  O   UNL     1      31.026   8.700  23.968  1.00  0.00    -0.550 OA
ENDROOT
TORSDOF 0
ENDMDL
MODEL 3
REMARK VINA RESULT:    -2.405      1.424      1.763
REMARK INTER + INTRA:          -2.405
REMARK INTER:                  -2.405
REMARK INTRA:                   0.000
REMARK UNBOUND:                 0.000
REMARK SMILES CC(=O)[O-]
REMARK SMILES IDX 1 1 2 2 3 3 4 4
REMARK H PARENT
REMARK Flexibility Score: inf
ROOT
ATOM      1  C   UNL     1      29.226  10.600  23.243  1.00  0.00     0.063 C 
ATOM      2  C   UNL     1      29.534   9.189  23.616  1.00  0.00     0.038 C 
ATOM      3  O   UNL     1      30.726   8.816  23.766  1.00  0.00    -0.550 OA
ATOM      4  O   UNL     1      28.499   8.281  23.797  1.00  0.00    -0.550 OA
ENDROOT
TORSDOF 0
ENDMDL
MODEL 4
REMARK VINA RESULT:    -2.403      1.368      2.080
REMARK INTER + INTRA:          -2.403
REMARK INTER:                  -2.403
REMARK INTRA:                   0.000
REMARK UNBOUND:                 0.000
REMARK SMILES CC(=O)[O-]
REMARK SMILES IDX 1 1 2 2 3 3 4 4
REMARK H PARENT
REMARK Flexibility Score: inf
ROOT
ATOM      1  C   UNL     1      29.199  10.644  23.215  1.00  0.00     0.063 C 
ATOM      2  C   UNL     1      29.544   9.235  23.562  1.00  0.00     0.038 C 
ATOM      3  O   UNL     1      28.635   8.390  23.771  1.00  0.00    -0.550 OA
ATOM      4  O   UNL     1      30.876   8.852  23.657  1.00  0.00    -0.550 OA
ENDROOT
TORSDOF 0
ENDMDL
MODEL 5
REMARK VINA RESULT:    -2.294      1.421      1.968
REMARK INTER + INTRA:          -2.294
REMARK INTER:                  -2.294
REMARK INTRA:                   0.000
REMARK UNBOUND:                 0.000
REMARK SMILES CC(=O)[O-]
REMARK SMILES IDX 1 1 2 2 3 3 4 4
REMARK H PARENT
REMARK Flexibility Score: inf
ROOT
ATOM      1  C   UNL     1      30.743   8.890  23.999  1.00  0.00     0.063 C 
ATOM      2  C   UNL     1      29.434   9.587  23.836  1.00  0.00     0.038 C 
ATOM      3  O   UNL     1      29.251  10.380  22.875  1.00  0.00    -0.550 OA
ATOM      4  O   UNL     1      28.412   9.363  24.749  1.00  0.00    -0.550 OA
ENDROOT
TORSDOF 0
ENDMDL
MODEL 6
REMARK VINA RESULT:    -2.247      1.557      2.161
REMARK INTER + INTRA:          -2.247
REMARK INTER:                  -2.247
REMARK INTRA:                   0.000
REMARK UNBOUND:                 0.000
REMARK SMILES CC(=O)[O-]
REMARK SMILES IDX 1 1 2 2 3 3 4 4
REMARK H PARENT
REMARK Flexibility Score: inf
ROOT
ATOM      1  C   UNL     1      28.302   7.899  24.175  1.00  0.00     0.063 C 
ATOM      2  C   UNL     1      29.667   8.194  24.699  1.00  0.00     0.038 C 
ATOM      3  O   UNL     1      30.545   8.688  23.946  1.00  0.00    -0.550 OA
ATOM      4  O   UNL     1      29.972   7.920  26.027  1.00  0.00    -0.550 OA
ENDROOT
TORSDOF 0
ENDMDL
MODEL 7
REMARK VINA RESULT:    -2.239     14.945     15.083
REMARK INTER + INTRA:          -2.239
REMARK INTER:                  -2.239
REMARK INTRA:                   0.000
REMARK UNBOUND:                 0.000
REMARK SMILES CC(=O)[O-]
REMARK SMILES IDX 1 1 2 2 3 3 4 4
REMARK H PARENT
REMARK Flexibility Score: inf
ROOT
ATOM      1  C   UNL     1      34.841  14.880  36.764  1.00  0.00     0.063 C 
ATOM      2  C   UNL     1      33.423  14.499  37.030  1.00  0.00     0.038 C 
ATOM      3  O   UNL     1      33.125  13.307  37.302  1.00  0.00    -0.550 OA
ATOM      4  O   UNL     1      32.426  15.464  36.977  1.00  0.00    -0.550 OA
ENDROOT
TORSDOF 0
ENDMDL
MODEL 8
REMARK VINA RESULT:    -2.233     14.516     14.742
REMARK INTER + INTRA:          -2.233
REMARK INTER:                  -2.233
REMARK INTRA:                   0.000
REMARK UNBOUND:                 0.000
REMARK SMILES CC(=O)[O-]
REMARK SMILES IDX 1 1 2 2 3 3 4 4
REMARK H PARENT
REMARK Flexibility Score: inf
ROOT
ATOM      1  C   UNL     1      34.866  14.811  36.602  1.00  0.00     0.063 C 
ATOM      2  C   UNL     1      33.463  14.304  36.607  1.00  0.00     0.038 C 
ATOM      3  O   UNL     1      32.596  14.823  35.857  1.00  0.00    -0.550 OA
ATOM      4  O   UNL     1      33.111  13.253  37.444  1.00  0.00    -0.550 OA
ENDROOT
TORSDOF 0
ENDMDL
MODEL 9
REMARK VINA RESULT:    -2.173      1.924      2.015
REMARK INTER + INTRA:          -2.173
REMARK INTER:                  -2.173
REMARK INTRA:                   0.000
REMARK UNBOUND:                 0.000
REMARK SMILES CC(=O)[O-]
REMARK SMILES IDX 1 1 2 2 3 3 4 4
REMARK H PARENT
REMARK Flexibility Score: inf
ROOT
ATOM      1  C   UNL     1      29.984   7.809  25.686  1.00  0.00     0.063 C 
ATOM      2  C   UNL     1      29.455   8.233  24.358  1.00  0.00     0.038 C 
ATOM      3  O   UNL     1      30.150   8.954  23.596  1.00  0.00    -0.550 OA
ATOM      4  O   UNL     1      28.187   7.831  23.959  1.00  0.00    -0.550 OA
ENDROOT
TORSDOF 0
ENDMDL
