MODEL 1
REMARK VINA RESULT:    -7.333      0.000      0.000
REMARK INTER + INTRA:          -8.911
REMARK INTER:                  -8.619
REMARK INTRA:                  -0.292
REMARK UNBOUND:                -0.292
REMARK SMILES O=c1cc(-c2ccc(O)c(O)c2)oc2cc(O)cc(O)c12
REMARK SMILES IDX 4 1 3 2 2 3 1 4 21 5 19 6 18 7 16 8 15 9 14 10 13 11 5 12
REMARK SMILES IDX 6 13 7 14 8 15 12 16 10 17 9 18 11 20 20 22 17 24
REMARK H PARENT 9 19 11 21 20 23 17 25
REMARK Flexibility Score: inf
ROOT
ATOM      1  C   UNL     1      29.255  23.318  48.846  1.00  0.00     0.138 A 
ATOM      2  C   UNL     1      30.530  22.749  48.963  1.00  0.00     0.100 A 
ATOM      3  C   UNL     1      30.962  22.270  50.201  1.00  0.00     0.197 A 
ATOM      4  O   UNL     1      32.087  21.708  50.260  1.00  0.00    -0.289 OA
ATOM      5  C   UNL     1      30.123  22.392  51.334  1.00  0.00     0.107 A 
ATOM      6  C   UNL     1      30.474  21.976  52.653  1.00  0.00     0.134 A 
ATOM      7  C   UNL     1      29.518  22.040  53.674  1.00  0.00     0.093 A 
ATOM      8  C   UNL     1      28.244  22.561  53.436  1.00  0.00     0.123 A 
ATOM      9  C   UNL     1      27.909  23.019  52.164  1.00  0.00     0.094 A 
ATOM     10  C   UNL     1      28.829  22.937  51.116  1.00  0.00     0.146 A 
ATOM     11  O   UNL     1      28.465  23.370  49.915  1.00  0.00    -0.456 OA
ENDROOT
BRANCH   1  12
ATOM     12  C   UNL     1      28.746  23.844  47.555  1.00  0.00     0.021 A 
ATOM     13  C   UNL     1      29.580  24.648  46.758  1.00  0.00     0.016 A 
ATOM     14  C   UNL     1      29.126  25.148  45.535  1.00  0.00     0.051 A 
ATOM     15  C   UNL     1      27.839  24.849  45.081  1.00  0.00     0.157 A 
ATOM     16  C   UNL     1      27.454  23.534  47.088  1.00  0.00     0.062 A 
ATOM     17  C   UNL     1      26.999  24.036  45.859  1.00  0.00     0.158 A 
BRANCH  15  18
ATOM     18  O   UNL     1      27.415  25.365  43.858  1.00  0.00    -0.504 OA
ATOM     19  H   UNL     1      26.457  25.658  43.700  1.00  0.00     0.293 HD
ENDBRANCH  15  18
BRANCH  17  20
ATOM     20  O   UNL     1      25.718  23.724  45.406  1.00  0.00    -0.504 OA
ATOM     21  H   UNL     1      25.372  22.771  45.403  1.00  0.00     0.293 HD
ENDBRANCH  17  20
ENDBRANCH   1  12
BRANCH   6  22
ATOM     22  O   UNL     1      31.746  21.522  53.016  1.00  0.00    -0.507 OA
ATOM     23  H   UNL     1      32.561  22.105  53.112  1.00  0.00     0.293 HD
ENDBRANCH   6  22
BRANCH   8  24
ATOM     24  O   UNL     1      27.303  22.634  54.461  1.00  0.00    -0.508 OA
ATOM     25  H   UNL     1      27.477  23.169  55.304  1.00  0.00     0.293 HD
ENDBRANCH   8  24
TORSDOF 5
ENDMDL
MODEL 2
REMARK VINA RESULT:    -6.975      1.514      2.092
REMARK INTER + INTRA:          -8.490
REMARK INTER:                  -8.195
REMARK INTRA:                  -0.295
REMARK UNBOUND:                -0.292
REMARK SMILES O=c1cc(-c2ccc(O)c(O)c2)oc2cc(O)cc(O)c12
REMARK SMILES IDX 4 1 3 2 2 3 1 4 21 5 19 6 18 7 16 8 15 9 14 10 13 11 5 12
REMARK SMILES IDX 6 13 7 14 8 15 12 16 10 17 9 18 11 20 20 22 17 24
REMARK H PARENT 9 19 11 21 20 23 17 25
REMARK Flexibility Score: inf
ROOT
ATOM      1  C   UNL     1      28.979  23.724  49.741  1.00  0.00     0.138 A 
ATOM      2  C   UNL     1      30.180  24.128  50.339  1.00  0.00     0.100 A 
ATOM      3  C   UNL     1      30.420  23.825  51.680  1.00  0.00     0.197 A 
ATOM      4  O   UNL     1      31.533  24.146  52.171  1.00  0.00    -0.289 OA
ATOM      5  C   UNL     1      29.436  23.141  52.433  1.00  0.00     0.107 A 
ATOM      6  C   UNL     1      29.554  22.815  53.817  1.00  0.00     0.134 A 
ATOM      7  C   UNL     1      28.566  22.034  54.429  1.00  0.00     0.093 A 
ATOM      8  C   UNL     1      27.436  21.619  53.721  1.00  0.00     0.123 A 
ATOM      9  C   UNL     1      27.285  21.977  52.384  1.00  0.00     0.094 A 
ATOM     10  C   UNL     1      28.270  22.727  51.736  1.00  0.00     0.146 A 
ATOM     11  O   UNL     1      28.095  23.035  50.456  1.00  0.00    -0.456 OA
ENDROOT
BRANCH   1  12
ATOM     12  C   UNL     1      28.672  24.021  48.319  1.00  0.00     0.021 A 
ATOM     13  C   UNL     1      27.364  23.832  47.840  1.00  0.00     0.016 A 
ATOM     14  C   UNL     1      27.048  24.111  46.508  1.00  0.00     0.051 A 
ATOM     15  C   UNL     1      28.026  24.593  45.634  1.00  0.00     0.157 A 
ATOM     16  C   UNL     1      29.652  24.519  47.439  1.00  0.00     0.062 A 
ATOM     17  C   UNL     1      29.334  24.801  46.101  1.00  0.00     0.158 A 
BRANCH  15  18
ATOM     18  O   UNL     1      27.681  24.860  44.310  1.00  0.00    -0.504 OA
ATOM     19  H   UNL     1      27.396  24.127  43.670  1.00  0.00     0.293 HD
ENDBRANCH  15  18
BRANCH  17  20
ATOM     20  O   UNL     1      30.313  25.293  45.238  1.00  0.00    -0.504 OA
ATOM     21  H   UNL     1      30.232  25.196  44.232  1.00  0.00     0.293 HD
ENDBRANCH  17  20
ENDBRANCH   1  12
BRANCH   6  22
ATOM     22  O   UNL     1      30.600  23.252  54.636  1.00  0.00    -0.507 OA
ATOM     23  H   UNL     1      31.267  22.649  55.092  1.00  0.00     0.293 HD
ENDBRANCH   6  22
BRANCH   8  24
ATOM     24  O   UNL     1      26.450  20.853  54.342  1.00  0.00    -0.508 OA
ATOM     25  H   UNL     1      25.805  21.260  55.009  1.00  0.00     0.293 HD
ENDBRANCH   8  24
TORSDOF 5
ENDMDL
MODEL 3
REMARK VINA RESULT:    -6.967     12.364     15.202
REMARK INTER + INTRA:          -8.481
REMARK INTER:                  -8.217
REMARK INTRA:                  -0.265
REMARK UNBOUND:                -0.292
REMARK SMILES O=c1cc(-c2ccc(O)c(O)c2)oc2cc(O)cc(O)c12
REMARK SMILES IDX 4 1 3 2 2 3 1 4 21 5 19 6 18 7 16 8 15 9 14 10 13 11 5 12
REMARK SMILES IDX 6 13 7 14 8 15 12 16 10 17 9 18 11 20 20 22 17 24
REMARK H PARENT 9 19 11 21 20 23 17 25
REMARK Flexibility Score: inf
ROOT
ATOM      1  C   UNL     1      18.924  25.653  40.324  1.00  0.00     0.138 A 
ATOM      2  C   UNL     1      18.733  26.530  39.248  1.00  0.00     0.100 A 
ATOM      3  C   UNL     1      18.992  26.094  37.948  1.00  0.00     0.197 A 
ATOM      4  O   UNL     1      18.752  26.885  36.998  1.00  0.00    -0.289 OA
ATOM      5  C   UNL     1      19.475  24.781  37.728  1.00  0.00     0.107 A 
ATOM      6  C   UNL     1      19.811  24.243  36.451  1.00  0.00     0.134 A 
ATOM      7  C   UNL     1      20.168  22.893  36.343  1.00  0.00     0.093 A 
ATOM      8  C   UNL     1      20.260  22.080  37.476  1.00  0.00     0.123 A 
ATOM      9  C   UNL     1      19.986  22.611  38.734  1.00  0.00     0.094 A 
ATOM     10  C   UNL     1      19.593  23.945  38.870  1.00  0.00     0.146 A 
ATOM     11  O   UNL     1      19.326  24.408  40.086  1.00  0.00    -0.456 OA
ENDROOT
BRANCH   1  12
ATOM     12  C   UNL     1      18.666  26.064  41.727  1.00  0.00     0.021 A 
ATOM     13  C   UNL     1      17.566  25.522  42.415  1.00  0.00     0.016 A 
ATOM     14  C   UNL     1      17.307  25.888  43.738  1.00  0.00     0.051 A 
ATOM     15  C   UNL     1      18.143  26.791  44.401  1.00  0.00     0.157 A 
ATOM     16  C   UNL     1      19.514  26.964  42.402  1.00  0.00     0.062 A 
ATOM     17  C   UNL     1      19.254  27.330  43.732  1.00  0.00     0.158 A 
BRANCH  15  18
ATOM     18  O   UNL     1      17.856  27.137  45.720  1.00  0.00    -0.504 OA
ATOM     19  H   UNL     1      17.553  26.452  46.403  1.00  0.00     0.293 HD
ENDBRANCH  15  18
BRANCH  17  20
ATOM     20  O   UNL     1      20.099  28.222  44.390  1.00  0.00    -0.504 OA
ATOM     21  H   UNL     1      20.756  28.804  43.884  1.00  0.00     0.293 HD
ENDBRANCH  17  20
ENDBRANCH   1  12
BRANCH   6  22
ATOM     22  O   UNL     1      19.835  24.991  35.269  1.00  0.00    -0.507 OA
ATOM     23  H   UNL     1      19.568  25.960  35.194  1.00  0.00     0.293 HD
ENDBRANCH   6  22
BRANCH   8  24
ATOM     24  O   UNL     1      20.630  20.742  37.361  1.00  0.00    -0.508 OA
ATOM     25  H   UNL     1      20.563  20.104  38.146  1.00  0.00     0.293 HD
ENDBRANCH   8  24
TORSDOF 5
ENDMDL
MODEL 4
REMARK VINA RESULT:    -6.883     12.727     13.899
REMARK INTER + INTRA:          -8.382
REMARK INTER:                  -8.116
REMARK INTRA:                  -0.266
REMARK UNBOUND:                -0.292
REMARK SMILES O=c1cc(-c2ccc(O)c(O)c2)oc2cc(O)cc(O)c12
REMARK SMILES IDX 4 1 3 2 2 3 1 4 21 5 19 6 18 7 16 8 15 9 14 10 13 11 5 12
REMARK SMILES IDX 6 13 7 14 8 15 12 16 10 17 9 18 11 20 20 22 17 24
REMARK H PARENT 9 19 11 21 20 23 17 25
REMARK Flexibility Score: inf
ROOT
ATOM      1  C   UNL     1      17.893  24.613  41.627  1.00  0.00     0.138 A 
ATOM      2  C   UNL     1      16.686  24.134  42.156  1.00  0.00     0.100 A 
ATOM      3  C   UNL     1      16.157  24.719  43.307  1.00  0.00     0.197 A 
ATOM      4  O   UNL     1      15.041  24.309  43.721  1.00  0.00    -0.289 OA
ATOM      5  C   UNL     1      16.857  25.768  43.949  1.00  0.00     0.107 A 
ATOM      6  C   UNL     1      16.434  26.412  45.150  1.00  0.00     0.134 A 
ATOM      7  C   UNL     1      17.148  27.516  45.631  1.00  0.00     0.093 A 
ATOM      8  C   UNL     1      18.305  27.961  44.986  1.00  0.00     0.123 A 
ATOM      9  C   UNL     1      18.756  27.306  43.842  1.00  0.00     0.094 A 
ATOM     10  C   UNL     1      18.046  26.223  43.319  1.00  0.00     0.146 A 
ATOM     11  O   UNL     1      18.502  25.635  42.219  1.00  0.00    -0.456 OA
ENDROOT
BRANCH   1  12
ATOM     12  C   UNL     1      18.501  24.027  40.406  1.00  0.00     0.021 A 
ATOM     13  C   UNL     1      17.988  24.373  39.144  1.00  0.00     0.016 A 
ATOM     14  C   UNL     1      18.549  23.841  37.980  1.00  0.00     0.051 A 
ATOM     15  C   UNL     1      19.635  22.965  38.053  1.00  0.00     0.157 A 
ATOM     16  C   UNL     1      19.604  23.154  40.475  1.00  0.00     0.062 A 
ATOM     17  C   UNL     1      20.168  22.621  39.306  1.00  0.00     0.158 A 
BRANCH  15  18
ATOM     18  O   UNL     1      20.170  22.449  36.874  1.00  0.00    -0.504 OA
ATOM     19  H   UNL     1      19.913  21.534  36.521  1.00  0.00     0.293 HD
ENDBRANCH  15  18
BRANCH  17  20
ATOM     20  O   UNL     1      21.259  21.757  39.386  1.00  0.00    -0.504 OA
ATOM     21  H   UNL     1      22.167  22.011  39.015  1.00  0.00     0.293 HD
ENDBRANCH  17  20
ENDBRANCH   1  12
BRANCH   6  22
ATOM     22  O   UNL     1      15.342  25.992  45.918  1.00  0.00    -0.507 OA
ATOM     23  H   UNL     1      15.219  25.062  46.285  1.00  0.00     0.293 HD
ENDBRANCH   6  22
BRANCH   8  24
ATOM     24  O   UNL     1      19.017  29.052  45.478  1.00  0.00    -0.508 OA
ATOM     25  H   UNL     1      19.505  29.690  44.860  1.00  0.00     0.293 HD
ENDBRANCH   8  24
TORSDOF 5
ENDMDL
MODEL 5
REMARK VINA RESULT:    -6.841     12.331     13.898
REMARK INTER + INTRA:          -8.333
REMARK INTER:                  -8.059
REMARK INTRA:                  -0.273
REMARK UNBOUND:                -0.292
REMARK SMILES O=c1cc(-c2ccc(O)c(O)c2)oc2cc(O)cc(O)c12
REMARK SMILES IDX 4 1 3 2 2 3 1 4 21 5 19 6 18 7 16 8 15 9 14 10 13 11 5 12
REMARK SMILES IDX 6 13 7 14 8 15 12 16 10 17 9 18 11 20 20 22 17 24
REMARK H PARENT 9 19 11 21 20 23 17 25
REMARK Flexibility Score: inf
ROOT
ATOM      1  C   UNL     1      18.985  25.229  40.258  1.00  0.00     0.138 A 
ATOM      2  C   UNL     1      20.110  26.058  40.357  1.00  0.00     0.100 A 
ATOM      3  C   UNL     1      20.291  26.843  41.497  1.00  0.00     0.197 A 
ATOM      4  O   UNL     1      21.342  27.530  41.583  1.00  0.00    -0.289 OA
ATOM      5  C   UNL     1      19.322  26.819  42.529  1.00  0.00     0.107 A 
ATOM      6  C   UNL     1      19.382  27.607  43.717  1.00  0.00     0.134 A 
ATOM      7  C   UNL     1      18.426  27.414  44.721  1.00  0.00     0.093 A 
ATOM      8  C   UNL     1      17.378  26.505  44.554  1.00  0.00     0.123 A 
ATOM      9  C   UNL     1      17.281  25.770  43.375  1.00  0.00     0.094 A 
ATOM     10  C   UNL     1      18.239  25.915  42.368  1.00  0.00     0.146 A 
ATOM     11  O   UNL     1      18.118  25.184  41.265  1.00  0.00    -0.456 OA
ENDROOT
BRANCH   1  12
ATOM     12  C   UNL     1      18.742  24.375  39.068  1.00  0.00     0.021 A 
ATOM     13  C   UNL     1      17.492  24.423  38.426  1.00  0.00     0.016 A 
ATOM     14  C   UNL     1      17.243  23.634  37.300  1.00  0.00     0.051 A 
ATOM     15  C   UNL     1      18.235  22.793  36.790  1.00  0.00     0.157 A 
ATOM     16  C   UNL     1      19.744  23.536  38.543  1.00  0.00     0.062 A 
ATOM     17  C   UNL     1      19.493  22.745  37.411  1.00  0.00     0.158 A 
BRANCH  15  18
ATOM     18  O   UNL     1      17.954  22.017  35.666  1.00  0.00    -0.504 OA
ATOM     19  H   UNL     1      18.676  21.506  35.171  1.00  0.00     0.293 HD
ENDBRANCH  15  18
BRANCH  17  20
ATOM     20  O   UNL     1      20.492  21.917  36.900  1.00  0.00    -0.504 OA
ATOM     21  H   UNL     1      20.336  20.927  36.750  1.00  0.00     0.293 HD
ENDBRANCH  17  20
ENDBRANCH   1  12
BRANCH   6  22
ATOM     22  O   UNL     1      20.336  28.603  43.946  1.00  0.00    -0.507 OA
ATOM     23  H   UNL     1      20.589  28.962  44.854  1.00  0.00     0.293 HD
ENDBRANCH   6  22
BRANCH   8  24
ATOM     24  O   UNL     1      16.423  26.329  45.553  1.00  0.00    -0.508 OA
ATOM     25  H   UNL     1      15.806  25.526  45.561  1.00  0.00     0.293 HD
ENDBRANCH   8  24
TORSDOF 5
ENDMDL
MODEL 6
REMARK VINA RESULT:    -6.837      1.497      2.484
REMARK INTER + INTRA:          -8.327
REMARK INTER:                  -8.032
REMARK INTRA:                  -0.295
REMARK UNBOUND:                -0.292
REMARK SMILES O=c1cc(-c2ccc(O)c(O)c2)oc2cc(O)cc(O)c12
REMARK SMILES IDX 4 1 3 2 2 3 1 4 21 5 19 6 18 7 16 8 15 9 14 10 13 11 5 12
REMARK SMILES IDX 6 13 7 14 8 15 12 16 10 17 9 18 11 20 20 22 17 24
REMARK H PARENT 9 19 11 21 20 23 17 25
REMARK Flexibility Score: inf
ROOT
ATOM      1  C   UNL     1      28.116  23.410  49.357  1.00  0.00     0.138 A 
ATOM      2  C   UNL     1      27.086  22.594  49.846  1.00  0.00     0.100 A 
ATOM      3  C   UNL     1      27.128  22.149  51.168  1.00  0.00     0.197 A 
ATOM      4  O   UNL     1      26.158  21.470  51.596  1.00  0.00    -0.289 OA
ATOM      5  C   UNL     1      28.224  22.497  51.994  1.00  0.00     0.107 A 
ATOM      6  C   UNL     1      28.392  22.067  53.344  1.00  0.00     0.134 A 
ATOM      7  C   UNL     1      29.458  22.570  54.101  1.00  0.00     0.093 A 
ATOM      8  C   UNL     1      30.394  23.440  53.536  1.00  0.00     0.123 A 
ATOM      9  C   UNL     1      30.268  23.823  52.203  1.00  0.00     0.094 A 
ATOM     10  C   UNL     1      29.197  23.366  51.432  1.00  0.00     0.146 A 
ATOM     11  O   UNL     1      29.105  23.767  50.169  1.00  0.00    -0.456 OA
ENDROOT
BRANCH   1  12
ATOM     12  C   UNL     1      28.122  23.910  47.959  1.00  0.00     0.021 A 
ATOM     13  C   UNL     1      29.287  24.506  47.443  1.00  0.00     0.016 A 
ATOM     14  C   UNL     1      29.320  24.978  46.129  1.00  0.00     0.051 A 
ATOM     15  C   UNL     1      28.199  24.856  45.304  1.00  0.00     0.157 A 
ATOM     16  C   UNL     1      26.999  23.777  47.120  1.00  0.00     0.062 A 
ATOM     17  C   UNL     1      27.033  24.250  45.799  1.00  0.00     0.158 A 
BRANCH  15  18
ATOM     18  O   UNL     1      28.263  25.339  43.997  1.00  0.00    -0.504 OA
ATOM     19  H   UNL     1      27.542  25.936  43.609  1.00  0.00     0.293 HD
ENDBRANCH  15  18
BRANCH  17  20
ATOM     20  O   UNL     1      25.916  24.113  44.977  1.00  0.00    -0.504 OA
ATOM     21  H   UNL     1      25.494  23.208  44.798  1.00  0.00     0.293 HD
ENDBRANCH  17  20
ENDBRANCH   1  12
BRANCH   6  22
ATOM     22  O   UNL     1      27.563  21.135  53.976  1.00  0.00    -0.507 OA
ATOM     23  H   UNL     1      27.637  20.135  53.876  1.00  0.00     0.293 HD
ENDBRANCH   6  22
BRANCH   8  24
ATOM     24  O   UNL     1      31.460  23.924  54.292  1.00  0.00    -0.508 OA
ATOM     25  H   UNL     1      32.353  24.146  53.868  1.00  0.00     0.293 HD
ENDBRANCH   8  24
TORSDOF 5
ENDMDL
MODEL 7
REMARK VINA RESULT:    -6.794     12.525     15.792
REMARK INTER + INTRA:          -8.278
REMARK INTER:                  -7.990
REMARK INTRA:                  -0.287
REMARK UNBOUND:                -0.292
REMARK SMILES O=c1cc(-c2ccc(O)c(O)c2)oc2cc(O)cc(O)c12
REMARK SMILES IDX 4 1 3 2 2 3 1 4 21 5 19 6 18 7 16 8 15 9 14 10 13 11 5 12
REMARK SMILES IDX 6 13 7 14 8 15 12 16 10 17 9 18 11 20 20 22 17 24
REMARK H PARENT 9 19 11 21 20 23 17 25
REMARK Flexibility Score: inf
ROOT
ATOM      1  C   UNL     1      17.845  25.240  40.408  1.00  0.00     0.138 A 
ATOM      2  C   UNL     1      16.710  25.391  39.600  1.00  0.00     0.100 A 
ATOM      3  C   UNL     1      16.627  24.699  38.391  1.00  0.00     0.197 A 
ATOM      4  O   UNL     1      15.569  24.806  37.717  1.00  0.00    -0.289 OA
ATOM      5  C   UNL     1      17.702  23.875  37.976  1.00  0.00     0.107 A 
ATOM      6  C   UNL     1      17.744  23.155  36.745  1.00  0.00     0.134 A 
ATOM      7  C   UNL     1      18.808  22.280  36.495  1.00  0.00     0.093 A 
ATOM      8  C   UNL     1      19.861  22.147  37.404  1.00  0.00     0.123 A 
ATOM      9  C   UNL     1      19.855  22.887  38.584  1.00  0.00     0.094 A 
ATOM     10  C   UNL     1      18.790  23.742  38.879  1.00  0.00     0.146 A 
ATOM     11  O   UNL     1      18.815  24.418  40.022  1.00  0.00    -0.456 OA
ENDROOT
BRANCH   1  12
ATOM     12  C   UNL     1      17.986  25.953  41.703  1.00  0.00     0.021 A 
ATOM     13  C   UNL     1      16.944  25.890  42.645  1.00  0.00     0.016 A 
ATOM     14  C   UNL     1      17.056  26.546  43.873  1.00  0.00     0.051 A 
ATOM     15  C   UNL     1      18.211  27.267  44.187  1.00  0.00     0.157 A 
ATOM     16  C   UNL     1      19.153  26.671  42.029  1.00  0.00     0.062 A 
ATOM     17  C   UNL     1      19.266  27.329  43.263  1.00  0.00     0.158 A 
BRANCH  15  18
ATOM     18  O   UNL     1      18.292  27.913  45.420  1.00  0.00    -0.504 OA
ATOM     19  H   UNL     1      17.913  27.506  46.267  1.00  0.00     0.293 HD
ENDBRANCH  15  18
BRANCH  17  20
ATOM     20  O   UNL     1      20.426  28.037  43.575  1.00  0.00    -0.504 OA
ATOM     21  H   UNL     1      20.390  28.955  44.003  1.00  0.00     0.293 HD
ENDBRANCH  17  20
ENDBRANCH   1  12
BRANCH   6  22
ATOM     22  O   UNL     1      16.788  23.281  35.733  1.00  0.00    -0.507 OA
ATOM     23  H   UNL     1      16.616  24.121  35.203  1.00  0.00     0.293 HD
ENDBRANCH   6  22
BRANCH   8  24
ATOM     24  O   UNL     1      20.923  21.285  37.139  1.00  0.00    -0.508 OA
ATOM     25  H   UNL     1      20.776  20.295  36.980  1.00  0.00     0.293 HD
ENDBRANCH   8  24
TORSDOF 5
ENDMDL
MODEL 8
REMARK VINA RESULT:    -6.546     12.940     14.672
REMARK INTER + INTRA:          -7.986
REMARK INTER:                  -7.717
REMARK INTRA:                  -0.269
REMARK UNBOUND:                -0.292
REMARK SMILES O=c1cc(-c2ccc(O)c(O)c2)oc2cc(O)cc(O)c12
REMARK SMILES IDX 4 1 3 2 2 3 1 4 21 5 19 6 18 7 16 8 15 9 14 10 13 11 5 12
REMARK SMILES IDX 6 13 7 14 8 15 12 16 10 17 9 18 11 20 20 22 17 24
REMARK H PARENT 9 19 11 21 20 23 17 25
REMARK Flexibility Score: inf
ROOT
ATOM      1  C   UNL     1      17.005  24.264  41.844  1.00  0.00     0.138 A 
ATOM      2  C   UNL     1      15.617  24.424  41.730  1.00  0.00     0.100 A 
ATOM      3  C   UNL     1      14.767  23.414  42.183  1.00  0.00     0.197 A 
ATOM      4  O   UNL     1      13.525  23.614  42.125  1.00  0.00    -0.289 OA
ATOM      5  C   UNL     1      15.312  22.225  42.724  1.00  0.00     0.107 A 
ATOM      6  C   UNL     1      14.542  21.113  43.179  1.00  0.00     0.134 A 
ATOM      7  C   UNL     1      15.186  20.037  43.803  1.00  0.00     0.093 A 
ATOM      8  C   UNL     1      16.577  20.007  43.932  1.00  0.00     0.123 A 
ATOM      9  C   UNL     1      17.341  21.064  43.442  1.00  0.00     0.094 A 
ATOM     10  C   UNL     1      16.726  22.167  42.846  1.00  0.00     0.146 A 
ATOM     11  O   UNL     1      17.489  23.161  42.406  1.00  0.00    -0.456 OA
ENDROOT
BRANCH   1  12
ATOM     12  C   UNL     1      17.955  25.305  41.377  1.00  0.00     0.021 A 
ATOM     13  C   UNL     1      18.106  25.536  39.999  1.00  0.00     0.016 A 
ATOM     14  C   UNL     1      18.988  26.515  39.535  1.00  0.00     0.051 A 
ATOM     15  C   UNL     1      19.726  27.287  40.436  1.00  0.00     0.157 A 
ATOM     16  C   UNL     1      18.691  26.094  42.283  1.00  0.00     0.062 A 
ATOM     17  C   UNL     1      19.576  27.078  41.817  1.00  0.00     0.158 A 
BRANCH  15  18
ATOM     18  O   UNL     1      20.600  28.254  39.943  1.00  0.00    -0.504 OA
ATOM     19  H   UNL     1      20.662  28.470  38.954  1.00  0.00     0.293 HD
ENDBRANCH  15  18
BRANCH  17  20
ATOM     20  O   UNL     1      20.301  27.852  42.722  1.00  0.00    -0.504 OA
ATOM     21  H   UNL     1      20.739  28.724  42.445  1.00  0.00     0.293 HD
ENDBRANCH  17  20
ENDBRANCH   1  12
BRANCH   6  22
ATOM     22  O   UNL     1      13.157  21.005  43.022  1.00  0.00    -0.507 OA
ATOM     23  H   UNL     1      12.614  20.184  43.237  1.00  0.00     0.293 HD
ENDBRANCH   6  22
BRANCH   8  24
ATOM     24  O   UNL     1      17.211  18.926  44.540  1.00  0.00    -0.508 OA
ATOM     25  H   UNL     1      16.707  18.287  45.143  1.00  0.00     0.293 HD
ENDBRANCH   8  24
TORSDOF 5
ENDMDL
MODEL 9
REMARK VINA RESULT:    -6.445     12.305     15.068
REMARK INTER + INTRA:          -7.867
REMARK INTER:                  -7.604
REMARK INTRA:                  -0.263
REMARK UNBOUND:                -0.292
REMARK SMILES O=c1cc(-c2ccc(O)c(O)c2)oc2cc(O)cc(O)c12
REMARK SMILES IDX 4 1 3 2 2 3 1 4 21 5 19 6 18 7 16 8 15 9 14 10 13 11 5 12
REMARK SMILES IDX 6 13 7 14 8 15 12 16 10 17 9 18 11 20 20 22 17 24
REMARK H PARENT 9 19 11 21 20 23 17 25
REMARK Flexibility Score: inf
ROOT
ATOM      1  C   UNL     1      16.320  25.171  43.507  1.00  0.00     0.138 A 
ATOM      2  C   UNL     1      15.402  25.368  42.466  1.00  0.00     0.100 A 
ATOM      3  C   UNL     1      14.577  24.316  42.066  1.00  0.00     0.197 A 
ATOM      4  O   UNL     1      13.721  24.541  41.172  1.00  0.00    -0.289 OA
ATOM      5  C   UNL     1      14.695  23.051  42.692  1.00  0.00     0.107 A 
ATOM      6  C   UNL     1      13.935  21.897  42.338  1.00  0.00     0.134 A 
ATOM      7  C   UNL     1      14.054  20.731  43.105  1.00  0.00     0.093 A 
ATOM      8  C   UNL     1      14.951  20.660  44.173  1.00  0.00     0.123 A 
ATOM      9  C   UNL     1      15.737  21.765  44.492  1.00  0.00     0.094 A 
ATOM     10  C   UNL     1      15.616  22.954  43.768  1.00  0.00     0.146 A 
ATOM     11  O   UNL     1      16.372  23.990  44.115  1.00  0.00    -0.456 OA
ENDROOT
BRANCH   1  12
ATOM     12  C   UNL     1      17.223  26.254  43.972  1.00  0.00     0.021 A 
ATOM     13  C   UNL     1      16.836  27.058  45.059  1.00  0.00     0.016 A 
ATOM     14  C   UNL     1      17.671  28.078  45.520  1.00  0.00     0.051 A 
ATOM     15  C   UNL     1      18.908  28.309  44.914  1.00  0.00     0.157 A 
ATOM     16  C   UNL     1      18.476  26.481  43.372  1.00  0.00     0.062 A 
ATOM     17  C   UNL     1      19.316  27.505  43.837  1.00  0.00     0.158 A 
BRANCH  15  18
ATOM     18  O   UNL     1      19.718  29.336  45.395  1.00  0.00    -0.504 OA
ATOM     19  H   UNL     1      20.698  29.412  45.145  1.00  0.00     0.293 HD
ENDBRANCH  15  18
BRANCH  17  20
ATOM     20  O   UNL     1      20.554  27.722  43.235  1.00  0.00    -0.504 OA
ATOM     21  H   UNL     1      20.847  27.200  42.416  1.00  0.00     0.293 HD
ENDBRANCH  17  20
ENDBRANCH   1  12
BRANCH   6  22
ATOM     22  O   UNL     1      13.075  21.834  41.237  1.00  0.00    -0.507 OA
ATOM     23  H   UNL     1      12.115  22.140  41.237  1.00  0.00     0.293 HD
ENDBRANCH   6  22
BRANCH   8  24
ATOM     24  O   UNL     1      15.074  19.492  44.922  1.00  0.00    -0.508 OA
ATOM     25  H   UNL     1      15.957  19.219  45.338  1.00  0.00     0.293 HD
ENDBRANCH   8  24
TORSDOF 5
ENDMDL
