MODEL 1
REMARK VINA RESULT:    -5.081      0.000      0.000
REMARK INTER + INTRA:         -10.111
REMARK INTER:                  -7.754
REMARK INTRA:                  -2.356
REMARK UNBOUND:                -2.356
REMARK SMILES COc1cc(C=CC(=O)CC(=O)C=Cc2ccc(O)c(OC)c2)ccc1O
REMARK SMILES IDX 10 1 8 2 9 3 7 4 6 5 5 6 3 7 26 8 4 9 25 10 24 11 2 12 1 13
REMARK SMILES IDX 27 14 11 16 12 17 13 18 14 19 15 20 23 21 16 22 20 23 17 24
REMARK SMILES IDX 18 25 21 26 22 27 19 28
REMARK H PARENT 27 15 19 29
REMARK Flexibility Score: inf
ROOT
ATOM      1  C   UNL     1     116.620 119.719 136.575  1.00  0.00     0.160 C 
ENDROOT
BRANCH   1   2
ATOM      2  C   UNL     1     117.013 120.322 137.889  1.00  0.00     0.163 C 
ATOM      3  O   UNL     1     117.220 119.565 138.878  1.00  0.00    -0.294 OA
BRANCH   2   4
ATOM      4  C   UNL     1     117.194 121.783 138.009  1.00  0.00     0.048 C 
ATOM      5  C   UNL     1     116.488 122.522 138.877  1.00  0.00     0.012 C 
BRANCH   5   6
ATOM      6  C   UNL     1     116.632 123.992 139.014  1.00  0.00    -0.022 A 
ATOM      7  C   UNL     1     118.100 125.952 138.992  1.00  0.00     0.161 A 
ATOM      8  C   UNL     1     116.990 126.778 139.238  1.00  0.00     0.157 A 
ATOM      9  C   UNL     1     117.910 124.560 138.876  1.00  0.00     0.058 A 
ATOM     10  C   UNL     1     115.715 126.219 139.357  1.00  0.00     0.051 A 
ATOM     11  C   UNL     1     115.532 124.840 139.243  1.00  0.00     0.012 A 
BRANCH   7  12
ATOM     12  O   UNL     1     119.369 126.541 138.872  1.00  0.00    -0.493 OA
ATOM     13  C   UNL     1     120.568 125.829 138.577  1.00  0.00     0.278 C 
ENDBRANCH   7  12
BRANCH   8  14
ATOM     14  O   UNL     1     117.133 128.160 139.362  1.00  0.00    -0.504 OA
ATOM     15  H   UNL     1     116.373 128.758 139.662  1.00  0.00     0.293 HD
ENDBRANCH   8  14
ENDBRANCH   5   6
ENDBRANCH   2   4
ENDBRANCH   1   2
BRANCH   1  16
ATOM     16  C   UNL     1     115.204 120.079 136.243  1.00  0.00     0.163 C 
ATOM     17  O   UNL     1     114.387 120.279 137.183  1.00  0.00    -0.294 OA
BRANCH  16  18
ATOM     18  C   UNL     1     114.813 120.301 134.833  1.00  0.00     0.048 C 
ATOM     19  C   UNL     1     115.274 121.281 134.041  1.00  0.00     0.012 C 
BRANCH  19  20
ATOM     20  C   UNL     1     116.115 122.414 134.481  1.00  0.00    -0.022 A 
ATOM     21  C   UNL     1     117.487 122.401 134.197  1.00  0.00     0.058 A 
ATOM     22  C   UNL     1     115.548 123.547 135.087  1.00  0.00     0.012 A 
ATOM     23  C   UNL     1     118.307 123.488 134.565  1.00  0.00     0.161 A 
ATOM     24  C   UNL     1     116.354 124.625 135.456  1.00  0.00     0.051 A 
ATOM     25  C   UNL     1     117.728 124.600 135.204  1.00  0.00     0.157 A 
BRANCH  23  26
ATOM     26  O   UNL     1     119.689 123.496 134.310  1.00  0.00    -0.493 OA
ATOM     27  C   UNL     1     120.357 122.583 133.446  1.00  0.00     0.278 C 
ENDBRANCH  23  26
BRANCH  25  28
ATOM     28  O   UNL     1     118.504 125.692 135.591  1.00  0.00    -0.504 OA
ATOM     29  H   UNL     1     119.508 125.628 135.706  1.00  0.00     0.293 HD
ENDBRANCH  25  28
ENDBRANCH  19  20
ENDBRANCH  16  18
ENDBRANCH   1  16
TORSDOF 10
ENDMDL
MODEL 2
REMARK VINA RESULT:    -5.061      8.166     12.192
REMARK INTER + INTRA:         -10.080
REMARK INTER:                  -8.193
REMARK INTRA:                  -1.887
REMARK UNBOUND:                -2.356
REMARK SMILES COc1cc(C=CC(=O)CC(=O)C=Cc2ccc(O)c(OC)c2)ccc1O
REMARK SMILES IDX 10 1 8 2 9 3 7 4 6 5 5 6 3 7 26 8 4 9 25 10 24 11 2 12 1 13
REMARK SMILES IDX 27 14 11 16 12 17 13 18 14 19 15 20 23 21 16 22 20 23 17 24
REMARK SMILES IDX 18 25 21 26 22 27 19 28
REMARK H PARENT 27 15 19 29
REMARK Flexibility Score: inf
ROOT
ATOM      1  C   UNL     1     130.972 124.477 133.887  1.00  0.00     0.160 C 
ENDROOT
BRANCH   1   2
ATOM      2  C   UNL     1     129.646 124.535 133.190  1.00  0.00     0.163 C 
ATOM      3  O   UNL     1     129.458 125.402 132.291  1.00  0.00    -0.294 OA
BRANCH   2   4
ATOM      4  C   UNL     1     128.591 123.558 133.525  1.00  0.00     0.048 C 
ATOM      5  C   UNL     1     127.339 123.670 133.058  1.00  0.00     0.012 C 
BRANCH   5   6
ATOM      6  C   UNL     1     126.249 122.718 133.386  1.00  0.00    -0.022 A 
ATOM      7  C   UNL     1     125.402 120.947 134.850  1.00  0.00     0.161 A 
ATOM      8  C   UNL     1     124.220 120.895 134.091  1.00  0.00     0.157 A 
ATOM      9  C   UNL     1     126.408 121.867 134.493  1.00  0.00     0.058 A 
ATOM     10  C   UNL     1     124.050 121.752 133.001  1.00  0.00     0.051 A 
ATOM     11  C   UNL     1     125.050 122.660 132.650  1.00  0.00     0.012 A 
BRANCH   7  12
ATOM     12  O   UNL     1     125.543 120.078 135.943  1.00  0.00    -0.493 OA
ATOM     13  C   UNL     1     125.122 120.372 137.272  1.00  0.00     0.278 C 
ENDBRANCH   7  12
BRANCH   8  14
ATOM     14  O   UNL     1     123.199 119.999 134.408  1.00  0.00    -0.504 OA
ATOM     15  H   UNL     1     122.254 120.304 134.609  1.00  0.00     0.293 HD
ENDBRANCH   8  14
ENDBRANCH   5   6
ENDBRANCH   2   4
ENDBRANCH   1   2
BRANCH   1  16
ATOM     16  C   UNL     1     130.918 125.256 135.165  1.00  0.00     0.163 C 
ATOM     17  O   UNL     1     131.209 124.678 136.248  1.00  0.00    -0.294 OA
BRANCH  16  18
ATOM     18  C   UNL     1     130.634 126.708 135.129  1.00  0.00     0.048 C 
ATOM     19  C   UNL     1     129.549 127.305 135.645  1.00  0.00     0.012 C 
BRANCH  19  20
ATOM     20  C   UNL     1     128.361 126.607 136.181  1.00  0.00    -0.022 A 
ATOM     21  C   UNL     1     128.352 126.200 137.522  1.00  0.00     0.058 A 
ATOM     22  C   UNL     1     127.206 126.433 135.401  1.00  0.00     0.012 A 
ATOM     23  C   UNL     1     127.218 125.571 138.075  1.00  0.00     0.161 A 
ATOM     24  C   UNL     1     126.080 125.809 135.941  1.00  0.00     0.051 A 
ATOM     25  C   UNL     1     126.081 125.373 137.269  1.00  0.00     0.157 A 
BRANCH  23  26
ATOM     26  O   UNL     1     127.186 125.137 139.411  1.00  0.00    -0.493 OA
ATOM     27  C   UNL     1     126.919 125.977 140.528  1.00  0.00     0.278 C 
ENDBRANCH  23  26
BRANCH  25  28
ATOM     28  O   UNL     1     124.941 124.749 137.773  1.00  0.00    -0.504 OA
ATOM     29  H   UNL     1     124.008 125.001 137.468  1.00  0.00     0.293 HD
ENDBRANCH  25  28
ENDBRANCH  19  20
ENDBRANCH  16  18
ENDBRANCH   1  16
TORSDOF 10
ENDMDL
MODEL 3
REMARK VINA RESULT:    -4.892      8.593     11.501
REMARK INTER + INTRA:          -9.823
REMARK INTER:                  -7.588
REMARK INTRA:                  -2.235
REMARK UNBOUND:                -2.356
REMARK SMILES COc1cc(C=CC(=O)CC(=O)C=Cc2ccc(O)c(OC)c2)ccc1O
REMARK SMILES IDX 10 1 8 2 9 3 7 4 6 5 5 6 3 7 26 8 4 9 25 10 24 11 2 12 1 13
REMARK SMILES IDX 27 14 11 16 12 17 13 18 14 19 15 20 23 21 16 22 20 23 17 24
REMARK SMILES IDX 18 25 21 26 22 27 19 28
REMARK H PARENT 27 15 19 29
REMARK Flexibility Score: inf
ROOT
ATOM      1  C   UNL     1     123.855 125.981 147.607  1.00  0.00     0.160 C 
ENDROOT
BRANCH   1   2
ATOM      2  C   UNL     1     125.350 126.016 147.520  1.00  0.00     0.163 C 
ATOM      3  O   UNL     1     126.036 125.657 148.517  1.00  0.00    -0.294 OA
BRANCH   2   4
ATOM      4  C   UNL     1     126.009 126.427 146.263  1.00  0.00     0.048 C 
ATOM      5  C   UNL     1     125.387 127.177 145.343  1.00  0.00     0.012 C 
BRANCH   5   6
ATOM      6  C   UNL     1     126.010 127.595 144.063  1.00  0.00    -0.022 A 
ATOM      7  C   UNL     1     127.369 126.996 142.115  1.00  0.00     0.161 A 
ATOM      8  C   UNL     1     127.209 128.299 141.612  1.00  0.00     0.157 A 
ATOM      9  C   UNL     1     126.760 126.652 143.339  1.00  0.00     0.058 A 
ATOM     10  C   UNL     1     126.448 129.233 142.319  1.00  0.00     0.051 A 
ATOM     11  C   UNL     1     125.848 128.888 143.531  1.00  0.00     0.012 A 
BRANCH   7  12
ATOM     12  O   UNL     1     128.133 126.076 141.381  1.00  0.00    -0.493 OA
ATOM     13  C   UNL     1     128.011 124.660 141.479  1.00  0.00     0.278 C 
ENDBRANCH   7  12
BRANCH   8  14
ATOM     14  O   UNL     1     127.795 128.683 140.406  1.00  0.00    -0.504 OA
ATOM     15  H   UNL     1     128.748 129.021 140.351  1.00  0.00     0.293 HD
ENDBRANCH   8  14
ENDBRANCH   5   6
ENDBRANCH   2   4
ENDBRANCH   1   2
BRANCH   1  16
ATOM     16  C   UNL     1     123.338 124.668 147.105  1.00  0.00     0.163 C 
ATOM     17  O   UNL     1     124.091 123.658 147.146  1.00  0.00    -0.294 OA
BRANCH  16  18
ATOM     18  C   UNL     1     121.927 124.550 146.676  1.00  0.00     0.048 C 
ATOM     19  C   UNL     1     121.498 124.507 145.405  1.00  0.00     0.012 C 
BRANCH  19  20
ATOM     20  C   UNL     1     122.336 124.748 144.211  1.00  0.00    -0.022 A 
ATOM     21  C   UNL     1     122.994 123.669 143.606  1.00  0.00     0.058 A 
ATOM     22  C   UNL     1     122.402 126.017 143.613  1.00  0.00     0.012 A 
ATOM     23  C   UNL     1     123.765 123.859 142.440  1.00  0.00     0.161 A 
ATOM     24  C   UNL     1     123.165 126.214 142.461  1.00  0.00     0.051 A 
ATOM     25  C   UNL     1     123.849 125.146 141.875  1.00  0.00     0.157 A 
BRANCH  23  26
ATOM     26  O   UNL     1     124.451 122.801 141.822  1.00  0.00    -0.493 OA
ATOM     27  C   UNL     1     123.825 121.729 141.125  1.00  0.00     0.278 C 
ENDBRANCH  23  26
BRANCH  25  28
ATOM     28  O   UNL     1     124.606 125.380 140.727  1.00  0.00    -0.504 OA
ATOM     29  H   UNL     1     125.428 125.972 140.733  1.00  0.00     0.293 HD
ENDBRANCH  25  28
ENDBRANCH  19  20
ENDBRANCH  16  18
ENDBRANCH   1  16
TORSDOF 10
ENDMDL
MODEL 4
REMARK VINA RESULT:    -4.860      7.156     10.517
REMARK INTER + INTRA:          -9.774
REMARK INTER:                  -8.083
REMARK INTRA:                  -1.691
REMARK UNBOUND:                -2.356
REMARK SMILES COc1cc(C=CC(=O)CC(=O)C=Cc2ccc(O)c(OC)c2)ccc1O
REMARK SMILES IDX 10 1 8 2 9 3 7 4 6 5 5 6 3 7 26 8 4 9 25 10 24 11 2 12 1 13
REMARK SMILES IDX 27 14 11 16 12 17 13 18 14 19 15 20 23 21 16 22 20 23 17 24
REMARK SMILES IDX 18 25 21 26 22 27 19 28
REMARK H PARENT 27 15 19 29
REMARK Flexibility Score: inf
ROOT
ATOM      1  C   UNL     1     115.242 117.617 138.501  1.00  0.00     0.160 C 
ENDROOT
BRANCH   1   2
ATOM      2  C   UNL     1     115.222 117.025 137.124  1.00  0.00     0.163 C 
ATOM      3  O   UNL     1     114.467 117.528 136.247  1.00  0.00    -0.294 OA
BRANCH   2   4
ATOM      4  C   UNL     1     116.109 115.892 136.793  1.00  0.00     0.048 C 
ATOM      5  C   UNL     1     117.436 115.946 136.977  1.00  0.00     0.012 C 
BRANCH   5   6
ATOM      6  C   UNL     1     118.360 114.835 136.641  1.00  0.00    -0.022 A 
ATOM      7  C   UNL     1     119.565 113.576 134.920  1.00  0.00     0.161 A 
ATOM      8  C   UNL     1     120.125 112.760 135.919  1.00  0.00     0.157 A 
ATOM      9  C   UNL     1     118.688 114.615 135.293  1.00  0.00     0.058 A 
ATOM     10  C   UNL     1     119.816 112.988 137.262  1.00  0.00     0.051 A 
ATOM     11  C   UNL     1     118.946 114.017 137.626  1.00  0.00     0.012 A 
BRANCH   7  12
ATOM     12  O   UNL     1     119.896 113.329 133.579  1.00  0.00    -0.493 OA
ATOM     13  C   UNL     1     119.103 112.564 132.676  1.00  0.00     0.278 C 
ENDBRANCH   7  12
BRANCH   8  14
ATOM     14  O   UNL     1     120.996 111.720 135.595  1.00  0.00    -0.504 OA
ATOM     15  H   UNL     1     120.700 110.751 135.581  1.00  0.00     0.293 HD
ENDBRANCH   8  14
ENDBRANCH   5   6
ENDBRANCH   2   4
ENDBRANCH   1   2
BRANCH   1  16
ATOM     16  C   UNL     1     113.992 117.253 139.239  1.00  0.00     0.163 C 
ATOM     17  O   UNL     1     113.127 118.145 139.457  1.00  0.00    -0.294 OA
BRANCH  16  18
ATOM     18  C   UNL     1     113.737 115.841 139.602  1.00  0.00     0.048 C 
ATOM     19  C   UNL     1     114.474 115.108 140.451  1.00  0.00     0.012 C 
BRANCH  19  20
ATOM     20  C   UNL     1     115.767 115.519 141.037  1.00  0.00    -0.022 A 
ATOM     21  C   UNL     1     115.776 116.261 142.226  1.00  0.00     0.058 A 
ATOM     22  C   UNL     1     116.985 115.095 140.481  1.00  0.00     0.012 A 
ATOM     23  C   UNL     1     116.994 116.631 142.833  1.00  0.00     0.161 A 
ATOM     24  C   UNL     1     118.194 115.460 141.075  1.00  0.00     0.051 A 
ATOM     25  C   UNL     1     118.206 116.228 142.242  1.00  0.00     0.157 A 
BRANCH  23  26
ATOM     26  O   UNL     1     117.035 117.390 144.015  1.00  0.00    -0.493 OA
ATOM     27  C   UNL     1     116.915 118.807 144.070  1.00  0.00     0.278 C 
ENDBRANCH  23  26
BRANCH  25  28
ATOM     28  O   UNL     1     119.433 116.577 142.806  1.00  0.00    -0.504 OA
ATOM     29  H   UNL     1     119.548 116.723 143.801  1.00  0.00     0.293 HD
ENDBRANCH  25  28
ENDBRANCH  19  20
ENDBRANCH  16  18
ENDBRANCH   1  16
TORSDOF 10
ENDMDL
MODEL 5
REMARK VINA RESULT:    -4.831      9.493     12.738
REMARK INTER + INTRA:          -9.729
REMARK INTER:                  -7.779
REMARK INTRA:                  -1.950
REMARK UNBOUND:                -2.356
REMARK SMILES COc1cc(C=CC(=O)CC(=O)C=Cc2ccc(O)c(OC)c2)ccc1O
REMARK SMILES IDX 10 1 8 2 9 3 7 4 6 5 5 6 3 7 26 8 4 9 25 10 24 11 2 12 1 13
REMARK SMILES IDX 27 14 11 16 12 17 13 18 14 19 15 20 23 21 16 22 20 23 17 24
REMARK SMILES IDX 18 25 21 26 22 27 19 28
REMARK H PARENT 27 15 19 29
REMARK Flexibility Score: inf
ROOT
ATOM      1  C   UNL     1     122.993 123.626 144.967  1.00  0.00     0.160 C 
ENDROOT
BRANCH   1   2
ATOM      2  C   UNL     1     122.856 124.952 145.652  1.00  0.00     0.163 C 
ATOM      3  O   UNL     1     121.824 125.649 145.447  1.00  0.00    -0.294 OA
BRANCH   2   4
ATOM      4  C   UNL     1     123.902 125.412 146.588  1.00  0.00     0.048 C 
ATOM      5  C   UNL     1     125.175 125.589 146.206  1.00  0.00     0.012 C 
BRANCH   5   6
ATOM      6  C   UNL     1     126.254 126.035 147.121  1.00  0.00    -0.022 A 
ATOM      7  C   UNL     1     127.193 126.049 149.383  1.00  0.00     0.161 A 
ATOM      8  C   UNL     1     128.274 126.820 148.922  1.00  0.00     0.157 A 
ATOM      9  C   UNL     1     126.191 125.656 148.473  1.00  0.00     0.058 A 
ATOM     10  C   UNL     1     128.350 127.183 147.575  1.00  0.00     0.051 A 
ATOM     11  C   UNL     1     127.355 126.793 146.678  1.00  0.00     0.012 A 
BRANCH   7  12
ATOM     12  O   UNL     1     127.145 125.694 150.740  1.00  0.00    -0.493 OA
ATOM     13  C   UNL     1     126.534 126.478 151.762  1.00  0.00     0.278 C 
ENDBRANCH   7  12
BRANCH   8  14
ATOM     14  O   UNL     1     129.287 127.232 149.789  1.00  0.00    -0.504 OA
ATOM     15  H   UNL     1     130.229 126.864 149.734  1.00  0.00     0.293 HD
ENDBRANCH   8  14
ENDBRANCH   5   6
ENDBRANCH   2   4
ENDBRANCH   1   2
BRANCH   1  16
ATOM     16  C   UNL     1     123.645 123.800 143.630  1.00  0.00     0.163 C 
ATOM     17  O   UNL     1     124.761 123.252 143.417  1.00  0.00    -0.294 OA
BRANCH  16  18
ATOM     18  C   UNL     1     122.927 124.512 142.549  1.00  0.00     0.048 C 
ATOM     19  C   UNL     1     123.319 125.661 141.977  1.00  0.00     0.012 C 
BRANCH  19  20
ATOM     20  C   UNL     1     124.435 126.511 142.441  1.00  0.00    -0.022 A 
ATOM     21  C   UNL     1     125.710 126.332 141.886  1.00  0.00     0.058 A 
ATOM     22  C   UNL     1     124.222 127.559 143.350  1.00  0.00     0.012 A 
ATOM     23  C   UNL     1     126.786 127.156 142.275  1.00  0.00     0.161 A 
ATOM     24  C   UNL     1     125.282 128.378 143.742  1.00  0.00     0.051 A 
ATOM     25  C   UNL     1     126.562 128.179 143.215  1.00  0.00     0.157 A 
BRANCH  23  26
ATOM     26  O   UNL     1     128.078 126.988 141.751  1.00  0.00    -0.493 OA
ATOM     27  C   UNL     1     128.511 127.491 140.491  1.00  0.00     0.278 C 
ENDBRANCH  23  26
BRANCH  25  28
ATOM     28  O   UNL     1     127.599 129.013 143.633  1.00  0.00    -0.504 OA
ATOM     29  H   UNL     1     128.398 129.217 143.046  1.00  0.00     0.293 HD
ENDBRANCH  25  28
ENDBRANCH  19  20
ENDBRANCH  16  18
ENDBRANCH   1  16
TORSDOF 10
ENDMDL
MODEL 6
REMARK VINA RESULT:    -4.819      4.578      7.811
REMARK INTER + INTRA:          -9.711
REMARK INTER:                  -7.734
REMARK INTRA:                  -1.977
REMARK UNBOUND:                -2.356
REMARK SMILES COc1cc(C=CC(=O)CC(=O)C=Cc2ccc(O)c(OC)c2)ccc1O
REMARK SMILES IDX 10 1 8 2 9 3 7 4 6 5 5 6 3 7 26 8 4 9 25 10 24 11 2 12 1 13
REMARK SMILES IDX 27 14 11 16 12 17 13 18 14 19 15 20 23 21 16 22 20 23 17 24
REMARK SMILES IDX 18 25 21 26 22 27 19 28
REMARK H PARENT 27 15 19 29
REMARK Flexibility Score: inf
ROOT
ATOM      1  C   UNL     1     115.841 117.487 141.389  1.00  0.00     0.160 C 
ENDROOT
BRANCH   1   2
ATOM      2  C   UNL     1     116.923 118.235 140.670  1.00  0.00     0.163 C 
ATOM      3  O   UNL     1     118.016 118.459 141.261  1.00  0.00    -0.294 OA
BRANCH   2   4
ATOM      4  C   UNL     1     116.722 118.666 139.272  1.00  0.00     0.048 C 
ATOM      5  C   UNL     1     115.507 118.713 138.707  1.00  0.00     0.012 C 
BRANCH   5   6
ATOM      6  C   UNL     1     115.268 119.125 137.302  1.00  0.00    -0.022 A 
ATOM      7  C   UNL     1     116.191 119.935 135.183  1.00  0.00     0.161 A 
ATOM      8  C   UNL     1     114.905 119.903 134.617  1.00  0.00     0.157 A 
ATOM      9  C   UNL     1     116.363 119.538 136.525  1.00  0.00     0.058 A 
ATOM     10  C   UNL     1     113.816 119.475 135.381  1.00  0.00     0.051 A 
ATOM     11  C   UNL     1     113.991 119.085 136.710  1.00  0.00     0.012 A 
BRANCH   7  12
ATOM     12  O   UNL     1     117.268 120.363 134.391  1.00  0.00    -0.493 OA
ATOM     13  C   UNL     1     117.791 121.689 134.383  1.00  0.00     0.278 C 
ENDBRANCH   7  12
BRANCH   8  14
ATOM     14  O   UNL     1     114.689 120.289 133.295  1.00  0.00    -0.504 OA
ATOM     15  H   UNL     1     114.424 121.233 133.043  1.00  0.00     0.293 HD
ENDBRANCH   8  14
ENDBRANCH   5   6
ENDBRANCH   2   4
ENDBRANCH   1   2
BRANCH   1  16
ATOM     16  C   UNL     1     116.130 116.018 141.372  1.00  0.00     0.163 C 
ATOM     17  O   UNL     1     117.195 115.597 141.900  1.00  0.00    -0.294 OA
BRANCH  16  18
ATOM     18  C   UNL     1     115.120 115.077 140.840  1.00  0.00     0.048 C 
ATOM     19  C   UNL     1     115.174 114.464 139.647  1.00  0.00     0.012 C 
BRANCH  19  20
ATOM     20  C   UNL     1     116.156 114.754 138.580  1.00  0.00    -0.022 A 
ATOM     21  C   UNL     1     117.422 114.155 138.633  1.00  0.00     0.058 A 
ATOM     22  C   UNL     1     115.809 115.535 137.466  1.00  0.00     0.012 A 
ATOM     23  C   UNL     1     118.365 114.376 137.608  1.00  0.00     0.161 A 
ATOM     24  C   UNL     1     116.738 115.760 136.449  1.00  0.00     0.051 A 
ATOM     25  C   UNL     1     118.013 115.191 136.516  1.00  0.00     0.157 A 
BRANCH  23  26
ATOM     26  O   UNL     1     119.648 113.805 137.642  1.00  0.00    -0.493 OA
ATOM     27  C   UNL     1     119.922 112.455 138.002  1.00  0.00     0.278 C 
ENDBRANCH  23  26
BRANCH  25  28
ATOM     28  O   UNL     1     118.917 115.442 135.484  1.00  0.00    -0.504 OA
ATOM     29  H   UNL     1     118.626 115.825 134.593  1.00  0.00     0.293 HD
ENDBRANCH  25  28
ENDBRANCH  19  20
ENDBRANCH  16  18
ENDBRANCH   1  16
TORSDOF 10
ENDMDL
MODEL 7
REMARK VINA RESULT:    -4.736     15.427     18.408
REMARK INTER + INTRA:          -9.584
REMARK INTER:                  -7.909
REMARK INTRA:                  -1.675
REMARK UNBOUND:                -2.356
REMARK SMILES COc1cc(C=CC(=O)CC(=O)C=Cc2ccc(O)c(OC)c2)ccc1O
REMARK SMILES IDX 10 1 8 2 9 3 7 4 6 5 5 6 3 7 26 8 4 9 25 10 24 11 2 12 1 13
REMARK SMILES IDX 27 14 11 16 12 17 13 18 14 19 15 20 23 21 16 22 20 23 17 24
REMARK SMILES IDX 18 25 21 26 22 27 19 28
REMARK H PARENT 27 15 19 29
REMARK Flexibility Score: inf
ROOT
ATOM      1  C   UNL     1     126.234 115.045 149.866  1.00  0.00     0.160 C 
ENDROOT
BRANCH   1   2
ATOM      2  C   UNL     1     127.665 115.405 149.600  1.00  0.00     0.163 C 
ATOM      3  O   UNL     1     128.319 116.028 150.482  1.00  0.00    -0.294 OA
BRANCH   2   4
ATOM      4  C   UNL     1     128.309 114.994 148.336  1.00  0.00     0.048 C 
ATOM      5  C   UNL     1     127.610 114.488 147.310  1.00  0.00     0.012 C 
BRANCH   5   6
ATOM      6  C   UNL     1     128.223 114.050 146.032  1.00  0.00    -0.022 A 
ATOM      7  C   UNL     1     127.957 113.610 143.638  1.00  0.00     0.161 A 
ATOM      8  C   UNL     1     129.314 113.252 143.559  1.00  0.00     0.157 A 
ATOM      9  C   UNL     1     127.422 114.013 144.878  1.00  0.00     0.058 A 
ATOM     10  C   UNL     1     130.118 113.304 144.701  1.00  0.00     0.051 A 
ATOM     11  C   UNL     1     129.584 113.704 145.927  1.00  0.00     0.012 A 
BRANCH   7  12
ATOM     12  O   UNL     1     127.173 113.553 142.474  1.00  0.00    -0.493 OA
ATOM     13  C   UNL     1     126.889 114.667 141.633  1.00  0.00     0.278 C 
ENDBRANCH   7  12
BRANCH   8  14
ATOM     14  O   UNL     1     129.884 112.844 142.353  1.00  0.00    -0.504 OA
ATOM     15  H   UNL     1     130.827 112.481 142.296  1.00  0.00     0.293 HD
ENDBRANCH   8  14
ENDBRANCH   5   6
ENDBRANCH   2   4
ENDBRANCH   1   2
BRANCH   1  16
ATOM     16  C   UNL     1     126.148 114.077 151.004  1.00  0.00     0.163 C 
ATOM     17  O   UNL     1     125.403 114.349 151.985  1.00  0.00    -0.294 OA
BRANCH  16  18
ATOM     18  C   UNL     1     126.843 112.773 150.915  1.00  0.00     0.048 C 
ATOM     19  C   UNL     1     126.387 111.688 150.271  1.00  0.00     0.012 C 
BRANCH  19  20
ATOM     20  C   UNL     1     125.036 111.542 149.689  1.00  0.00    -0.022 A 
ATOM     21  C   UNL     1     124.821 111.909 148.354  1.00  0.00     0.058 A 
ATOM     22  C   UNL     1     123.992 110.949 150.417  1.00  0.00     0.012 A 
ATOM     23  C   UNL     1     123.555 111.740 147.757  1.00  0.00     0.161 A 
ATOM     24  C   UNL     1     122.735 110.781 149.834  1.00  0.00     0.051 A 
ATOM     25  C   UNL     1     122.509 111.178 148.513  1.00  0.00     0.157 A 
BRANCH  23  26
ATOM     26  O   UNL     1     123.304 112.116 146.427  1.00  0.00    -0.493 OA
ATOM     27  C   UNL     1     124.227 111.959 145.355  1.00  0.00     0.278 C 
ENDBRANCH  23  26
BRANCH  25  28
ATOM     28  O   UNL     1     121.239 111.000 147.964  1.00  0.00    -0.504 OA
ATOM     29  H   UNL     1     120.406 110.944 148.538  1.00  0.00     0.293 HD
ENDBRANCH  25  28
ENDBRANCH  19  20
ENDBRANCH  16  18
ENDBRANCH   1  16
TORSDOF 10
ENDMDL
MODEL 8
REMARK VINA RESULT:    -4.730      5.520      9.743
REMARK INTER + INTRA:          -9.575
REMARK INTER:                  -8.548
REMARK INTRA:                  -1.027
REMARK UNBOUND:                -2.356
REMARK SMILES COc1cc(C=CC(=O)CC(=O)C=Cc2ccc(O)c(OC)c2)ccc1O
REMARK SMILES IDX 10 1 8 2 9 3 7 4 6 5 5 6 3 7 26 8 4 9 25 10 24 11 2 12 1 13
REMARK SMILES IDX 27 14 11 16 12 17 13 18 14 19 15 20 23 21 16 22 20 23 17 24
REMARK SMILES IDX 18 25 21 26 22 27 19 28
REMARK H PARENT 27 15 19 29
REMARK Flexibility Score: inf
ROOT
ATOM      1  C   UNL     1     123.074 124.163 142.604  1.00  0.00     0.160 C 
ENDROOT
BRANCH   1   2
ATOM      2  C   UNL     1     122.726 125.259 141.644  1.00  0.00     0.163 C 
ATOM      3  O   UNL     1     123.293 126.381 141.757  1.00  0.00    -0.294 OA
BRANCH   2   4
ATOM      4  C   UNL     1     121.762 125.010 140.553  1.00  0.00     0.048 C 
ATOM      5  C   UNL     1     121.357 125.981 139.722  1.00  0.00     0.012 C 
BRANCH   5   6
ATOM      6  C   UNL     1     120.379 125.771 138.626  1.00  0.00    -0.022 A 
ATOM      7  C   UNL     1     118.052 125.413 137.952  1.00  0.00     0.161 A 
ATOM      8  C   UNL     1     118.452 125.391 136.605  1.00  0.00     0.157 A 
ATOM      9  C   UNL     1     119.022 125.610 138.956  1.00  0.00     0.058 A 
ATOM     10  C   UNL     1     119.797 125.570 136.273  1.00  0.00     0.051 A 
ATOM     11  C   UNL     1     120.755 125.763 137.270  1.00  0.00     0.012 A 
BRANCH   7  12
ATOM     12  O   UNL     1     116.693 125.236 138.258  1.00  0.00    -0.493 OA
ATOM     13  C   UNL     1     115.953 126.051 139.163  1.00  0.00     0.278 C 
ENDBRANCH   7  12
BRANCH   8  14
ATOM     14  O   UNL     1     117.526 125.197 135.581  1.00  0.00    -0.504 OA
ATOM     15  H   UNL     1     117.717 125.459 134.622  1.00  0.00     0.293 HD
ENDBRANCH   8  14
ENDBRANCH   5   6
ENDBRANCH   2   4
ENDBRANCH   1   2
BRANCH   1  16
ATOM     16  C   UNL     1     123.275 124.723 143.978  1.00  0.00     0.163 C 
ATOM     17  O   UNL     1     122.374 125.450 144.481  1.00  0.00    -0.294 OA
BRANCH  16  18
ATOM     18  C   UNL     1     124.465 124.332 144.765  1.00  0.00     0.048 C 
ATOM     19  C   UNL     1     125.628 125.000 144.807  1.00  0.00     0.012 C 
BRANCH  19  20
ATOM     20  C   UNL     1     125.990 126.144 143.944  1.00  0.00    -0.022 A 
ATOM     21  C   UNL     1     126.521 125.900 142.670  1.00  0.00     0.058 A 
ATOM     22  C   UNL     1     125.717 127.465 144.334  1.00  0.00     0.012 A 
ATOM     23  C   UNL     1     126.835 126.969 141.805  1.00  0.00     0.161 A 
ATOM     24  C   UNL     1     126.027 128.528 143.485  1.00  0.00     0.051 A 
ATOM     25  C   UNL     1     126.589 128.288 142.228  1.00  0.00     0.157 A 
BRANCH  23  26
ATOM     26  O   UNL     1     127.387 126.757 140.531  1.00  0.00    -0.493 OA
ATOM     27  C   UNL     1     127.402 125.504 139.855  1.00  0.00     0.278 C 
ENDBRANCH  23  26
BRANCH  25  28
ATOM     28  O   UNL     1     126.891 129.375 141.407  1.00  0.00    -0.504 OA
ATOM     29  H   UNL     1     126.173 129.904 140.925  1.00  0.00     0.293 HD
ENDBRANCH  25  28
ENDBRANCH  19  20
ENDBRANCH  16  18
ENDBRANCH   1  16
TORSDOF 10
ENDMDL
MODEL 9
REMARK VINA RESULT:    -4.728      9.404     12.839
REMARK INTER + INTRA:          -9.572
REMARK INTER:                  -7.682
REMARK INTRA:                  -1.889
REMARK UNBOUND:                -2.356
REMARK SMILES COc1cc(C=CC(=O)CC(=O)C=Cc2ccc(O)c(OC)c2)ccc1O
REMARK SMILES IDX 10 1 8 2 9 3 7 4 6 5 5 6 3 7 26 8 4 9 25 10 24 11 2 12 1 13
REMARK SMILES IDX 27 14 11 16 12 17 13 18 14 19 15 20 23 21 16 22 20 23 17 24
REMARK SMILES IDX 18 25 21 26 22 27 19 28
REMARK H PARENT 27 15 19 29
REMARK Flexibility Score: inf
ROOT
ATOM      1  C   UNL     1     120.755 123.408 148.626  1.00  0.00     0.160 C 
ENDROOT
BRANCH   1   2
ATOM      2  C   UNL     1     122.114 122.985 148.155  1.00  0.00     0.163 C 
ATOM      3  O   UNL     1     122.854 122.315 148.928  1.00  0.00    -0.294 OA
BRANCH   2   4
ATOM      4  C   UNL     1     122.559 123.317 146.786  1.00  0.00     0.048 C 
ATOM      5  C   UNL     1     121.765 123.949 145.911  1.00  0.00     0.012 C 
BRANCH   5   6
ATOM      6  C   UNL     1     122.172 124.284 144.523  1.00  0.00    -0.022 A 
ATOM      7  C   UNL     1     123.026 125.955 142.950  1.00  0.00     0.161 A 
ATOM      8  C   UNL     1     122.984 124.998 141.921  1.00  0.00     0.157 A 
ATOM      9  C   UNL     1     122.623 125.586 144.250  1.00  0.00     0.058 A 
ATOM     10  C   UNL     1     122.553 123.697 142.194  1.00  0.00     0.051 A 
ATOM     11  C   UNL     1     122.154 123.337 143.482  1.00  0.00     0.012 A 
BRANCH   7  12
ATOM     12  O   UNL     1     123.467 127.253 142.649  1.00  0.00    -0.493 OA
ATOM     13  C   UNL     1     124.627 127.864 143.208  1.00  0.00     0.278 C 
ENDBRANCH   7  12
BRANCH   8  14
ATOM     14  O   UNL     1     123.371 125.320 140.620  1.00  0.00    -0.504 OA
ATOM     15  H   UNL     1     123.578 126.270 140.337  1.00  0.00     0.293 HD
ENDBRANCH   8  14
ENDBRANCH   5   6
ENDBRANCH   2   4
ENDBRANCH   1   2
BRANCH   1  16
ATOM     16  C   UNL     1     120.870 124.582 149.549  1.00  0.00     0.163 C 
ATOM     17  O   UNL     1     121.145 124.382 150.763  1.00  0.00    -0.294 OA
BRANCH  16  18
ATOM     18  C   UNL     1     120.770 125.955 149.006  1.00  0.00     0.048 C 
ATOM     19  C   UNL     1     121.805 126.730 148.647  1.00  0.00     0.012 C 
BRANCH  19  20
ATOM     20  C   UNL     1     123.230 126.424 148.893  1.00  0.00    -0.022 A 
ATOM     21  C   UNL     1     124.079 126.193 147.803  1.00  0.00     0.058 A 
ATOM     22  C   UNL     1     123.768 126.460 150.189  1.00  0.00     0.012 A 
ATOM     23  C   UNL     1     125.453 125.941 148.002  1.00  0.00     0.161 A 
ATOM     24  C   UNL     1     125.125 126.209 150.395  1.00  0.00     0.051 A 
ATOM     25  C   UNL     1     125.968 125.945 149.312  1.00  0.00     0.157 A 
BRANCH  23  26
ATOM     26  O   UNL     1     126.325 125.687 146.931  1.00  0.00    -0.493 OA
ATOM     27  C   UNL     1     126.895 126.691 146.098  1.00  0.00     0.278 C 
ENDBRANCH  23  26
BRANCH  25  28
ATOM     28  O   UNL     1     127.318 125.695 149.555  1.00  0.00    -0.504 OA
ATOM     29  H   UNL     1     128.056 126.174 149.052  1.00  0.00     0.293 HD
ENDBRANCH  25  28
ENDBRANCH  19  20
ENDBRANCH  16  18
ENDBRANCH   1  16
TORSDOF 10
ENDMDL
