MODEL 1
REMARK VINA RESULT:    -2.637      0.000      0.000
REMARK INTER + INTRA:         -10.757
REMARK INTER:                  -6.028
REMARK INTRA:                  -4.730
REMARK UNBOUND:                -4.730
REMARK SMILES CCCCCCCCCCCCCCCCCCCCCCCC(=O)[O-]
REMARK SMILES IDX 13 1 14 2 15 3 16 4 17 5 18 6 19 7 20 8 21 9 22 10 23 11
REMARK SMILES IDX 24 12 25 13 26 14 12 15 11 16 10 17 9 18 8 19 7 20 6 21 5 22
REMARK SMILES IDX 4 23 3 24 2 25 1 26
REMARK H PARENT
REMARK Flexibility Score: inf
ROOT
ATOM      1  C   UNL     1     147.319 161.791 154.419  1.00  0.00     0.000 C 
ENDROOT
BRANCH   1   2
ATOM      2  C   UNL     1     147.355 162.722 155.641  1.00  0.00     0.000 C 
BRANCH   2   3
ATOM      3  C   UNL     1     146.588 164.035 155.409  1.00  0.00     0.000 C 
BRANCH   3   4
ATOM      4  C   UNL     1     147.514 165.259 155.300  1.00  0.00     0.000 C 
BRANCH   4   5
ATOM      5  C   UNL     1     147.404 166.041 153.977  1.00  0.00     0.000 C 
BRANCH   5   6
ATOM      6  C   UNL     1     146.269 165.536 153.070  1.00  0.00     0.000 C 
BRANCH   6   7
ATOM      7  C   UNL     1     146.585 165.742 151.577  1.00  0.00     0.000 C 
BRANCH   7   8
ATOM      8  C   UNL     1     147.946 166.419 151.324  1.00  0.00     0.000 C 
BRANCH   8   9
ATOM      9  C   UNL     1     148.589 165.953 150.006  1.00  0.00     0.000 C 
BRANCH   9  10
ATOM     10  C   UNL     1     147.586 165.268 149.065  1.00  0.00     0.006 C 
BRANCH  10  11
ATOM     11  C   UNL     1     148.269 164.523 147.910  1.00  0.00     0.053 C 
BRANCH  11  12
ATOM     12  C   UNL     1     148.983 165.487 147.016  1.00  0.00     0.041 C 
ATOM     13  O   UNL     1     150.228 165.396 146.852  1.00  0.00    -0.550 OA
ATOM     14  O   UNL     1     148.279 166.509 146.394  1.00  0.00    -0.550 OA
ENDBRANCH  11  12
ENDBRANCH  10  11
ENDBRANCH   9  10
ENDBRANCH   8   9
ENDBRANCH   7   8
ENDBRANCH   6   7
ENDBRANCH   5   6
ENDBRANCH   4   5
ENDBRANCH   3   4
ENDBRANCH   2   3
ENDBRANCH   1   2
BRANCH   1  15
ATOM     15  C   UNL     1     146.277 162.227 153.376  1.00  0.00     0.000 C 
BRANCH  15  16
ATOM     16  C   UNL     1     146.670 161.830 151.944  1.00  0.00     0.000 C 
BRANCH  16  17
ATOM     17  C   UNL     1     148.143 161.413 151.826  1.00  0.00     0.000 C 
BRANCH  17  18
ATOM     18  C   UNL     1     148.952 162.477 151.070  1.00  0.00    -0.000 C 
BRANCH  18  19
ATOM     19  C   UNL     1     150.265 162.837 151.790  1.00  0.00    -0.000 C 
BRANCH  19  20
ATOM     20  C   UNL     1     150.076 163.819 152.964  1.00  0.00    -0.000 C 
BRANCH  20  21
ATOM     21  C   UNL     1     150.761 163.377 154.273  1.00  0.00    -0.000 C 
BRANCH  21  22
ATOM     22  C   UNL     1     151.283 161.926 154.250  1.00  0.00    -0.000 C 
BRANCH  22  23
ATOM     23  C   UNL     1     150.672 161.063 155.365  1.00  0.00    -0.000 C 
BRANCH  23  24
ATOM     24  C   UNL     1     150.311 159.665 154.841  1.00  0.00    -0.000 C 
BRANCH  24  25
ATOM     25  C   UNL     1     150.758 159.446 153.388  1.00  0.00    -0.003 C 
ATOM     26  C   UNL     1     151.386 158.069 153.165  1.00  0.00     0.004 C 
ENDBRANCH  24  25
ENDBRANCH  23  24
ENDBRANCH  22  23
ENDBRANCH  21  22
ENDBRANCH  20  21
ENDBRANCH  19  20
ENDBRANCH  18  19
ENDBRANCH  17  18
ENDBRANCH  16  17
ENDBRANCH  15  16
ENDBRANCH   1  15
TORSDOF 22
ENDMDL
MODEL 2
REMARK VINA RESULT:    -2.626      1.990      4.236
REMARK INTER + INTRA:         -10.734
REMARK INTER:                  -6.379
REMARK INTRA:                  -4.355
REMARK UNBOUND:                -4.730
REMARK SMILES CCCCCCCCCCCCCCCCCCCCCCCC(=O)[O-]
REMARK SMILES IDX 13 1 14 2 15 3 16 4 17 5 18 6 19 7 20 8 21 9 22 10 23 11
REMARK SMILES IDX 24 12 25 13 26 14 12 15 11 16 10 17 9 18 8 19 7 20 6 21 5 22
REMARK SMILES IDX 4 23 3 24 2 25 1 26
REMARK H PARENT
REMARK Flexibility Score: inf
ROOT
ATOM      1  C   UNL     1     146.285 163.890 153.891  1.00  0.00     0.000 C 
ENDROOT
BRANCH   1   2
ATOM      2  C   UNL     1     145.974 163.900 152.387  1.00  0.00     0.000 C 
BRANCH   2   3
ATOM      3  C   UNL     1     146.235 162.540 151.718  1.00  0.00     0.000 C 
BRANCH   3   4
ATOM      4  C   UNL     1     147.148 161.626 152.554  1.00  0.00     0.000 C 
BRANCH   4   5
ATOM      5  C   UNL     1     148.488 161.262 151.889  1.00  0.00     0.000 C 
BRANCH   5   6
ATOM      6  C   UNL     1     149.442 162.461 151.760  1.00  0.00     0.000 C 
BRANCH   6   7
ATOM      7  C   UNL     1     149.496 163.007 150.321  1.00  0.00     0.000 C 
BRANCH   7   8
ATOM      8  C   UNL     1     149.307 164.533 150.235  1.00  0.00     0.000 C 
BRANCH   8   9
ATOM      9  C   UNL     1     149.523 165.221 151.594  1.00  0.00     0.000 C 
BRANCH   9  10
ATOM     10  C   UNL     1     148.664 166.484 151.764  1.00  0.00     0.006 C 
BRANCH  10  11
ATOM     11  C   UNL     1     147.680 166.692 150.605  1.00  0.00     0.053 C 
BRANCH  11  12
ATOM     12  C   UNL     1     147.925 168.011 149.942  1.00  0.00     0.041 C 
ATOM     13  O   UNL     1     148.628 168.887 150.513  1.00  0.00    -0.550 OA
ATOM     14  O   UNL     1     147.347 168.287 148.710  1.00  0.00    -0.550 OA
ENDBRANCH  11  12
ENDBRANCH  10  11
ENDBRANCH   9  10
ENDBRANCH   8   9
ENDBRANCH   7   8
ENDBRANCH   6   7
ENDBRANCH   5   6
ENDBRANCH   4   5
ENDBRANCH   3   4
ENDBRANCH   2   3
ENDBRANCH   1   2
BRANCH   1  15
ATOM     15  C   UNL     1     146.545 165.298 154.450  1.00  0.00     0.000 C 
BRANCH  15  16
ATOM     16  C   UNL     1     147.885 165.402 155.197  1.00  0.00     0.000 C 
BRANCH  16  17
ATOM     17  C   UNL     1     148.574 164.041 155.373  1.00  0.00     0.000 C 
BRANCH  17  18
ATOM     18  C   UNL     1     150.075 164.148 155.068  1.00  0.00    -0.000 C 
BRANCH  18  19
ATOM     19  C   UNL     1     150.890 163.022 155.733  1.00  0.00    -0.000 C 
BRANCH  19  20
ATOM     20  C   UNL     1     150.836 161.685 154.965  1.00  0.00    -0.000 C 
BRANCH  20  21
ATOM     21  C   UNL     1     150.413 160.480 155.828  1.00  0.00    -0.000 C 
BRANCH  21  22
ATOM     22  C   UNL     1     148.973 159.993 155.567  1.00  0.00    -0.000 C 
BRANCH  22  23
ATOM     23  C   UNL     1     148.036 160.263 156.754  1.00  0.00    -0.000 C 
BRANCH  23  24
ATOM     24  C   UNL     1     147.003 161.344 156.402  1.00  0.00    -0.000 C 
BRANCH  24  25
ATOM     25  C   UNL     1     145.986 161.578 157.528  1.00  0.00    -0.003 C 
ATOM     26  C   UNL     1     146.118 160.563 158.664  1.00  0.00     0.004 C 
ENDBRANCH  24  25
ENDBRANCH  23  24
ENDBRANCH  22  23
ENDBRANCH  21  22
ENDBRANCH  20  21
ENDBRANCH  19  20
ENDBRANCH  18  19
ENDBRANCH  17  18
ENDBRANCH  16  17
ENDBRANCH  15  16
ENDBRANCH   1  15
TORSDOF 22
ENDMDL
MODEL 3
REMARK VINA RESULT:    -2.610      3.696      6.161
REMARK INTER + INTRA:         -10.696
REMARK INTER:                  -6.427
REMARK INTRA:                  -4.269
REMARK UNBOUND:                -4.730
REMARK SMILES CCCCCCCCCCCCCCCCCCCCCCCC(=O)[O-]
REMARK SMILES IDX 13 1 14 2 15 3 16 4 17 5 18 6 19 7 20 8 21 9 22 10 23 11
REMARK SMILES IDX 24 12 25 13 26 14 12 15 11 16 10 17 9 18 8 19 7 20 6 21 5 22
REMARK SMILES IDX 4 23 3 24 2 25 1 26
REMARK H PARENT
REMARK Flexibility Score: inf
ROOT
ATOM      1  C   UNL     1     147.207 166.157 152.966  1.00  0.00     0.000 C 
ENDROOT
BRANCH   1   2
ATOM      2  C   UNL     1     146.296 165.307 152.067  1.00  0.00     0.000 C 
BRANCH   2   3
ATOM      3  C   UNL     1     146.961 163.993 151.624  1.00  0.00     0.000 C 
BRANCH   3   4
ATOM      4  C   UNL     1     146.110 162.751 151.946  1.00  0.00     0.000 C 
BRANCH   4   5
ATOM      5  C   UNL     1     146.899 161.434 152.059  1.00  0.00     0.000 C 
BRANCH   5   6
ATOM      6  C   UNL     1     148.380 161.646 152.415  1.00  0.00     0.000 C 
BRANCH   6   7
ATOM      7  C   UNL     1     149.307 161.402 151.210  1.00  0.00     0.000 C 
BRANCH   7   8
ATOM      8  C   UNL     1     150.279 160.224 151.410  1.00  0.00     0.000 C 
BRANCH   8   9
ATOM      9  C   UNL     1     151.740 160.693 151.535  1.00  0.00     0.000 C 
BRANCH   9  10
ATOM     10  C   UNL     1     152.732 159.524 151.643  1.00  0.00     0.006 C 
BRANCH  10  11
ATOM     11  C   UNL     1     152.044 158.190 151.961  1.00  0.00     0.053 C 
BRANCH  11  12
ATOM     12  C   UNL     1     152.368 157.754 153.355  1.00  0.00     0.041 C 
ATOM     13  O   UNL     1     153.400 158.190 153.931  1.00  0.00    -0.550 OA
ATOM     14  O   UNL     1     151.551 156.839 154.005  1.00  0.00    -0.550 OA
ENDBRANCH  11  12
ENDBRANCH  10  11
ENDBRANCH   9  10
ENDBRANCH   8   9
ENDBRANCH   7   8
ENDBRANCH   6   7
ENDBRANCH   5   6
ENDBRANCH   4   5
ENDBRANCH   3   4
ENDBRANCH   2   3
ENDBRANCH   1   2
BRANCH   1  15
ATOM     15  C   UNL     1     148.445 165.385 153.452  1.00  0.00     0.000 C 
BRANCH  15  16
ATOM     16  C   UNL     1     148.423 165.122 154.966  1.00  0.00     0.000 C 
BRANCH  16  17
ATOM     17  C   UNL     1     147.022 165.275 155.576  1.00  0.00     0.000 C 
BRANCH  17  18
ATOM     18  C   UNL     1     146.355 163.904 155.758  1.00  0.00    -0.000 C 
BRANCH  18  19
ATOM     19  C   UNL     1     147.357 162.742 155.627  1.00  0.00    -0.000 C 
BRANCH  19  20
ATOM     20  C   UNL     1     146.971 161.497 156.453  1.00  0.00    -0.000 C 
BRANCH  20  21
ATOM     21  C   UNL     1     147.722 160.213 156.048  1.00  0.00    -0.000 C 
BRANCH  21  22
ATOM     22  C   UNL     1     149.226 160.231 156.388  1.00  0.00    -0.000 C 
BRANCH  22  23
ATOM     23  C   UNL     1     150.111 159.948 155.164  1.00  0.00    -0.000 C 
BRANCH  23  24
ATOM     24  C   UNL     1     151.343 160.866 155.155  1.00  0.00    -0.000 C 
BRANCH  24  25
ATOM     25  C   UNL     1     150.982 162.336 154.897  1.00  0.00    -0.003 C 
ATOM     26  C   UNL     1     151.431 163.261 156.029  1.00  0.00     0.004 C 
ENDBRANCH  24  25
ENDBRANCH  23  24
ENDBRANCH  22  23
ENDBRANCH  21  22
ENDBRANCH  20  21
ENDBRANCH  19  20
ENDBRANCH  18  19
ENDBRANCH  17  18
ENDBRANCH  16  17
ENDBRANCH  15  16
ENDBRANCH   1  15
TORSDOF 22
ENDMDL
MODEL 4
REMARK VINA RESULT:    -2.525      6.361      9.159
REMARK INTER + INTRA:         -10.503
REMARK INTER:                  -6.448
REMARK INTRA:                  -4.054
REMARK UNBOUND:                -4.730
REMARK SMILES CCCCCCCCCCCCCCCCCCCCCCCC(=O)[O-]
REMARK SMILES IDX 13 1 14 2 15 3 16 4 17 5 18 6 19 7 20 8 21 9 22 10 23 11
REMARK SMILES IDX 24 12 25 13 26 14 12 15 11 16 10 17 9 18 8 19 7 20 6 21 5 22
REMARK SMILES IDX 4 23 3 24 2 25 1 26
REMARK H PARENT
REMARK Flexibility Score: inf
ROOT
ATOM      1  C   UNL     1     150.013 160.223 161.603  1.00  0.00     0.000 C 
ENDROOT
BRANCH   1   2
ATOM      2  C   UNL     1     148.926 159.502 160.792  1.00  0.00     0.000 C 
BRANCH   2   3
ATOM      3  C   UNL     1     147.569 160.224 160.847  1.00  0.00     0.000 C 
BRANCH   3   4
ATOM      4  C   UNL     1     146.373 159.256 160.804  1.00  0.00     0.000 C 
BRANCH   4   5
ATOM      5  C   UNL     1     145.875 158.900 159.391  1.00  0.00     0.000 C 
BRANCH   5   6
ATOM      6  C   UNL     1     146.317 159.914 158.322  1.00  0.00     0.000 C 
BRANCH   6   7
ATOM      7  C   UNL     1     147.119 159.248 157.187  1.00  0.00     0.000 C 
BRANCH   7   8
ATOM      8  C   UNL     1     148.543 159.812 157.027  1.00  0.00     0.000 C 
BRANCH   8   9
ATOM      9  C   UNL     1     148.887 160.111 155.558  1.00  0.00     0.000 C 
BRANCH   9  10
ATOM     10  C   UNL     1     147.857 161.028 154.880  1.00  0.00     0.006 C 
BRANCH  10  11
ATOM     11  C   UNL     1     147.690 162.370 155.605  1.00  0.00     0.053 C 
BRANCH  11  12
ATOM     12  C   UNL     1     148.501 163.432 154.931  1.00  0.00     0.041 C 
ATOM     13  O   UNL     1     148.718 163.372 153.692  1.00  0.00    -0.550 OA
ATOM     14  O   UNL     1     149.047 164.468 155.677  1.00  0.00    -0.550 OA
ENDBRANCH  11  12
ENDBRANCH  10  11
ENDBRANCH   9  10
ENDBRANCH   8   9
ENDBRANCH   7   8
ENDBRANCH   6   7
ENDBRANCH   5   6
ENDBRANCH   4   5
ENDBRANCH   3   4
ENDBRANCH   2   3
ENDBRANCH   1   2
BRANCH   1  15
ATOM     15  C   UNL     1     150.152 159.667 163.030  1.00  0.00     0.000 C 
BRANCH  15  16
ATOM     16  C   UNL     1     149.766 158.182 163.128  1.00  0.00     0.000 C 
BRANCH  16  17
ATOM     17  C   UNL     1     148.741 157.906 164.236  1.00  0.00     0.000 C 
BRANCH  17  18
ATOM     18  C   UNL     1     147.601 157.018 163.715  1.00  0.00    -0.000 C 
BRANCH  18  19
ATOM     19  C   UNL     1     147.986 156.264 162.428  1.00  0.00    -0.000 C 
BRANCH  19  20
ATOM     20  C   UNL     1     146.773 155.734 161.637  1.00  0.00    -0.000 C 
BRANCH  20  21
ATOM     21  C   UNL     1     147.039 155.537 160.131  1.00  0.00    -0.000 C 
BRANCH  21  22
ATOM     22  C   UNL     1     148.534 155.451 159.763  1.00  0.00    -0.000 C 
BRANCH  22  23
ATOM     23  C   UNL     1     148.895 156.333 158.557  1.00  0.00    -0.000 C 
BRANCH  23  24
ATOM     24  C   UNL     1     150.287 156.959 158.732  1.00  0.00    -0.000 C 
BRANCH  24  25
ATOM     25  C   UNL     1     150.999 156.469 160.001  1.00  0.00    -0.003 C 
ATOM     26  C   UNL     1     152.309 155.740 159.700  1.00  0.00     0.004 C 
ENDBRANCH  24  25
ENDBRANCH  23  24
ENDBRANCH  22  23
ENDBRANCH  21  22
ENDBRANCH  20  21
ENDBRANCH  19  20
ENDBRANCH  18  19
ENDBRANCH  17  18
ENDBRANCH  16  17
ENDBRANCH  15  16
ENDBRANCH   1  15
TORSDOF 22
ENDMDL
MODEL 5
REMARK VINA RESULT:    -2.524      3.367      6.366
REMARK INTER + INTRA:         -10.500
REMARK INTER:                  -6.902
REMARK INTRA:                  -3.598
REMARK UNBOUND:                -4.730
REMARK SMILES CCCCCCCCCCCCCCCCCCCCCCCC(=O)[O-]
REMARK SMILES IDX 13 1 14 2 15 3 16 4 17 5 18 6 19 7 20 8 21 9 22 10 23 11
REMARK SMILES IDX 24 12 25 13 26 14 12 15 11 16 10 17 9 18 8 19 7 20 6 21 5 22
REMARK SMILES IDX 4 23 3 24 2 25 1 26
REMARK H PARENT
REMARK Flexibility Score: inf
ROOT
ATOM      1  C   UNL     1     146.938 165.880 154.569  1.00  0.00     0.000 C 
ENDROOT
BRANCH   1   2
ATOM      2  C   UNL     1     146.730 164.496 155.201  1.00  0.00     0.000 C 
BRANCH   2   3
ATOM      3  C   UNL     1     147.946 163.572 155.017  1.00  0.00     0.000 C 
BRANCH   3   4
ATOM      4  C   UNL     1     147.580 162.218 154.384  1.00  0.00     0.000 C 
BRANCH   4   5
ATOM      5  C   UNL     1     146.617 162.301 153.185  1.00  0.00     0.000 C 
BRANCH   5   6
ATOM      6  C   UNL     1     147.253 161.830 151.866  1.00  0.00     0.000 C 
BRANCH   6   7
ATOM      7  C   UNL     1     148.336 162.804 151.364  1.00  0.00     0.000 C 
BRANCH   7   8
ATOM      8  C   UNL     1     149.735 162.170 151.263  1.00  0.00     0.000 C 
BRANCH   8   9
ATOM      9  C   UNL     1     149.668 160.647 151.053  1.00  0.00     0.000 C 
BRANCH   9  10
ATOM     10  C   UNL     1     150.691 159.883 151.908  1.00  0.00     0.006 C 
BRANCH  10  11
ATOM     11  C   UNL     1     150.291 159.809 153.387  1.00  0.00     0.053 C 
BRANCH  11  12
ATOM     12  C   UNL     1     151.021 158.697 154.071  1.00  0.00     0.041 C 
ATOM     13  O   UNL     1     151.338 157.659 153.431  1.00  0.00    -0.550 OA
ATOM     14  O   UNL     1     151.320 158.789 155.423  1.00  0.00    -0.550 OA
ENDBRANCH  11  12
ENDBRANCH  10  11
ENDBRANCH   9  10
ENDBRANCH   8   9
ENDBRANCH   7   8
ENDBRANCH   6   7
ENDBRANCH   5   6
ENDBRANCH   4   5
ENDBRANCH   3   4
ENDBRANCH   2   3
ENDBRANCH   1   2
BRANCH   1  15
ATOM     15  C   UNL     1     147.959 165.857 153.419  1.00  0.00     0.000 C 
BRANCH  15  16
ATOM     16  C   UNL     1     147.391 166.429 152.110  1.00  0.00     0.000 C 
BRANCH  16  17
ATOM     17  C   UNL     1     146.213 165.610 151.565  1.00  0.00     0.000 C 
BRANCH  17  18
ATOM     18  C   UNL     1     146.015 165.872 150.065  1.00  0.00    -0.000 C 
BRANCH  18  19
ATOM     19  C   UNL     1     147.349 165.924 149.298  1.00  0.00    -0.000 C 
BRANCH  19  20
ATOM     20  C   UNL     1     147.606 164.681 148.421  1.00  0.00    -0.000 C 
BRANCH  20  21
ATOM     21  C   UNL     1     148.918 164.739 147.614  1.00  0.00    -0.000 C 
BRANCH  21  22
ATOM     22  C   UNL     1     148.894 163.912 146.313  1.00  0.00    -0.000 C 
BRANCH  22  23
ATOM     23  C   UNL     1     149.984 162.830 146.282  1.00  0.00    -0.000 C 
BRANCH  23  24
ATOM     24  C   UNL     1     150.678 162.713 147.648  1.00  0.00    -0.000 C 
BRANCH  24  25
ATOM     25  C   UNL     1     151.475 161.408 147.795  1.00  0.00    -0.003 C 
ATOM     26  C   UNL     1     152.521 161.477 148.909  1.00  0.00     0.004 C 
ENDBRANCH  24  25
ENDBRANCH  23  24
ENDBRANCH  22  23
ENDBRANCH  21  22
ENDBRANCH  20  21
ENDBRANCH  19  20
ENDBRANCH  18  19
ENDBRANCH  17  18
ENDBRANCH  16  17
ENDBRANCH  15  16
ENDBRANCH   1  15
TORSDOF 22
ENDMDL
MODEL 6
REMARK VINA RESULT:    -2.523      2.981      5.815
REMARK INTER + INTRA:         -10.497
REMARK INTER:                  -5.984
REMARK INTRA:                  -4.513
REMARK UNBOUND:                -4.730
REMARK SMILES CCCCCCCCCCCCCCCCCCCCCCCC(=O)[O-]
REMARK SMILES IDX 13 1 14 2 15 3 16 4 17 5 18 6 19 7 20 8 21 9 22 10 23 11
REMARK SMILES IDX 24 12 25 13 26 14 12 15 11 16 10 17 9 18 8 19 7 20 6 21 5 22
REMARK SMILES IDX 4 23 3 24 2 25 1 26
REMARK H PARENT
REMARK Flexibility Score: inf
ROOT
ATOM      1  C   UNL     1     148.647 165.438 154.542  1.00  0.00     0.000 C 
ENDROOT
BRANCH   1   2
ATOM      2  C   UNL     1     148.347 164.345 155.580  1.00  0.00     0.000 C 
BRANCH   2   3
ATOM      3  C   UNL     1     146.841 164.156 155.822  1.00  0.00     0.000 C 
BRANCH   3   4
ATOM      4  C   UNL     1     146.283 162.879 155.167  1.00  0.00     0.000 C 
BRANCH   4   5
ATOM      5  C   UNL     1     147.209 161.651 155.245  1.00  0.00     0.000 C 
BRANCH   5   6
ATOM      6  C   UNL     1     147.767 161.228 153.876  1.00  0.00     0.000 C 
BRANCH   6   7
ATOM      7  C   UNL     1     146.972 161.846 152.710  1.00  0.00     0.000 C 
BRANCH   7   8
ATOM      8  C   UNL     1     147.864 162.373 151.570  1.00  0.00     0.000 C 
BRANCH   8   9
ATOM      9  C   UNL     1     149.297 162.670 152.045  1.00  0.00     0.000 C 
BRANCH   9  10
ATOM     10  C   UNL     1     150.363 161.952 151.203  1.00  0.00     0.006 C 
BRANCH  10  11
ATOM     11  C   UNL     1     150.096 160.448 151.064  1.00  0.00     0.053 C 
BRANCH  11  12
ATOM     12  C   UNL     1     150.963 159.674 152.006  1.00  0.00     0.041 C 
ATOM     13  O   UNL     1     151.612 158.676 151.594  1.00  0.00    -0.550 OA
ATOM     14  O   UNL     1     151.025 160.031 153.346  1.00  0.00    -0.550 OA
ENDBRANCH  11  12
ENDBRANCH  10  11
ENDBRANCH   9  10
ENDBRANCH   8   9
ENDBRANCH   7   8
ENDBRANCH   6   7
ENDBRANCH   5   6
ENDBRANCH   4   5
ENDBRANCH   3   4
ENDBRANCH   2   3
ENDBRANCH   1   2
BRANCH   1  15
ATOM     15  C   UNL     1     147.373 166.122 154.021  1.00  0.00     0.000 C 
BRANCH  15  16
ATOM     16  C   UNL     1     147.238 166.039 152.492  1.00  0.00     0.000 C 
BRANCH  16  17
ATOM     17  C   UNL     1     145.888 165.462 152.044  1.00  0.00     0.000 C 
BRANCH  17  18
ATOM     18  C   UNL     1     145.875 165.219 150.528  1.00  0.00    -0.000 C 
BRANCH  18  19
ATOM     19  C   UNL     1     147.156 165.729 149.841  1.00  0.00    -0.000 C 
BRANCH  19  20
ATOM     20  C   UNL     1     147.494 164.982 148.533  1.00  0.00    -0.000 C 
BRANCH  20  21
ATOM     21  C   UNL     1     148.985 164.618 148.383  1.00  0.00    -0.000 C 
BRANCH  21  22
ATOM     22  C   UNL     1     149.883 165.165 149.510  1.00  0.00    -0.000 C 
BRANCH  22  23
ATOM     23  C   UNL     1     150.672 166.412 149.082  1.00  0.00    -0.000 C 
BRANCH  23  24
ATOM     24  C   UNL     1     151.197 167.176 150.307  1.00  0.00    -0.000 C 
BRANCH  24  25
ATOM     25  C   UNL     1     150.770 166.530 151.633  1.00  0.00    -0.003 C 
ATOM     26  C   UNL     1     151.494 167.128 152.841  1.00  0.00     0.004 C 
ENDBRANCH  24  25
ENDBRANCH  23  24
ENDBRANCH  22  23
ENDBRANCH  21  22
ENDBRANCH  20  21
ENDBRANCH  19  20
ENDBRANCH  18  19
ENDBRANCH  17  18
ENDBRANCH  16  17
ENDBRANCH  15  16
ENDBRANCH   1  15
TORSDOF 22
ENDMDL
MODEL 7
REMARK VINA RESULT:    -2.499      2.470      5.705
REMARK INTER + INTRA:         -10.442
REMARK INTER:                  -5.817
REMARK INTRA:                  -4.625
REMARK UNBOUND:                -4.730
REMARK SMILES CCCCCCCCCCCCCCCCCCCCCCCC(=O)[O-]
REMARK SMILES IDX 13 1 14 2 15 3 16 4 17 5 18 6 19 7 20 8 21 9 22 10 23 11
REMARK SMILES IDX 24 12 25 13 26 14 12 15 11 16 10 17 9 18 8 19 7 20 6 21 5 22
REMARK SMILES IDX 4 23 3 24 2 25 1 26
REMARK H PARENT
REMARK Flexibility Score: inf
ROOT
ATOM      1  C   UNL     1     148.175 165.320 154.542  1.00  0.00     0.000 C 
ENDROOT
BRANCH   1   2
ATOM      2  C   UNL     1     147.110 165.564 155.622  1.00  0.00     0.000 C 
BRANCH   2   3
ATOM      3  C   UNL     1     146.074 164.430 155.699  1.00  0.00     0.000 C 
BRANCH   3   4
ATOM      4  C   UNL     1     146.370 163.422 156.824  1.00  0.00     0.000 C 
BRANCH   4   5
ATOM      5  C   UNL     1     145.880 161.987 156.556  1.00  0.00     0.000 C 
BRANCH   5   6
ATOM      6  C   UNL     1     146.991 160.933 156.702  1.00  0.00     0.000 C 
BRANCH   6   7
ATOM      7  C   UNL     1     148.181 161.211 155.763  1.00  0.00     0.000 C 
BRANCH   7   8
ATOM      8  C   UNL     1     149.513 160.629 156.271  1.00  0.00     0.000 C 
BRANCH   8   9
ATOM      9  C   UNL     1     150.526 160.418 155.131  1.00  0.00     0.000 C 
BRANCH   9  10
ATOM     10  C   UNL     1     149.849 160.190 153.770  1.00  0.00     0.006 C 
BRANCH  10  11
ATOM     11  C   UNL     1     150.845 160.210 152.603  1.00  0.00     0.053 C 
BRANCH  11  12
ATOM     12  C   UNL     1     150.117 160.235 151.296  1.00  0.00     0.041 C 
ATOM     13  O   UNL     1     148.982 160.776 151.213  1.00  0.00    -0.550 OA
ATOM     14  O   UNL     1     150.673 159.628 150.178  1.00  0.00    -0.550 OA
ENDBRANCH  11  12
ENDBRANCH  10  11
ENDBRANCH   9  10
ENDBRANCH   8   9
ENDBRANCH   7   8
ENDBRANCH   6   7
ENDBRANCH   5   6
ENDBRANCH   4   5
ENDBRANCH   3   4
ENDBRANCH   2   3
ENDBRANCH   1   2
BRANCH   1  15
ATOM     15  C   UNL     1     149.384 164.530 155.071  1.00  0.00     0.000 C 
BRANCH  15  16
ATOM     16  C   UNL     1     150.337 164.083 153.951  1.00  0.00     0.000 C 
BRANCH  16  17
ATOM     17  C   UNL     1     149.607 163.776 152.636  1.00  0.00     0.000 C 
BRANCH  17  18
ATOM     18  C   UNL     1     150.412 164.290 151.433  1.00  0.00    -0.000 C 
BRANCH  18  19
ATOM     19  C   UNL     1     150.281 165.813 151.246  1.00  0.00    -0.000 C 
BRANCH  19  20
ATOM     20  C   UNL     1     149.036 166.229 150.435  1.00  0.00    -0.000 C 
BRANCH  20  21
ATOM     21  C   UNL     1     147.890 166.805 151.290  1.00  0.00    -0.000 C 
BRANCH  21  22
ATOM     22  C   UNL     1     146.623 165.926 151.319  1.00  0.00    -0.000 C 
BRANCH  22  23
ATOM     23  C   UNL     1     146.592 164.901 150.175  1.00  0.00    -0.000 C 
BRANCH  23  24
ATOM     24  C   UNL     1     146.556 163.467 150.725  1.00  0.00    -0.000 C 
BRANCH  24  25
ATOM     25  C   UNL     1     145.942 163.389 152.130  1.00  0.00    -0.003 C 
ATOM     26  C   UNL     1     146.260 162.072 152.841  1.00  0.00     0.004 C 
ENDBRANCH  24  25
ENDBRANCH  23  24
ENDBRANCH  22  23
ENDBRANCH  21  22
ENDBRANCH  20  21
ENDBRANCH  19  20
ENDBRANCH  18  19
ENDBRANCH  17  18
ENDBRANCH  16  17
ENDBRANCH  15  16
ENDBRANCH   1  15
TORSDOF 22
ENDMDL
MODEL 8
REMARK VINA RESULT:    -2.499      2.858      6.672
REMARK INTER + INTRA:         -10.442
REMARK INTER:                  -5.795
REMARK INTRA:                  -4.647
REMARK UNBOUND:                -4.730
REMARK SMILES CCCCCCCCCCCCCCCCCCCCCCCC(=O)[O-]
REMARK SMILES IDX 13 1 14 2 15 3 16 4 17 5 18 6 19 7 20 8 21 9 22 10 23 11
REMARK SMILES IDX 24 12 25 13 26 14 12 15 11 16 10 17 9 18 8 19 7 20 6 21 5 22
REMARK SMILES IDX 4 23 3 24 2 25 1 26
REMARK H PARENT
REMARK Flexibility Score: inf
ROOT
ATOM      1  C   UNL     1     151.118 165.560 151.706  1.00  0.00     0.000 C 
ENDROOT
BRANCH   1   2
ATOM      2  C   UNL     1     150.368 164.225 151.578  1.00  0.00     0.000 C 
BRANCH   2   3
ATOM      3  C   UNL     1     150.282 163.731 150.125  1.00  0.00     0.000 C 
BRANCH   3   4
ATOM      4  C   UNL     1     149.949 162.232 150.020  1.00  0.00     0.000 C 
BRANCH   4   5
ATOM      5  C   UNL     1     149.696 161.527 151.365  1.00  0.00     0.000 C 
BRANCH   5   6
ATOM      6  C   UNL     1     150.753 160.460 151.696  1.00  0.00     0.000 C 
BRANCH   6   7
ATOM      7  C   UNL     1     151.037 160.373 153.208  1.00  0.00     0.000 C 
BRANCH   7   8
ATOM      8  C   UNL     1     149.781 160.558 154.080  1.00  0.00     0.000 C 
BRANCH   8   9
ATOM      9  C   UNL     1     150.061 161.419 155.324  1.00  0.00     0.000 C 
BRANCH   9  10
ATOM     10  C   UNL     1     150.321 162.894 154.980  1.00  0.00     0.006 C 
BRANCH  10  11
ATOM     11  C   UNL     1     151.325 163.557 155.932  1.00  0.00     0.053 C 
BRANCH  11  12
ATOM     12  C   UNL     1     152.660 163.696 155.271  1.00  0.00     0.041 C 
ATOM     13  O   UNL     1     153.637 164.168 155.910  1.00  0.00    -0.550 OA
ATOM     14  O   UNL     1     152.815 163.340 153.939  1.00  0.00    -0.550 OA
ENDBRANCH  11  12
ENDBRANCH  10  11
ENDBRANCH   9  10
ENDBRANCH   8   9
ENDBRANCH   7   8
ENDBRANCH   6   7
ENDBRANCH   5   6
ENDBRANCH   4   5
ENDBRANCH   3   4
ENDBRANCH   2   3
ENDBRANCH   1   2
BRANCH   1  15
ATOM     15  C   UNL     1     150.241 166.676 152.297  1.00  0.00     0.000 C 
BRANCH  15  16
ATOM     16  C   UNL     1     148.805 166.212 152.585  1.00  0.00     0.000 C 
BRANCH  16  17
ATOM     17  C   UNL     1     147.755 166.989 151.779  1.00  0.00     0.000 C 
BRANCH  17  18
ATOM     18  C   UNL     1     147.041 166.065 150.781  1.00  0.00    -0.000 C 
BRANCH  18  19
ATOM     19  C   UNL     1     146.082 165.080 151.476  1.00  0.00    -0.000 C 
BRANCH  19  20
ATOM     20  C   UNL     1     146.304 163.610 151.065  1.00  0.00    -0.000 C 
BRANCH  20  21
ATOM     21  C   UNL     1     146.298 162.618 152.246  1.00  0.00    -0.000 C 
BRANCH  21  22
ATOM     22  C   UNL     1     147.148 163.069 153.451  1.00  0.00    -0.000 C 
BRANCH  22  23
ATOM     23  C   UNL     1     146.554 162.616 154.793  1.00  0.00    -0.000 C 
BRANCH  23  24
ATOM     24  C   UNL     1     146.219 163.825 155.680  1.00  0.00    -0.000 C 
BRANCH  24  25
ATOM     25  C   UNL     1     147.263 164.945 155.572  1.00  0.00    -0.003 C 
ATOM     26  C   UNL     1     146.632 166.335 155.490  1.00  0.00     0.004 C 
ENDBRANCH  24  25
ENDBRANCH  23  24
ENDBRANCH  22  23
ENDBRANCH  21  22
ENDBRANCH  20  21
ENDBRANCH  19  20
ENDBRANCH  18  19
ENDBRANCH  17  18
ENDBRANCH  16  17
ENDBRANCH  15  16
ENDBRANCH   1  15
TORSDOF 22
ENDMDL
