MODEL 1
REMARK VINA RESULT:    -7.026      0.000      0.000
REMARK INTER + INTRA:          -9.038
REMARK INTER:                  -8.874
REMARK INTRA:                  -0.164
REMARK UNBOUND:                -0.164
REMARK SMILES CC(C)=CCCC(C)=CCO
REMARK SMILES IDX 7 1 9 2 8 3 6 4 5 5 4 6 1 7 2 8 3 9 10 10 11 11
REMARK H PARENT 11 12
REMARK Flexibility Score: inf
ROOT
ATOM      1  C   UNL     1      21.371  -0.242  12.086  1.00  0.00    -0.075 C 
ATOM      2  C   UNL     1      20.667   0.537  12.939  1.00  0.00    -0.000 C 
ATOM      3  C   UNL     1      22.875  -0.130  12.088  1.00  0.00     0.039 C 
ENDROOT
BRANCH   1   4
ATOM      4  C   UNL     1      20.720  -1.231  11.136  1.00  0.00     0.034 C 
BRANCH   4   5
ATOM      5  C   UNL     1      21.561  -1.454   9.872  1.00  0.00     0.032 C 
BRANCH   5   6
ATOM      6  C   UNL     1      20.735  -1.274   8.619  1.00  0.00    -0.028 C 
ATOM      7  C   UNL     1      22.374  -2.455   7.138  1.00  0.00     0.039 C 
ATOM      8  C   UNL     1      21.074  -1.734   7.395  1.00  0.00    -0.080 C 
ATOM      9  C   UNL     1      20.111  -1.514   6.256  1.00  0.00     0.039 C 
ENDBRANCH   5   6
ENDBRANCH   4   5
ENDBRANCH   1   4
BRANCH   2  10
ATOM     10  C   UNL     1      19.166   0.560  13.019  1.00  0.00     0.183 C 
BRANCH  10  11
ATOM     11  O   UNL     1      18.711  -0.601  13.656  1.00  0.00    -0.392 OA
ATOM     12  H   UNL     1      17.723  -0.589  13.577  1.00  0.00     0.210 HD
ENDBRANCH  10  11
ENDBRANCH   2  10
TORSDOF 5
ENDMDL
MODEL 2
REMARK VINA RESULT:    -7.013      6.024      9.949
REMARK INTER + INTRA:          -9.023
REMARK INTER:                  -8.792
REMARK INTRA:                  -0.231
REMARK UNBOUND:                -0.164
REMARK SMILES CC(C)=CCCC(C)=CCO
REMARK SMILES IDX 7 1 9 2 8 3 6 4 5 5 4 6 1 7 2 8 3 9 10 10 11 11
REMARK H PARENT 11 12
REMARK Flexibility Score: inf
ROOT
ATOM      1  C   UNL     1      17.259   4.877  13.106  1.00  0.00    -0.075 C 
ATOM      2  C   UNL     1      17.482   3.814  12.302  1.00  0.00    -0.000 C 
ATOM      3  C   UNL     1      17.201   6.248  12.482  1.00  0.00     0.039 C 
ENDROOT
BRANCH   1   4
ATOM      4  C   UNL     1      17.054   4.755  14.606  1.00  0.00     0.034 C 
BRANCH   4   5
ATOM      5  C   UNL     1      17.403   6.055  15.343  1.00  0.00     0.032 C 
BRANCH   5   6
ATOM      6  C   UNL     1      18.177   5.781  16.612  1.00  0.00    -0.028 C 
ATOM      7  C   UNL     1      17.459   7.903  17.734  1.00  0.00     0.039 C 
ATOM      8  C   UNL     1      18.194   6.585  17.698  1.00  0.00    -0.080 C 
ATOM      9  C   UNL     1      18.979   6.141  18.905  1.00  0.00     0.039 C 
ENDBRANCH   5   6
ENDBRANCH   4   5
ENDBRANCH   1   4
BRANCH   2  10
ATOM     10  C   UNL     1      17.605   2.396  12.789  1.00  0.00     0.183 C 
BRANCH  10  11
ATOM     11  O   UNL     1      16.329   1.835  12.927  1.00  0.00    -0.392 OA
ATOM     12  H   UNL     1      16.451   0.998  13.445  1.00  0.00     0.210 HD
ENDBRANCH  10  11
ENDBRANCH   2  10
TORSDOF 5
ENDMDL
MODEL 3
REMARK VINA RESULT:    -6.737      7.303      9.461
REMARK INTER + INTRA:          -8.673
REMARK INTER:                  -8.428
REMARK INTRA:                  -0.246
REMARK UNBOUND:                -0.164
REMARK SMILES CC(C)=CCCC(C)=CCO
REMARK SMILES IDX 7 1 9 2 8 3 6 4 5 5 4 6 1 7 2 8 3 9 10 10 11 11
REMARK H PARENT 11 12
REMARK Flexibility Score: inf
ROOT
ATOM      1  C   UNL     1      18.881   7.231  17.298  1.00  0.00    -0.075 C 
ATOM      2  C   UNL     1      20.196   7.539  17.239  1.00  0.00    -0.000 C 
ATOM      3  C   UNL     1      17.930   8.255  17.863  1.00  0.00     0.039 C 
ENDROOT
BRANCH   1   4
ATOM      4  C   UNL     1      18.316   5.907  16.813  1.00  0.00     0.034 C 
BRANCH   4   5
ATOM      5  C   UNL     1      17.525   6.063  15.507  1.00  0.00     0.032 C 
BRANCH   5   6
ATOM      6  C   UNL     1      17.131   4.721  14.936  1.00  0.00    -0.028 C 
ATOM      7  C   UNL     1      17.750   5.324  12.585  1.00  0.00     0.039 C 
ATOM      8  C   UNL     1      17.246   4.367  13.637  1.00  0.00    -0.080 C 
ATOM      9  C   UNL     1      16.854   2.967  13.239  1.00  0.00     0.039 C 
ENDBRANCH   5   6
ENDBRANCH   4   5
ENDBRANCH   1   4
BRANCH   2  10
ATOM     10  C   UNL     1      21.263   6.603  16.739  1.00  0.00     0.183 C 
BRANCH  10  11
ATOM     11  O   UNL     1      22.215   7.325  16.009  1.00  0.00    -0.392 OA
ATOM     12  H   UNL     1      22.589   7.998  16.635  1.00  0.00     0.210 HD
ENDBRANCH  10  11
ENDBRANCH   2  10
TORSDOF 5
ENDMDL
MODEL 4
REMARK VINA RESULT:    -6.704      2.905      5.588
REMARK INTER + INTRA:          -8.632
REMARK INTER:                  -8.381
REMARK INTRA:                  -0.251
REMARK UNBOUND:                -0.164
REMARK SMILES CC(C)=CCCC(C)=CCO
REMARK SMILES IDX 7 1 9 2 8 3 6 4 5 5 4 6 1 7 2 8 3 9 10 10 11 11
REMARK H PARENT 11 12
REMARK Flexibility Score: inf
ROOT
ATOM      1  C   UNL     1      21.790  -1.239   7.067  1.00  0.00    -0.075 C 
ATOM      2  C   UNL     1      22.193  -0.200   6.303  1.00  0.00    -0.000 C 
ATOM      3  C   UNL     1      22.337  -2.610   6.758  1.00  0.00     0.039 C 
ENDROOT
BRANCH   1   4
ATOM      4  C   UNL     1      20.823  -1.090   8.229  1.00  0.00     0.034 C 
BRANCH   4   5
ATOM      5  C   UNL     1      21.489  -1.400   9.576  1.00  0.00     0.032 C 
BRANCH   5   6
ATOM      6  C   UNL     1      20.533  -1.190  10.727  1.00  0.00    -0.028 C 
ATOM      7  C   UNL     1      22.147   0.175  12.070  1.00  0.00     0.039 C 
ATOM      8  C   UNL     1      20.803  -0.470  11.838  1.00  0.00    -0.080 C 
ATOM      9  C   UNL     1      19.718  -0.315  12.872  1.00  0.00     0.039 C 
ENDBRANCH   5   6
ENDBRANCH   4   5
ENDBRANCH   1   4
BRANCH   2  10
ATOM     10  C   UNL     1      21.701   1.212   6.469  1.00  0.00     0.183 C 
BRANCH  10  11
ATOM     11  O   UNL     1      22.795   2.083   6.548  1.00  0.00    -0.392 OA
ATOM     12  H   UNL     1      23.145   2.169   5.623  1.00  0.00     0.210 HD
ENDBRANCH  10  11
ENDBRANCH   2  10
TORSDOF 5
ENDMDL
MODEL 5
REMARK VINA RESULT:    -6.521      3.462      5.381
REMARK INTER + INTRA:          -8.401
REMARK INTER:                  -8.178
REMARK INTRA:                  -0.223
REMARK UNBOUND:                -0.164
REMARK SMILES CC(C)=CCCC(C)=CCO
REMARK SMILES IDX 7 1 9 2 8 3 6 4 5 5 4 6 1 7 2 8 3 9 10 10 11 11
REMARK H PARENT 11 12
REMARK Flexibility Score: inf
ROOT
ATOM      1  C   UNL     1      17.215   3.247  12.923  1.00  0.00    -0.075 C 
ATOM      2  C   UNL     1      15.995   3.091  13.483  1.00  0.00    -0.000 C 
ATOM      3  C   UNL     1      17.857   4.610  12.971  1.00  0.00     0.039 C 
ENDROOT
BRANCH   1   4
ATOM      4  C   UNL     1      17.974   2.112  12.257  1.00  0.00     0.034 C 
BRANCH   4   5
ATOM      5  C   UNL     1      18.671   1.207  13.282  1.00  0.00     0.032 C 
BRANCH   5   6
ATOM      6  C   UNL     1      20.133   1.018  12.950  1.00  0.00    -0.028 C 
ATOM      7  C   UNL     1      19.807  -1.247  11.932  1.00  0.00     0.039 C 
ATOM      8  C   UNL     1      20.653  -0.062  12.327  1.00  0.00    -0.080 C 
ATOM      9  C   UNL     1      22.130  -0.071  12.023  1.00  0.00     0.039 C 
ENDBRANCH   5   6
ENDBRANCH   4   5
ENDBRANCH   1   4
BRANCH   2  10
ATOM     10  C   UNL     1      15.219   1.802  13.475  1.00  0.00     0.183 C 
BRANCH  10  11
ATOM     11  O   UNL     1      14.418   1.730  14.621  1.00  0.00    -0.392 OA
ATOM     12  H   UNL     1      13.737   1.032  14.437  1.00  0.00     0.210 HD
ENDBRANCH  10  11
ENDBRANCH   2  10
TORSDOF 5
ENDMDL
MODEL 6
REMARK VINA RESULT:    -6.458      9.731     10.997
REMARK INTER + INTRA:          -8.321
REMARK INTER:                  -8.007
REMARK INTRA:                  -0.314
REMARK UNBOUND:                -0.164
REMARK SMILES CC(C)=CCCC(C)=CCO
REMARK SMILES IDX 7 1 9 2 8 3 6 4 5 5 4 6 1 7 2 8 3 9 10 10 11 11
REMARK H PARENT 11 12
REMARK Flexibility Score: inf
ROOT
ATOM      1  C   UNL     1      21.834   6.565  17.882  1.00  0.00    -0.075 C 
ATOM      2  C   UNL     1      22.654   5.569  18.288  1.00  0.00    -0.000 C 
ATOM      3  C   UNL     1      21.919   7.024  16.449  1.00  0.00     0.039 C 
ENDROOT
BRANCH   1   4
ATOM      4  C   UNL     1      20.825   7.235  18.799  1.00  0.00     0.034 C 
BRANCH   4   5
ATOM      5  C   UNL     1      19.617   6.333  19.082  1.00  0.00     0.032 C 
BRANCH   5   6
ATOM      6  C   UNL     1      19.005   5.810  17.803  1.00  0.00    -0.028 C 
ATOM      7  C   UNL     1      17.491   7.782  17.495  1.00  0.00     0.039 C 
ATOM      8  C   UNL     1      18.071   6.455  17.070  1.00  0.00    -0.080 C 
ATOM      9  C   UNL     1      17.601   5.818  15.788  1.00  0.00     0.039 C 
ENDBRANCH   5   6
ENDBRANCH   4   5
ENDBRANCH   1   4
BRANCH   2  10
ATOM     10  C   UNL     1      22.707   5.038  19.694  1.00  0.00     0.183 C 
BRANCH  10  11
ATOM     11  O   UNL     1      22.723   3.638  19.666  1.00  0.00    -0.392 OA
ATOM     12  H   UNL     1      22.242   3.374  18.839  1.00  0.00     0.210 HD
ENDBRANCH  10  11
ENDBRANCH   2  10
TORSDOF 5
ENDMDL
MODEL 7
REMARK VINA RESULT:    -6.446      4.089      6.266
REMARK INTER + INTRA:          -8.306
REMARK INTER:                  -7.964
REMARK INTRA:                  -0.342
REMARK UNBOUND:                -0.164
REMARK SMILES CC(C)=CCCC(C)=CCO
REMARK SMILES IDX 7 1 9 2 8 3 6 4 5 5 4 6 1 7 2 8 3 9 10 10 11 11
REMARK H PARENT 11 12
REMARK Flexibility Score: inf
ROOT
ATOM      1  C   UNL     1      21.385   1.734   5.259  1.00  0.00    -0.075 C 
ATOM      2  C   UNL     1      20.448   2.612   4.835  1.00  0.00    -0.000 C 
ATOM      3  C   UNL     1      22.263   2.129   6.419  1.00  0.00     0.039 C 
ENDROOT
BRANCH   1   4
ATOM      4  C   UNL     1      21.587   0.367   4.630  1.00  0.00     0.034 C 
BRANCH   4   5
ATOM      5  C   UNL     1      20.521  -0.639   5.085  1.00  0.00     0.032 C 
BRANCH   5   6
ATOM      6  C   UNL     1      20.390  -0.664   6.590  1.00  0.00    -0.028 C 
ATOM      7  C   UNL     1      22.004  -2.556   6.892  1.00  0.00     0.039 C 
ATOM      8  C   UNL     1      21.062  -1.498   7.414  1.00  0.00    -0.080 C 
ATOM      9  C   UNL     1      20.855  -1.357   8.900  1.00  0.00     0.039 C 
ENDBRANCH   5   6
ENDBRANCH   4   5
ENDBRANCH   1   4
BRANCH   2  10
ATOM     10  C   UNL     1      19.531   2.371   3.668  1.00  0.00     0.183 C 
BRANCH  10  11
ATOM     11  O   UNL     1      18.202   2.366   4.109  1.00  0.00    -0.392 OA
ATOM     12  H   UNL     1      17.649   2.156   3.312  1.00  0.00     0.210 HD
ENDBRANCH  10  11
ENDBRANCH   2  10
TORSDOF 5
ENDMDL
MODEL 8
REMARK VINA RESULT:    -6.350      3.846      6.381
REMARK INTER + INTRA:          -8.185
REMARK INTER:                  -7.506
REMARK INTRA:                  -0.678
REMARK UNBOUND:                -0.164
REMARK SMILES CC(C)=CCCC(C)=CCO
REMARK SMILES IDX 7 1 9 2 8 3 6 4 5 5 4 6 1 7 2 8 3 9 10 10 11 11
REMARK H PARENT 11 12
REMARK Flexibility Score: inf
ROOT
ATOM      1  C   UNL     1      21.836   0.517   3.992  1.00  0.00    -0.075 C 
ATOM      2  C   UNL     1      22.416   1.490   4.729  1.00  0.00    -0.000 C 
ATOM      3  C   UNL     1      22.693  -0.256   3.022  1.00  0.00     0.039 C 
ENDROOT
BRANCH   1   4
ATOM      4  C   UNL     1      20.364   0.158   4.103  1.00  0.00     0.034 C 
BRANCH   4   5
ATOM      5  C   UNL     1      20.153  -1.201   4.783  1.00  0.00     0.032 C 
BRANCH   5   6
ATOM      6  C   UNL     1      20.174  -1.076   6.289  1.00  0.00    -0.028 C 
ATOM      7  C   UNL     1      22.243  -2.459   6.567  1.00  0.00     0.039 C 
ATOM      8  C   UNL     1      21.113  -1.612   7.099  1.00  0.00    -0.080 C 
ATOM      9  C   UNL     1      21.017  -1.349   8.579  1.00  0.00     0.039 C 
ENDBRANCH   5   6
ENDBRANCH   4   5
ENDBRANCH   1   4
BRANCH   2  10
ATOM     10  C   UNL     1      21.678   2.367   5.704  1.00  0.00     0.183 C 
BRANCH  10  11
ATOM     11  O   UNL     1      22.528   2.708   6.764  1.00  0.00    -0.392 OA
ATOM     12  H   UNL     1      23.354   2.173   6.637  1.00  0.00     0.210 HD
ENDBRANCH  10  11
ENDBRANCH   2  10
TORSDOF 5
ENDMDL
MODEL 9
REMARK VINA RESULT:    -6.345      8.009     10.476
REMARK INTER + INTRA:          -8.178
REMARK INTER:                  -7.954
REMARK INTRA:                  -0.224
REMARK UNBOUND:                -0.164
REMARK SMILES CC(C)=CCCC(C)=CCO
REMARK SMILES IDX 7 1 9 2 8 3 6 4 5 5 4 6 1 7 2 8 3 9 10 10 11 11
REMARK H PARENT 11 12
REMARK Flexibility Score: inf
ROOT
ATOM      1  C   UNL     1      18.686   7.494  18.500  1.00  0.00    -0.075 C 
ATOM      2  C   UNL     1      19.688   7.393  19.401  1.00  0.00    -0.000 C 
ATOM      3  C   UNL     1      18.200   8.869  18.119  1.00  0.00     0.039 C 
ENDROOT
BRANCH   1   4
ATOM      4  C   UNL     1      18.035   6.288  17.845  1.00  0.00     0.034 C 
BRANCH   4   5
ATOM      5  C   UNL     1      17.692   6.548  16.372  1.00  0.00     0.032 C 
BRANCH   5   6
ATOM      6  C   UNL     1      17.480   5.256  15.617  1.00  0.00    -0.028 C 
ATOM      7  C   UNL     1      16.570   6.378  13.571  1.00  0.00     0.039 C 
ATOM      8  C   UNL     1      17.000   5.164  14.357  1.00  0.00    -0.080 C 
ATOM      9  C   UNL     1      16.897   3.799  13.728  1.00  0.00     0.039 C 
ENDBRANCH   5   6
ENDBRANCH   4   5
ENDBRANCH   1   4
BRANCH   2  10
ATOM     10  C   UNL     1      20.246   6.090  19.904  1.00  0.00     0.183 C 
BRANCH  10  11
ATOM     11  O   UNL     1      19.721   5.814  21.173  1.00  0.00    -0.392 OA
ATOM     12  H   UNL     1      20.329   6.251  21.823  1.00  0.00     0.210 HD
ENDBRANCH  10  11
ENDBRANCH   2  10
TORSDOF 5
ENDMDL
