MODEL 1
REMARK VINA RESULT:    -4.097      0.000      0.000
REMARK INTER + INTRA:          -5.871
REMARK INTER:                  -5.654
REMARK INTRA:                  -0.216
REMARK UNBOUND:                -0.216
REMARK SMILES CCCCCCCCO
REMARK SMILES IDX 5 1 4 2 3 3 2 4 1 5 6 6 7 7 8 8 9 9
REMARK H PARENT 9 10
REMARK Flexibility Score: inf
ROOT
ATOM      1  C   UNL     1      21.217 -23.441  17.937  1.00  0.00     0.000 C 
ENDROOT
BRANCH   1   2
ATOM      2  C   UNL     1      22.611 -22.900  18.274  1.00  0.00    -0.000 C 
BRANCH   2   3
ATOM      3  C   UNL     1      22.600 -21.366  18.364  1.00  0.00    -0.000 C 
BRANCH   3   4
ATOM      4  C   UNL     1      23.768 -20.722  17.602  1.00  0.00    -0.003 C 
ATOM      5  C   UNL     1      23.356 -19.463  16.840  1.00  0.00     0.004 C 
ENDBRANCH   3   4
ENDBRANCH   2   3
ENDBRANCH   1   2
BRANCH   1   6
ATOM      6  C   UNL     1      21.007 -24.836  18.536  1.00  0.00     0.002 C 
BRANCH   6   7
ATOM      7  C   UNL     1      21.935 -25.065  19.736  1.00  0.00     0.028 C 
BRANCH   7   8
ATOM      8  C   UNL     1      21.133 -25.288  21.020  1.00  0.00     0.156 C 
BRANCH   8   9
ATOM      9  O   UNL     1      20.050 -24.401  21.077  1.00  0.00    -0.396 OA
ATOM     10  H   UNL     1      20.431 -23.497  21.233  1.00  0.00     0.210 HD
ENDBRANCH   8   9
ENDBRANCH   7   8
ENDBRANCH   6   7
ENDBRANCH   1   6
TORSDOF 7
ENDMDL
MODEL 2
REMARK VINA RESULT:    -4.096      1.713      2.335
REMARK INTER + INTRA:          -5.869
REMARK INTER:                  -5.671
REMARK INTRA:                  -0.199
REMARK UNBOUND:                -0.216
REMARK SMILES CCCCCCCCO
REMARK SMILES IDX 5 1 4 2 3 3 2 4 1 5 6 6 7 7 8 8 9 9
REMARK H PARENT 9 10
REMARK Flexibility Score: inf
ROOT
ATOM      1  C   UNL     1      23.308 -22.760  18.459  1.00  0.00     0.000 C 
ENDROOT
BRANCH   1   2
ATOM      2  C   UNL     1      23.954 -21.401  18.169  1.00  0.00    -0.000 C 
BRANCH   2   3
ATOM      3  C   UNL     1      22.921 -20.409  17.613  1.00  0.00    -0.000 C 
BRANCH   3   4
ATOM      4  C   UNL     1      23.567 -19.278  16.798  1.00  0.00    -0.003 C 
ATOM      5  C   UNL     1      22.636 -18.711  15.729  1.00  0.00     0.004 C 
ENDBRANCH   3   4
ENDBRANCH   2   3
ENDBRANCH   1   2
BRANCH   1   6
ATOM      6  C   UNL     1      21.824 -22.760  18.074  1.00  0.00     0.002 C 
BRANCH   6   7
ATOM      7  C   UNL     1      21.241 -24.177  18.127  1.00  0.00     0.028 C 
BRANCH   7   8
ATOM      8  C   UNL     1      19.872 -24.237  17.445  1.00  0.00     0.156 C 
BRANCH   8   9
ATOM      9  O   UNL     1      18.850 -24.154  18.399  1.00  0.00    -0.396 OA
ATOM     10  H   UNL     1      18.966 -23.285  18.866  1.00  0.00     0.210 HD
ENDBRANCH   8   9
ENDBRANCH   7   8
ENDBRANCH   6   7
ENDBRANCH   1   6
TORSDOF 7
ENDMDL
MODEL 3
REMARK VINA RESULT:    -3.941      2.746      5.550
REMARK INTER + INTRA:          -5.656
REMARK INTER:                  -5.489
REMARK INTRA:                  -0.166
REMARK UNBOUND:                -0.216
REMARK SMILES CCCCCCCCO
REMARK SMILES IDX 5 1 4 2 3 3 2 4 1 5 6 6 7 7 8 8 9 9
REMARK H PARENT 9 10
REMARK Flexibility Score: inf
ROOT
ATOM      1  C   UNL     1      22.675 -21.376  18.162  1.00  0.00     0.000 C 
ENDROOT
BRANCH   1   2
ATOM      2  C   UNL     1      22.663 -22.909  18.166  1.00  0.00    -0.000 C 
BRANCH   2   3
ATOM      3  C   UNL     1      21.229 -23.449  18.057  1.00  0.00    -0.000 C 
BRANCH   3   4
ATOM      4  C   UNL     1      21.107 -24.902  18.542  1.00  0.00    -0.003 C 
ATOM      5  C   UNL     1      20.864 -25.005  20.046  1.00  0.00     0.004 C 
ENDBRANCH   3   4
ENDBRANCH   2   3
ENDBRANCH   1   2
BRANCH   1   6
ATOM      6  C   UNL     1      24.085 -20.836  17.904  1.00  0.00     0.002 C 
BRANCH   6   7
ATOM      7  C   UNL     1      24.074 -19.772  16.800  1.00  0.00     0.028 C 
BRANCH   7   8
ATOM      8  C   UNL     1      22.751 -19.002  16.787  1.00  0.00     0.156 C 
BRANCH   8   9
ATOM      9  O   UNL     1      22.887 -17.793  17.482  1.00  0.00    -0.396 OA
ATOM     10  H   UNL     1      22.403 -17.903  18.342  1.00  0.00     0.210 HD
ENDBRANCH   8   9
ENDBRANCH   7   8
ENDBRANCH   6   7
ENDBRANCH   1   6
TORSDOF 7
ENDMDL
MODEL 4
REMARK VINA RESULT:    -3.681     13.450     14.815
REMARK INTER + INTRA:          -5.296
REMARK INTER:                  -4.873
REMARK INTRA:                  -0.423
REMARK UNBOUND:                -0.216
REMARK SMILES CCCCCCCCO
REMARK SMILES IDX 5 1 4 2 3 3 2 4 1 5 6 6 7 7 8 8 9 9
REMARK H PARENT 9 10
REMARK Flexibility Score: inf
ROOT
ATOM      1  C   UNL     1       6.996 -25.334  14.523  1.00  0.00     0.000 C 
ENDROOT
BRANCH   1   2
ATOM      2  C   UNL     1       8.042 -25.944  13.582  1.00  0.00    -0.000 C 
BRANCH   2   3
ATOM      3  C   UNL     1       9.455 -25.460  13.941  1.00  0.00    -0.000 C 
BRANCH   3   4
ATOM      4  C   UNL     1      10.391 -26.613  14.337  1.00  0.00    -0.003 C 
ATOM      5  C   UNL     1      10.332 -26.938  15.828  1.00  0.00     0.004 C 
ENDBRANCH   3   4
ENDBRANCH   2   3
ENDBRANCH   1   2
BRANCH   1   6
ATOM      6  C   UNL     1       7.612 -24.231  15.389  1.00  0.00     0.002 C 
BRANCH   6   7
ATOM      7  C   UNL     1       7.548 -24.598  16.877  1.00  0.00     0.028 C 
BRANCH   7   8
ATOM      8  C   UNL     1       6.457 -23.800  17.596  1.00  0.00     0.156 C 
BRANCH   8   9
ATOM      9  O   UNL     1       5.951 -22.801  16.755  1.00  0.00    -0.396 OA
ATOM     10  H   UNL     1       6.473 -21.978  16.945  1.00  0.00     0.210 HD
ENDBRANCH   8   9
ENDBRANCH   7   8
ENDBRANCH   6   7
ENDBRANCH   1   6
TORSDOF 7
ENDMDL
MODEL 5
REMARK VINA RESULT:    -3.674     12.975     14.234
REMARK INTER + INTRA:          -5.286
REMARK INTER:                  -5.047
REMARK INTRA:                  -0.239
REMARK UNBOUND:                -0.216
REMARK SMILES CCCCCCCCO
REMARK SMILES IDX 5 1 4 2 3 3 2 4 1 5 6 6 7 7 8 8 9 9
REMARK H PARENT 9 10
REMARK Flexibility Score: inf
ROOT
ATOM      1  C   UNL     1       8.050 -25.936  13.591  1.00  0.00     0.000 C 
ENDROOT
BRANCH   1   2
ATOM      2  C   UNL     1       9.464 -25.471  13.957  1.00  0.00    -0.000 C 
BRANCH   2   3
ATOM      3  C   UNL     1      10.342 -26.660  14.376  1.00  0.00    -0.000 C 
BRANCH   3   4
ATOM      4  C   UNL     1      11.828 -26.440  14.050  1.00  0.00    -0.003 C 
ATOM      5  C   UNL     1      12.072 -25.182  13.219  1.00  0.00     0.004 C 
ENDBRANCH   3   4
ENDBRANCH   2   3
ENDBRANCH   1   2
BRANCH   1   6
ATOM      6  C   UNL     1       7.003 -25.289  14.505  1.00  0.00     0.002 C 
BRANCH   6   7
ATOM      7  C   UNL     1       7.636 -24.204  15.385  1.00  0.00     0.028 C 
BRANCH   7   8
ATOM      8  C   UNL     1       6.934 -24.114  16.742  1.00  0.00     0.156 C 
BRANCH   8   9
ATOM      9  O   UNL     1       6.140 -22.961  16.803  1.00  0.00    -0.396 OA
ATOM     10  H   UNL     1       6.219 -22.609  17.728  1.00  0.00     0.210 HD
ENDBRANCH   8   9
ENDBRANCH   7   8
ENDBRANCH   6   7
ENDBRANCH   1   6
TORSDOF 7
ENDMDL
MODEL 6
REMARK VINA RESULT:    -3.657      2.491      5.205
REMARK INTER + INTRA:          -5.263
REMARK INTER:                  -5.054
REMARK INTRA:                  -0.209
REMARK UNBOUND:                -0.216
REMARK SMILES CCCCCCCCO
REMARK SMILES IDX 5 1 4 2 3 3 2 4 1 5 6 6 7 7 8 8 9 9
REMARK H PARENT 9 10
REMARK Flexibility Score: inf
ROOT
ATOM      1  C   UNL     1      21.197 -23.549  17.966  1.00  0.00     0.000 C 
ENDROOT
BRANCH   1   2
ATOM      2  C   UNL     1      20.926 -24.731  18.904  1.00  0.00    -0.000 C 
BRANCH   2   3
ATOM      3  C   UNL     1      22.166 -25.056  19.752  1.00  0.00    -0.000 C 
BRANCH   3   4
ATOM      4  C   UNL     1      21.805 -25.544  21.163  1.00  0.00    -0.003 C 
ATOM      5  C   UNL     1      22.886 -26.430  21.778  1.00  0.00     0.004 C 
ENDBRANCH   3   4
ENDBRANCH   2   3
ENDBRANCH   1   2
BRANCH   1   6
ATOM      6  C   UNL     1      22.638 -23.049  18.112  1.00  0.00     0.002 C 
BRANCH   6   7
ATOM      7  C   UNL     1      22.674 -21.535  18.351  1.00  0.00     0.028 C 
BRANCH   7   8
ATOM      8  C   UNL     1      23.942 -20.911  17.761  1.00  0.00     0.156 C 
BRANCH   8   9
ATOM      9  O   UNL     1      23.733 -19.554  17.486  1.00  0.00    -0.396 OA
ATOM     10  H   UNL     1      23.329 -19.506  16.580  1.00  0.00     0.210 HD
ENDBRANCH   8   9
ENDBRANCH   7   8
ENDBRANCH   6   7
ENDBRANCH   1   6
TORSDOF 7
ENDMDL
MODEL 7
REMARK VINA RESULT:    -3.652     12.719     14.108
REMARK INTER + INTRA:          -5.256
REMARK INTER:                  -4.786
REMARK INTRA:                  -0.470
REMARK UNBOUND:                -0.216
REMARK SMILES CCCCCCCCO
REMARK SMILES IDX 5 1 4 2 3 3 2 4 1 5 6 6 7 7 8 8 9 9
REMARK H PARENT 9 10
REMARK Flexibility Score: inf
ROOT
ATOM      1  C   UNL     1       9.424 -25.634  14.169  1.00  0.00     0.000 C 
ENDROOT
BRANCH   1   2
ATOM      2  C   UNL     1       8.027 -25.917  13.604  1.00  0.00    -0.000 C 
BRANCH   2   3
ATOM      3  C   UNL     1       6.938 -25.288  14.488  1.00  0.00    -0.000 C 
BRANCH   3   4
ATOM      4  C   UNL     1       7.461 -24.104  15.314  1.00  0.00    -0.003 C 
ATOM      5  C   UNL     1       7.159 -24.243  16.805  1.00  0.00     0.004 C 
ENDBRANCH   3   4
ENDBRANCH   2   3
ENDBRANCH   1   2
BRANCH   1   6
ATOM      6  C   UNL     1      10.056 -26.908  14.740  1.00  0.00     0.002 C 
BRANCH   6   7
ATOM      7  C   UNL     1       9.536 -27.195  16.154  1.00  0.00     0.028 C 
BRANCH   7   8
ATOM      8  C   UNL     1      10.593 -26.861  17.209  1.00  0.00     0.156 C 
BRANCH   8   9
ATOM      9  O   UNL     1      10.229 -25.706  17.913  1.00  0.00    -0.396 OA
ATOM     10  H   UNL     1      10.206 -25.954  18.874  1.00  0.00     0.210 HD
ENDBRANCH   8   9
ENDBRANCH   7   8
ENDBRANCH   6   7
ENDBRANCH   1   6
TORSDOF 7
ENDMDL
MODEL 8
REMARK VINA RESULT:    -3.588     12.876     14.300
REMARK INTER + INTRA:          -5.168
REMARK INTER:                  -4.985
REMARK INTRA:                  -0.183
REMARK UNBOUND:                -0.216
REMARK SMILES CCCCCCCCO
REMARK SMILES IDX 5 1 4 2 3 3 2 4 1 5 6 6 7 7 8 8 9 9
REMARK H PARENT 9 10
REMARK Flexibility Score: inf
ROOT
ATOM      1  C   UNL     1       8.118 -26.058  13.604  1.00  0.00     0.000 C 
ENDROOT
BRANCH   1   2
ATOM      2  C   UNL     1       7.037 -25.307  14.390  1.00  0.00    -0.000 C 
BRANCH   2   3
ATOM      3  C   UNL     1       7.654 -24.190  15.246  1.00  0.00    -0.000 C 
BRANCH   3   4
ATOM      4  C   UNL     1       7.509 -24.453  16.752  1.00  0.00    -0.003 C 
ATOM      5  C   UNL     1       6.312 -23.730  17.367  1.00  0.00     0.004 C 
ENDBRANCH   3   4
ENDBRANCH   2   3
ENDBRANCH   1   2
BRANCH   1   6
ATOM      6  C   UNL     1       9.518 -25.565  13.984  1.00  0.00     0.002 C 
BRANCH   6   7
ATOM      7  C   UNL     1      10.567 -26.662  13.766  1.00  0.00     0.028 C 
BRANCH   7   8
ATOM      8  C   UNL     1      11.347 -26.945  15.053  1.00  0.00     0.156 C 
BRANCH   8   9
ATOM      9  O   UNL     1      12.544 -26.216  15.064  1.00  0.00    -0.396 OA
ATOM     10  H   UNL     1      13.258 -26.838  14.765  1.00  0.00     0.210 HD
ENDBRANCH   8   9
ENDBRANCH   7   8
ENDBRANCH   6   7
ENDBRANCH   1   6
TORSDOF 7
ENDMDL
MODEL 9
REMARK VINA RESULT:    -3.587     11.779     13.419
REMARK INTER + INTRA:          -5.167
REMARK INTER:                  -4.975
REMARK INTRA:                  -0.192
REMARK UNBOUND:                -0.216
REMARK SMILES CCCCCCCCO
REMARK SMILES IDX 5 1 4 2 3 3 2 4 1 5 6 6 7 7 8 8 9 9
REMARK H PARENT 9 10
REMARK Flexibility Score: inf
ROOT
ATOM      1  C   UNL     1      11.336 -25.365  13.411  1.00  0.00     0.000 C 
ENDROOT
BRANCH   1   2
ATOM      2  C   UNL     1      10.710 -26.702  13.824  1.00  0.00    -0.000 C 
BRANCH   2   3
ATOM      3  C   UNL     1       9.178 -26.605  13.860  1.00  0.00    -0.000 C 
BRANCH   3   4
ATOM      4  C   UNL     1       8.685 -25.221  14.311  1.00  0.00    -0.003 C 
ATOM      5  C   UNL     1       7.178 -25.043  14.136  1.00  0.00     0.004 C 
ENDBRANCH   3   4
ENDBRANCH   2   3
ENDBRANCH   1   2
BRANCH   1   6
ATOM      6  C   UNL     1      12.787 -25.554  12.953  1.00  0.00     0.002 C 
BRANCH   6   7
ATOM      7  C   UNL     1      13.465 -24.202  12.701  1.00  0.00     0.028 C 
BRANCH   7   8
ATOM      8  C   UNL     1      13.855 -24.045  11.229  1.00  0.00     0.156 C 
BRANCH   8   9
ATOM      9  O   UNL     1      12.829 -23.410  10.519  1.00  0.00    -0.396 OA
ATOM     10  H   UNL     1      12.221 -24.125  10.196  1.00  0.00     0.210 HD
ENDBRANCH   8   9
ENDBRANCH   7   8
ENDBRANCH   6   7
ENDBRANCH   1   6
TORSDOF 7
ENDMDL
