MODEL 1
REMARK VINA RESULT:    -3.521      0.000      0.000
REMARK INTER + INTRA:          -4.159
REMARK INTER:                  -4.139
REMARK INTRA:                  -0.020
REMARK UNBOUND:                -0.020
REMARK SMILES CCCCC(=O)[O-]
REMARK SMILES IDX 4 1 5 2 6 3 7 4 3 5 2 6 1 7
REMARK H PARENT
REMARK Flexibility Score: inf
ROOT
ATOM      1  C   UNL     1      -8.595  14.621 -13.622  1.00  0.00     0.053 C 
ENDROOT
BRANCH   1   2
ATOM      2  C   UNL     1      -8.122  15.195 -12.321  1.00  0.00     0.041 C 
ATOM      3  O   UNL     1      -8.099  16.442 -12.151  1.00  0.00    -0.550 OA
ATOM      4  O   UNL     1      -7.736  14.351 -11.287  1.00  0.00    -0.550 OA
ENDBRANCH   1   2
BRANCH   1   5
ATOM      5  C   UNL     1      -8.000  13.232 -13.882  1.00  0.00     0.006 C 
BRANCH   5   6
ATOM      6  C   UNL     1      -8.288  12.733 -15.304  1.00  0.00    -0.003 C 
ATOM      7  C   UNL     1      -9.782  12.511 -15.520  1.00  0.00     0.004 C 
ENDBRANCH   5   6
ENDBRANCH   1   5
TORSDOF 3
ENDMDL
MODEL 2
REMARK VINA RESULT:    -3.378      1.531      1.921
REMARK INTER + INTRA:          -3.991
REMARK INTER:                  -3.896
REMARK INTRA:                  -0.096
REMARK UNBOUND:                -0.020
REMARK SMILES CCCCC(=O)[O-]
REMARK SMILES IDX 4 1 5 2 6 3 7 4 3 5 2 6 1 7
REMARK H PARENT
REMARK Flexibility Score: inf
ROOT
ATOM      1  C   UNL     1      -8.239  15.137 -12.581  1.00  0.00     0.053 C 
ENDROOT
BRANCH   1   2
ATOM      2  C   UNL     1      -8.957  16.404 -12.930  1.00  0.00     0.041 C 
ATOM      3  O   UNL     1      -9.600  16.491 -14.009  1.00  0.00    -0.550 OA
ATOM      4  O   UNL     1      -8.941  17.479 -12.050  1.00  0.00    -0.550 OA
ENDBRANCH   1   2
BRANCH   1   5
ATOM      5  C   UNL     1      -7.633  14.465 -13.819  1.00  0.00     0.006 C 
BRANCH   5   6
ATOM      6  C   UNL     1      -8.088  13.007 -13.971  1.00  0.00    -0.003 C 
ATOM      7  C   UNL     1      -9.194  12.880 -15.015  1.00  0.00     0.004 C 
ENDBRANCH   5   6
ENDBRANCH   1   5
TORSDOF 3
ENDMDL
MODEL 3
REMARK VINA RESULT:    -3.234      1.278      1.918
REMARK INTER + INTRA:          -3.821
REMARK INTER:                  -3.716
REMARK INTRA:                  -0.106
REMARK UNBOUND:                -0.020
REMARK SMILES CCCCC(=O)[O-]
REMARK SMILES IDX 4 1 5 2 6 3 7 4 3 5 2 6 1 7
REMARK H PARENT
REMARK Flexibility Score: inf
ROOT
ATOM      1  C   UNL     1      -8.386  15.284 -14.294  1.00  0.00     0.053 C 
ENDROOT
BRANCH   1   2
ATOM      2  C   UNL     1      -8.767  15.840 -12.956  1.00  0.00     0.041 C 
ATOM      3  O   UNL     1      -9.928  16.289 -12.765  1.00  0.00    -0.550 OA
ATOM      4  O   UNL     1      -7.851  15.832 -11.911  1.00  0.00    -0.550 OA
ENDBRANCH   1   2
BRANCH   1   5
ATOM      5  C   UNL     1      -8.815  13.820 -14.447  1.00  0.00     0.006 C 
BRANCH   5   6
ATOM      6  C   UNL     1      -7.829  12.852 -13.780  1.00  0.00    -0.003 C 
ATOM      7  C   UNL     1      -6.402  13.101 -14.261  1.00  0.00     0.004 C 
ENDBRANCH   5   6
ENDBRANCH   1   5
TORSDOF 3
ENDMDL
MODEL 4
REMARK VINA RESULT:    -3.083      2.607      4.066
REMARK INTER + INTRA:          -3.644
REMARK INTER:                  -3.554
REMARK INTRA:                  -0.090
REMARK UNBOUND:                -0.020
REMARK SMILES CCCCC(=O)[O-]
REMARK SMILES IDX 4 1 5 2 6 3 7 4 3 5 2 6 1 7
REMARK H PARENT
REMARK Flexibility Score: inf
ROOT
ATOM      1  C   UNL     1      -9.220  16.196 -12.399  1.00  0.00     0.053 C 
ENDROOT
BRANCH   1   2
ATOM      2  C   UNL     1      -8.025  15.292 -12.425  1.00  0.00     0.041 C 
ATOM      3  O   UNL     1      -7.248  15.299 -13.416  1.00  0.00    -0.550 OA
ATOM      4  O   UNL     1      -7.752  14.467 -11.341  1.00  0.00    -0.550 OA
ENDBRANCH   1   2
BRANCH   1   5
ATOM      5  C   UNL     1      -9.200  17.201 -13.557  1.00  0.00     0.006 C 
BRANCH   5   6
ATOM      6  C   UNL     1      -8.765  18.601 -13.104  1.00  0.00    -0.003 C 
ATOM      7  C   UNL     1      -7.623  19.130 -13.969  1.00  0.00     0.004 C 
ENDBRANCH   5   6
ENDBRANCH   1   5
TORSDOF 3
ENDMDL
MODEL 5
REMARK VINA RESULT:    -2.992      3.364      4.813
REMARK INTER + INTRA:          -3.537
REMARK INTER:                  -3.519
REMARK INTRA:                  -0.018
REMARK UNBOUND:                -0.020
REMARK SMILES CCCCC(=O)[O-]
REMARK SMILES IDX 4 1 5 2 6 3 7 4 3 5 2 6 1 7
REMARK H PARENT
REMARK Flexibility Score: inf
ROOT
ATOM      1  C   UNL     1      -9.167  17.422 -12.685  1.00  0.00     0.053 C 
ENDROOT
BRANCH   1   2
ATOM      2  C   UNL     1      -8.700  15.999 -12.636  1.00  0.00     0.041 C 
ATOM      3  O   UNL     1      -9.200  15.142 -13.410  1.00  0.00    -0.550 OA
ATOM      4  O   UNL     1      -7.690  15.627 -11.756  1.00  0.00    -0.550 OA
ENDBRANCH   1   2
BRANCH   1   5
ATOM      5  C   UNL     1      -8.462  18.214 -13.793  1.00  0.00     0.006 C 
BRANCH   5   6
ATOM      6  C   UNL     1      -8.155  19.658 -13.370  1.00  0.00    -0.003 C 
ATOM      7  C   UNL     1      -8.039  20.575 -14.584  1.00  0.00     0.004 C 
ENDBRANCH   5   6
ENDBRANCH   1   5
TORSDOF 3
ENDMDL
MODEL 6
REMARK VINA RESULT:    -2.979      2.011      3.272
REMARK INTER + INTRA:          -3.521
REMARK INTER:                  -3.466
REMARK INTRA:                  -0.055
REMARK UNBOUND:                -0.020
REMARK SMILES CCCCC(=O)[O-]
REMARK SMILES IDX 4 1 5 2 6 3 7 4 3 5 2 6 1 7
REMARK H PARENT
REMARK Flexibility Score: inf
ROOT
ATOM      1  C   UNL     1      -8.576  14.820 -13.513  1.00  0.00     0.053 C 
ENDROOT
BRANCH   1   2
ATOM      2  C   UNL     1      -7.620  14.086 -12.624  1.00  0.00     0.041 C 
ATOM      3  O   UNL     1      -7.693  14.213 -11.374  1.00  0.00    -0.550 OA
ATOM      4  O   UNL     1      -6.669  13.235 -13.175  1.00  0.00    -0.550 OA
ENDBRANCH   1   2
BRANCH   1   5
ATOM      5  C   UNL     1      -7.895  15.981 -14.247  1.00  0.00     0.006 C 
BRANCH   5   6
ATOM      6  C   UNL     1      -8.427  17.348 -13.796  1.00  0.00    -0.003 C 
ATOM      7  C   UNL     1      -9.429  17.199 -12.654  1.00  0.00     0.004 C 
ENDBRANCH   5   6
ENDBRANCH   1   5
TORSDOF 3
ENDMDL
MODEL 7
REMARK VINA RESULT:    -2.958      2.349      3.102
REMARK INTER + INTRA:          -3.497
REMARK INTER:                  -3.438
REMARK INTRA:                  -0.060
REMARK UNBOUND:                -0.020
REMARK SMILES CCCCC(=O)[O-]
REMARK SMILES IDX 4 1 5 2 6 3 7 4 3 5 2 6 1 7
REMARK H PARENT
REMARK Flexibility Score: inf
ROOT
ATOM      1  C   UNL     1      -9.304  16.667 -12.998  1.00  0.00     0.053 C 
ENDROOT
BRANCH   1   2
ATOM      2  C   UNL     1      -8.512  17.468 -13.985  1.00  0.00     0.041 C 
ATOM      3  O   UNL     1      -7.529  18.154 -13.601  1.00  0.00    -0.550 OA
ATOM      4  O   UNL     1      -8.839  17.430 -15.335  1.00  0.00    -0.550 OA
ENDBRANCH   1   2
BRANCH   1   5
ATOM      5  C   UNL     1      -8.576  15.379 -12.593  1.00  0.00     0.006 C 
BRANCH   5   6
ATOM      6  C   UNL     1      -8.508  14.364 -13.742  1.00  0.00    -0.003 C 
ATOM      7  C   UNL     1      -7.529  13.237 -13.424  1.00  0.00     0.004 C 
ENDBRANCH   5   6
ENDBRANCH   1   5
TORSDOF 3
ENDMDL
MODEL 8
REMARK VINA RESULT:    -2.786      2.899      4.160
REMARK INTER + INTRA:          -3.295
REMARK INTER:                  -3.276
REMARK INTRA:                  -0.019
REMARK UNBOUND:                -0.020
REMARK SMILES CCCCC(=O)[O-]
REMARK SMILES IDX 4 1 5 2 6 3 7 4 3 5 2 6 1 7
REMARK H PARENT
REMARK Flexibility Score: inf
ROOT
ATOM      1  C   UNL     1      -8.332  13.617 -14.043  1.00  0.00     0.053 C 
ENDROOT
BRANCH   1   2
ATOM      2  C   UNL     1      -8.960  12.880 -15.187  1.00  0.00     0.041 C 
ATOM      3  O   UNL     1     -10.208  12.908 -15.349  1.00  0.00    -0.550 OA
ATOM      4  O   UNL     1      -8.163  12.188 -16.091  1.00  0.00    -0.550 OA
ENDBRANCH   1   2
BRANCH   1   5
ATOM      5  C   UNL     1      -8.806  15.074 -13.976  1.00  0.00     0.006 C 
BRANCH   5   6
ATOM      6  C   UNL     1      -8.392  15.760 -12.667  1.00  0.00    -0.003 C 
ATOM      7  C   UNL     1      -9.205  17.030 -12.429  1.00  0.00     0.004 C 
ENDBRANCH   5   6
ENDBRANCH   1   5
TORSDOF 3
ENDMDL
MODEL 9
REMARK VINA RESULT:    -2.786      2.967      4.251
REMARK INTER + INTRA:          -3.295
REMARK INTER:                  -3.248
REMARK INTRA:                  -0.046
REMARK UNBOUND:                -0.020
REMARK SMILES CCCCC(=O)[O-]
REMARK SMILES IDX 4 1 5 2 6 3 7 4 3 5 2 6 1 7
REMARK H PARENT
REMARK Flexibility Score: inf
ROOT
ATOM      1  C   UNL     1      -8.637  17.634 -14.019  1.00  0.00     0.053 C 
ENDROOT
BRANCH   1   2
ATOM      2  C   UNL     1      -8.277  19.077 -13.844  1.00  0.00     0.041 C 
ATOM      3  O   UNL     1      -7.741  19.470 -12.775  1.00  0.00    -0.550 OA
ATOM      4  O   UNL     1      -8.504  19.982 -14.874  1.00  0.00    -0.550 OA
ENDBRANCH   1   2
BRANCH   1   5
ATOM      5  C   UNL     1      -9.236  17.036 -12.740  1.00  0.00     0.006 C 
BRANCH   5   6
ATOM      6  C   UNL     1      -8.598  15.689 -12.373  1.00  0.00    -0.003 C 
ATOM      7  C   UNL     1      -8.568  14.748 -13.575  1.00  0.00     0.004 C 
ENDBRANCH   5   6
ENDBRANCH   1   5
TORSDOF 3
ENDMDL
