MODEL 1
REMARK VINA RESULT:    -6.457      0.000      0.000
REMARK INTER + INTRA:         -13.107
REMARK INTER:                 -10.610
REMARK INTRA:                  -2.498
REMARK UNBOUND:                -2.498
REMARK SMILES C[C@H]1O[C@@H](OC[C@@H]2O[C@H](Oc3c(-c4ccc(O)c(O)c4)oc4cc(O)cc(O)c4c3=O)[C@@H](O)[C@@H](O)[C@H]2O)[C@H](O)[C@@H](O)[C@@H]1O
REMARK SMILES IDX 7 1 36 2 34 3 32 4 9 5 8 6 6 7 5 8 4 9 1 10 2 11 42 12 3 13
REMARK SMILES IDX 40 14 38 15 43 16 41 18 39 20 37 22 35 24 10 26 11 27 12 28
REMARK SMILES IDX 30 29 21 30 29 31 31 32 22 33 27 34 23 35 26 36 24 37 13 38
REMARK SMILES IDX 20 39 14 40 18 41 15 42 16 43 19 44 17 46 28 48 25 50 33 52
REMARK H PARENT 43 17 41 19 39 21 37 23 35 25 19 45 17 47 28 49 25 51 33 53
REMARK Flexibility Score: inf
ROOT
ATOM      1  C   UNL     1      -4.847  91.468  -9.514  1.00  0.00     0.180 C 
ATOM      2  C   UNL     1      -5.008  90.511  -8.315  1.00  0.00     0.177 C 
ATOM      3  C   UNL     1      -6.512  90.284  -8.038  1.00  0.00     0.180 C 
ATOM      4  C   UNL     1      -7.142  89.712  -9.282  1.00  0.00     0.214 C 
ATOM      5  C   UNL     1      -6.630  90.357 -10.574  1.00  0.00     0.339 C 
ATOM      6  O   UNL     1      -5.993  91.539 -10.294  1.00  0.00    -0.332 OA
ENDROOT
BRANCH   1   7
ATOM      7  C   UNL     1      -4.868  92.902  -9.051  1.00  0.00     0.198 C 
BRANCH   7   8
ATOM      8  O   UNL     1      -3.673  93.536  -9.286  1.00  0.00    -0.347 OA
BRANCH   8   9
ATOM      9  C   UNL     1      -3.871  94.902  -9.786  1.00  0.00     0.281 C 
ATOM     10  C   UNL     1      -7.322  95.963 -10.201  1.00  0.00     0.041 C 
ATOM     11  C   UNL     1      -5.837  96.245 -10.478  1.00  0.00     0.150 C 
ATOM     12  C   UNL     1      -5.486  96.131 -12.075  1.00  0.00     0.174 C 
ATOM     13  O   UNL     1      -5.233  95.272  -9.616  1.00  0.00    -0.344 OA
ATOM     14  C   UNL     1      -4.629  94.857 -12.227  1.00  0.00     0.179 C 
ATOM     15  C   UNL     1      -3.427  94.766 -11.210  1.00  0.00     0.202 C 
BRANCH  12  16
ATOM     16  O   UNL     1      -4.701  97.228 -12.376  1.00  0.00    -0.388 OA
ATOM     17  H   UNL     1      -5.271  97.948 -12.771  1.00  0.00     0.211 HD
ENDBRANCH  12  16
BRANCH  14  18
ATOM     18  O   UNL     1      -5.522  93.753 -11.914  1.00  0.00    -0.387 OA
ATOM     19  H   UNL     1      -5.582  93.563 -10.941  1.00  0.00     0.211 HD
ENDBRANCH  14  18
BRANCH  15  20
ATOM     20  O   UNL     1      -2.210  95.521 -11.496  1.00  0.00    -0.385 OA
ATOM     21  H   UNL     1      -2.575  96.397 -11.820  1.00  0.00     0.211 HD
ENDBRANCH  15  20
ENDBRANCH   8   9
ENDBRANCH   7   8
ENDBRANCH   1   7
BRANCH   2  22
ATOM     22  O   UNL     1      -4.246  89.328  -8.498  1.00  0.00    -0.387 OA
ATOM     23  H   UNL     1      -4.124  88.872  -7.611  1.00  0.00     0.211 HD
ENDBRANCH   2  22
BRANCH   3  24
ATOM     24  O   UNL     1      -6.761  89.560  -6.875  1.00  0.00    -0.387 OA
ATOM     25  H   UNL     1      -6.575  88.516  -6.848  1.00  0.00     0.211 HD
ENDBRANCH   3  24
BRANCH   5  26
ATOM     26  O   UNL     1      -7.654  90.682 -11.626  1.00  0.00    -0.454 OA
BRANCH  26  27
ATOM     27  C   UNL     1      -7.317  90.860 -12.932  1.00  0.00     0.214 A 
ATOM     28  C   UNL     1      -8.217  91.550 -13.765  1.00  0.00     0.180 A 
ATOM     29  C   UNL     1      -6.098  90.489 -13.610  1.00  0.00     0.239 A 
ATOM     30  O   UNL     1      -7.723  92.385 -14.718  1.00  0.00    -0.452 OA
ATOM     31  C   UNL     1      -5.529  91.524 -14.529  1.00  0.00     0.111 A 
ATOM     32  O   UNL     1      -5.452  89.457 -13.401  1.00  0.00    -0.285 OA
ATOM     33  C   UNL     1      -6.456  92.469 -15.044  1.00  0.00     0.146 A 
ATOM     34  C   UNL     1      -4.145  91.538 -14.884  1.00  0.00     0.134 A 
ATOM     35  C   UNL     1      -5.974  93.437 -15.947  1.00  0.00     0.094 A 
ATOM     36  C   UNL     1      -3.713  92.628 -15.732  1.00  0.00     0.093 A 
ATOM     37  C   UNL     1      -4.646  93.523 -16.273  1.00  0.00     0.123 A 
BRANCH  28  38
ATOM     38  C   UNL     1      -9.625  91.416 -13.546  1.00  0.00     0.025 A 
ATOM     39  C   UNL     1     -10.209  90.130 -13.782  1.00  0.00     0.062 A 
ATOM     40  C   UNL     1     -10.465  92.484 -13.234  1.00  0.00     0.016 A 
ATOM     41  C   UNL     1     -11.608  89.954 -13.694  1.00  0.00     0.158 A 
ATOM     42  C   UNL     1     -11.851  92.284 -13.106  1.00  0.00     0.051 A 
ATOM     43  C   UNL     1     -12.415  91.063 -13.337  1.00  0.00     0.157 A 
BRANCH  41  44
ATOM     44  O   UNL     1     -12.163  88.742 -13.980  1.00  0.00    -0.504 OA
ATOM     45  H   UNL     1     -13.031  88.674 -14.497  1.00  0.00     0.293 HD
ENDBRANCH  41  44
BRANCH  43  46
ATOM     46  O   UNL     1     -13.817  90.916 -13.326  1.00  0.00    -0.504 OA
ATOM     47  H   UNL     1     -14.298  90.366 -12.629  1.00  0.00     0.293 HD
ENDBRANCH  43  46
ENDBRANCH  28  38
BRANCH  34  48
ATOM     48  O   UNL     1      -3.265  90.574 -14.421  1.00  0.00    -0.507 OA
ATOM     49  H   UNL     1      -3.193  90.442 -13.431  1.00  0.00     0.293 HD
ENDBRANCH  34  48
BRANCH  37  50
ATOM     50  O   UNL     1      -4.152  94.602 -17.047  1.00  0.00    -0.508 OA
ATOM     51  H   UNL     1      -3.481  95.315 -16.688  1.00  0.00     0.293 HD
ENDBRANCH  37  50
ENDBRANCH  26  27
ENDBRANCH   5  26
BRANCH   4  52
ATOM     52  O   UNL     1      -7.026  88.308  -9.283  1.00  0.00    -0.384 OA
ATOM     53  H   UNL     1      -6.063  88.055  -9.200  1.00  0.00     0.211 HD
ENDBRANCH   4  52
TORSDOF 16
ENDMDL
MODEL 2
REMARK VINA RESULT:    -6.375      2.027      5.116
REMARK INTER + INTRA:         -12.972
REMARK INTER:                 -11.043
REMARK INTRA:                  -1.929
REMARK UNBOUND:                -2.498
REMARK SMILES C[C@H]1O[C@@H](OC[C@@H]2O[C@H](Oc3c(-c4ccc(O)c(O)c4)oc4cc(O)cc(O)c4c3=O)[C@@H](O)[C@@H](O)[C@H]2O)[C@H](O)[C@@H](O)[C@@H]1O
REMARK SMILES IDX 7 1 36 2 34 3 32 4 9 5 8 6 6 7 5 8 4 9 1 10 2 11 42 12 3 13
REMARK SMILES IDX 40 14 38 15 43 16 41 18 39 20 37 22 35 24 10 26 11 27 12 28
REMARK SMILES IDX 30 29 21 30 29 31 31 32 22 33 27 34 23 35 26 36 24 37 13 38
REMARK SMILES IDX 20 39 14 40 18 41 15 42 16 43 19 44 17 46 28 48 25 50 33 52
REMARK H PARENT 43 17 41 19 39 21 37 23 35 25 19 45 17 47 28 49 25 51 33 53
REMARK Flexibility Score: inf
ROOT
ATOM      1  C   UNL     1      -5.449  91.525  -8.798  1.00  0.00     0.180 C 
ATOM      2  C   UNL     1      -4.867  92.940  -9.000  1.00  0.00     0.177 C 
ATOM      3  C   UNL     1      -4.609  93.177 -10.505  1.00  0.00     0.180 C 
ATOM      4  C   UNL     1      -5.914  93.012 -11.243  1.00  0.00     0.214 C 
ATOM      5  C   UNL     1      -6.760  91.845 -10.725  1.00  0.00     0.339 C 
ATOM      6  O   UNL     1      -5.991  91.002  -9.964  1.00  0.00    -0.332 OA
ENDROOT
BRANCH   1   7
ATOM      7  C   UNL     1      -4.340  90.514  -8.658  1.00  0.00     0.198 C 
BRANCH   7   8
ATOM      8  O   UNL     1      -4.804  89.301  -8.211  1.00  0.00    -0.347 OA
BRANCH   8   9
ATOM      9  C   UNL     1      -4.197  88.184  -8.945  1.00  0.00     0.281 C 
ATOM     10  C   UNL     1      -6.433  85.462  -9.839  1.00  0.00     0.041 C 
ATOM     11  C   UNL     1      -4.986  85.965  -9.721  1.00  0.00     0.150 C 
ATOM     12  C   UNL     1      -4.151  85.148  -8.571  1.00  0.00     0.174 C 
ATOM     13  O   UNL     1      -5.225  87.357  -9.476  1.00  0.00    -0.344 OA
ATOM     14  C   UNL     1      -3.933  86.150  -7.419  1.00  0.00     0.179 C 
ATOM     15  C   UNL     1      -3.361  87.546  -7.880  1.00  0.00     0.202 C 
BRANCH  12  16
ATOM     16  O   UNL     1      -2.924  84.844  -9.128  1.00  0.00    -0.388 OA
ATOM     17  H   UNL     1      -2.257  84.684  -8.400  1.00  0.00     0.211 HD
ENDBRANCH  12  16
BRANCH  14  18
ATOM     18  O   UNL     1      -5.257  86.406  -6.875  1.00  0.00    -0.387 OA
ATOM     19  H   UNL     1      -5.283  86.382  -5.882  1.00  0.00     0.211 HD
ENDBRANCH  14  18
BRANCH  15  20
ATOM     20  O   UNL     1      -1.928  87.660  -8.143  1.00  0.00    -0.385 OA
ATOM     21  H   UNL     1      -1.675  86.714  -8.354  1.00  0.00     0.211 HD
ENDBRANCH  15  20
ENDBRANCH   8   9
ENDBRANCH   7   8
ENDBRANCH   1   7
BRANCH   2  22
ATOM     22  O   UNL     1      -5.674  93.921  -8.367  1.00  0.00    -0.387 OA
ATOM     23  H   UNL     1      -5.562  94.799  -8.842  1.00  0.00     0.211 HD
ENDBRANCH   2  22
BRANCH   3  24
ATOM     24  O   UNL     1      -3.937  94.367 -10.774  1.00  0.00    -0.387 OA
ATOM     25  H   UNL     1      -3.861  94.722 -11.771  1.00  0.00     0.211 HD
ENDBRANCH   3  24
BRANCH   5  26
ATOM     26  O   UNL     1      -7.423  90.975 -11.757  1.00  0.00    -0.454 OA
BRANCH  26  27
ATOM     27  C   UNL     1      -7.098  91.042 -13.076  1.00  0.00     0.214 A 
ATOM     28  C   UNL     1      -8.017  91.636 -13.961  1.00  0.00     0.180 A 
ATOM     29  C   UNL     1      -5.876  90.635 -13.728  1.00  0.00     0.239 A 
ATOM     30  O   UNL     1      -7.546  92.392 -14.989  1.00  0.00    -0.452 OA
ATOM     31  C   UNL     1      -5.334  91.594 -14.741  1.00  0.00     0.111 A 
ATOM     32  O   UNL     1      -5.208  89.639 -13.433  1.00  0.00    -0.285 OA
ATOM     33  C   UNL     1      -6.283  92.471 -15.331  1.00  0.00     0.146 A 
ATOM     34  C   UNL     1      -3.953  91.603 -15.107  1.00  0.00     0.134 A 
ATOM     35  C   UNL     1      -5.826  93.363 -16.321  1.00  0.00     0.094 A 
ATOM     36  C   UNL     1      -3.548  92.620 -16.053  1.00  0.00     0.093 A 
ATOM     37  C   UNL     1      -4.502  93.446 -16.664  1.00  0.00     0.123 A 
BRANCH  28  38
ATOM     38  C   UNL     1      -9.421  91.496 -13.719  1.00  0.00     0.025 A 
ATOM     39  C   UNL     1      -9.992  90.195 -13.895  1.00  0.00     0.062 A 
ATOM     40  C   UNL     1     -10.270  92.566 -13.442  1.00  0.00     0.016 A 
ATOM     41  C   UNL     1     -11.387  90.006 -13.782  1.00  0.00     0.158 A 
ATOM     42  C   UNL     1     -11.651  92.356 -13.288  1.00  0.00     0.051 A 
ATOM     43  C   UNL     1     -12.204  91.120 -13.461  1.00  0.00     0.157 A 
BRANCH  41  44
ATOM     44  O   UNL     1     -11.931  88.777 -14.011  1.00  0.00    -0.504 OA
ATOM     45  H   UNL     1     -11.430  88.074 -14.540  1.00  0.00     0.293 HD
ENDBRANCH  41  44
BRANCH  43  46
ATOM     46  O   UNL     1     -13.603  90.957 -13.427  1.00  0.00    -0.504 OA
ATOM     47  H   UNL     1     -14.234  91.602 -13.879  1.00  0.00     0.293 HD
ENDBRANCH  43  46
ENDBRANCH  28  38
BRANCH  34  48
ATOM     48  O   UNL     1      -3.050  90.701 -14.567  1.00  0.00    -0.507 OA
ATOM     49  H   UNL     1      -3.161  90.449 -13.604  1.00  0.00     0.293 HD
ENDBRANCH  34  48
BRANCH  37  50
ATOM     50  O   UNL     1      -4.034  94.460 -17.536  1.00  0.00    -0.508 OA
ATOM     51  H   UNL     1      -3.953  95.464 -17.266  1.00  0.00     0.293 HD
ENDBRANCH  37  50
ENDBRANCH  26  27
ENDBRANCH   5  26
BRANCH   4  52
ATOM     52  O   UNL     1      -6.616  94.234 -11.265  1.00  0.00    -0.384 OA
ATOM     53  H   UNL     1      -6.815  94.485 -12.212  1.00  0.00     0.211 HD
ENDBRANCH   4  52
TORSDOF 16
ENDMDL
MODEL 3
REMARK VINA RESULT:    -6.353      2.210      6.048
REMARK INTER + INTRA:         -12.935
REMARK INTER:                 -10.552
REMARK INTRA:                  -2.384
REMARK UNBOUND:                -2.498
REMARK SMILES C[C@H]1O[C@@H](OC[C@@H]2O[C@H](Oc3c(-c4ccc(O)c(O)c4)oc4cc(O)cc(O)c4c3=O)[C@@H](O)[C@@H](O)[C@H]2O)[C@H](O)[C@@H](O)[C@@H]1O
REMARK SMILES IDX 7 1 36 2 34 3 32 4 9 5 8 6 6 7 5 8 4 9 1 10 2 11 42 12 3 13
REMARK SMILES IDX 40 14 38 15 43 16 41 18 39 20 37 22 35 24 10 26 11 27 12 28
REMARK SMILES IDX 30 29 21 30 29 31 31 32 22 33 27 34 23 35 26 36 24 37 13 38
REMARK SMILES IDX 20 39 14 40 18 41 15 42 16 43 19 44 17 46 28 48 25 50 33 52
REMARK H PARENT 43 17 41 19 39 21 37 23 35 25 19 45 17 47 28 49 25 51 33 53
REMARK Flexibility Score: inf
ROOT
ATOM      1  C   UNL     1      -4.030  93.730 -11.396  1.00  0.00     0.180 C 
ATOM      2  C   UNL     1      -3.883  94.792 -10.288  1.00  0.00     0.177 C 
ATOM      3  C   UNL     1      -5.222  94.931  -9.529  1.00  0.00     0.180 C 
ATOM      4  C   UNL     1      -5.583  93.586  -8.953  1.00  0.00     0.214 C 
ATOM      5  C   UNL     1      -5.290  92.420  -9.902  1.00  0.00     0.339 C 
ATOM      6  O   UNL     1      -5.109  92.883 -11.180  1.00  0.00    -0.332 OA
ENDROOT
BRANCH   1   7
ATOM      7  C   UNL     1      -4.558  94.358 -12.661  1.00  0.00     0.198 C 
BRANCH   7   8
ATOM      8  O   UNL     1      -5.383  93.505 -13.353  1.00  0.00    -0.347 OA
BRANCH   8   9
ATOM      9  C   UNL     1      -4.737  92.988 -14.566  1.00  0.00     0.281 C 
ATOM     10  C   UNL     1      -6.738  93.072 -17.598  1.00  0.00     0.041 C 
ATOM     11  C   UNL     1      -5.473  92.557 -16.893  1.00  0.00     0.150 C 
ATOM     12  C   UNL     1      -5.509  90.931 -16.693  1.00  0.00     0.174 C 
ATOM     13  O   UNL     1      -5.510  93.352 -15.701  1.00  0.00    -0.344 OA
ATOM     14  C   UNL     1      -5.691  90.698 -15.180  1.00  0.00     0.179 C 
ATOM     15  C   UNL     1      -4.692  91.520 -14.277  1.00  0.00     0.202 C 
BRANCH  12  16
ATOM     16  O   UNL     1      -4.259  90.469 -17.062  1.00  0.00    -0.388 OA
ATOM     17  H   UNL     1      -4.194  89.491 -16.867  1.00  0.00     0.211 HD
ENDBRANCH  12  16
BRANCH  14  18
ATOM     18  O   UNL     1      -7.025  91.188 -14.873  1.00  0.00    -0.387 OA
ATOM     19  H   UNL     1      -7.150  92.148 -15.097  1.00  0.00     0.211 HD
ENDBRANCH  14  18
BRANCH  15  20
ATOM     20  O   UNL     1      -3.330  91.019 -14.108  1.00  0.00    -0.385 OA
ATOM     21  H   UNL     1      -2.797  91.866 -14.054  1.00  0.00     0.211 HD
ENDBRANCH  15  20
ENDBRANCH   8   9
ENDBRANCH   7   8
ENDBRANCH   1   7
BRANCH   2  22
ATOM     22  O   UNL     1      -2.754  94.525  -9.470  1.00  0.00    -0.387 OA
ATOM     23  H   UNL     1      -2.543  93.544  -9.507  1.00  0.00     0.211 HD
ENDBRANCH   2  22
BRANCH   3  24
ATOM     24  O   UNL     1      -5.237  95.979  -8.612  1.00  0.00    -0.387 OA
ATOM     25  H   UNL     1      -4.353  96.240  -8.087  1.00  0.00     0.211 HD
ENDBRANCH   3  24
BRANCH   5  26
ATOM     26  O   UNL     1      -6.335  91.343 -10.000  1.00  0.00    -0.454 OA
BRANCH  26  27
ATOM     27  C   UNL     1      -6.201  90.146  -9.368  1.00  0.00     0.214 A 
ATOM     28  C   UNL     1      -6.956  89.055  -9.836  1.00  0.00     0.180 A 
ATOM     29  C   UNL     1      -5.320  89.792  -8.281  1.00  0.00     0.239 A 
ATOM     30  O   UNL     1      -6.394  87.817  -9.832  1.00  0.00    -0.452 OA
ATOM     31  C   UNL     1      -4.616  88.479  -8.422  1.00  0.00     0.111 A 
ATOM     32  O   UNL     1      -5.026  90.527  -7.332  1.00  0.00    -0.285 OA
ATOM     33  C   UNL     1      -5.253  87.523  -9.258  1.00  0.00     0.146 A 
ATOM     34  C   UNL     1      -3.395  88.201  -7.734  1.00  0.00     0.134 A 
ATOM     35  C   UNL     1      -4.649  86.258  -9.387  1.00  0.00     0.094 A 
ATOM     36  C   UNL     1      -2.786  86.916  -8.004  1.00  0.00     0.093 A 
ATOM     37  C   UNL     1      -3.450  85.964  -8.791  1.00  0.00     0.123 A 
BRANCH  28  38
ATOM     38  C   UNL     1      -8.263  89.281 -10.373  1.00  0.00     0.025 A 
ATOM     39  C   UNL     1      -8.353  89.639 -11.757  1.00  0.00     0.062 A 
ATOM     40  C   UNL     1      -9.426  89.288  -9.605  1.00  0.00     0.016 A 
ATOM     41  C   UNL     1      -9.599  89.985 -12.326  1.00  0.00     0.158 A 
ATOM     42  C   UNL     1     -10.666  89.591 -10.196  1.00  0.00     0.051 A 
ATOM     43  C   UNL     1     -10.758  89.940 -11.511  1.00  0.00     0.157 A 
BRANCH  41  44
ATOM     44  O   UNL     1      -9.668  90.384 -13.628  1.00  0.00    -0.504 OA
ATOM     45  H   UNL     1      -9.152  91.192 -13.955  1.00  0.00     0.293 HD
ENDBRANCH  41  44
BRANCH  43  46
ATOM     46  O   UNL     1     -11.991  90.361 -12.049  1.00  0.00    -0.504 OA
ATOM     47  H   UNL     1     -12.203  90.294 -13.033  1.00  0.00     0.293 HD
ENDBRANCH  43  46
ENDBRANCH  28  38
BRANCH  34  48
ATOM     48  O   UNL     1      -2.817  89.121  -6.875  1.00  0.00    -0.507 OA
ATOM     49  H   UNL     1      -3.243  90.023  -6.800  1.00  0.00     0.293 HD
ENDBRANCH  34  48
BRANCH  37  50
ATOM     50  O   UNL     1      -2.775  84.749  -9.066  1.00  0.00    -0.508 OA
ATOM     51  H   UNL     1      -1.940  84.678  -9.687  1.00  0.00     0.293 HD
ENDBRANCH  37  50
ENDBRANCH  26  27
ENDBRANCH   5  26
BRANCH   4  52
ATOM     52  O   UNL     1      -4.988  93.427  -7.685  1.00  0.00    -0.384 OA
ATOM     53  H   UNL     1      -5.513  92.763  -7.153  1.00  0.00     0.211 HD
ENDBRANCH   4  52
TORSDOF 16
ENDMDL
MODEL 4
REMARK VINA RESULT:    -6.217      2.770      7.184
REMARK INTER + INTRA:         -12.713
REMARK INTER:                  -9.568
REMARK INTRA:                  -3.144
REMARK UNBOUND:                -2.498
REMARK SMILES C[C@H]1O[C@@H](OC[C@@H]2O[C@H](Oc3c(-c4ccc(O)c(O)c4)oc4cc(O)cc(O)c4c3=O)[C@@H](O)[C@@H](O)[C@H]2O)[C@H](O)[C@@H](O)[C@@H]1O
REMARK SMILES IDX 7 1 36 2 34 3 32 4 9 5 8 6 6 7 5 8 4 9 1 10 2 11 42 12 3 13
REMARK SMILES IDX 40 14 38 15 43 16 41 18 39 20 37 22 35 24 10 26 11 27 12 28
REMARK SMILES IDX 30 29 21 30 29 31 31 32 22 33 27 34 23 35 26 36 24 37 13 38
REMARK SMILES IDX 20 39 14 40 18 41 15 42 16 43 19 44 17 46 28 48 25 50 33 52
REMARK H PARENT 43 17 41 19 39 21 37 23 35 25 19 45 17 47 28 49 25 51 33 53
REMARK Flexibility Score: inf
ROOT
ATOM      1  C   UNL     1      -4.484  93.269 -10.879  1.00  0.00     0.180 C 
ATOM      2  C   UNL     1      -5.479  93.970  -9.932  1.00  0.00     0.177 C 
ATOM      3  C   UNL     1      -6.804  93.175  -9.901  1.00  0.00     0.180 C 
ATOM      4  C   UNL     1      -6.504  91.772  -9.438  1.00  0.00     0.214 C 
ATOM      5  C   UNL     1      -5.213  91.199 -10.030  1.00  0.00     0.339 C 
ATOM      6  O   UNL     1      -4.818  91.942 -11.113  1.00  0.00    -0.332 OA
ENDROOT
BRANCH   1   7
ATOM      7  C   UNL     1      -4.679  93.745 -12.296  1.00  0.00     0.198 C 
BRANCH   7   8
ATOM      8  O   UNL     1      -3.728  93.235 -13.145  1.00  0.00    -0.347 OA
BRANCH   8   9
ATOM      9  C   UNL     1      -4.285  92.942 -14.472  1.00  0.00     0.281 C 
ATOM     10  C   UNL     1      -7.797  92.014 -14.557  1.00  0.00     0.041 C 
ATOM     11  C   UNL     1      -6.460  92.098 -15.310  1.00  0.00     0.150 C 
ATOM     12  C   UNL     1      -5.867  90.611 -15.663  1.00  0.00     0.174 C 
ATOM     13  O   UNL     1      -5.703  92.889 -14.385  1.00  0.00    -0.344 OA
ATOM     14  C   UNL     1      -4.632  90.426 -14.759  1.00  0.00     0.179 C 
ATOM     15  C   UNL     1      -3.623  91.638 -14.792  1.00  0.00     0.202 C 
BRANCH  12  16
ATOM     16  O   UNL     1      -5.446  90.667 -16.978  1.00  0.00    -0.388 OA
ATOM     17  H   UNL     1      -4.460  90.504 -17.020  1.00  0.00     0.211 HD
ENDBRANCH  12  16
BRANCH  14  18
ATOM     18  O   UNL     1      -5.153  90.359 -13.403  1.00  0.00    -0.387 OA
ATOM     19  H   UNL     1      -4.821  89.572 -12.895  1.00  0.00     0.211 HD
ENDBRANCH  14  18
BRANCH  15  20
ATOM     20  O   UNL     1      -2.689  91.738 -15.910  1.00  0.00    -0.385 OA
ATOM     21  H   UNL     1      -3.159  91.218 -16.627  1.00  0.00     0.211 HD
ENDBRANCH  15  20
ENDBRANCH   8   9
ENDBRANCH   7   8
ENDBRANCH   1   7
BRANCH   2  22
ATOM     22  O   UNL     1      -4.893  94.212  -8.662  1.00  0.00    -0.387 OA
ATOM     23  H   UNL     1      -5.526  94.759  -8.105  1.00  0.00     0.211 HD
ENDBRANCH   2  22
BRANCH   3  24
ATOM     24  O   UNL     1      -7.821  93.814  -9.197  1.00  0.00    -0.387 OA
ATOM     25  H   UNL     1      -8.741  94.036  -9.675  1.00  0.00     0.211 HD
ENDBRANCH   3  24
BRANCH   5  26
ATOM     26  O   UNL     1      -5.255  89.773 -10.504  1.00  0.00    -0.454 OA
BRANCH  26  27
ATOM     27  C   UNL     1      -6.360  88.994 -10.356  1.00  0.00     0.214 A 
ATOM     28  C   UNL     1      -6.402  88.093  -9.276  1.00  0.00     0.180 A 
ATOM     29  C   UNL     1      -7.575  88.992 -11.134  1.00  0.00     0.239 A 
ATOM     30  O   UNL     1      -7.584  87.890  -8.634  1.00  0.00    -0.452 OA
ATOM     31  C   UNL     1      -8.846  88.920 -10.347  1.00  0.00     0.111 A 
ATOM     32  O   UNL     1      -7.640  89.157 -12.357  1.00  0.00    -0.285 OA
ATOM     33  C   UNL     1      -8.742  88.339  -9.056  1.00  0.00     0.146 A 
ATOM     34  C   UNL     1     -10.089  89.386 -10.878  1.00  0.00     0.134 A 
ATOM     35  C   UNL     1      -9.920  88.212  -8.295  1.00  0.00     0.094 A 
ATOM     36  C   UNL     1     -11.230  89.315  -9.992  1.00  0.00     0.093 A 
ATOM     37  C   UNL     1     -11.123  88.694  -8.740  1.00  0.00     0.123 A 
BRANCH  28  38
ATOM     38  C   UNL     1      -5.193  87.471  -8.829  1.00  0.00     0.025 A 
ATOM     39  C   UNL     1      -4.860  86.198  -9.396  1.00  0.00     0.062 A 
ATOM     40  C   UNL     1      -4.397  87.972  -7.800  1.00  0.00     0.016 A 
ATOM     41  C   UNL     1      -3.743  85.476  -8.921  1.00  0.00     0.158 A 
ATOM     42  C   UNL     1      -3.263  87.263  -7.369  1.00  0.00     0.051 A 
ATOM     43  C   UNL     1      -2.943  86.047  -7.899  1.00  0.00     0.157 A 
BRANCH  41  44
ATOM     44  O   UNL     1      -3.467  84.238  -9.422  1.00  0.00    -0.504 OA
ATOM     45  H   UNL     1      -4.060  83.445  -9.211  1.00  0.00     0.293 HD
ENDBRANCH  41  44
BRANCH  43  46
ATOM     46  O   UNL     1      -1.876  85.298  -7.365  1.00  0.00    -0.504 OA
ATOM     47  H   UNL     1      -1.194  85.699  -6.738  1.00  0.00     0.293 HD
ENDBRANCH  43  46
ENDBRANCH  28  38
BRANCH  34  48
ATOM     48  O   UNL     1     -10.187  89.896 -12.162  1.00  0.00    -0.507 OA
ATOM     49  H   UNL     1     -10.402  90.869 -12.264  1.00  0.00     0.293 HD
ENDBRANCH  34  48
BRANCH  37  50
ATOM     50  O   UNL     1     -12.262  88.710  -7.896  1.00  0.00    -0.508 OA
ATOM     51  H   UNL     1     -13.124  88.152  -8.075  1.00  0.00     0.293 HD
ENDBRANCH  37  50
ENDBRANCH  26  27
ENDBRANCH   5  26
BRANCH   4  52
ATOM     52  O   UNL     1      -6.541  91.708  -8.030  1.00  0.00    -0.384 OA
ATOM     53  H   UNL     1      -6.811  92.598  -7.664  1.00  0.00     0.211 HD
ENDBRANCH   4  52
TORSDOF 16
ENDMDL
MODEL 5
REMARK VINA RESULT:    -6.140      4.597      9.170
REMARK INTER + INTRA:         -12.586
REMARK INTER:                  -9.899
REMARK INTRA:                  -2.687
REMARK UNBOUND:                -2.498
REMARK SMILES C[C@H]1O[C@@H](OC[C@@H]2O[C@H](Oc3c(-c4ccc(O)c(O)c4)oc4cc(O)cc(O)c4c3=O)[C@@H](O)[C@@H](O)[C@H]2O)[C@H](O)[C@@H](O)[C@@H]1O
REMARK SMILES IDX 7 1 36 2 34 3 32 4 9 5 8 6 6 7 5 8 4 9 1 10 2 11 42 12 3 13
REMARK SMILES IDX 40 14 38 15 43 16 41 18 39 20 37 22 35 24 10 26 11 27 12 28
REMARK SMILES IDX 30 29 21 30 29 31 31 32 22 33 27 34 23 35 26 36 24 37 13 38
REMARK SMILES IDX 20 39 14 40 18 41 15 42 16 43 19 44 17 46 28 48 25 50 33 52
REMARK H PARENT 43 17 41 19 39 21 37 23 35 25 19 45 17 47 28 49 25 51 33 53
REMARK Flexibility Score: inf
ROOT
ATOM      1  C   UNL     1     -11.893  87.911 -10.632  1.00  0.00     0.180 C 
ATOM      2  C   UNL     1     -12.969  88.969 -10.948  1.00  0.00     0.177 C 
ATOM      3  C   UNL     1     -12.711  90.233 -10.096  1.00  0.00     0.180 C 
ATOM      4  C   UNL     1     -11.330  90.746 -10.415  1.00  0.00     0.214 C 
ATOM      5  C   UNL     1     -10.290  89.633 -10.573  1.00  0.00     0.339 C 
ATOM      6  O   UNL     1     -10.764  88.462 -10.040  1.00  0.00    -0.332 OA
ENDROOT
BRANCH   1   7
ATOM      7  C   UNL     1     -12.309  87.070  -9.452  1.00  0.00     0.198 C 
BRANCH   7   8
ATOM      8  O   UNL     1     -11.747  85.818  -9.488  1.00  0.00    -0.347 OA
BRANCH   8   9
ATOM      9  C   UNL     1     -12.663  84.795  -8.968  1.00  0.00     0.281 C 
ATOM     10  C   UNL     1     -11.108  81.919  -7.382  1.00  0.00     0.041 C 
ATOM     11  C   UNL     1     -12.387  82.549  -7.956  1.00  0.00     0.150 C 
ATOM     12  C   UNL     1     -12.900  81.764  -9.299  1.00  0.00     0.174 C 
ATOM     13  O   UNL     1     -11.942  83.901  -8.131  1.00  0.00    -0.344 OA
ATOM     14  C   UNL     1     -12.645  82.730 -10.474  1.00  0.00     0.179 C 
ATOM     15  C   UNL     1     -13.187  84.192 -10.234  1.00  0.00     0.202 C 
BRANCH  12  16
ATOM     16  O   UNL     1     -14.265  81.601  -9.152  1.00  0.00    -0.388 OA
ATOM     17  H   UNL     1     -14.736  82.420  -9.478  1.00  0.00     0.211 HD
ENDBRANCH  12  16
BRANCH  14  18
ATOM     18  O   UNL     1     -11.199  82.836 -10.577  1.00  0.00    -0.387 OA
ATOM     19  H   UNL     1     -10.740  82.803  -9.696  1.00  0.00     0.211 HD
ENDBRANCH  14  18
BRANCH  15  20
ATOM     20  O   UNL     1     -14.610  84.451 -10.436  1.00  0.00    -0.385 OA
ATOM     21  H   UNL     1     -14.598  85.181 -11.123  1.00  0.00     0.211 HD
ENDBRANCH  15  20
ENDBRANCH   8   9
ENDBRANCH   7   8
ENDBRANCH   1   7
BRANCH   2  22
ATOM     22  O   UNL     1     -13.069  89.196 -12.345  1.00  0.00    -0.387 OA
ATOM     23  H   UNL     1     -13.957  88.858 -12.673  1.00  0.00     0.211 HD
ENDBRANCH   2  22
BRANCH   3  24
ATOM     24  O   UNL     1     -13.722  91.186 -10.193  1.00  0.00    -0.387 OA
ATOM     25  H   UNL     1     -14.383  91.179 -11.023  1.00  0.00     0.211 HD
ENDBRANCH   3  24
BRANCH   5  26
ATOM     26  O   UNL     1      -8.947  89.860  -9.937  1.00  0.00    -0.454 OA
BRANCH  26  27
ATOM     27  C   UNL     1      -7.807  89.960 -10.672  1.00  0.00     0.214 A 
ATOM     28  C   UNL     1      -7.107  88.779 -10.983  1.00  0.00     0.180 A 
ATOM     29  C   UNL     1      -7.210  91.135 -11.259  1.00  0.00     0.239 A 
ATOM     30  O   UNL     1      -6.515  88.668 -12.202  1.00  0.00    -0.452 OA
ATOM     31  C   UNL     1      -6.718  90.977 -12.663  1.00  0.00     0.111 A 
ATOM     32  O   UNL     1      -7.185  92.257 -10.741  1.00  0.00    -0.285 OA
ATOM     33  C   UNL     1      -6.392  89.653 -13.059  1.00  0.00     0.146 A 
ATOM     34  C   UNL     1      -6.563  92.097 -13.538  1.00  0.00     0.134 A 
ATOM     35  C   UNL     1      -5.886  89.461 -14.358  1.00  0.00     0.094 A 
ATOM     36  C   UNL     1      -6.137  91.799 -14.889  1.00  0.00     0.093 A 
ATOM     37  C   UNL     1      -5.772  90.495 -15.250  1.00  0.00     0.123 A 
BRANCH  28  38
ATOM     38  C   UNL     1      -7.096  87.698 -10.045  1.00  0.00     0.025 A 
ATOM     39  C   UNL     1      -8.051  86.648 -10.241  1.00  0.00     0.062 A 
ATOM     40  C   UNL     1      -6.300  87.671  -8.902  1.00  0.00     0.016 A 
ATOM     41  C   UNL     1      -8.173  85.608  -9.294  1.00  0.00     0.158 A 
ATOM     42  C   UNL     1      -6.401  86.605  -7.990  1.00  0.00     0.051 A 
ATOM     43  C   UNL     1      -7.313  85.605  -8.166  1.00  0.00     0.157 A 
BRANCH  41  44
ATOM     44  O   UNL     1      -9.125  84.645  -9.455  1.00  0.00    -0.504 OA
ATOM     45  H   UNL     1      -9.511  84.154  -8.658  1.00  0.00     0.293 HD
ENDBRANCH  41  44
BRANCH  43  46
ATOM     46  O   UNL     1      -7.482  84.617  -7.176  1.00  0.00    -0.504 OA
ATOM     47  H   UNL     1      -7.392  83.632  -7.374  1.00  0.00     0.293 HD
ENDBRANCH  43  46
ENDBRANCH  28  38
BRANCH  34  48
ATOM     48  O   UNL     1      -6.828  93.390 -13.120  1.00  0.00    -0.507 OA
ATOM     49  H   UNL     1      -7.536  93.521 -12.425  1.00  0.00     0.293 HD
ENDBRANCH  34  48
BRANCH  37  50
ATOM     50  O   UNL     1      -5.421  90.259 -16.603  1.00  0.00    -0.508 OA
ATOM     51  H   UNL     1      -4.642  89.632 -16.898  1.00  0.00     0.293 HD
ENDBRANCH  37  50
ENDBRANCH  26  27
ENDBRANCH   5  26
BRANCH   4  52
ATOM     52  O   UNL     1     -11.380  91.616 -11.522  1.00  0.00    -0.384 OA
ATOM     53  H   UNL     1     -11.071  91.130 -12.340  1.00  0.00     0.211 HD
ENDBRANCH   4  52
TORSDOF 16
ENDMDL
MODEL 6
REMARK VINA RESULT:    -6.131      4.754      9.870
REMARK INTER + INTRA:         -12.572
REMARK INTER:                 -10.252
REMARK INTRA:                  -2.319
REMARK UNBOUND:                -2.498
REMARK SMILES C[C@H]1O[C@@H](OC[C@@H]2O[C@H](Oc3c(-c4ccc(O)c(O)c4)oc4cc(O)cc(O)c4c3=O)[C@@H](O)[C@@H](O)[C@H]2O)[C@H](O)[C@@H](O)[C@@H]1O
REMARK SMILES IDX 7 1 36 2 34 3 32 4 9 5 8 6 6 7 5 8 4 9 1 10 2 11 42 12 3 13
REMARK SMILES IDX 40 14 38 15 43 16 41 18 39 20 37 22 35 24 10 26 11 27 12 28
REMARK SMILES IDX 30 29 21 30 29 31 31 32 22 33 27 34 23 35 26 36 24 37 13 38
REMARK SMILES IDX 20 39 14 40 18 41 15 42 16 43 19 44 17 46 28 48 25 50 33 52
REMARK H PARENT 43 17 41 19 39 21 37 23 35 25 19 45 17 47 28 49 25 51 33 53
REMARK Flexibility Score: inf
ROOT
ATOM      1  C   UNL     1     -10.754  87.612  -9.330  1.00  0.00     0.180 C 
ATOM      2  C   UNL     1     -11.269  88.916  -9.972  1.00  0.00     0.177 C 
ATOM      3  C   UNL     1     -10.578  90.125  -9.301  1.00  0.00     0.180 C 
ATOM      4  C   UNL     1      -9.088  89.980  -9.480  1.00  0.00     0.214 C 
ATOM      5  C   UNL     1      -8.593  88.542  -9.298  1.00  0.00     0.339 C 
ATOM      6  O   UNL     1      -9.547  87.787  -8.666  1.00  0.00    -0.332 OA
ENDROOT
BRANCH   1   7
ATOM      7  C   UNL     1     -11.570  87.266  -8.111  1.00  0.00     0.198 C 
BRANCH   7   8
ATOM      8  O   UNL     1     -11.569  85.916  -7.858  1.00  0.00    -0.347 OA
BRANCH   8   9
ATOM      9  C   UNL     1     -11.371  85.133  -9.084  1.00  0.00     0.281 C 
ATOM     10  C   UNL     1     -13.936  82.672  -9.838  1.00  0.00     0.041 C 
ATOM     11  C   UNL     1     -12.533  83.218 -10.146  1.00  0.00     0.150 C 
ATOM     12  C   UNL     1     -11.362  82.146  -9.740  1.00  0.00     0.174 C 
ATOM     13  O   UNL     1     -12.571  84.441  -9.399  1.00  0.00    -0.344 OA
ATOM     14  C   UNL     1     -10.646  82.749  -8.514  1.00  0.00     0.179 C 
ATOM     15  C   UNL     1     -10.220  84.257  -8.696  1.00  0.00     0.202 C 
BRANCH  12  16
ATOM     16  O   UNL     1     -10.475  82.123 -10.800  1.00  0.00    -0.388 OA
ATOM     17  H   UNL     1      -9.638  82.606 -10.545  1.00  0.00     0.211 HD
ENDBRANCH  12  16
BRANCH  14  18
ATOM     18  O   UNL     1     -11.629  82.722  -7.443  1.00  0.00    -0.387 OA
ATOM     19  H   UNL     1     -11.355  83.251  -6.648  1.00  0.00     0.211 HD
ENDBRANCH  14  18
BRANCH  15  20
ATOM     20  O   UNL     1      -9.005  84.553  -9.450  1.00  0.00    -0.385 OA
ATOM     21  H   UNL     1      -8.285  84.318  -8.793  1.00  0.00     0.211 HD
ENDBRANCH  15  20
ENDBRANCH   8   9
ENDBRANCH   7   8
ENDBRANCH   1   7
BRANCH   2  22
ATOM     22  O   UNL     1     -11.159  88.869 -11.386  1.00  0.00    -0.387 OA
ATOM     23  H   UNL     1     -11.593  88.028 -11.723  1.00  0.00     0.211 HD
ENDBRANCH   2  22
BRANCH   3  24
ATOM     24  O   UNL     1     -11.094  91.355  -9.703  1.00  0.00    -0.387 OA
ATOM     25  H   UNL     1     -11.968  91.396 -10.302  1.00  0.00     0.211 HD
ENDBRANCH   3  24
BRANCH   5  26
ATOM     26  O   UNL     1      -7.328  88.352  -8.506  1.00  0.00    -0.454 OA
BRANCH  26  27
ATOM     27  C   UNL     1      -6.247  87.703  -9.016  1.00  0.00     0.214 A 
ATOM     28  C   UNL     1      -4.972  88.254  -8.793  1.00  0.00     0.180 A 
ATOM     29  C   UNL     1      -6.199  86.450  -9.730  1.00  0.00     0.239 A 
ATOM     30  O   UNL     1      -3.924  87.416  -8.566  1.00  0.00    -0.452 OA
ATOM     31  C   UNL     1      -5.108  85.513  -9.317  1.00  0.00     0.111 A 
ATOM     32  O   UNL     1      -7.039  86.063 -10.549  1.00  0.00    -0.285 OA
ATOM     33  C   UNL     1      -3.972  86.114  -8.712  1.00  0.00     0.146 A 
ATOM     34  C   UNL     1      -5.198  84.104  -9.543  1.00  0.00     0.134 A 
ATOM     35  C   UNL     1      -2.902  85.276  -8.345  1.00  0.00     0.094 A 
ATOM     36  C   UNL     1      -4.102  83.304  -9.041  1.00  0.00     0.093 A 
ATOM     37  C   UNL     1      -2.966  83.915  -8.492  1.00  0.00     0.123 A 
BRANCH  28  38
ATOM     38  C   UNL     1      -4.817  89.676  -8.735  1.00  0.00     0.025 A 
ATOM     39  C   UNL     1      -5.098  90.416  -9.929  1.00  0.00     0.062 A 
ATOM     40  C   UNL     1      -4.302  90.355  -7.633  1.00  0.00     0.016 A 
ATOM     41  C   UNL     1      -4.861  91.808  -9.977  1.00  0.00     0.158 A 
ATOM     42  C   UNL     1      -4.112  91.747  -7.682  1.00  0.00     0.051 A 
ATOM     43  C   UNL     1      -4.371  92.459  -8.817  1.00  0.00     0.157 A 
BRANCH  41  44
ATOM     44  O   UNL     1      -5.072  92.497 -11.135  1.00  0.00    -0.504 OA
ATOM     45  H   UNL     1      -5.103  93.509 -11.142  1.00  0.00     0.293 HD
ENDBRANCH  41  44
BRANCH  43  46
ATOM     46  O   UNL     1      -4.055  93.831  -8.882  1.00  0.00    -0.504 OA
ATOM     47  H   UNL     1      -3.648  94.330  -8.105  1.00  0.00     0.293 HD
ENDBRANCH  43  46
ENDBRANCH  28  38
BRANCH  34  48
ATOM     48  O   UNL     1      -6.286  83.539 -10.188  1.00  0.00    -0.507 OA
ATOM     49  H   UNL     1      -6.724  82.747  -9.760  1.00  0.00     0.293 HD
ENDBRANCH  34  48
BRANCH  37  50
ATOM     50  O   UNL     1      -1.955  83.074  -7.965  1.00  0.00    -0.508 OA
ATOM     51  H   UNL     1      -1.374  83.317  -7.134  1.00  0.00     0.293 HD
ENDBRANCH  37  50
ENDBRANCH  26  27
ENDBRANCH   5  26
BRANCH   4  52
ATOM     52  O   UNL     1      -8.689  90.550 -10.706  1.00  0.00    -0.384 OA
ATOM     53  H   UNL     1      -7.706  90.726 -10.685  1.00  0.00     0.211 HD
ENDBRANCH   4  52
TORSDOF 16
ENDMDL
MODEL 7
REMARK VINA RESULT:    -6.036      2.002      5.577
REMARK INTER + INTRA:         -12.415
REMARK INTER:                  -9.487
REMARK INTRA:                  -2.928
REMARK UNBOUND:                -2.498
REMARK SMILES C[C@H]1O[C@@H](OC[C@@H]2O[C@H](Oc3c(-c4ccc(O)c(O)c4)oc4cc(O)cc(O)c4c3=O)[C@@H](O)[C@@H](O)[C@H]2O)[C@H](O)[C@@H](O)[C@@H]1O
REMARK SMILES IDX 7 1 36 2 34 3 32 4 9 5 8 6 6 7 5 8 4 9 1 10 2 11 42 12 3 13
REMARK SMILES IDX 40 14 38 15 43 16 41 18 39 20 37 22 35 24 10 26 11 27 12 28
REMARK SMILES IDX 30 29 21 30 29 31 31 32 22 33 27 34 23 35 26 36 24 37 13 38
REMARK SMILES IDX 20 39 14 40 18 41 15 42 16 43 19 44 17 46 28 48 25 50 33 52
REMARK H PARENT 43 17 41 19 39 21 37 23 35 25 19 45 17 47 28 49 25 51 33 53
REMARK Flexibility Score: inf
ROOT
ATOM      1  C   UNL     1      -4.722  93.443 -10.926  1.00  0.00     0.180 C 
ATOM      2  C   UNL     1      -4.736  94.732 -10.079  1.00  0.00     0.177 C 
ATOM      3  C   UNL     1      -6.188  95.248  -9.955  1.00  0.00     0.180 C 
ATOM      4  C   UNL     1      -7.023  94.167  -9.318  1.00  0.00     0.214 C 
ATOM      5  C   UNL     1      -6.688  92.762  -9.828  1.00  0.00     0.339 C 
ATOM      6  O   UNL     1      -5.970  92.838 -10.993  1.00  0.00    -0.332 OA
ENDROOT
BRANCH   1   7
ATOM      7  C   UNL     1      -4.616  93.776 -12.392  1.00  0.00     0.198 C 
BRANCH   7   8
ATOM      8  O   UNL     1      -3.619  93.062 -13.010  1.00  0.00    -0.347 OA
BRANCH   8   9
ATOM      9  C   UNL     1      -4.019  92.621 -14.353  1.00  0.00     0.281 C 
ATOM     10  C   UNL     1      -7.593  92.542 -15.006  1.00  0.00     0.041 C 
ATOM     11  C   UNL     1      -6.181  92.143 -15.466  1.00  0.00     0.150 C 
ATOM     12  C   UNL     1      -5.966  90.519 -15.424  1.00  0.00     0.174 C 
ATOM     13  O   UNL     1      -5.393  92.920 -14.556  1.00  0.00    -0.344 OA
ATOM     14  C   UNL     1      -4.985  90.255 -14.264  1.00  0.00     0.179 C 
ATOM     15  C   UNL     1      -3.693  91.160 -14.296  1.00  0.00     0.202 C 
BRANCH  12  16
ATOM     16  O   UNL     1      -5.344  90.182 -16.611  1.00  0.00    -0.388 OA
ATOM     17  H   UNL     1      -4.757  89.385 -16.466  1.00  0.00     0.211 HD
ENDBRANCH  12  16
BRANCH  14  18
ATOM     18  O   UNL     1      -5.711  90.613 -13.057  1.00  0.00    -0.387 OA
ATOM     19  H   UNL     1      -6.427  91.284 -13.216  1.00  0.00     0.211 HD
ENDBRANCH  14  18
BRANCH  15  20
ATOM     20  O   UNL     1      -2.603  90.790 -15.194  1.00  0.00    -0.385 OA
ATOM     21  H   UNL     1      -1.809  90.803 -14.582  1.00  0.00     0.211 HD
ENDBRANCH  15  20
ENDBRANCH   8   9
ENDBRANCH   7   8
ENDBRANCH   1   7
BRANCH   2  22
ATOM     22  O   UNL     1      -4.058  94.543  -8.846  1.00  0.00    -0.387 OA
ATOM     23  H   UNL     1      -3.134  94.192  -9.028  1.00  0.00     0.211 HD
ENDBRANCH   2  22
BRANCH   3  24
ATOM     24  O   UNL     1      -6.286  96.494  -9.341  1.00  0.00    -0.387 OA
ATOM     25  H   UNL     1      -7.209  96.813  -8.927  1.00  0.00     0.211 HD
ENDBRANCH   3  24
BRANCH   5  26
ATOM     26  O   UNL     1      -7.847  91.848 -10.119  1.00  0.00    -0.454 OA
BRANCH  26  27
ATOM     27  C   UNL     1      -7.820  90.525  -9.808  1.00  0.00     0.214 A 
ATOM     28  C   UNL     1      -8.381  89.613 -10.721  1.00  0.00     0.180 A 
ATOM     29  C   UNL     1      -7.226  89.877  -8.664  1.00  0.00     0.239 A 
ATOM     30  O   UNL     1      -7.780  88.405 -10.897  1.00  0.00    -0.452 OA
ATOM     31  C   UNL     1      -6.448  88.633  -8.957  1.00  0.00     0.111 A 
ATOM     32  O   UNL     1      -7.216  90.328  -7.513  1.00  0.00    -0.285 OA
ATOM     33  C   UNL     1      -6.808  87.946 -10.147  1.00  0.00     0.146 A 
ATOM     34  C   UNL     1      -5.428  88.156  -8.078  1.00  0.00     0.134 A 
ATOM     35  C   UNL     1      -6.132  86.747 -10.444  1.00  0.00     0.094 A 
ATOM     36  C   UNL     1      -4.711  86.975  -8.509  1.00  0.00     0.093 A 
ATOM     37  C   UNL     1      -5.109  86.280  -9.659  1.00  0.00     0.123 A 
BRANCH  28  38
ATOM     38  C   UNL     1      -9.520  90.001 -11.496  1.00  0.00     0.025 A 
ATOM     39  C   UNL     1     -10.783  90.059 -10.824  1.00  0.00     0.062 A 
ATOM     40  C   UNL     1      -9.486  90.205 -12.875  1.00  0.00     0.016 A 
ATOM     41  C   UNL     1     -11.966  90.325 -11.550  1.00  0.00     0.158 A 
ATOM     42  C   UNL     1     -10.665  90.513 -13.576  1.00  0.00     0.051 A 
ATOM     43  C   UNL     1     -11.874  90.563 -12.945  1.00  0.00     0.157 A 
BRANCH  41  44
ATOM     44  O   UNL     1     -13.172  90.319 -10.915  1.00  0.00    -0.504 OA
ATOM     45  H   UNL     1     -13.299  89.829 -10.038  1.00  0.00     0.293 HD
ENDBRANCH  41  44
BRANCH  43  46
ATOM     46  O   UNL     1     -13.056  90.749 -13.689  1.00  0.00    -0.504 OA
ATOM     47  H   UNL     1     -13.876  91.190 -13.300  1.00  0.00     0.293 HD
ENDBRANCH  43  46
ENDBRANCH  28  38
BRANCH  34  48
ATOM     48  O   UNL     1      -5.129  88.804  -6.890  1.00  0.00    -0.507 OA
ATOM     49  H   UNL     1      -5.879  89.244  -6.395  1.00  0.00     0.293 HD
ENDBRANCH  34  48
BRANCH  37  50
ATOM     50  O   UNL     1      -4.330  85.167 -10.060  1.00  0.00    -0.508 OA
ATOM     51  H   UNL     1      -3.563  85.219 -10.765  1.00  0.00     0.293 HD
ENDBRANCH  37  50
ENDBRANCH  26  27
ENDBRANCH   5  26
BRANCH   4  52
ATOM     52  O   UNL     1      -6.964  94.272  -7.914  1.00  0.00    -0.384 OA
ATOM     53  H   UNL     1      -7.722  93.761  -7.510  1.00  0.00     0.211 HD
ENDBRANCH   4  52
TORSDOF 16
ENDMDL
MODEL 8
REMARK VINA RESULT:    -6.035      2.238      6.235
REMARK INTER + INTRA:         -12.414
REMARK INTER:                 -10.302
REMARK INTRA:                  -2.112
REMARK UNBOUND:                -2.498
REMARK SMILES C[C@H]1O[C@@H](OC[C@@H]2O[C@H](Oc3c(-c4ccc(O)c(O)c4)oc4cc(O)cc(O)c4c3=O)[C@@H](O)[C@@H](O)[C@H]2O)[C@H](O)[C@@H](O)[C@@H]1O
REMARK SMILES IDX 7 1 36 2 34 3 32 4 9 5 8 6 6 7 5 8 4 9 1 10 2 11 42 12 3 13
REMARK SMILES IDX 40 14 38 15 43 16 41 18 39 20 37 22 35 24 10 26 11 27 12 28
REMARK SMILES IDX 30 29 21 30 29 31 31 32 22 33 27 34 23 35 26 36 24 37 13 38
REMARK SMILES IDX 20 39 14 40 18 41 15 42 16 43 19 44 17 46 28 48 25 50 33 52
REMARK H PARENT 43 17 41 19 39 21 37 23 35 25 19 45 17 47 28 49 25 51 33 53
REMARK Flexibility Score: inf
ROOT
ATOM      1  C   UNL     1      -4.200  91.922 -12.543  1.00  0.00     0.180 C 
ATOM      2  C   UNL     1      -4.065  93.412 -12.921  1.00  0.00     0.177 C 
ATOM      3  C   UNL     1      -5.457  93.975 -13.290  1.00  0.00     0.180 C 
ATOM      4  C   UNL     1      -6.372  93.792 -12.106  1.00  0.00     0.214 C 
ATOM      5  C   UNL     1      -6.189  92.446 -11.399  1.00  0.00     0.339 C 
ATOM      6  O   UNL     1      -5.502  91.576 -12.207  1.00  0.00    -0.332 OA
ENDROOT
BRANCH   1   7
ATOM      7  C   UNL     1      -4.106  91.056 -13.773  1.00  0.00     0.198 C 
BRANCH   7   8
ATOM      8  O   UNL     1      -3.224  91.564 -14.695  1.00  0.00    -0.347 OA
BRANCH   8   9
ATOM      9  C   UNL     1      -3.608  91.210 -16.067  1.00  0.00     0.281 C 
ATOM     10  C   UNL     1      -1.875  92.991 -18.718  1.00  0.00     0.041 C 
ATOM     11  C   UNL     1      -3.039  92.070 -18.321  1.00  0.00     0.150 C 
ATOM     12  C   UNL     1      -4.491  92.803 -18.524  1.00  0.00     0.174 C 
ATOM     13  O   UNL     1      -2.660  91.754 -16.975  1.00  0.00    -0.344 OA
ATOM     14  C   UNL     1      -5.032  93.062 -17.103  1.00  0.00     0.179 C 
ATOM     15  C   UNL     1      -4.980  91.802 -16.156  1.00  0.00     0.202 C 
BRANCH  12  16
ATOM     16  O   UNL     1      -5.308  91.877 -19.145  1.00  0.00    -0.388 OA
ATOM     17  H   UNL     1      -4.775  91.356 -19.811  1.00  0.00     0.211 HD
ENDBRANCH  12  16
BRANCH  14  18
ATOM     18  O   UNL     1      -4.139  94.052 -16.525  1.00  0.00    -0.387 OA
ATOM     19  H   UNL     1      -3.681  94.612 -17.207  1.00  0.00     0.211 HD
ENDBRANCH  14  18
BRANCH  15  20
ATOM     20  O   UNL     1      -6.025  90.790 -16.282  1.00  0.00    -0.385 OA
ATOM     21  H   UNL     1      -6.856  91.348 -16.344  1.00  0.00     0.211 HD
ENDBRANCH  15  20
ENDBRANCH   8   9
ENDBRANCH   7   8
ENDBRANCH   1   7
BRANCH   2  22
ATOM     22  O   UNL     1      -3.372  94.135 -11.915  1.00  0.00    -0.387 OA
ATOM     23  H   UNL     1      -3.044  95.003 -12.299  1.00  0.00     0.211 HD
ENDBRANCH   2  22
BRANCH   3  24
ATOM     24  O   UNL     1      -5.417  95.271 -13.798  1.00  0.00    -0.387 OA
ATOM     25  H   UNL     1      -5.777  96.082 -13.217  1.00  0.00     0.211 HD
ENDBRANCH   3  24
BRANCH   5  26
ATOM     26  O   UNL     1      -7.438  91.719 -10.983  1.00  0.00    -0.454 OA
BRANCH  26  27
ATOM     27  C   UNL     1      -7.398  90.504 -10.374  1.00  0.00     0.214 A 
ATOM     28  C   UNL     1      -8.093  89.436 -10.970  1.00  0.00     0.180 A 
ATOM     29  C   UNL     1      -6.671  90.108  -9.192  1.00  0.00     0.239 A 
ATOM     30  O   UNL     1      -7.547  88.191 -10.929  1.00  0.00    -0.452 OA
ATOM     31  C   UNL     1      -5.966  88.791  -9.278  1.00  0.00     0.111 A 
ATOM     32  O   UNL     1      -6.500  90.812  -8.191  1.00  0.00    -0.285 OA
ATOM     33  C   UNL     1      -6.494  87.867 -10.218  1.00  0.00     0.146 A 
ATOM     34  C   UNL     1      -4.848  88.479  -8.443  1.00  0.00     0.134 A 
ATOM     35  C   UNL     1      -5.889  86.599 -10.304  1.00  0.00     0.094 A 
ATOM     36  C   UNL     1      -4.220  87.195  -8.669  1.00  0.00     0.093 A 
ATOM     37  C   UNL     1      -4.782  86.274  -9.565  1.00  0.00     0.123 A 
BRANCH  28  38
ATOM     38  C   UNL     1      -9.317  89.692 -11.668  1.00  0.00     0.025 A 
ATOM     39  C   UNL     1     -10.538  89.512 -10.941  1.00  0.00     0.062 A 
ATOM     40  C   UNL     1      -9.386  89.987 -13.028  1.00  0.00     0.016 A 
ATOM     41  C   UNL     1     -11.783  89.638 -11.597  1.00  0.00     0.158 A 
ATOM     42  C   UNL     1     -10.633  90.154 -13.656  1.00  0.00     0.051 A 
ATOM     43  C   UNL     1     -11.801  89.977 -12.973  1.00  0.00     0.157 A 
BRANCH  41  44
ATOM     44  O   UNL     1     -12.941  89.405 -10.915  1.00  0.00    -0.504 OA
ATOM     45  H   UNL     1     -13.833  89.720 -11.276  1.00  0.00     0.293 HD
ENDBRANCH  41  44
BRANCH  43  46
ATOM     46  O   UNL     1     -13.034  90.025 -13.653  1.00  0.00    -0.504 OA
ATOM     47  H   UNL     1     -13.887  90.325 -13.205  1.00  0.00     0.293 HD
ENDBRANCH  43  46
ENDBRANCH  28  38
BRANCH  34  48
ATOM     48  O   UNL     1      -4.381  89.367  -7.489  1.00  0.00    -0.507 OA
ATOM     49  H   UNL     1      -3.396  89.543  -7.455  1.00  0.00     0.293 HD
ENDBRANCH  34  48
BRANCH  37  50
ATOM     50  O   UNL     1      -4.086  85.060  -9.785  1.00  0.00    -0.508 OA
ATOM     51  H   UNL     1      -3.047  84.988  -9.840  1.00  0.00     0.293 HD
ENDBRANCH  37  50
ENDBRANCH  26  27
ENDBRANCH   5  26
BRANCH   4  52
ATOM     52  O   UNL     1      -6.261  94.893 -11.233  1.00  0.00    -0.384 OA
ATOM     53  H   UNL     1      -5.859  95.666 -11.723  1.00  0.00     0.211 HD
ENDBRANCH   4  52
TORSDOF 16
ENDMDL
MODEL 9
REMARK VINA RESULT:    -6.027      2.638      6.891
REMARK INTER + INTRA:         -12.401
REMARK INTER:                  -9.712
REMARK INTRA:                  -2.689
REMARK UNBOUND:                -2.498
REMARK SMILES C[C@H]1O[C@@H](OC[C@@H]2O[C@H](Oc3c(-c4ccc(O)c(O)c4)oc4cc(O)cc(O)c4c3=O)[C@@H](O)[C@@H](O)[C@H]2O)[C@H](O)[C@@H](O)[C@@H]1O
REMARK SMILES IDX 7 1 36 2 34 3 32 4 9 5 8 6 6 7 5 8 4 9 1 10 2 11 42 12 3 13
REMARK SMILES IDX 40 14 38 15 43 16 41 18 39 20 37 22 35 24 10 26 11 27 12 28
REMARK SMILES IDX 30 29 21 30 29 31 31 32 22 33 27 34 23 35 26 36 24 37 13 38
REMARK SMILES IDX 20 39 14 40 18 41 15 42 16 43 19 44 17 46 28 48 25 50 33 52
REMARK H PARENT 43 17 41 19 39 21 37 23 35 25 19 45 17 47 28 49 25 51 33 53
REMARK Flexibility Score: inf
ROOT
ATOM      1  C   UNL     1      -4.010  92.895 -12.490  1.00  0.00     0.180 C 
ATOM      2  C   UNL     1      -4.784  93.861 -11.571  1.00  0.00     0.177 C 
ATOM      3  C   UNL     1      -6.265  93.426 -11.501  1.00  0.00     0.180 C 
ATOM      4  C   UNL     1      -6.322  92.013 -10.979  1.00  0.00     0.214 C 
ATOM      5  C   UNL     1      -5.224  91.111 -11.551  1.00  0.00     0.339 C 
ATOM      6  O   UNL     1      -4.670  91.686 -12.666  1.00  0.00    -0.332 OA
ENDROOT
BRANCH   1   7
ATOM      7  C   UNL     1      -4.099  93.347 -13.925  1.00  0.00     0.198 C 
BRANCH   7   8
ATOM      8  O   UNL     1      -3.355  92.552 -14.762  1.00  0.00    -0.347 OA
BRANCH   8   9
ATOM      9  C   UNL     1      -3.805  92.660 -16.156  1.00  0.00     0.281 C 
ATOM     10  C   UNL     1      -7.064  94.183 -16.667  1.00  0.00     0.041 C 
ATOM     11  C   UNL     1      -5.899  93.382 -17.269  1.00  0.00     0.150 C 
ATOM     12  C   UNL     1      -6.348  91.854 -17.654  1.00  0.00     0.174 C 
ATOM     13  O   UNL     1      -4.931  93.524 -16.221  1.00  0.00    -0.344 OA
ATOM     14  C   UNL     1      -5.632  90.938 -16.640  1.00  0.00     0.179 C 
ATOM     15  C   UNL     1      -4.089  91.227 -16.489  1.00  0.00     0.202 C 
BRANCH  12  16
ATOM     16  O   UNL     1      -5.831  91.606 -18.912  1.00  0.00    -0.388 OA
ATOM     17  H   UNL     1      -6.211  92.261 -19.564  1.00  0.00     0.211 HD
ENDBRANCH  12  16
BRANCH  14  18
ATOM     18  O   UNL     1      -6.238  91.242 -15.353  1.00  0.00    -0.387 OA
ATOM     19  H   UNL     1      -5.628  91.731 -14.740  1.00  0.00     0.211 HD
ENDBRANCH  14  18
BRANCH  15  20
ATOM     20  O   UNL     1      -3.177  90.690 -17.495  1.00  0.00    -0.385 OA
ATOM     21  H   UNL     1      -3.253  89.702 -17.345  1.00  0.00     0.211 HD
ENDBRANCH  15  20
ENDBRANCH   8   9
ENDBRANCH   7   8
ENDBRANCH   1   7
BRANCH   2  22
ATOM     22  O   UNL     1      -4.138  93.999 -10.314  1.00  0.00    -0.387 OA
ATOM     23  H   UNL     1      -3.196  94.316 -10.460  1.00  0.00     0.211 HD
ENDBRANCH   2  22
BRANCH   3  24
ATOM     24  O   UNL     1      -7.080  94.329 -10.821  1.00  0.00    -0.387 OA
ATOM     25  H   UNL     1      -6.678  95.243 -10.463  1.00  0.00     0.211 HD
ENDBRANCH   3  24
BRANCH   5  26
ATOM     26  O   UNL     1      -5.629  89.723 -11.964  1.00  0.00    -0.454 OA
BRANCH  26  27
ATOM     27  C   UNL     1      -6.873  89.231 -11.719  1.00  0.00     0.214 A 
ATOM     28  C   UNL     1      -7.080  88.495 -10.538  1.00  0.00     0.180 A 
ATOM     29  C   UNL     1      -8.081  89.405 -12.489  1.00  0.00     0.239 A 
ATOM     30  O   UNL     1      -8.259  88.635  -9.874  1.00  0.00    -0.452 OA
ATOM     31  C   UNL     1      -9.314  89.710 -11.697  1.00  0.00     0.111 A 
ATOM     32  O   UNL     1      -8.144  89.436 -13.723  1.00  0.00    -0.285 OA
ATOM     33  C   UNL     1      -9.302  89.276 -10.344  1.00  0.00     0.146 A 
ATOM     34  C   UNL     1     -10.439  90.373 -12.277  1.00  0.00     0.134 A 
ATOM     35  C   UNL     1     -10.457  89.503  -9.571  1.00  0.00     0.094 A 
ATOM     36  C   UNL     1     -11.542  90.661 -11.386  1.00  0.00     0.093 A 
ATOM     37  C   UNL     1     -11.538  90.183 -10.069  1.00  0.00     0.123 A 
BRANCH  28  38
ATOM     38  C   UNL     1      -6.025  87.678 -10.021  1.00  0.00     0.025 A 
ATOM     39  C   UNL     1      -5.910  86.348 -10.540  1.00  0.00     0.062 A 
ATOM     40  C   UNL     1      -5.191  88.060  -8.972  1.00  0.00     0.016 A 
ATOM     41  C   UNL     1      -4.964  85.450  -9.997  1.00  0.00     0.158 A 
ATOM     42  C   UNL     1      -4.224  87.171  -8.472  1.00  0.00     0.051 A 
ATOM     43  C   UNL     1      -4.113  85.899  -8.956  1.00  0.00     0.157 A 
BRANCH  41  44
ATOM     44  O   UNL     1      -4.901  84.166 -10.453  1.00  0.00    -0.504 OA
ATOM     45  H   UNL     1      -5.166  83.388  -9.861  1.00  0.00     0.293 HD
ENDBRANCH  41  44
BRANCH  43  46
ATOM     46  O   UNL     1      -3.223  84.987  -8.355  1.00  0.00    -0.504 OA
ATOM     47  H   UNL     1      -2.497  85.279  -7.717  1.00  0.00     0.293 HD
ENDBRANCH  43  46
ENDBRANCH  28  38
BRANCH  34  48
ATOM     48  O   UNL     1     -10.460  90.737 -13.614  1.00  0.00    -0.507 OA
ATOM     49  H   UNL     1     -11.203  90.384 -14.184  1.00  0.00     0.293 HD
ENDBRANCH  34  48
BRANCH  37  50
ATOM     50  O   UNL     1     -12.620  90.550  -9.230  1.00  0.00    -0.508 OA
ATOM     51  H   UNL     1     -13.204  89.865  -8.705  1.00  0.00     0.293 HD
ENDBRANCH  37  50
ENDBRANCH  26  27
ENDBRANCH   5  26
BRANCH   4  52
ATOM     52  O   UNL     1      -6.353  92.017  -9.570  1.00  0.00    -0.384 OA
ATOM     53  H   UNL     1      -7.235  92.370  -9.259  1.00  0.00     0.211 HD
ENDBRANCH   4  52
TORSDOF 16
ENDMDL
