MODEL 1
REMARK VINA RESULT:    -3.826      0.000      0.000
REMARK INTER + INTRA:         -13.940
REMARK INTER:                  -9.641
REMARK INTRA:                  -4.299
REMARK UNBOUND:                -4.299
REMARK SMILES CCCCCCCCCCCCCCCCCCCCCCCCCCCC(=O)[O-]
REMARK SMILES IDX 15 1 16 2 17 3 18 4 19 5 20 6 21 7 22 8 23 9 24 10 25 11
REMARK SMILES IDX 26 12 27 13 28 14 29 15 30 16 14 17 13 18 12 19 11 20 10 21
REMARK SMILES IDX 9 22 8 23 7 24 6 25 5 26 4 27 3 28 2 29 1 30
REMARK H PARENT
REMARK Flexibility Score: inf
ROOT
ATOM      1  C   UNL     1      44.657  38.686   9.457  1.00  0.00     0.000 C 
ENDROOT
BRANCH   1   2
ATOM      2  C   UNL     1      45.622  39.784   9.938  1.00  0.00     0.000 C 
BRANCH   2   3
ATOM      3  C   UNL     1      44.980  40.867  10.827  1.00  0.00     0.000 C 
BRANCH   3   4
ATOM      4  C   UNL     1      45.950  41.576  11.793  1.00  0.00     0.000 C 
BRANCH   4   5
ATOM      5  C   UNL     1      45.988  43.112  11.677  1.00  0.00     0.000 C 
BRANCH   5   6
ATOM      6  C   UNL     1      45.494  43.622  10.312  1.00  0.00     0.000 C 
BRANCH   6   7
ATOM      7  C   UNL     1      44.593  44.861  10.448  1.00  0.00     0.000 C 
BRANCH   7   8
ATOM      8  C   UNL     1      44.903  45.934   9.388  1.00  0.00     0.000 C 
BRANCH   8   9
ATOM      9  C   UNL     1      45.490  47.226   9.990  1.00  0.00     0.000 C 
BRANCH   9  10
ATOM     10  C   UNL     1      46.423  47.019  11.197  1.00  0.00     0.000 C 
BRANCH  10  11
ATOM     11  C   UNL     1      47.630  47.971  11.192  1.00  0.00     0.000 C 
BRANCH  11  12
ATOM     12  C   UNL     1      48.903  47.335  11.785  1.00  0.00     0.006 C 
BRANCH  12  13
ATOM     13  C   UNL     1      50.209  47.896  11.196  1.00  0.00     0.053 C 
BRANCH  13  14
ATOM     14  C   UNL     1      51.308  46.880  11.154  1.00  0.00     0.041 C 
ATOM     15  O   UNL     1      52.010  46.747  10.116  1.00  0.00    -0.550 OA
ATOM     16  O   UNL     1      51.547  46.067  12.253  1.00  0.00    -0.550 OA
ENDBRANCH  13  14
ENDBRANCH  12  13
ENDBRANCH  11  12
ENDBRANCH  10  11
ENDBRANCH   9  10
ENDBRANCH   8   9
ENDBRANCH   7   8
ENDBRANCH   6   7
ENDBRANCH   5   6
ENDBRANCH   4   5
ENDBRANCH   3   4
ENDBRANCH   2   3
ENDBRANCH   1   2
BRANCH   1  17
ATOM     17  C   UNL     1      43.962  38.978   8.115  1.00  0.00     0.000 C 
BRANCH  17  18
ATOM     18  C   UNL     1      43.027  37.844   7.675  1.00  0.00     0.000 C 
BRANCH  18  19
ATOM     19  C   UNL     1      42.304  38.188   6.363  1.00  0.00     0.000 C 
BRANCH  19  20
ATOM     20  C   UNL     1      42.717  39.570   5.808  1.00  0.00     0.000 C 
BRANCH  20  21
ATOM     21  C   UNL     1      41.541  40.388   5.237  1.00  0.00     0.000 C 
BRANCH  21  22
ATOM     22  C   UNL     1      40.227  40.292   6.033  1.00  0.00    -0.000 C 
BRANCH  22  23
ATOM     23  C   UNL     1      40.094  41.288   7.203  1.00  0.00    -0.000 C 
BRANCH  23  24
ATOM     24  C   UNL     1      40.407  40.681   8.585  1.00  0.00    -0.000 C 
BRANCH  24  25
ATOM     25  C   UNL     1      41.658  41.294   9.237  1.00  0.00    -0.000 C 
BRANCH  25  26
ATOM     26  C   UNL     1      42.066  42.613   8.560  1.00  0.00    -0.000 C 
BRANCH  26  27
ATOM     27  C   UNL     1      43.401  42.480   7.810  1.00  0.00    -0.000 C 
BRANCH  27  28
ATOM     28  C   UNL     1      43.495  43.428   6.606  1.00  0.00    -0.000 C 
BRANCH  28  29
ATOM     29  C   UNL     1      42.198  44.220   6.390  1.00  0.00    -0.003 C 
ATOM     30  C   UNL     1      42.411  45.712   6.624  1.00  0.00     0.004 C 
ENDBRANCH  28  29
ENDBRANCH  27  28
ENDBRANCH  26  27
ENDBRANCH  25  26
ENDBRANCH  24  25
ENDBRANCH  23  24
ENDBRANCH  22  23
ENDBRANCH  21  22
ENDBRANCH  20  21
ENDBRANCH  19  20
ENDBRANCH  18  19
ENDBRANCH  17  18
ENDBRANCH   1  17
TORSDOF 26
ENDMDL
MODEL 2
REMARK VINA RESULT:    -3.820      2.801      6.507
REMARK INTER + INTRA:         -13.925
REMARK INTER:                  -9.527
REMARK INTRA:                  -4.398
REMARK UNBOUND:                -4.299
REMARK SMILES CCCCCCCCCCCCCCCCCCCCCCCCCCCC(=O)[O-]
REMARK SMILES IDX 15 1 16 2 17 3 18 4 19 5 20 6 21 7 22 8 23 9 24 10 25 11
REMARK SMILES IDX 26 12 27 13 28 14 29 15 30 16 14 17 13 18 12 19 11 20 10 21
REMARK SMILES IDX 9 22 8 23 7 24 6 25 5 26 4 27 3 28 2 29 1 30
REMARK H PARENT
REMARK Flexibility Score: inf
ROOT
ATOM      1  C   UNL     1      46.707  44.981  12.250  1.00  0.00     0.000 C 
ENDROOT
BRANCH   1   2
ATOM      2  C   UNL     1      47.815  45.749  12.994  1.00  0.00     0.000 C 
BRANCH   2   3
ATOM      3  C   UNL     1      47.730  47.283  12.878  1.00  0.00     0.000 C 
BRANCH   3   4
ATOM      4  C   UNL     1      48.081  47.852  11.489  1.00  0.00     0.000 C 
BRANCH   4   5
ATOM      5  C   UNL     1      48.858  49.182  11.501  1.00  0.00     0.000 C 
BRANCH   5   6
ATOM      6  C   UNL     1      49.578  49.444  12.835  1.00  0.00     0.000 C 
BRANCH   6   7
ATOM      7  C   UNL     1      51.041  49.872  12.630  1.00  0.00     0.000 C 
BRANCH   7   8
ATOM      8  C   UNL     1      52.039  48.779  13.054  1.00  0.00     0.000 C 
BRANCH   8   9
ATOM      9  C   UNL     1      51.355  47.537  13.661  1.00  0.00     0.000 C 
BRANCH   9  10
ATOM     10  C   UNL     1      51.546  46.232  12.866  1.00  0.00     0.000 C 
BRANCH  10  11
ATOM     11  C   UNL     1      51.456  46.439  11.345  1.00  0.00     0.000 C 
BRANCH  11  12
ATOM     12  C   UNL     1      52.538  45.666  10.566  1.00  0.00     0.006 C 
BRANCH  12  13
ATOM     13  C   UNL     1      53.941  45.761  11.191  1.00  0.00     0.053 C 
BRANCH  13  14
ATOM     14  C   UNL     1      54.439  44.444  11.699  1.00  0.00     0.041 C 
ATOM     15  O   UNL     1      54.557  43.466  10.915  1.00  0.00    -0.550 OA
ATOM     16  O   UNL     1      54.755  44.290  13.043  1.00  0.00    -0.550 OA
ENDBRANCH  13  14
ENDBRANCH  12  13
ENDBRANCH  11  12
ENDBRANCH  10  11
ENDBRANCH   9  10
ENDBRANCH   8   9
ENDBRANCH   7   8
ENDBRANCH   6   7
ENDBRANCH   5   6
ENDBRANCH   4   5
ENDBRANCH   3   4
ENDBRANCH   2   3
ENDBRANCH   1   2
BRANCH   1  17
ATOM     17  C   UNL     1      45.317  45.057  12.905  1.00  0.00     0.000 C 
BRANCH  17  18
ATOM     18  C   UNL     1      44.251  45.634  11.963  1.00  0.00     0.000 C 
BRANCH  18  19
ATOM     19  C   UNL     1      44.072  47.145  12.174  1.00  0.00     0.000 C 
BRANCH  19  20
ATOM     20  C   UNL     1      44.415  47.962  10.908  1.00  0.00     0.000 C 
BRANCH  20  21
ATOM     21  C   UNL     1      44.609  47.101   9.644  1.00  0.00     0.000 C 
BRANCH  21  22
ATOM     22  C   UNL     1      43.618  47.383   8.500  1.00  0.00    -0.000 C 
BRANCH  22  23
ATOM     23  C   UNL     1      42.331  46.533   8.521  1.00  0.00    -0.000 C 
BRANCH  23  24
ATOM     24  C   UNL     1      42.569  45.038   8.812  1.00  0.00    -0.000 C 
BRANCH  24  25
ATOM     25  C   UNL     1      42.148  44.128   7.645  1.00  0.00    -0.000 C 
BRANCH  25  26
ATOM     26  C   UNL     1      43.356  43.426   7.003  1.00  0.00    -0.000 C 
BRANCH  26  27
ATOM     27  C   UNL     1      44.573  43.412   7.942  1.00  0.00    -0.000 C 
BRANCH  27  28
ATOM     28  C   UNL     1      44.769  42.054   8.628  1.00  0.00    -0.000 C 
BRANCH  28  29
ATOM     29  C   UNL     1      45.264  42.200  10.074  1.00  0.00    -0.003 C 
ATOM     30  C   UNL     1      44.133  41.986  11.073  1.00  0.00     0.004 C 
ENDBRANCH  28  29
ENDBRANCH  27  28
ENDBRANCH  26  27
ENDBRANCH  25  26
ENDBRANCH  24  25
ENDBRANCH  23  24
ENDBRANCH  22  23
ENDBRANCH  21  22
ENDBRANCH  20  21
ENDBRANCH  19  20
ENDBRANCH  18  19
ENDBRANCH  17  18
ENDBRANCH   1  17
TORSDOF 26
ENDMDL
MODEL 3
REMARK VINA RESULT:    -3.797      2.741      5.705
REMARK INTER + INTRA:         -13.868
REMARK INTER:                 -10.657
REMARK INTRA:                  -3.211
REMARK UNBOUND:                -4.299
REMARK SMILES CCCCCCCCCCCCCCCCCCCCCCCCCCCC(=O)[O-]
REMARK SMILES IDX 15 1 16 2 17 3 18 4 19 5 20 6 21 7 22 8 23 9 24 10 25 11
REMARK SMILES IDX 26 12 27 13 28 14 29 15 30 16 14 17 13 18 12 19 11 20 10 21
REMARK SMILES IDX 9 22 8 23 7 24 6 25 5 26 4 27 3 28 2 29 1 30
REMARK H PARENT
REMARK Flexibility Score: inf
ROOT
ATOM      1  C   UNL     1      45.352  44.681  13.014  1.00  0.00     0.000 C 
ENDROOT
BRANCH   1   2
ATOM      2  C   UNL     1      46.831  45.047  13.232  1.00  0.00     0.000 C 
BRANCH   2   3
ATOM      3  C   UNL     1      47.410  46.040  12.206  1.00  0.00     0.000 C 
BRANCH   3   4
ATOM      4  C   UNL     1      47.829  47.406  12.785  1.00  0.00     0.000 C 
BRANCH   4   5
ATOM      5  C   UNL     1      47.559  48.617  11.872  1.00  0.00     0.000 C 
BRANCH   5   6
ATOM      6  C   UNL     1      48.624  48.791  10.776  1.00  0.00     0.000 C 
BRANCH   6   7
ATOM      7  C   UNL     1      50.051  48.608  11.320  1.00  0.00     0.000 C 
BRANCH   7   8
ATOM      8  C   UNL     1      50.972  47.879  10.324  1.00  0.00     0.000 C 
BRANCH   8   9
ATOM      9  C   UNL     1      51.647  46.631  10.927  1.00  0.00     0.000 C 
BRANCH   9  10
ATOM     10  C   UNL     1      51.321  46.363  12.408  1.00  0.00     0.000 C 
BRANCH  10  11
ATOM     11  C   UNL     1      52.551  45.929  13.222  1.00  0.00     0.000 C 
BRANCH  11  12
ATOM     12  C   UNL     1      53.835  45.840  12.376  1.00  0.00     0.006 C 
BRANCH  12  13
ATOM     13  C   UNL     1      54.377  44.408  12.220  1.00  0.00     0.053 C 
BRANCH  13  14
ATOM     14  C   UNL     1      54.310  43.915  10.808  1.00  0.00     0.041 C 
ATOM     15  O   UNL     1      54.247  42.679  10.570  1.00  0.00    -0.550 OA
ATOM     16  O   UNL     1      54.333  44.817   9.753  1.00  0.00    -0.550 OA
ENDBRANCH  13  14
ENDBRANCH  12  13
ENDBRANCH  11  12
ENDBRANCH  10  11
ENDBRANCH   9  10
ENDBRANCH   8   9
ENDBRANCH   7   8
ENDBRANCH   6   7
ENDBRANCH   5   6
ENDBRANCH   4   5
ENDBRANCH   3   4
ENDBRANCH   2   3
ENDBRANCH   1   2
BRANCH   1  17
ATOM     17  C   UNL     1      44.518  45.757  12.298  1.00  0.00     0.000 C 
BRANCH  17  18
ATOM     18  C   UNL     1      43.631  45.175  11.188  1.00  0.00     0.000 C 
BRANCH  18  19
ATOM     19  C   UNL     1      43.927  45.831   9.830  1.00  0.00     0.000 C 
BRANCH  19  20
ATOM     20  C   UNL     1      45.049  45.103   9.056  1.00  0.00     0.000 C 
BRANCH  20  21
ATOM     21  C   UNL     1      45.202  43.615   9.432  1.00  0.00     0.000 C 
BRANCH  21  22
ATOM     22  C   UNL     1      44.262  42.651   8.688  1.00  0.00    -0.000 C 
BRANCH  22  23
ATOM     23  C   UNL     1      44.573  42.458   7.189  1.00  0.00    -0.000 C 
BRANCH  23  24
ATOM     24  C   UNL     1      43.353  42.645   6.264  1.00  0.00    -0.000 C 
BRANCH  24  25
ATOM     25  C   UNL     1      42.296  43.593   6.855  1.00  0.00    -0.000 C 
BRANCH  25  26
ATOM     26  C   UNL     1      42.348  44.984   6.203  1.00  0.00    -0.000 C 
BRANCH  26  27
ATOM     27  C   UNL     1      41.553  46.023   7.009  1.00  0.00    -0.000 C 
BRANCH  27  28
ATOM     28  C   UNL     1      42.221  47.405   7.006  1.00  0.00    -0.000 C 
BRANCH  28  29
ATOM     29  C   UNL     1      41.248  48.518   6.591  1.00  0.00    -0.003 C 
ATOM     30  C   UNL     1      41.133  48.620   5.074  1.00  0.00     0.004 C 
ENDBRANCH  28  29
ENDBRANCH  27  28
ENDBRANCH  26  27
ENDBRANCH  25  26
ENDBRANCH  24  25
ENDBRANCH  23  24
ENDBRANCH  22  23
ENDBRANCH  21  22
ENDBRANCH  20  21
ENDBRANCH  19  20
ENDBRANCH  18  19
ENDBRANCH  17  18
ENDBRANCH   1  17
TORSDOF 26
ENDMDL
MODEL 4
REMARK VINA RESULT:    -3.779      3.331      9.752
REMARK INTER + INTRA:         -13.821
REMARK INTER:                  -9.709
REMARK INTRA:                  -4.113
REMARK UNBOUND:                -4.299
REMARK SMILES CCCCCCCCCCCCCCCCCCCCCCCCCCCC(=O)[O-]
REMARK SMILES IDX 15 1 16 2 17 3 18 4 19 5 20 6 21 7 22 8 23 9 24 10 25 11
REMARK SMILES IDX 26 12 27 13 28 14 29 15 30 16 14 17 13 18 12 19 11 20 10 21
REMARK SMILES IDX 9 22 8 23 7 24 6 25 5 26 4 27 3 28 2 29 1 30
REMARK H PARENT
REMARK Flexibility Score: inf
ROOT
ATOM      1  C   UNL     1      46.135  45.344  11.521  1.00  0.00     0.000 C 
ENDROOT
BRANCH   1   2
ATOM      2  C   UNL     1      45.029  44.763  12.420  1.00  0.00     0.000 C 
BRANCH   2   3
ATOM      3  C   UNL     1      43.661  45.459  12.296  1.00  0.00     0.000 C 
BRANCH   3   4
ATOM      4  C   UNL     1      43.662  46.964  12.635  1.00  0.00     0.000 C 
BRANCH   4   5
ATOM      5  C   UNL     1      43.072  47.882  11.548  1.00  0.00     0.000 C 
BRANCH   5   6
ATOM      6  C   UNL     1      44.126  48.791  10.893  1.00  0.00     0.000 C 
BRANCH   6   7
ATOM      7  C   UNL     1      44.729  48.159   9.626  1.00  0.00     0.000 C 
BRANCH   7   8
ATOM      8  C   UNL     1      43.727  47.253   8.887  1.00  0.00     0.000 C 
BRANCH   8   9
ATOM      9  C   UNL     1      44.302  45.861   8.554  1.00  0.00     0.000 C 
BRANCH   9  10
ATOM     10  C   UNL     1      43.252  44.784   8.225  1.00  0.00     0.000 C 
BRANCH  10  11
ATOM     11  C   UNL     1      43.343  43.558   9.149  1.00  0.00     0.000 C 
BRANCH  11  12
ATOM     12  C   UNL     1      44.702  42.837   9.064  1.00  0.00     0.006 C 
BRANCH  12  13
ATOM     13  C   UNL     1      44.612  41.316   9.276  1.00  0.00     0.053 C 
BRANCH  13  14
ATOM     14  C   UNL     1      45.538  40.825  10.346  1.00  0.00     0.041 C 
ATOM     15  O   UNL     1      45.965  41.618  11.226  1.00  0.00    -0.550 OA
ATOM     16  O   UNL     1      45.943  39.497  10.361  1.00  0.00    -0.550 OA
ENDBRANCH  13  14
ENDBRANCH  12  13
ENDBRANCH  11  12
ENDBRANCH  10  11
ENDBRANCH   9  10
ENDBRANCH   8   9
ENDBRANCH   7   8
ENDBRANCH   6   7
ENDBRANCH   5   6
ENDBRANCH   4   5
ENDBRANCH   3   4
ENDBRANCH   2   3
ENDBRANCH   1   2
BRANCH   1  17
ATOM     17  C   UNL     1      47.265  46.069  12.273  1.00  0.00     0.000 C 
BRANCH  17  18
ATOM     18  C   UNL     1      47.547  47.468  11.709  1.00  0.00     0.000 C 
BRANCH  18  19
ATOM     19  C   UNL     1      48.056  48.423  12.800  1.00  0.00     0.000 C 
BRANCH  19  20
ATOM     20  C   UNL     1      48.218  49.871  12.288  1.00  0.00     0.000 C 
BRANCH  20  21
ATOM     21  C   UNL     1      49.671  50.250  11.938  1.00  0.00     0.000 C 
BRANCH  21  22
ATOM     22  C   UNL     1      50.698  49.112  12.081  1.00  0.00    -0.000 C 
BRANCH  22  23
ATOM     23  C   UNL     1      51.051  48.377  10.771  1.00  0.00    -0.000 C 
BRANCH  23  24
ATOM     24  C   UNL     1      51.313  46.868  10.947  1.00  0.00    -0.000 C 
BRANCH  24  25
ATOM     25  C   UNL     1      51.148  46.399  12.403  1.00  0.00    -0.000 C 
BRANCH  25  26
ATOM     26  C   UNL     1      52.475  45.900  12.996  1.00  0.00    -0.000 C 
BRANCH  26  27
ATOM     27  C   UNL     1      53.687  46.443  12.222  1.00  0.00    -0.000 C 
BRANCH  27  28
ATOM     28  C   UNL     1      54.649  45.332  11.781  1.00  0.00    -0.000 C 
BRANCH  28  29
ATOM     29  C   UNL     1      54.219  44.684  10.458  1.00  0.00    -0.003 C 
ATOM     30  C   UNL     1      54.276  43.162  10.539  1.00  0.00     0.004 C 
ENDBRANCH  28  29
ENDBRANCH  27  28
ENDBRANCH  26  27
ENDBRANCH  25  26
ENDBRANCH  24  25
ENDBRANCH  23  24
ENDBRANCH  22  23
ENDBRANCH  21  22
ENDBRANCH  20  21
ENDBRANCH  19  20
ENDBRANCH  18  19
ENDBRANCH  17  18
ENDBRANCH   1  17
TORSDOF 26
ENDMDL
MODEL 5
REMARK VINA RESULT:    -3.742      1.768      4.476
REMARK INTER + INTRA:         -13.728
REMARK INTER:                 -10.620
REMARK INTRA:                  -3.108
REMARK UNBOUND:                -4.299
REMARK SMILES CCCCCCCCCCCCCCCCCCCCCCCCCCCC(=O)[O-]
REMARK SMILES IDX 15 1 16 2 17 3 18 4 19 5 20 6 21 7 22 8 23 9 24 10 25 11
REMARK SMILES IDX 26 12 27 13 28 14 29 15 30 16 14 17 13 18 12 19 11 20 10 21
REMARK SMILES IDX 9 22 8 23 7 24 6 25 5 26 4 27 3 28 2 29 1 30
REMARK H PARENT
REMARK Flexibility Score: inf
ROOT
ATOM      1  C   UNL     1      44.120  43.004  10.173  1.00  0.00     0.000 C 
ENDROOT
BRANCH   1   2
ATOM      2  C   UNL     1      45.261  43.975   9.821  1.00  0.00     0.000 C 
BRANCH   2   3
ATOM      3  C   UNL     1      44.824  45.233   9.046  1.00  0.00     0.000 C 
BRANCH   3   4
ATOM      4  C   UNL     1      45.279  46.570   9.665  1.00  0.00     0.000 C 
BRANCH   4   5
ATOM      5  C   UNL     1      45.563  46.531  11.178  1.00  0.00     0.000 C 
BRANCH   5   6
ATOM      6  C   UNL     1      46.992  46.978  11.531  1.00  0.00     0.000 C 
BRANCH   6   7
ATOM      7  C   UNL     1      47.373  48.299  10.842  1.00  0.00     0.000 C 
BRANCH   7   8
ATOM      8  C   UNL     1      48.870  48.630  10.988  1.00  0.00     0.000 C 
BRANCH   8   9
ATOM      9  C   UNL     1      49.681  47.489  11.636  1.00  0.00     0.000 C 
BRANCH   9  10
ATOM     10  C   UNL     1      51.063  47.232  11.008  1.00  0.00     0.000 C 
BRANCH  10  11
ATOM     11  C   UNL     1      51.889  46.194  11.783  1.00  0.00     0.000 C 
BRANCH  11  12
ATOM     12  C   UNL     1      53.290  46.706  12.173  1.00  0.00     0.006 C 
BRANCH  12  13
ATOM     13  C   UNL     1      54.439  45.974  11.459  1.00  0.00     0.053 C 
BRANCH  13  14
ATOM     14  C   UNL     1      54.485  44.513  11.784  1.00  0.00     0.041 C 
ATOM     15  O   UNL     1      54.349  43.656  10.871  1.00  0.00    -0.550 OA
ATOM     16  O   UNL     1      54.662  44.097  13.097  1.00  0.00    -0.550 OA
ENDBRANCH  13  14
ENDBRANCH  12  13
ENDBRANCH  11  12
ENDBRANCH  10  11
ENDBRANCH   9  10
ENDBRANCH   8   9
ENDBRANCH   7   8
ENDBRANCH   6   7
ENDBRANCH   5   6
ENDBRANCH   4   5
ENDBRANCH   3   4
ENDBRANCH   2   3
ENDBRANCH   1   2
BRANCH   1  17
ATOM     17  C   UNL     1      43.468  42.307   8.966  1.00  0.00     0.000 C 
BRANCH  17  18
ATOM     18  C   UNL     1      44.498  41.685   8.014  1.00  0.00     0.000 C 
BRANCH  18  19
ATOM     19  C   UNL     1      44.452  42.343   6.627  1.00  0.00     0.000 C 
BRANCH  19  20
ATOM     20  C   UNL     1      43.133  43.108   6.381  1.00  0.00     0.000 C 
BRANCH  20  21
ATOM     21  C   UNL     1      42.258  42.500   5.266  1.00  0.00     0.000 C 
BRANCH  21  22
ATOM     22  C   UNL     1      41.888  41.019   5.458  1.00  0.00    -0.000 C 
BRANCH  22  23
ATOM     23  C   UNL     1      40.791  40.747   6.509  1.00  0.00    -0.000 C 
BRANCH  23  24
ATOM     24  C   UNL     1      40.789  39.306   7.057  1.00  0.00    -0.000 C 
BRANCH  24  25
ATOM     25  C   UNL     1      41.835  39.086   8.163  1.00  0.00    -0.000 C 
BRANCH  25  26
ATOM     26  C   UNL     1      43.029  38.256   7.663  1.00  0.00    -0.000 C 
BRANCH  26  27
ATOM     27  C   UNL     1      43.719  37.500   8.809  1.00  0.00    -0.000 C 
BRANCH  27  28
ATOM     28  C   UNL     1      44.879  38.295   9.423  1.00  0.00    -0.000 C 
BRANCH  28  29
ATOM     29  C   UNL     1      44.570  38.761  10.852  1.00  0.00    -0.003 C 
ATOM     30  C   UNL     1      45.527  39.862  11.298  1.00  0.00     0.004 C 
ENDBRANCH  28  29
ENDBRANCH  27  28
ENDBRANCH  26  27
ENDBRANCH  25  26
ENDBRANCH  24  25
ENDBRANCH  23  24
ENDBRANCH  22  23
ENDBRANCH  21  22
ENDBRANCH  20  21
ENDBRANCH  19  20
ENDBRANCH  18  19
ENDBRANCH  17  18
ENDBRANCH   1  17
TORSDOF 26
ENDMDL
MODEL 6
REMARK VINA RESULT:    -3.738      9.496     13.294
REMARK INTER + INTRA:         -13.718
REMARK INTER:                 -10.792
REMARK INTRA:                  -2.926
REMARK UNBOUND:                -4.299
REMARK SMILES CCCCCCCCCCCCCCCCCCCCCCCCCCCC(=O)[O-]
REMARK SMILES IDX 15 1 16 2 17 3 18 4 19 5 20 6 21 7 22 8 23 9 24 10 25 11
REMARK SMILES IDX 26 12 27 13 28 14 29 15 30 16 14 17 13 18 12 19 11 20 10 21
REMARK SMILES IDX 9 22 8 23 7 24 6 25 5 26 4 27 3 28 2 29 1 30
REMARK H PARENT
REMARK Flexibility Score: inf
ROOT
ATOM      1  C   UNL     1      48.643  33.377   7.991  1.00  0.00     0.000 C 
ENDROOT
BRANCH   1   2
ATOM      2  C   UNL     1      49.012  31.987   7.441  1.00  0.00     0.000 C 
BRANCH   2   3
ATOM      3  C   UNL     1      49.358  31.955   5.941  1.00  0.00     0.000 C 
BRANCH   3   4
ATOM      4  C   UNL     1      50.864  31.875   5.620  1.00  0.00     0.000 C 
BRANCH   4   5
ATOM      5  C   UNL     1      51.309  32.636   4.357  1.00  0.00     0.000 C 
BRANCH   5   6
ATOM      6  C   UNL     1      50.305  33.719   3.924  1.00  0.00     0.000 C 
BRANCH   6   7
ATOM      7  C   UNL     1      50.243  33.874   2.395  1.00  0.00     0.000 C 
BRANCH   7   8
ATOM      8  C   UNL     1      51.535  33.402   1.703  1.00  0.00     0.000 C 
BRANCH   8   9
ATOM      9  C   UNL     1      51.272  32.466   0.506  1.00  0.00     0.000 C 
BRANCH   9  10
ATOM     10  C   UNL     1      49.925  32.681  -0.207  1.00  0.00     0.000 C 
BRANCH  10  11
ATOM     11  C   UNL     1      49.992  33.758  -1.303  1.00  0.00     0.000 C 
BRANCH  11  12
ATOM     12  C   UNL     1      50.958  33.394  -2.448  1.00  0.00     0.006 C 
BRANCH  12  13
ATOM     13  C   UNL     1      51.590  34.615  -3.139  1.00  0.00     0.053 C 
BRANCH  13  14
ATOM     14  C   UNL     1      50.776  35.111  -4.294  1.00  0.00     0.041 C 
ATOM     15  O   UNL     1      50.866  36.312  -4.663  1.00  0.00    -0.550 OA
ATOM     16  O   UNL     1      49.907  34.252  -4.954  1.00  0.00    -0.550 OA
ENDBRANCH  13  14
ENDBRANCH  12  13
ENDBRANCH  11  12
ENDBRANCH  10  11
ENDBRANCH   9  10
ENDBRANCH   8   9
ENDBRANCH   7   8
ENDBRANCH   6   7
ENDBRANCH   5   6
ENDBRANCH   4   5
ENDBRANCH   3   4
ENDBRANCH   2   3
ENDBRANCH   1   2
BRANCH   1  17
ATOM     17  C   UNL     1      49.639  34.496   7.641  1.00  0.00     0.000 C 
BRANCH  17  18
ATOM     18  C   UNL     1      50.133  35.257   8.879  1.00  0.00     0.000 C 
BRANCH  18  19
ATOM     19  C   UNL     1      50.063  34.383  10.141  1.00  0.00     0.000 C 
BRANCH  19  20
ATOM     20  C   UNL     1      49.327  35.086  11.304  1.00  0.00     0.000 C 
BRANCH  20  21
ATOM     21  C   UNL     1      48.277  34.200  12.003  1.00  0.00     0.000 C 
BRANCH  21  22
ATOM     22  C   UNL     1      46.813  34.505  11.639  1.00  0.00    -0.000 C 
BRANCH  22  23
ATOM     23  C   UNL     1      46.621  35.459  10.441  1.00  0.00    -0.000 C 
BRANCH  23  24
ATOM     24  C   UNL     1      45.156  35.608   9.985  1.00  0.00    -0.000 C 
BRANCH  24  25
ATOM     25  C   UNL     1      44.549  36.971  10.359  1.00  0.00    -0.000 C 
BRANCH  25  26
ATOM     26  C   UNL     1      45.618  38.073  10.423  1.00  0.00    -0.000 C 
BRANCH  26  27
ATOM     27  C   UNL     1      45.607  38.802  11.777  1.00  0.00    -0.000 C 
BRANCH  27  28
ATOM     28  C   UNL     1      45.534  37.834  12.965  1.00  0.00    -0.000 C 
BRANCH  28  29
ATOM     29  C   UNL     1      46.904  37.618  13.622  1.00  0.00    -0.003 C 
ATOM     30  C   UNL     1      47.851  38.776  13.327  1.00  0.00     0.004 C 
ENDBRANCH  28  29
ENDBRANCH  27  28
ENDBRANCH  26  27
ENDBRANCH  25  26
ENDBRANCH  24  25
ENDBRANCH  23  24
ENDBRANCH  22  23
ENDBRANCH  21  22
ENDBRANCH  20  21
ENDBRANCH  19  20
ENDBRANCH  18  19
ENDBRANCH  17  18
ENDBRANCH   1  17
TORSDOF 26
ENDMDL
MODEL 7
REMARK VINA RESULT:    -3.720      2.067      5.528
REMARK INTER + INTRA:         -13.673
REMARK INTER:                 -10.408
REMARK INTRA:                  -3.264
REMARK UNBOUND:                -4.299
REMARK SMILES CCCCCCCCCCCCCCCCCCCCCCCCCCCC(=O)[O-]
REMARK SMILES IDX 15 1 16 2 17 3 18 4 19 5 20 6 21 7 22 8 23 9 24 10 25 11
REMARK SMILES IDX 26 12 27 13 28 14 29 15 30 16 14 17 13 18 12 19 11 20 10 21
REMARK SMILES IDX 9 22 8 23 7 24 6 25 5 26 4 27 3 28 2 29 1 30
REMARK H PARENT
REMARK Flexibility Score: inf
ROOT
ATOM      1  C   UNL     1      45.559  45.814  12.360  1.00  0.00     0.000 C 
ENDROOT
BRANCH   1   2
ATOM      2  C   UNL     1      44.149  46.402  12.175  1.00  0.00     0.000 C 
BRANCH   2   3
ATOM      3  C   UNL     1      44.100  47.740  11.412  1.00  0.00     0.000 C 
BRANCH   3   4
ATOM      4  C   UNL     1      44.957  48.869  12.020  1.00  0.00     0.000 C 
BRANCH   4   5
ATOM      5  C   UNL     1      45.924  49.559  11.039  1.00  0.00     0.000 C 
BRANCH   5   6
ATOM      6  C   UNL     1      46.858  48.570  10.321  1.00  0.00     0.000 C 
BRANCH   6   7
ATOM      7  C   UNL     1      48.307  48.668  10.829  1.00  0.00     0.000 C 
BRANCH   7   8
ATOM      8  C   UNL     1      48.657  47.551  11.829  1.00  0.00     0.000 C 
BRANCH   8   9
ATOM      9  C   UNL     1      50.170  47.259  11.903  1.00  0.00     0.000 C 
BRANCH   9  10
ATOM     10  C   UNL     1      51.005  47.843  10.748  1.00  0.00     0.000 C 
BRANCH  10  11
ATOM     11  C   UNL     1      51.821  46.777  10.000  1.00  0.00     0.000 C 
BRANCH  11  12
ATOM     12  C   UNL     1      52.506  45.769  10.943  1.00  0.00     0.006 C 
BRANCH  12  13
ATOM     13  C   UNL     1      53.663  44.994  10.288  1.00  0.00     0.053 C 
BRANCH  13  14
ATOM     14  C   UNL     1      54.211  43.917  11.172  1.00  0.00     0.041 C 
ATOM     15  O   UNL     1      54.341  42.743  10.735  1.00  0.00    -0.550 OA
ATOM     16  O   UNL     1      54.563  44.205  12.484  1.00  0.00    -0.550 OA
ENDBRANCH  13  14
ENDBRANCH  12  13
ENDBRANCH  11  12
ENDBRANCH  10  11
ENDBRANCH   9  10
ENDBRANCH   8   9
ENDBRANCH   7   8
ENDBRANCH   6   7
ENDBRANCH   5   6
ENDBRANCH   4   5
ENDBRANCH   3   4
ENDBRANCH   2   3
ENDBRANCH   1   2
BRANCH   1  17
ATOM     17  C   UNL     1      46.035  44.904  11.214  1.00  0.00     0.000 C 
BRANCH  17  18
ATOM     18  C   UNL     1      45.220  43.608  11.110  1.00  0.00     0.000 C 
BRANCH  18  19
ATOM     19  C   UNL     1      44.427  43.547   9.795  1.00  0.00     0.000 C 
BRANCH  19  20
ATOM     20  C   UNL     1      44.949  44.551   8.744  1.00  0.00     0.000 C 
BRANCH  20  21
ATOM     21  C   UNL     1      43.936  45.654   8.377  1.00  0.00     0.000 C 
BRANCH  21  22
ATOM     22  C   UNL     1      42.460  45.296   8.624  1.00  0.00    -0.000 C 
BRANCH  22  23
ATOM     23  C   UNL     1      41.684  44.817   7.380  1.00  0.00    -0.000 C 
BRANCH  23  24
ATOM     24  C   UNL     1      42.583  44.353   6.217  1.00  0.00    -0.000 C 
BRANCH  24  25
ATOM     25  C   UNL     1      42.544  42.830   6.002  1.00  0.00    -0.000 C 
BRANCH  25  26
ATOM     26  C   UNL     1      43.934  42.195   6.168  1.00  0.00    -0.000 C 
BRANCH  26  27
ATOM     27  C   UNL     1      43.946  41.124   7.270  1.00  0.00    -0.000 C 
BRANCH  27  28
ATOM     28  C   UNL     1      43.210  39.843   6.852  1.00  0.00    -0.000 C 
BRANCH  28  29
ATOM     29  C   UNL     1      43.424  38.699   7.854  1.00  0.00    -0.003 C 
ATOM     30  C   UNL     1      44.392  39.102   8.961  1.00  0.00     0.004 C 
ENDBRANCH  28  29
ENDBRANCH  27  28
ENDBRANCH  26  27
ENDBRANCH  25  26
ENDBRANCH  24  25
ENDBRANCH  23  24
ENDBRANCH  22  23
ENDBRANCH  21  22
ENDBRANCH  20  21
ENDBRANCH  19  20
ENDBRANCH  18  19
ENDBRANCH  17  18
ENDBRANCH   1  17
TORSDOF 26
ENDMDL
MODEL 8
REMARK VINA RESULT:    -3.720      1.786      4.785
REMARK INTER + INTRA:         -13.673
REMARK INTER:                 -10.249
REMARK INTRA:                  -3.423
REMARK UNBOUND:                -4.299
REMARK SMILES CCCCCCCCCCCCCCCCCCCCCCCCCCCC(=O)[O-]
REMARK SMILES IDX 15 1 16 2 17 3 18 4 19 5 20 6 21 7 22 8 23 9 24 10 25 11
REMARK SMILES IDX 26 12 27 13 28 14 29 15 30 16 14 17 13 18 12 19 11 20 10 21
REMARK SMILES IDX 9 22 8 23 7 24 6 25 5 26 4 27 3 28 2 29 1 30
REMARK H PARENT
REMARK Flexibility Score: inf
ROOT
ATOM      1  C   UNL     1      44.483  44.016   8.144  1.00  0.00     0.000 C 
ENDROOT
BRANCH   1   2
ATOM      2  C   UNL     1      44.913  45.311   8.857  1.00  0.00     0.000 C 
BRANCH   2   3
ATOM      3  C   UNL     1      45.231  45.151  10.355  1.00  0.00     0.000 C 
BRANCH   3   4
ATOM      4  C   UNL     1      45.880  46.382  11.020  1.00  0.00     0.000 C 
BRANCH   4   5
ATOM      5  C   UNL     1      45.520  47.738  10.384  1.00  0.00     0.000 C 
BRANCH   5   6
ATOM      6  C   UNL     1      46.703  48.722  10.360  1.00  0.00     0.000 C 
BRANCH   6   7
ATOM      7  C   UNL     1      47.749  48.395  11.439  1.00  0.00     0.000 C 
BRANCH   7   8
ATOM      8  C   UNL     1      49.128  49.005  11.126  1.00  0.00     0.000 C 
BRANCH   8   9
ATOM      9  C   UNL     1      50.257  47.955  11.079  1.00  0.00     0.000 C 
BRANCH   9  10
ATOM     10  C   UNL     1      50.296  46.985  12.274  1.00  0.00     0.000 C 
BRANCH  10  11
ATOM     11  C   UNL     1      51.549  46.095  12.281  1.00  0.00     0.000 C 
BRANCH  11  12
ATOM     12  C   UNL     1      52.581  46.496  11.209  1.00  0.00     0.006 C 
BRANCH  12  13
ATOM     13  C   UNL     1      53.180  45.301  10.447  1.00  0.00     0.053 C 
BRANCH  13  14
ATOM     14  C   UNL     1      54.205  44.558  11.247  1.00  0.00     0.041 C 
ATOM     15  O   UNL     1      54.890  45.162  12.115  1.00  0.00    -0.550 OA
ATOM     16  O   UNL     1      54.416  43.204  11.025  1.00  0.00    -0.550 OA
ENDBRANCH  13  14
ENDBRANCH  12  13
ENDBRANCH  11  12
ENDBRANCH  10  11
ENDBRANCH   9  10
ENDBRANCH   8   9
ENDBRANCH   7   8
ENDBRANCH   6   7
ENDBRANCH   5   6
ENDBRANCH   4   5
ENDBRANCH   3   4
ENDBRANCH   2   3
ENDBRANCH   1   2
BRANCH   1  17
ATOM     17  C   UNL     1      43.254  44.159   7.230  1.00  0.00     0.000 C 
BRANCH  17  18
ATOM     18  C   UNL     1      43.092  42.974   6.268  1.00  0.00     0.000 C 
BRANCH  18  19
ATOM     19  C   UNL     1      44.145  41.886   6.533  1.00  0.00     0.000 C 
BRANCH  19  20
ATOM     20  C   UNL     1      43.511  40.539   6.943  1.00  0.00     0.000 C 
BRANCH  20  21
ATOM     21  C   UNL     1      41.980  40.598   7.119  1.00  0.00     0.000 C 
BRANCH  21  22
ATOM     22  C   UNL     1      41.468  40.253   8.529  1.00  0.00    -0.000 C 
BRANCH  22  23
ATOM     23  C   UNL     1      41.143  41.466   9.424  1.00  0.00    -0.000 C 
BRANCH  23  24
ATOM     24  C   UNL     1      42.358  42.028  10.189  1.00  0.00    -0.000 C 
BRANCH  24  25
ATOM     25  C   UNL     1      43.294  40.926  10.714  1.00  0.00    -0.000 C 
BRANCH  25  26
ATOM     26  C   UNL     1      44.773  41.333  10.606  1.00  0.00    -0.000 C 
BRANCH  26  27
ATOM     27  C   UNL     1      45.586  40.322   9.782  1.00  0.00    -0.000 C 
BRANCH  27  28
ATOM     28  C   UNL     1      45.009  38.902   9.861  1.00  0.00    -0.000 C 
BRANCH  28  29
ATOM     29  C   UNL     1      45.784  38.016  10.846  1.00  0.00    -0.003 C 
ATOM     30  C   UNL     1      44.892  37.541  11.988  1.00  0.00     0.004 C 
ENDBRANCH  28  29
ENDBRANCH  27  28
ENDBRANCH  26  27
ENDBRANCH  25  26
ENDBRANCH  24  25
ENDBRANCH  23  24
ENDBRANCH  22  23
ENDBRANCH  21  22
ENDBRANCH  20  21
ENDBRANCH  19  20
ENDBRANCH  18  19
ENDBRANCH  17  18
ENDBRANCH   1  17
TORSDOF 26
ENDMDL
MODEL 9
REMARK VINA RESULT:    -3.713      3.892     10.129
REMARK INTER + INTRA:         -13.656
REMARK INTER:                 -10.083
REMARK INTRA:                  -3.573
REMARK UNBOUND:                -4.299
REMARK SMILES CCCCCCCCCCCCCCCCCCCCCCCCCCCC(=O)[O-]
REMARK SMILES IDX 15 1 16 2 17 3 18 4 19 5 20 6 21 7 22 8 23 9 24 10 25 11
REMARK SMILES IDX 26 12 27 13 28 14 29 15 30 16 14 17 13 18 12 19 11 20 10 21
REMARK SMILES IDX 9 22 8 23 7 24 6 25 5 26 4 27 3 28 2 29 1 30
REMARK H PARENT
REMARK Flexibility Score: inf
ROOT
ATOM      1  C   UNL     1      46.366  44.556  11.934  1.00  0.00     0.000 C 
ENDROOT
BRANCH   1   2
ATOM      2  C   UNL     1      45.320  43.891  12.847  1.00  0.00     0.000 C 
BRANCH   2   3
ATOM      3  C   UNL     1      43.868  44.342  12.603  1.00  0.00     0.000 C 
BRANCH   3   4
ATOM      4  C   UNL     1      43.615  45.853  12.782  1.00  0.00     0.000 C 
BRANCH   4   5
ATOM      5  C   UNL     1      42.900  46.544  11.605  1.00  0.00     0.000 C 
BRANCH   5   6
ATOM      6  C   UNL     1      43.723  47.692  10.995  1.00  0.00     0.000 C 
BRANCH   6   7
ATOM      7  C   UNL     1      44.469  47.257   9.722  1.00  0.00     0.000 C 
BRANCH   7   8
ATOM      8  C   UNL     1      43.881  45.975   9.104  1.00  0.00     0.000 C 
BRANCH   8   9
ATOM      9  C   UNL     1      44.957  45.033   8.527  1.00  0.00     0.000 C 
BRANCH   9  10
ATOM     10  C   UNL     1      44.810  43.553   8.925  1.00  0.00     0.000 C 
BRANCH  10  11
ATOM     11  C   UNL     1      44.539  42.633   7.723  1.00  0.00     0.000 C 
BRANCH  11  12
ATOM     12  C   UNL     1      43.152  42.858   7.092  1.00  0.00     0.006 C 
BRANCH  12  13
ATOM     13  C   UNL     1      42.251  41.611   7.114  1.00  0.00     0.053 C 
BRANCH  13  14
ATOM     14  C   UNL     1      42.259  40.868   5.814  1.00  0.00     0.041 C 
ATOM     15  O   UNL     1      41.756  41.389   4.783  1.00  0.00    -0.550 OA
ATOM     16  O   UNL     1      42.806  39.594   5.743  1.00  0.00    -0.550 OA
ENDBRANCH  13  14
ENDBRANCH  12  13
ENDBRANCH  11  12
ENDBRANCH  10  11
ENDBRANCH   9  10
ENDBRANCH   8   9
ENDBRANCH   7   8
ENDBRANCH   6   7
ENDBRANCH   5   6
ENDBRANCH   4   5
ENDBRANCH   3   4
ENDBRANCH   2   3
ENDBRANCH   1   2
BRANCH   1  17
ATOM     17  C   UNL     1      47.298  45.556  12.640  1.00  0.00     0.000 C 
BRANCH  17  18
ATOM     18  C   UNL     1      47.397  46.897  11.899  1.00  0.00     0.000 C 
BRANCH  18  19
ATOM     19  C   UNL     1      47.862  48.023  12.834  1.00  0.00     0.000 C 
BRANCH  19  20
ATOM     20  C   UNL     1      47.871  49.402  12.138  1.00  0.00     0.000 C 
BRANCH  20  21
ATOM     21  C   UNL     1      49.284  49.932  11.821  1.00  0.00     0.000 C 
BRANCH  21  22
ATOM     22  C   UNL     1      50.437  48.979  12.181  1.00  0.00    -0.000 C 
BRANCH  22  23
ATOM     23  C   UNL     1      51.025  48.183  10.998  1.00  0.00    -0.000 C 
BRANCH  23  24
ATOM     24  C   UNL     1      51.190  46.676  11.273  1.00  0.00    -0.000 C 
BRANCH  24  25
ATOM     25  C   UNL     1      51.163  46.336  12.773  1.00  0.00    -0.000 C 
BRANCH  25  26
ATOM     26  C   UNL     1      52.561  45.979  13.304  1.00  0.00    -0.000 C 
BRANCH  26  27
ATOM     27  C   UNL     1      53.670  46.431  12.340  1.00  0.00    -0.000 C 
BRANCH  27  28
ATOM     28  C   UNL     1      54.630  45.291  11.974  1.00  0.00    -0.000 C 
BRANCH  28  29
ATOM     29  C   UNL     1      54.350  44.725  10.574  1.00  0.00    -0.003 C 
ATOM     30  C   UNL     1      54.264  43.203  10.597  1.00  0.00     0.004 C 
ENDBRANCH  28  29
ENDBRANCH  27  28
ENDBRANCH  26  27
ENDBRANCH  25  26
ENDBRANCH  24  25
ENDBRANCH  23  24
ENDBRANCH  22  23
ENDBRANCH  21  22
ENDBRANCH  20  21
ENDBRANCH  19  20
ENDBRANCH  18  19
ENDBRANCH  17  18
ENDBRANCH   1  17
TORSDOF 26
ENDMDL
