MODEL 1
REMARK VINA RESULT:    -5.350      0.000      0.000
REMARK INTER + INTRA:         -13.201
REMARK INTER:                 -11.292
REMARK INTRA:                  -1.909
REMARK UNBOUND:                -1.909
REMARK SMILES CCC(=O)CCCCC[C@@H]1NC(=O)[C@H]2CCCCN2C(=O)[C@H]([C@H](C)CC)NC(=O)[C@H](Cc2cn(OC)c3ccccc23)NC1=O
REMARK SMILES IDX 9 1 10 2 44 3 43 4 45 6 30 7 28 8 27 9 29 11 22 12 23 14
REMARK SMILES IDX 24 15 25 16 26 17 31 18 32 19 33 20 42 21 34 22 37 23 41 24
REMARK SMILES IDX 38 25 40 26 39 27 35 28 36 29 11 30 12 31 13 33 14 34 19 35
REMARK SMILES IDX 15 36 18 37 16 38 17 39 20 40 21 41 8 43 7 44 6 45 5 46 3 47
REMARK SMILES IDX 4 48 2 49 1 50
REMARK H PARENT 43 5 27 10 11 32
REMARK Flexibility Score: 80.00
ROOT
ATOM      1  C   UNL     1      49.012  42.798  33.780  1.00  0.00     0.035 C 
ENDROOT
BRANCH   1   2
ATOM      2  C   UNL     1      49.193  41.588  34.730  1.00  0.00     0.171 C 
BRANCH   2   3
ATOM      3  C   UNL     1      48.592  41.754  36.109  1.00  0.00     0.243 C 
ATOM      4  N   UNL     1      47.432  42.568  36.366  1.00  0.00    -0.342 N 
ATOM      5  H   UNL     1      46.992  43.122  35.597  1.00  0.00     0.164 HD
ATOM      6  O   UNL     1      49.124  41.115  37.060  1.00  0.00    -0.273 OA
BRANCH   4   7
ATOM      7  C   UNL     1      46.830  42.621  37.702  1.00  0.00     0.175 C 
BRANCH   7   8
ATOM      8  C   UNL     1      46.664  41.220  38.233  1.00  0.00     0.243 C 
ATOM      9  N   UNL     1      45.645  40.355  37.706  1.00  0.00    -0.342 N 
ATOM     10  H   UNL     1      44.834  40.783  37.203  1.00  0.00     0.164 HD
ATOM     11  O   UNL     1      47.445  40.806  39.132  1.00  0.00    -0.273 OA
BRANCH   9  12
ATOM     12  C   UNL     1      45.792  38.894  37.693  1.00  0.00     0.174 CG0
ATOM     13  G   UNL     1      45.609  38.374  36.284  1.00  0.00     0.000 G0
BRANCH  12  14
ATOM     14  C   UNL     1      44.845  38.206  38.721  1.00  0.00     0.018 C 
ATOM     15  C   UNL     1      44.160  39.202  39.678  1.00  0.00     0.010 C 
BRANCH  14  16
ATOM     16  C   UNL     1      45.622  37.122  39.509  1.00  0.00     0.002 C 
ATOM     17  C   UNL     1      47.136  37.342  39.511  1.00  0.00     0.004 C 
ENDBRANCH  14  16
ENDBRANCH  12  14
ENDBRANCH   9  12
ENDBRANCH   7   8
BRANCH   7  18
ATOM     18  C   UNL     1      45.491  43.381  37.674  1.00  0.00     0.073 C 
BRANCH  18  19
ATOM     19  C   UNL     1      45.635  44.749  38.277  1.00  0.00    -0.016 A 
ATOM     20  C   UNL     1      45.553  45.064  39.632  1.00  0.00     0.134 A 
ATOM     21  C   UNL     1      45.693  45.962  37.612  1.00  0.00     0.006 A 
ATOM     22  N   UNL     1      45.569  46.410  39.793  1.00  0.00    -0.191 N 
ATOM     23  C   UNL     1      45.648  46.949  38.564  1.00  0.00     0.087 A 
ATOM     24  C   UNL     1      45.765  46.260  36.251  1.00  0.00     0.011 A 
ATOM     25  C   UNL     1      45.656  48.301  38.222  1.00  0.00     0.030 A 
ATOM     26  C   UNL     1      45.778  47.615  35.873  1.00  0.00     0.001 A 
ATOM     27  C   UNL     1      45.723  48.630  36.854  1.00  0.00     0.002 A 
BRANCH  22  28
ATOM     28  O   UNL     1      45.488  47.123  40.975  1.00  0.00    -0.417 OA
ATOM     29  C   UNL     1      46.277  46.800  42.114  1.00  0.00     0.313 C 
ENDBRANCH  22  28
ENDBRANCH  18  19
ENDBRANCH   7  18
ENDBRANCH   4   7
ENDBRANCH   2   3
BRANCH   2  30
ATOM     30  N   UNL     1      48.730  40.328  34.133  1.00  0.00    -0.343 N 
ATOM     31  C   UNL     1      47.468  39.702  34.448  1.00  0.00     0.243 C 
ATOM     32  H   UNL     1      49.390  39.865  33.472  1.00  0.00     0.164 HD
ATOM     33  O   UNL     1      46.485  40.429  34.755  1.00  0.00    -0.273 OA
BRANCH  31  34
ATOM     34  C   UNL     1      47.260  38.189  34.377  1.00  0.00     0.174 C 
ATOM     35  N   UNL     1      46.646  37.647  35.617  1.00  0.00    -0.329 N 
ATOM     36  C   UNL     1      48.572  37.442  34.051  1.00  0.00     0.035 C 
ATOM     37  C   UNL     1      46.574  36.186  35.796  1.00  0.00     0.120 C 
ATOM     38  C   UNL     1      48.376  35.929  34.078  1.00  0.00     0.004 C 
ATOM     39  C   UNL     1      47.899  35.503  35.461  1.00  0.00     0.022 C 
BRANCH  35  40
ATOM     40  C   UNL     1      45.602  38.380  36.281  1.00  0.00     0.246 CG0
ATOM     41  O   UNL     1      44.510  38.580  35.685  1.00  0.00    -0.272 OA
ATOM     42  G   UNL     1      45.822  38.913  37.679  1.00  0.00     0.000 G0
ENDBRANCH  35  40
ENDBRANCH  31  34
ENDBRANCH   2  30
ENDBRANCH   1   2
BRANCH   1  43
ATOM     43  C   UNL     1      49.869  44.019  34.161  1.00  0.00     0.003 C 
BRANCH  43  44
ATOM     44  C   UNL     1      49.033  45.240  34.574  1.00  0.00     0.001 C 
BRANCH  44  45
ATOM     45  C   UNL     1      49.242  45.574  36.058  1.00  0.00     0.008 C 
BRANCH  45  46
ATOM     46  C   UNL     1      50.125  46.812  36.260  1.00  0.00     0.075 C 
BRANCH  46  47
ATOM     47  C   UNL     1      49.433  47.872  37.077  1.00  0.00     0.132 C 
ATOM     48  O   UNL     1      48.953  47.577  38.162  1.00  0.00    -0.300 OA
BRANCH  47  49
ATOM     49  C   UNL     1      49.330  49.291  36.584  1.00  0.00     0.072 C 
ATOM     50  C   UNL     1      48.895  50.227  37.711  1.00  0.00     0.012 C 
ENDBRANCH  47  49
ENDBRANCH  46  47
ENDBRANCH  45  46
ENDBRANCH  44  45
ENDBRANCH  43  44
ENDBRANCH   1  43
TORSDOF 12
ENDMDL
MODEL 2
REMARK VINA RESULT:    -4.859      1.155      1.766
REMARK INTER + INTRA:         -12.166
REMARK INTER:                 -11.353
REMARK INTRA:                  -0.813
REMARK UNBOUND:                -1.909
REMARK SMILES CCC(=O)CCCCC[C@@H]1NC(=O)[C@H]2CCCCN2C(=O)[C@H]([C@H](C)CC)NC(=O)[C@H](Cc2cn(OC)c3ccccc23)NC1=O
REMARK SMILES IDX 9 1 10 2 44 3 43 4 45 6 30 7 28 8 27 9 29 11 22 12 23 14
REMARK SMILES IDX 24 15 25 16 26 17 31 18 32 19 33 20 42 21 34 22 37 23 41 24
REMARK SMILES IDX 38 25 40 26 39 27 35 28 36 29 11 30 12 31 13 33 14 34 19 35
REMARK SMILES IDX 15 36 18 37 16 38 17 39 20 40 21 41 8 43 7 44 6 45 5 46 3 47
REMARK SMILES IDX 4 48 2 49 1 50
REMARK H PARENT 43 5 27 10 11 32
REMARK Flexibility Score: 80.00
ROOT
ATOM      1  C   UNL     1      48.756  43.040  33.624  1.00  0.00     0.035 C 
ENDROOT
BRANCH   1   2
ATOM      2  C   UNL     1      49.155  41.844  34.523  1.00  0.00     0.171 C 
BRANCH   2   3
ATOM      3  C   UNL     1      48.748  41.965  35.976  1.00  0.00     0.243 C 
ATOM      4  N   UNL     1      47.509  42.570  36.396  1.00  0.00    -0.342 N 
ATOM      5  H   UNL     1      46.865  43.001  35.695  1.00  0.00     0.164 HD
ATOM      6  O   UNL     1      49.524  41.476  36.844  1.00  0.00    -0.273 OA
BRANCH   4   7
ATOM      7  C   UNL     1      47.116  42.577  37.808  1.00  0.00     0.175 C 
BRANCH   7   8
ATOM      8  C   UNL     1      46.960  41.159  38.293  1.00  0.00     0.243 C 
ATOM      9  N   UNL     1      45.831  40.368  37.889  1.00  0.00    -0.342 N 
ATOM     10  H   UNL     1      44.977  40.857  37.537  1.00  0.00     0.164 HD
ATOM     11  O   UNL     1      47.847  40.663  39.041  1.00  0.00    -0.273 OA
BRANCH   9  12
ATOM     12  C   UNL     1      45.900  38.905  37.785  1.00  0.00     0.174 CG0
ATOM     13  G   UNL     1      45.746  38.486  36.340  1.00  0.00     0.000 G0
BRANCH  12  14
ATOM     14  C   UNL     1      44.877  38.207  38.731  1.00  0.00     0.018 C 
ATOM     15  C   UNL     1      44.186  39.182  39.706  1.00  0.00     0.010 C 
BRANCH  14  16
ATOM     16  C   UNL     1      45.569  37.052  39.497  1.00  0.00     0.002 C 
ATOM     17  C   UNL     1      47.083  37.001  39.277  1.00  0.00     0.004 C 
ENDBRANCH  14  16
ENDBRANCH  12  14
ENDBRANCH   9  12
ENDBRANCH   7   8
BRANCH   7  18
ATOM     18  C   UNL     1      45.827  43.394  38.017  1.00  0.00     0.073 C 
BRANCH  18  19
ATOM     19  C   UNL     1      46.056  44.528  38.974  1.00  0.00    -0.016 A 
ATOM     20  C   UNL     1      45.215  44.905  40.019  1.00  0.00     0.134 A 
ATOM     21  C   UNL     1      47.028  45.510  38.899  1.00  0.00     0.006 A 
ATOM     22  N   UNL     1      45.656  46.065  40.568  1.00  0.00    -0.191 N 
ATOM     23  C   UNL     1      46.752  46.429  39.880  1.00  0.00     0.087 A 
ATOM     24  C   UNL     1      48.112  45.665  38.036  1.00  0.00     0.011 A 
ATOM     25  C   UNL     1      47.530  47.573  40.056  1.00  0.00     0.030 A 
ATOM     26  C   UNL     1      48.919  46.808  38.189  1.00  0.00     0.001 A 
ATOM     27  C   UNL     1      48.629  47.757  39.194  1.00  0.00     0.002 A 
BRANCH  22  28
ATOM     28  O   UNL     1      45.091  46.776  41.610  1.00  0.00    -0.417 OA
ATOM     29  C   UNL     1      45.626  46.748  42.929  1.00  0.00     0.313 C 
ENDBRANCH  22  28
ENDBRANCH  18  19
ENDBRANCH   7  18
ENDBRANCH   4   7
ENDBRANCH   2   3
BRANCH   2  30
ATOM     30  N   UNL     1      48.699  40.556  33.983  1.00  0.00    -0.343 N 
ATOM     31  C   UNL     1      47.508  39.873  34.425  1.00  0.00     0.243 C 
ATOM     32  H   UNL     1      49.314  40.118  33.264  1.00  0.00     0.164 HD
ATOM     33  O   UNL     1      46.524  40.554  34.821  1.00  0.00    -0.273 OA
BRANCH  31  34
ATOM     34  C   UNL     1      47.369  38.350  34.385  1.00  0.00     0.174 C 
ATOM     35  N   UNL     1      46.814  37.802  35.650  1.00  0.00    -0.329 N 
ATOM     36  C   UNL     1      48.706  37.660  34.038  1.00  0.00     0.035 C 
ATOM     37  C   UNL     1      46.816  36.344  35.856  1.00  0.00     0.120 C 
ATOM     38  C   UNL     1      48.583  36.140  34.095  1.00  0.00     0.004 C 
ATOM     39  C   UNL     1      48.163  35.718  35.498  1.00  0.00     0.022 C 
BRANCH  35  40
ATOM     40  C   UNL     1      45.755  38.498  36.330  1.00  0.00     0.246 CG0
ATOM     41  O   UNL     1      44.694  38.772  35.707  1.00  0.00    -0.272 OA
ATOM     42  G   UNL     1      45.920  38.905  37.777  1.00  0.00     0.000 G0
ENDBRANCH  35  40
ENDBRANCH  31  34
ENDBRANCH   2  30
ENDBRANCH   1   2
BRANCH   1  43
ATOM     43  C   UNL     1      48.650  44.377  34.380  1.00  0.00     0.003 C 
BRANCH  43  44
ATOM     44  C   UNL     1      47.386  45.174  34.025  1.00  0.00     0.001 C 
BRANCH  44  45
ATOM     45  C   UNL     1      46.752  45.791  35.281  1.00  0.00     0.008 C 
BRANCH  45  46
ATOM     46  C   UNL     1      45.776  46.926  34.946  1.00  0.00     0.075 C 
BRANCH  46  47
ATOM     47  C   UNL     1      46.020  48.149  35.791  1.00  0.00     0.132 C 
ATOM     48  O   UNL     1      46.908  48.929  35.477  1.00  0.00    -0.300 OA
BRANCH  47  49
ATOM     49  C   UNL     1      45.183  48.432  37.010  1.00  0.00     0.072 C 
ATOM     50  C   UNL     1      45.825  49.522  37.868  1.00  0.00     0.012 C 
ENDBRANCH  47  49
ENDBRANCH  46  47
ENDBRANCH  45  46
ENDBRANCH  44  45
ENDBRANCH  43  44
ENDBRANCH   1  43
TORSDOF 12
ENDMDL
MODEL 3
REMARK VINA RESULT:    -4.826      1.367      2.644
REMARK INTER + INTRA:         -12.095
REMARK INTER:                 -10.675
REMARK INTRA:                  -1.420
REMARK UNBOUND:                -1.909
REMARK SMILES CCC(=O)CCCCC[C@@H]1NC(=O)[C@H]2CCCCN2C(=O)[C@H]([C@H](C)CC)NC(=O)[C@H](Cc2cn(OC)c3ccccc23)NC1=O
REMARK SMILES IDX 9 1 10 2 44 3 43 4 45 6 30 7 28 8 27 9 29 11 22 12 23 14
REMARK SMILES IDX 24 15 25 16 26 17 31 18 32 19 33 20 42 21 34 22 37 23 41 24
REMARK SMILES IDX 38 25 40 26 39 27 35 28 36 29 11 30 12 31 13 33 14 34 19 35
REMARK SMILES IDX 15 36 18 37 16 38 17 39 20 40 21 41 8 43 7 44 6 45 5 46 3 47
REMARK SMILES IDX 4 48 2 49 1 50
REMARK H PARENT 43 5 27 10 11 32
REMARK Flexibility Score: 80.00
ROOT
ATOM      1  C   UNL     1      48.444  43.108  33.829  1.00  0.00     0.035 C 
ENDROOT
BRANCH   1   2
ATOM      2  C   UNL     1      48.868  41.908  34.712  1.00  0.00     0.171 C 
BRANCH   2   3
ATOM      3  C   UNL     1      48.631  42.083  36.196  1.00  0.00     0.243 C 
ATOM      4  N   UNL     1      47.456  42.721  36.733  1.00  0.00    -0.342 N 
ATOM      5  H   UNL     1      46.740  43.137  36.096  1.00  0.00     0.164 HD
ATOM      6  O   UNL     1      49.496  41.612  36.987  1.00  0.00    -0.273 OA
BRANCH   4   7
ATOM      7  C   UNL     1      47.226  42.782  38.181  1.00  0.00     0.175 C 
BRANCH   7   8
ATOM      8  C   UNL     1      46.725  41.445  38.665  1.00  0.00     0.243 C 
ATOM      9  N   UNL     1      45.465  40.928  38.209  1.00  0.00    -0.342 N 
ATOM     10  H   UNL     1      44.765  41.593  37.809  1.00  0.00     0.164 HD
ATOM     11  O   UNL     1      47.436  40.773  39.461  1.00  0.00    -0.273 OA
BRANCH   9  12
ATOM     12  C   UNL     1      45.201  39.486  38.118  1.00  0.00     0.174 CG0
ATOM     13  G   UNL     1      45.081  39.078  36.666  1.00  0.00     0.000 G0
BRANCH  12  14
ATOM     14  C   UNL     1      43.965  39.068  38.969  1.00  0.00     0.018 C 
ATOM     15  C   UNL     1      43.093  40.264  39.403  1.00  0.00     0.010 C 
BRANCH  14  16
ATOM     16  C   UNL     1      44.425  38.241  40.195  1.00  0.00     0.002 C 
ATOM     17  C   UNL     1      45.774  37.549  39.988  1.00  0.00     0.004 C 
ENDBRANCH  14  16
ENDBRANCH  12  14
ENDBRANCH   9  12
ENDBRANCH   7   8
BRANCH   7  18
ATOM     18  C   UNL     1      46.250  43.918  38.536  1.00  0.00     0.073 C 
BRANCH  18  19
ATOM     19  C   UNL     1      46.982  45.214  38.737  1.00  0.00    -0.016 A 
ATOM     20  C   UNL     1      48.044  45.687  37.969  1.00  0.00     0.134 A 
ATOM     21  C   UNL     1      46.871  46.088  39.805  1.00  0.00     0.006 A 
ATOM     22  N   UNL     1      48.558  46.807  38.535  1.00  0.00    -0.191 N 
ATOM     23  C   UNL     1      47.847  47.041  39.651  1.00  0.00     0.087 A 
ATOM     24  C   UNL     1      46.002  46.100  40.895  1.00  0.00     0.011 A 
ATOM     25  C   UNL     1      48.031  48.062  40.584  1.00  0.00     0.030 A 
ATOM     26  C   UNL     1      46.159  47.119  41.853  1.00  0.00     0.001 A 
ATOM     27  C   UNL     1      47.169  48.094  41.698  1.00  0.00     0.002 A 
BRANCH  22  28
ATOM     28  O   UNL     1      49.628  47.564  38.094  1.00  0.00    -0.417 OA
ATOM     29  C   UNL     1      49.519  48.471  37.003  1.00  0.00     0.313 C 
ENDBRANCH  22  28
ENDBRANCH  18  19
ENDBRANCH   7  18
ENDBRANCH   4   7
ENDBRANCH   2   3
BRANCH   2  30
ATOM     30  N   UNL     1      48.279  40.640  34.260  1.00  0.00    -0.343 N 
ATOM     31  C   UNL     1      47.041  40.099  34.768  1.00  0.00     0.243 C 
ATOM     32  H   UNL     1      48.830  40.105  33.555  1.00  0.00     0.164 HD
ATOM     33  O   UNL     1      46.137  40.893  35.145  1.00  0.00    -0.273 OA
BRANCH  31  34
ATOM     34  C   UNL     1      46.760  38.597  34.822  1.00  0.00     0.174 C 
ATOM     35  N   UNL     1      46.101  38.193  36.091  1.00  0.00    -0.329 N 
ATOM     36  C   UNL     1      48.039  37.763  34.587  1.00  0.00     0.035 C 
ATOM     37  C   UNL     1      45.955  36.759  36.393  1.00  0.00     0.120 C 
ATOM     38  C   UNL     1      47.769  36.270  34.739  1.00  0.00     0.004 C 
ATOM     39  C   UNL     1      47.250  35.988  36.144  1.00  0.00     0.022 C 
BRANCH  35  40
ATOM     40  C   UNL     1      45.085  39.030  36.670  1.00  0.00     0.246 CG0
ATOM     41  O   UNL     1      44.090  39.368  35.974  1.00  0.00    -0.272 OA
ATOM     42  G   UNL     1      45.218  39.506  38.100  1.00  0.00     0.000 G0
ENDBRANCH  35  40
ENDBRANCH  31  34
ENDBRANCH   2  30
ENDBRANCH   1   2
BRANCH   1  43
ATOM     43  C   UNL     1      47.058  43.679  34.182  1.00  0.00     0.003 C 
BRANCH  43  44
ATOM     44  C   UNL     1      46.979  45.206  34.035  1.00  0.00     0.001 C 
BRANCH  44  45
ATOM     45  C   UNL     1      45.902  45.793  34.960  1.00  0.00     0.008 C 
BRANCH  45  46
ATOM     46  C   UNL     1      46.219  47.234  35.382  1.00  0.00     0.075 C 
BRANCH  46  47
ATOM     47  C   UNL     1      45.454  47.642  36.615  1.00  0.00     0.132 C 
ATOM     48  O   UNL     1      44.704  46.839  37.150  1.00  0.00    -0.300 OA
BRANCH  47  49
ATOM     49  C   UNL     1      45.606  49.020  37.204  1.00  0.00     0.072 C 
ATOM     50  C   UNL     1      44.813  49.144  38.505  1.00  0.00     0.012 C 
ENDBRANCH  47  49
ENDBRANCH  46  47
ENDBRANCH  45  46
ENDBRANCH  44  45
ENDBRANCH  43  44
ENDBRANCH   1  43
TORSDOF 12
ENDMDL
MODEL 4
REMARK VINA RESULT:    -4.794      1.353      1.734
REMARK INTER + INTRA:         -12.027
REMARK INTER:                  -9.978
REMARK INTRA:                  -2.049
REMARK UNBOUND:                -1.909
REMARK SMILES CCC(=O)CCCCC[C@@H]1NC(=O)[C@H]2CCCCN2C(=O)[C@H]([C@H](C)CC)NC(=O)[C@H](Cc2cn(OC)c3ccccc23)NC1=O
REMARK SMILES IDX 9 1 10 2 44 3 43 4 45 6 30 7 28 8 27 9 29 11 22 12 23 14
REMARK SMILES IDX 24 15 25 16 26 17 31 18 32 19 33 20 42 21 34 22 37 23 41 24
REMARK SMILES IDX 38 25 40 26 39 27 35 28 36 29 11 30 12 31 13 33 14 34 19 35
REMARK SMILES IDX 15 36 18 37 16 38 17 39 20 40 21 41 8 43 7 44 6 45 5 46 3 47
REMARK SMILES IDX 4 48 2 49 1 50
REMARK H PARENT 43 5 27 10 11 32
REMARK Flexibility Score: 80.00
ROOT
ATOM      1  C   UNL     1      49.211  43.660  35.349  1.00  0.00     0.035 C 
ENDROOT
BRANCH   1   2
ATOM      2  C   UNL     1      49.317  42.289  36.062  1.00  0.00     0.171 C 
BRANCH   2   3
ATOM      3  C   UNL     1      48.421  42.117  37.269  1.00  0.00     0.243 C 
ATOM      4  N   UNL     1      47.113  42.715  37.366  1.00  0.00    -0.342 N 
ATOM      5  H   UNL     1      46.760  43.343  36.610  1.00  0.00     0.164 HD
ATOM      6  O   UNL     1      48.838  41.385  38.210  1.00  0.00    -0.273 OA
BRANCH   4   7
ATOM      7  C   UNL     1      46.243  42.442  38.515  1.00  0.00     0.175 C 
BRANCH   7   8
ATOM      8  C   UNL     1      45.825  40.994  38.494  1.00  0.00     0.243 C 
ATOM      9  N   UNL     1      45.780  40.265  37.257  1.00  0.00    -0.342 N 
ATOM     10  H   UNL     1      45.722  40.800  36.361  1.00  0.00     0.164 HD
ATOM     11  O   UNL     1      45.537  40.421  39.579  1.00  0.00    -0.273 OA
BRANCH   9  12
ATOM     12  C   UNL     1      45.992  38.813  37.199  1.00  0.00     0.174 CG0
ATOM     13  G   UNL     1      47.447  38.519  36.907  1.00  0.00     0.000 G0
BRANCH  12  14
ATOM     14  C   UNL     1      45.021  38.124  36.194  1.00  0.00     0.018 C 
ATOM     15  C   UNL     1      43.707  38.904  35.986  1.00  0.00     0.010 C 
BRANCH  14  16
ATOM     16  C   UNL     1      44.739  36.669  36.645  1.00  0.00     0.002 C 
ATOM     17  C   UNL     1      45.445  36.292  37.949  1.00  0.00     0.004 C 
ENDBRANCH  14  16
ENDBRANCH  12  14
ENDBRANCH   9  12
ENDBRANCH   7   8
BRANCH   7  18
ATOM     18  C   UNL     1      45.026  43.385  38.521  1.00  0.00     0.073 C 
BRANCH  18  19
ATOM     19  C   UNL     1      45.437  44.793  38.846  1.00  0.00    -0.016 A 
ATOM     20  C   UNL     1      45.578  45.335  40.121  1.00  0.00     0.134 A 
ATOM     21  C   UNL     1      45.576  45.854  37.968  1.00  0.00     0.006 A 
ATOM     22  N   UNL     1      45.802  46.670  40.031  1.00  0.00    -0.191 N 
ATOM     23  C   UNL     1      45.794  46.979  38.723  1.00  0.00     0.087 A 
ATOM     24  C   UNL     1      45.510  45.908  36.576  1.00  0.00     0.011 A 
ATOM     25  C   UNL     1      45.945  48.237  38.141  1.00  0.00     0.030 A 
ATOM     26  C   UNL     1      45.662  47.163  35.957  1.00  0.00     0.001 A 
ATOM     27  C   UNL     1      45.878  48.321  36.736  1.00  0.00     0.002 A 
BRANCH  22  28
ATOM     28  O   UNL     1      45.976  47.571  41.065  1.00  0.00    -0.417 OA
ATOM     29  C   UNL     1      47.052  47.469  41.991  1.00  0.00     0.313 C 
ENDBRANCH  22  28
ENDBRANCH  18  19
ENDBRANCH   7  18
ENDBRANCH   4   7
ENDBRANCH   2   3
BRANCH   2  30
ATOM     30  N   UNL     1      49.134  41.159  35.141  1.00  0.00    -0.343 N 
ATOM     31  C   UNL     1      47.855  40.562  34.841  1.00  0.00     0.243 C 
ATOM     32  H   UNL     1      50.003  40.764  34.722  1.00  0.00     0.164 HD
ATOM     33  O   UNL     1      46.824  41.287  34.855  1.00  0.00    -0.273 OA
BRANCH  31  34
ATOM     34  C   UNL     1      47.703  39.089  34.456  1.00  0.00     0.174 C 
ATOM     35  N   UNL     1      47.960  38.179  35.602  1.00  0.00    -0.329 N 
ATOM     36  C   UNL     1      48.600  38.714  33.256  1.00  0.00     0.035 C 
ATOM     37  C   UNL     1      48.065  36.731  35.352  1.00  0.00     0.120 C 
ATOM     38  C   UNL     1      48.518  37.224  32.940  1.00  0.00     0.004 C 
ATOM     39  C   UNL     1      48.964  36.422  34.156  1.00  0.00     0.022 C 
BRANCH  35  40
ATOM     40  C   UNL     1      47.480  38.523  36.913  1.00  0.00     0.246 CG0
ATOM     41  O   UNL     1      48.292  38.575  37.876  1.00  0.00    -0.272 OA
ATOM     42  G   UNL     1      46.011  38.809  37.133  1.00  0.00     0.000 G0
ENDBRANCH  35  40
ENDBRANCH  31  34
ENDBRANCH   2  30
ENDBRANCH   1   2
BRANCH   1  43
ATOM     43  C   UNL     1      49.992  44.786  36.051  1.00  0.00     0.003 C 
BRANCH  43  44
ATOM     44  C   UNL     1      49.134  46.025  36.344  1.00  0.00     0.001 C 
BRANCH  44  45
ATOM     45  C   UNL     1      49.986  47.303  36.323  1.00  0.00     0.008 C 
BRANCH  45  46
ATOM     46  C   UNL     1      49.632  48.260  37.468  1.00  0.00     0.075 C 
BRANCH  46  47
ATOM     47  C   UNL     1      49.625  49.699  37.021  1.00  0.00     0.132 C 
ATOM     48  O   UNL     1      49.780  49.961  35.838  1.00  0.00    -0.300 OA
BRANCH  47  49
ATOM     49  C   UNL     1      49.422  50.819  38.007  1.00  0.00     0.072 C 
ATOM     50  C   UNL     1      49.826  52.160  37.395  1.00  0.00     0.012 C 
ENDBRANCH  47  49
ENDBRANCH  46  47
ENDBRANCH  45  46
ENDBRANCH  44  45
ENDBRANCH  43  44
ENDBRANCH   1  43
TORSDOF 12
ENDMDL
MODEL 5
REMARK VINA RESULT:    -4.288      2.140      6.550
REMARK INTER + INTRA:         -10.960
REMARK INTER:                  -8.582
REMARK INTRA:                  -2.378
REMARK UNBOUND:                -1.909
REMARK SMILES CCC(=O)CCCCC[C@@H]1NC(=O)[C@H]2CCCCN2C(=O)[C@H]([C@H](C)CC)NC(=O)[C@H](Cc2cn(OC)c3ccccc23)NC1=O
REMARK SMILES IDX 9 1 10 2 44 3 43 4 45 6 30 7 28 8 27 9 29 11 22 12 23 14
REMARK SMILES IDX 24 15 25 16 26 17 31 18 32 19 33 20 42 21 34 22 37 23 41 24
REMARK SMILES IDX 38 25 40 26 39 27 35 28 36 29 11 30 12 31 13 33 14 34 19 35
REMARK SMILES IDX 15 36 18 37 16 38 17 39 20 40 21 41 8 43 7 44 6 45 5 46 3 47
REMARK SMILES IDX 4 48 2 49 1 50
REMARK H PARENT 43 5 27 10 11 32
REMARK Flexibility Score: 80.00
ROOT
ATOM      1  C   UNL     1      45.422  44.448  39.177  1.00  0.00     0.035 C 
ENDROOT
BRANCH   1   2
ATOM      2  C   UNL     1      46.828  44.043  38.668  1.00  0.00     0.171 C 
BRANCH   2   3
ATOM      3  C   UNL     1      47.247  42.625  38.988  1.00  0.00     0.243 C 
ATOM      4  N   UNL     1      46.326  41.516  38.988  1.00  0.00    -0.342 N 
ATOM      5  H   UNL     1      45.308  41.672  38.813  1.00  0.00     0.164 HD
ATOM      6  O   UNL     1      48.469  42.415  39.230  1.00  0.00    -0.273 OA
BRANCH   4   7
ATOM      7  C   UNL     1      46.798  40.145  39.210  1.00  0.00     0.175 C 
BRANCH   7   8
ATOM      8  C   UNL     1      47.673  39.723  38.058  1.00  0.00     0.243 C 
ATOM      9  N   UNL     1      47.455  40.254  36.741  1.00  0.00    -0.342 N 
ATOM     10  H   UNL     1      46.522  40.669  36.516  1.00  0.00     0.164 HD
ATOM     11  O   UNL     1      48.616  38.913  38.267  1.00  0.00    -0.273 OA
BRANCH   9  12
ATOM     12  C   UNL     1      48.544  40.398  35.768  1.00  0.00     0.174 CG0
ATOM     13  G   UNL     1      49.171  41.769  35.899  1.00  0.00     0.000 G0
BRANCH  12  14
ATOM     14  C   UNL     1      48.071  40.085  34.317  1.00  0.00     0.018 C 
ATOM     15  C   UNL     1      46.602  39.622  34.243  1.00  0.00     0.010 C 
BRANCH  14  16
ATOM     16  C   UNL     1      49.016  39.042  33.668  1.00  0.00     0.002 C 
ATOM     17  C   UNL     1      48.371  37.665  33.495  1.00  0.00     0.004 C 
ENDBRANCH  14  16
ENDBRANCH  12  14
ENDBRANCH   9  12
ENDBRANCH   7   8
BRANCH   7  18
ATOM     18  C   UNL     1      45.614  39.181  39.409  1.00  0.00     0.073 C 
BRANCH  18  19
ATOM     19  C   UNL     1      44.874  38.963  38.121  1.00  0.00    -0.016 A 
ATOM     20  C   UNL     1      43.740  39.652  37.697  1.00  0.00     0.134 A 
ATOM     21  C   UNL     1      45.057  37.940  37.207  1.00  0.00     0.006 A 
ATOM     22  N   UNL     1      43.252  39.082  36.567  1.00  0.00    -0.191 N 
ATOM     23  C   UNL     1      44.051  38.041  36.278  1.00  0.00     0.087 A 
ATOM     24  C   UNL     1      46.016  36.930  37.139  1.00  0.00     0.011 A 
ATOM     25  C   UNL     1      43.926  37.132  35.228  1.00  0.00     0.030 A 
ATOM     26  C   UNL     1      45.919  35.998  36.089  1.00  0.00     0.001 A 
ATOM     27  C   UNL     1      44.879  36.099  35.139  1.00  0.00     0.002 A 
BRANCH  22  28
ATOM     28  O   UNL     1      42.132  39.455  35.846  1.00  0.00    -0.417 OA
ATOM     29  C   UNL     1      40.849  38.889  36.086  1.00  0.00     0.313 C 
ENDBRANCH  22  28
ENDBRANCH  18  19
ENDBRANCH   7  18
ENDBRANCH   4   7
ENDBRANCH   2   3
BRANCH   2  30
ATOM     30  N   UNL     1      47.004  44.303  37.233  1.00  0.00    -0.343 N 
ATOM     31  C   UNL     1      46.738  43.332  36.199  1.00  0.00     0.243 C 
ATOM     32  H   UNL     1      47.379  45.242  36.980  1.00  0.00     0.164 HD
ATOM     33  O   UNL     1      45.827  42.480  36.382  1.00  0.00    -0.273 OA
BRANCH  31  34
ATOM     34  C   UNL     1      47.483  43.326  34.863  1.00  0.00     0.174 C 
ATOM     35  N   UNL     1      48.893  42.877  35.009  1.00  0.00    -0.329 N 
ATOM     36  C   UNL     1      47.423  44.702  34.165  1.00  0.00     0.035 C 
ATOM     37  C   UNL     1      49.806  43.016  33.862  1.00  0.00     0.120 C 
ATOM     38  C   UNL     1      48.250  44.715  32.883  1.00  0.00     0.004 C 
ATOM     39  C   UNL     1      49.703  44.395  33.213  1.00  0.00     0.022 C 
BRANCH  35  40
ATOM     40  C   UNL     1      49.213  41.792  35.896  1.00  0.00     0.246 CG0
ATOM     41  O   UNL     1      50.065  41.967  36.807  1.00  0.00    -0.272 OA
ATOM     42  G   UNL     1      48.536  40.449  35.728  1.00  0.00     0.000 G0
ENDBRANCH  35  40
ENDBRANCH  31  34
ENDBRANCH   2  30
ENDBRANCH   1   2
BRANCH   1  43
ATOM     43  C   UNL     1      45.337  45.903  39.672  1.00  0.00     0.003 C 
BRANCH  43  44
ATOM     44  C   UNL     1      46.685  46.454  40.163  1.00  0.00     0.001 C 
BRANCH  44  45
ATOM     45  C   UNL     1      46.808  47.956  39.864  1.00  0.00     0.008 C 
BRANCH  45  46
ATOM     46  C   UNL     1      47.761  48.243  38.697  1.00  0.00     0.075 C 
BRANCH  46  47
ATOM     47  C   UNL     1      47.056  48.195  37.366  1.00  0.00     0.132 C 
ATOM     48  O   UNL     1      47.097  47.171  36.700  1.00  0.00    -0.300 OA
BRANCH  47  49
ATOM     49  C   UNL     1      46.293  49.385  36.846  1.00  0.00     0.072 C 
ATOM     50  C   UNL     1      44.930  49.495  37.527  1.00  0.00     0.012 C 
ENDBRANCH  47  49
ENDBRANCH  46  47
ENDBRANCH  45  46
ENDBRANCH  44  45
ENDBRANCH  43  44
ENDBRANCH   1  43
TORSDOF 12
ENDMDL
MODEL 6
REMARK VINA RESULT:    -4.124      2.617      8.620
REMARK INTER + INTRA:         -10.613
REMARK INTER:                  -9.399
REMARK INTRA:                  -1.214
REMARK UNBOUND:                -1.909
REMARK SMILES CCC(=O)CCCCC[C@@H]1NC(=O)[C@H]2CCCCN2C(=O)[C@H]([C@H](C)CC)NC(=O)[C@H](Cc2cn(OC)c3ccccc23)NC1=O
REMARK SMILES IDX 9 1 10 2 44 3 43 4 45 6 30 7 28 8 27 9 29 11 22 12 23 14
REMARK SMILES IDX 24 15 25 16 26 17 31 18 32 19 33 20 42 21 34 22 37 23 41 24
REMARK SMILES IDX 38 25 40 26 39 27 35 28 36 29 11 30 12 31 13 33 14 34 19 35
REMARK SMILES IDX 15 36 18 37 16 38 17 39 20 40 21 41 8 43 7 44 6 45 5 46 3 47
REMARK SMILES IDX 4 48 2 49 1 50
REMARK H PARENT 43 5 27 10 11 32
REMARK Flexibility Score: 80.00
ROOT
ATOM      1  C   UNL     1      49.320  43.961  35.294  1.00  0.00     0.035 C 
ENDROOT
BRANCH   1   2
ATOM      2  C   UNL     1      47.991  44.750  35.188  1.00  0.00     0.171 C 
BRANCH   2   3
ATOM      3  C   UNL     1      46.862  44.232  36.052  1.00  0.00     0.243 C 
ATOM      4  N   UNL     1      47.080  43.528  37.290  1.00  0.00    -0.342 N 
ATOM      5  H   UNL     1      48.050  43.303  37.608  1.00  0.00     0.164 HD
ATOM      6  O   UNL     1      45.680  44.467  35.673  1.00  0.00    -0.273 OA
BRANCH   4   7
ATOM      7  C   UNL     1      45.953  43.130  38.139  1.00  0.00     0.175 C 
BRANCH   7   8
ATOM      8  C   UNL     1      45.671  44.220  39.141  1.00  0.00     0.243 C 
ATOM      9  N   UNL     1      46.721  45.095  39.585  1.00  0.00    -0.342 N 
ATOM     10  H   UNL     1      47.713  44.786  39.470  1.00  0.00     0.164 HD
ATOM     11  O   UNL     1      44.495  44.373  39.570  1.00  0.00    -0.273 OA
BRANCH   9  12
ATOM     12  C   UNL     1      46.458  46.471  40.024  1.00  0.00     0.174 CG0
ATOM     13  G   UNL     1      47.512  47.399  39.461  1.00  0.00     0.000 G0
BRANCH  12  14
ATOM     14  C   UNL     1      46.326  46.571  41.573  1.00  0.00     0.018 C 
ATOM     15  C   UNL     1      44.881  46.376  42.075  1.00  0.00     0.010 C 
BRANCH  14  16
ATOM     16  C   UNL     1      46.909  47.919  42.066  1.00  0.00     0.002 C 
ATOM     17  C   UNL     1      47.500  47.845  43.475  1.00  0.00     0.004 C 
ENDBRANCH  14  16
ENDBRANCH  12  14
ENDBRANCH   9  12
ENDBRANCH   7   8
BRANCH   7  18
ATOM     18  C   UNL     1      46.233  41.782  38.829  1.00  0.00     0.073 C 
BRANCH  18  19
ATOM     19  C   UNL     1      45.649  40.643  38.044  1.00  0.00    -0.016 A 
ATOM     20  C   UNL     1      44.413  40.636  37.400  1.00  0.00     0.134 A 
ATOM     21  C   UNL     1      46.126  39.347  37.958  1.00  0.00     0.006 A 
ATOM     22  N   UNL     1      44.146  39.391  36.931  1.00  0.00    -0.191 N 
ATOM     23  C   UNL     1      45.186  38.613  37.278  1.00  0.00     0.087 A 
ATOM     24  C   UNL     1      47.299  38.766  38.440  1.00  0.00     0.011 A 
ATOM     25  C   UNL     1      45.346  37.247  37.047  1.00  0.00     0.030 A 
ATOM     26  C   UNL     1      47.492  37.390  38.220  1.00  0.00     0.001 A 
ATOM     27  C   UNL     1      46.520  36.635  37.527  1.00  0.00     0.002 A 
BRANCH  22  28
ATOM     28  O   UNL     1      43.018  38.965  36.255  1.00  0.00    -0.417 OA
ATOM     29  C   UNL     1      41.768  39.637  36.360  1.00  0.00     0.313 C 
ENDBRANCH  22  28
ENDBRANCH  18  19
ENDBRANCH   7  18
ENDBRANCH   4   7
ENDBRANCH   2   3
BRANCH   2  30
ATOM     30  N   UNL     1      48.172  46.190  35.414  1.00  0.00    -0.343 N 
ATOM     31  C   UNL     1      48.426  46.778  36.707  1.00  0.00     0.243 C 
ATOM     32  H   UNL     1      48.068  46.802  34.576  1.00  0.00     0.164 HD
ATOM     33  O   UNL     1      49.074  46.115  37.562  1.00  0.00    -0.273 OA
BRANCH  31  34
ATOM     34  C   UNL     1      47.985  48.197  37.068  1.00  0.00     0.174 C 
ATOM     35  N   UNL     1      47.162  48.232  38.304  1.00  0.00    -0.329 N 
ATOM     36  C   UNL     1      47.238  48.881  35.902  1.00  0.00     0.035 C 
ATOM     37  C   UNL     1      46.481  49.486  38.672  1.00  0.00     0.120 C 
ATOM     38  C   UNL     1      46.716  50.257  36.302  1.00  0.00     0.004 C 
ATOM     39  C   UNL     1      45.761  50.115  37.481  1.00  0.00     0.022 C 
BRANCH  35  40
ATOM     40  C   UNL     1      47.507  47.394  39.421  1.00  0.00     0.246 CG0
ATOM     41  O   UNL     1      48.673  47.445  39.897  1.00  0.00    -0.272 OA
ATOM     42  G   UNL     1      46.480  46.452  40.008  1.00  0.00     0.000 G0
ENDBRANCH  35  40
ENDBRANCH  31  34
ENDBRANCH   2  30
ENDBRANCH   1   2
BRANCH   1  43
ATOM     43  C   UNL     1      49.641  43.116  34.047  1.00  0.00     0.003 C 
BRANCH  43  44
ATOM     44  C   UNL     1      49.836  41.625  34.360  1.00  0.00     0.001 C 
BRANCH  44  45
ATOM     45  C   UNL     1      48.807  41.140  35.392  1.00  0.00     0.008 C 
BRANCH  45  46
ATOM     46  C   UNL     1      48.698  39.610  35.433  1.00  0.00     0.075 C 
BRANCH  46  47
ATOM     47  C   UNL     1      47.629  39.094  34.504  1.00  0.00     0.132 C 
ATOM     48  O   UNL     1      46.547  39.661  34.460  1.00  0.00    -0.300 OA
BRANCH  47  49
ATOM     49  C   UNL     1      47.875  37.898  33.623  1.00  0.00     0.072 C 
ATOM     50  C   UNL     1      49.209  38.030  32.888  1.00  0.00     0.012 C 
ENDBRANCH  47  49
ENDBRANCH  46  47
ENDBRANCH  45  46
ENDBRANCH  44  45
ENDBRANCH  43  44
ENDBRANCH   1  43
TORSDOF 12
ENDMDL
MODEL 7
REMARK VINA RESULT:    -3.849      2.925      8.335
REMARK INTER + INTRA:         -10.033
REMARK INTER:                  -9.769
REMARK INTRA:                  -0.264
REMARK UNBOUND:                -1.909
REMARK SMILES CCC(=O)CCCCC[C@@H]1NC(=O)[C@H]2CCCCN2C(=O)[C@H]([C@H](C)CC)NC(=O)[C@H](Cc2cn(OC)c3ccccc23)NC1=O
REMARK SMILES IDX 9 1 10 2 44 3 43 4 45 6 30 7 28 8 27 9 29 11 22 12 23 14
REMARK SMILES IDX 24 15 25 16 26 17 31 18 32 19 33 20 42 21 34 22 37 23 41 24
REMARK SMILES IDX 38 25 40 26 39 27 35 28 36 29 11 30 12 31 13 33 14 34 19 35
REMARK SMILES IDX 15 36 18 37 16 38 17 39 20 40 21 41 8 43 7 44 6 45 5 46 3 47
REMARK SMILES IDX 4 48 2 49 1 50
REMARK H PARENT 43 5 27 10 11 32
REMARK Flexibility Score: 80.00
ROOT
ATOM      1  C   UNL     1      46.954  44.539  34.497  1.00  0.00     0.035 C 
ENDROOT
BRANCH   1   2
ATOM      2  C   UNL     1      46.246  45.715  35.215  1.00  0.00     0.171 C 
BRANCH   2   3
ATOM      3  C   UNL     1      45.611  45.372  36.545  1.00  0.00     0.243 C 
ATOM      4  N   UNL     1      45.747  44.080  37.169  1.00  0.00    -0.342 N 
ATOM      5  H   UNL     1      46.257  43.308  36.683  1.00  0.00     0.164 HD
ATOM      6  O   UNL     1      44.966  46.281  37.138  1.00  0.00    -0.273 OA
BRANCH   4   7
ATOM      7  C   UNL     1      45.194  43.826  38.503  1.00  0.00     0.175 C 
BRANCH   7   8
ATOM      8  C   UNL     1      45.422  45.032  39.378  1.00  0.00     0.243 C 
ATOM      9  N   UNL     1      46.755  45.457  39.704  1.00  0.00    -0.342 N 
ATOM     10  H   UNL     1      47.537  44.770  39.610  1.00  0.00     0.164 HD
ATOM     11  O   UNL     1      44.427  45.679  39.805  1.00  0.00    -0.273 OA
BRANCH   9  12
ATOM     12  C   UNL     1      47.078  46.861  39.987  1.00  0.00     0.174 CG0
ATOM     13  G   UNL     1      48.308  47.271  39.208  1.00  0.00     0.000 G0
BRANCH  12  14
ATOM     14  C   UNL     1      47.213  47.128  41.516  1.00  0.00     0.018 C 
ATOM     15  C   UNL     1      45.933  46.790  42.308  1.00  0.00     0.010 C 
BRANCH  14  16
ATOM     16  C   UNL     1      47.646  48.596  41.759  1.00  0.00     0.002 C 
ATOM     17  C   UNL     1      48.640  48.751  42.912  1.00  0.00     0.004 C 
ENDBRANCH  14  16
ENDBRANCH  12  14
ENDBRANCH   9  12
ENDBRANCH   7   8
BRANCH   7  18
ATOM     18  C   UNL     1      45.803  42.553  39.119  1.00  0.00     0.073 C 
BRANCH  18  19
ATOM     19  C   UNL     1      45.472  41.343  38.292  1.00  0.00    -0.016 A 
ATOM     20  C   UNL     1      44.293  41.130  37.582  1.00  0.00     0.134 A 
ATOM     21  C   UNL     1      46.175  40.153  38.222  1.00  0.00     0.006 A 
ATOM     22  N   UNL     1      44.275  39.866  37.089  1.00  0.00    -0.191 N 
ATOM     23  C   UNL     1      45.416  39.277  37.486  1.00  0.00     0.087 A 
ATOM     24  C   UNL     1      47.405  39.780  38.762  1.00  0.00     0.011 A 
ATOM     25  C   UNL     1      45.828  37.965  37.252  1.00  0.00     0.030 A 
ATOM     26  C   UNL     1      47.851  38.463  38.541  1.00  0.00     0.001 A 
ATOM     27  C   UNL     1      47.065  37.561  37.790  1.00  0.00     0.002 A 
BRANCH  22  28
ATOM     28  O   UNL     1      43.278  39.260  36.347  1.00  0.00    -0.417 OA
ATOM     29  C   UNL     1      41.908  39.621  36.477  1.00  0.00     0.313 C 
ENDBRANCH  22  28
ENDBRANCH  18  19
ENDBRANCH   7  18
ENDBRANCH   4   7
ENDBRANCH   2   3
BRANCH   2  30
ATOM     30  N   UNL     1      47.116  46.889  35.366  1.00  0.00    -0.343 N 
ATOM     31  C   UNL     1      48.238  46.950  36.272  1.00  0.00     0.243 C 
ATOM     32  H   UNL     1      46.860  47.725  34.797  1.00  0.00     0.164 HD
ATOM     33  O   UNL     1      48.879  45.894  36.521  1.00  0.00    -0.273 OA
BRANCH  31  34
ATOM     34  C   UNL     1      48.715  48.258  36.905  1.00  0.00     0.174 C 
ATOM     35  N   UNL     1      48.275  48.391  38.318  1.00  0.00    -0.329 N 
ATOM     36  C   UNL     1      48.274  49.489  36.083  1.00  0.00     0.035 C 
ATOM     37  C   UNL     1      48.467  49.680  39.005  1.00  0.00     0.120 C 
ATOM     38  C   UNL     1      48.668  50.792  36.772  1.00  0.00     0.004 C 
ATOM     39  C   UNL     1      48.012  50.859  38.146  1.00  0.00     0.022 C 
BRANCH  35  40
ATOM     40  C   UNL     1      48.294  47.245  39.187  1.00  0.00     0.246 CG0
ATOM     41  O   UNL     1      49.342  46.551  39.273  1.00  0.00    -0.272 OA
ATOM     42  G   UNL     1      47.061  46.874  39.980  1.00  0.00     0.000 G0
ENDBRANCH  35  40
ENDBRANCH  31  34
ENDBRANCH   2  30
ENDBRANCH   1   2
BRANCH   1  43
ATOM     43  C   UNL     1      47.462  44.889  33.087  1.00  0.00     0.003 C 
BRANCH  43  44
ATOM     44  C   UNL     1      48.981  44.721  32.933  1.00  0.00     0.001 C 
BRANCH  44  45
ATOM     45  C   UNL     1      49.413  43.284  33.259  1.00  0.00     0.008 C 
BRANCH  45  46
ATOM     46  C   UNL     1      50.123  43.181  34.615  1.00  0.00     0.075 C 
BRANCH  46  47
ATOM     47  C   UNL     1      49.887  41.848  35.277  1.00  0.00     0.132 C 
ATOM     48  O   UNL     1      49.577  40.884  34.592  1.00  0.00    -0.300 OA
BRANCH  47  49
ATOM     49  C   UNL     1      50.037  41.681  36.766  1.00  0.00     0.072 C 
ATOM     50  C   UNL     1      49.263  42.766  37.513  1.00  0.00     0.012 C 
ENDBRANCH  47  49
ENDBRANCH  46  47
ENDBRANCH  45  46
ENDBRANCH  44  45
ENDBRANCH  43  44
ENDBRANCH   1  43
TORSDOF 12
ENDMDL
MODEL 8
REMARK VINA RESULT:    -3.537      2.063      5.252
REMARK INTER + INTRA:          -9.375
REMARK INTER:                  -8.714
REMARK INTRA:                  -0.661
REMARK UNBOUND:                -1.909
REMARK SMILES CCC(=O)CCCCC[C@@H]1NC(=O)[C@H]2CCCCN2C(=O)[C@H]([C@H](C)CC)NC(=O)[C@H](Cc2cn(OC)c3ccccc23)NC1=O
REMARK SMILES IDX 9 1 10 2 44 3 43 4 45 6 30 7 28 8 27 9 29 11 22 12 23 14
REMARK SMILES IDX 24 15 25 16 26 17 31 18 32 19 33 20 42 21 34 22 37 23 41 24
REMARK SMILES IDX 38 25 40 26 39 27 35 28 36 29 11 30 12 31 13 33 14 34 19 35
REMARK SMILES IDX 15 36 18 37 16 38 17 39 20 40 21 41 8 43 7 44 6 45 5 46 3 47
REMARK SMILES IDX 4 48 2 49 1 50
REMARK H PARENT 43 5 27 10 11 32
REMARK Flexibility Score: 80.00
ROOT
ATOM      1  C   UNL     1      43.190  41.655  40.229  1.00  0.00     0.035 C 
ENDROOT
BRANCH   1   2
ATOM      2  C   UNL     1      43.623  41.199  38.814  1.00  0.00     0.171 C 
BRANCH   2   3
ATOM      3  C   UNL     1      44.502  42.175  38.062  1.00  0.00     0.243 C 
ATOM      4  N   UNL     1      45.123  43.314  38.688  1.00  0.00    -0.342 N 
ATOM      5  H   UNL     1      44.937  43.534  39.693  1.00  0.00     0.164 HD
ATOM      6  O   UNL     1      44.719  41.946  36.839  1.00  0.00    -0.273 OA
BRANCH   4   7
ATOM      7  C   UNL     1      46.043  44.177  37.940  1.00  0.00     0.175 C 
BRANCH   7   8
ATOM      8  C   UNL     1      46.792  43.351  36.926  1.00  0.00     0.243 C 
ATOM      9  N   UNL     1      47.756  42.373  37.349  1.00  0.00    -0.342 N 
ATOM     10  H   UNL     1      48.165  42.453  38.307  1.00  0.00     0.164 HD
ATOM     11  O   UNL     1      46.547  43.511  35.700  1.00  0.00    -0.273 OA
BRANCH   9  12
ATOM     12  C   UNL     1      48.047  41.172  36.556  1.00  0.00     0.174 CG0
ATOM     13  G   UNL     1      48.151  39.969  37.468  1.00  0.00     0.000 G0
BRANCH  12  14
ATOM     14  C   UNL     1      49.306  41.361  35.657  1.00  0.00     0.018 C 
ATOM     15  C   UNL     1      50.044  42.690  35.916  1.00  0.00     0.010 C 
BRANCH  14  16
ATOM     16  C   UNL     1      48.913  41.225  34.165  1.00  0.00     0.002 C 
ATOM     17  C   UNL     1      49.067  39.801  33.625  1.00  0.00     0.004 C 
ENDBRANCH  14  16
ENDBRANCH  12  14
ENDBRANCH   9  12
ENDBRANCH   7   8
BRANCH   7  18
ATOM     18  C   UNL     1      47.002  44.917  38.891  1.00  0.00     0.073 C 
BRANCH  18  19
ATOM     19  C   UNL     1      47.332  46.285  38.367  1.00  0.00    -0.016 A 
ATOM     20  C   UNL     1      48.610  46.805  38.173  1.00  0.00     0.134 A 
ATOM     21  C   UNL     1      46.460  47.338  38.150  1.00  0.00     0.006 A 
ATOM     22  N   UNL     1      48.527  48.118  37.843  1.00  0.00    -0.191 N 
ATOM     23  C   UNL     1      47.221  48.436  37.838  1.00  0.00     0.087 A 
ATOM     24  C   UNL     1      45.069  47.407  38.223  1.00  0.00     0.011 A 
ATOM     25  C   UNL     1      46.645  49.683  37.591  1.00  0.00     0.030 A 
ATOM     26  C   UNL     1      44.458  48.650  37.977  1.00  0.00     0.001 A 
ATOM     27  C   UNL     1      45.242  49.782  37.663  1.00  0.00     0.002 A 
BRANCH  22  28
ATOM     28  O   UNL     1      49.565  48.995  37.590  1.00  0.00    -0.417 OA
ATOM     29  C   UNL     1      49.704  49.670  36.345  1.00  0.00     0.313 C 
ENDBRANCH  22  28
ENDBRANCH  18  19
ENDBRANCH   7  18
ENDBRANCH   4   7
ENDBRANCH   2   3
BRANCH   2  30
ATOM     30  N   UNL     1      44.245  39.868  38.816  1.00  0.00    -0.343 N 
ATOM     31  C   UNL     1      45.665  39.642  38.944  1.00  0.00     0.243 C 
ATOM     32  H   UNL     1      43.600  39.061  38.679  1.00  0.00     0.164 HD
ATOM     33  O   UNL     1      46.353  40.448  39.626  1.00  0.00    -0.273 OA
BRANCH  31  34
ATOM     34  C   UNL     1      46.364  38.430  38.326  1.00  0.00     0.174 C 
ATOM     35  N   UNL     1      47.342  38.820  37.278  1.00  0.00    -0.329 N 
ATOM     36  C   UNL     1      45.352  37.406  37.766  1.00  0.00     0.035 C 
ATOM     37  C   UNL     1      47.944  37.770  36.438  1.00  0.00     0.120 C 
ATOM     38  C   UNL     1      46.057  36.249  37.065  1.00  0.00     0.004 C 
ATOM     39  C   UNL     1      46.897  36.788  35.913  1.00  0.00     0.022 C 
BRANCH  35  40
ATOM     40  C   UNL     1      48.174  39.978  37.467  1.00  0.00     0.246 CG0
ATOM     41  O   UNL     1      49.021  39.987  38.399  1.00  0.00    -0.272 OA
ATOM     42  G   UNL     1      48.021  41.178  36.559  1.00  0.00     0.000 G0
ENDBRANCH  35  40
ENDBRANCH  31  34
ENDBRANCH   2  30
ENDBRANCH   1   2
BRANCH   1  43
ATOM     43  C   UNL     1      42.178  42.815  40.224  1.00  0.00     0.003 C 
BRANCH  43  44
ATOM     44  C   UNL     1      42.253  43.689  41.486  1.00  0.00     0.001 C 
BRANCH  44  45
ATOM     45  C   UNL     1      42.564  45.149  41.127  1.00  0.00     0.008 C 
BRANCH  45  46
ATOM     46  C   UNL     1      44.048  45.368  40.804  1.00  0.00     0.075 C 
BRANCH  46  47
ATOM     47  C   UNL     1      44.749  46.158  41.879  1.00  0.00     0.132 C 
ATOM     48  O   UNL     1      44.416  46.013  43.046  1.00  0.00    -0.300 OA
BRANCH  47  49
ATOM     49  C   UNL     1      45.860  47.116  41.540  1.00  0.00     0.072 C 
ATOM     50  C   UNL     1      46.795  47.306  42.734  1.00  0.00     0.012 C 
ENDBRANCH  47  49
ENDBRANCH  46  47
ENDBRANCH  45  46
ENDBRANCH  44  45
ENDBRANCH  43  44
ENDBRANCH   1  43
TORSDOF 12
ENDMDL
MODEL 9
REMARK VINA RESULT:    -3.500      2.984      6.771
REMARK INTER + INTRA:          -9.296
REMARK INTER:                  -9.567
REMARK INTRA:                   0.270
REMARK UNBOUND:                -1.909
REMARK SMILES CCC(=O)CCCCC[C@@H]1NC(=O)[C@H]2CCCCN2C(=O)[C@H]([C@H](C)CC)NC(=O)[C@H](Cc2cn(OC)c3ccccc23)NC1=O
REMARK SMILES IDX 9 1 10 2 44 3 43 4 45 6 30 7 28 8 27 9 29 11 22 12 23 14
REMARK SMILES IDX 24 15 25 16 26 17 31 18 32 19 33 20 42 21 34 22 37 23 41 24
REMARK SMILES IDX 38 25 40 26 39 27 35 28 36 29 11 30 12 31 13 33 14 34 19 35
REMARK SMILES IDX 15 36 18 37 16 38 17 39 20 40 21 41 8 43 7 44 6 45 5 46 3 47
REMARK SMILES IDX 4 48 2 49 1 50
REMARK H PARENT 43 5 27 10 11 32
REMARK Flexibility Score: 80.00
ROOT
ATOM      1  C   UNL     1      42.307  39.614  37.518  1.00  0.00     0.035 C 
ENDROOT
BRANCH   1   2
ATOM      2  C   UNL     1      43.449  39.568  36.472  1.00  0.00     0.171 C 
BRANCH   2   3
ATOM      3  C   UNL     1      44.391  40.752  36.494  1.00  0.00     0.243 C 
ATOM      4  N   UNL     1      44.351  41.768  37.514  1.00  0.00    -0.342 N 
ATOM      5  H   UNL     1      43.618  41.744  38.258  1.00  0.00     0.164 HD
ATOM      6  O   UNL     1      45.269  40.819  35.588  1.00  0.00    -0.273 OA
BRANCH   4   7
ATOM      7  C   UNL     1      45.347  42.845  37.546  1.00  0.00     0.175 C 
BRANCH   7   8
ATOM      8  C   UNL     1      46.643  42.346  36.960  1.00  0.00     0.243 C 
ATOM      9  N   UNL     1      47.408  41.335  37.635  1.00  0.00    -0.342 N 
ATOM     10  H   UNL     1      47.246  41.181  38.656  1.00  0.00     0.164 HD
ATOM     11  O   UNL     1      47.038  42.809  35.856  1.00  0.00    -0.273 OA
BRANCH   9  12
ATOM     12  C   UNL     1      48.273  40.396  36.909  1.00  0.00     0.174 CG0
ATOM     13  G   UNL     1      48.163  39.018  37.523  1.00  0.00     0.000 G0
BRANCH  12  14
ATOM     14  C   UNL     1      49.743  40.907  36.827  1.00  0.00     0.018 C 
ATOM     15  C   UNL     1      50.125  41.851  37.985  1.00  0.00     0.010 C 
BRANCH  14  16
ATOM     16  C   UNL     1      49.991  41.582  35.455  1.00  0.00     0.002 C 
ATOM     17  C   UNL     1      49.437  40.779  34.276  1.00  0.00     0.004 C 
ENDBRANCH  14  16
ENDBRANCH  12  14
ENDBRANCH   9  12
ENDBRANCH   7   8
BRANCH   7  18
ATOM     18  C   UNL     1      45.537  43.378  38.978  1.00  0.00     0.073 C 
BRANCH  18  19
ATOM     19  C   UNL     1      45.814  44.854  38.971  1.00  0.00    -0.016 A 
ATOM     20  C   UNL     1      44.867  45.869  39.085  1.00  0.00     0.134 A 
ATOM     21  C   UNL     1      47.010  45.485  38.674  1.00  0.00     0.006 A 
ATOM     22  N   UNL     1      45.457  47.073  38.876  1.00  0.00    -0.191 N 
ATOM     23  C   UNL     1      46.754  46.833  38.622  1.00  0.00     0.087 A 
ATOM     24  C   UNL     1      48.284  44.972  38.433  1.00  0.00     0.011 A 
ATOM     25  C   UNL     1      47.750  47.758  38.310  1.00  0.00     0.030 A 
ATOM     26  C   UNL     1      49.312  45.881  38.120  1.00  0.00     0.001 A 
ATOM     27  C   UNL     1      49.046  47.266  38.058  1.00  0.00     0.002 A 
BRANCH  22  28
ATOM     28  O   UNL     1      44.860  48.320  38.883  1.00  0.00    -0.417 OA
ATOM     29  C   UNL     1      44.159  48.835  37.757  1.00  0.00     0.313 C 
ENDBRANCH  22  28
ENDBRANCH  18  19
ENDBRANCH   7  18
ENDBRANCH   4   7
ENDBRANCH   2   3
BRANCH   2  30
ATOM     30  N   UNL     1      44.218  38.318  36.532  1.00  0.00    -0.343 N 
ATOM     31  C   UNL     1      45.373  38.122  37.374  1.00  0.00     0.243 C 
ATOM     32  H   UNL     1      43.907  37.558  35.889  1.00  0.00     0.164 HD
ATOM     33  O   UNL     1      45.434  38.727  38.478  1.00  0.00    -0.273 OA
BRANCH  31  34
ATOM     34  C   UNL     1      46.509  37.166  37.004  1.00  0.00     0.174 C 
ATOM     35  N   UNL     1      47.777  37.884  36.717  1.00  0.00    -0.329 N 
ATOM     36  C   UNL     1      46.127  36.249  35.822  1.00  0.00     0.035 C 
ATOM     37  C   UNL     1      48.906  37.134  36.141  1.00  0.00     0.120 C 
ATOM     38  C   UNL     1      47.296  35.368  35.396  1.00  0.00     0.004 C 
ATOM     39  C   UNL     1      48.468  36.247  34.977  1.00  0.00     0.022 C 
BRANCH  35  40
ATOM     40  C   UNL     1      48.161  39.013  37.522  1.00  0.00     0.246 CG0
ATOM     41  O   UNL     1      48.416  38.844  38.744  1.00  0.00    -0.272 OA
ATOM     42  G   UNL     1      48.247  40.391  36.904  1.00  0.00     0.000 G0
ENDBRANCH  35  40
ENDBRANCH  31  34
ENDBRANCH   2  30
ENDBRANCH   1   2
BRANCH   1  43
ATOM     43  C   UNL     1      40.902  39.452  36.908  1.00  0.00     0.003 C 
BRANCH  43  44
ATOM     44  C   UNL     1      40.876  38.523  35.686  1.00  0.00     0.001 C 
BRANCH  44  45
ATOM     45  C   UNL     1      40.031  39.125  34.553  1.00  0.00     0.008 C 
BRANCH  45  46
ATOM     46  C   UNL     1      40.185  38.354  33.236  1.00  0.00     0.075 C 
BRANCH  46  47
ATOM     47  C   UNL     1      40.687  36.950  33.459  1.00  0.00     0.132 C 
ATOM     48  O   UNL     1      41.740  36.776  34.055  1.00  0.00    -0.300 OA
BRANCH  47  49
ATOM     49  C   UNL     1      39.909  35.758  32.968  1.00  0.00     0.072 C 
ATOM     50  C   UNL     1      38.406  36.014  33.065  1.00  0.00     0.012 C 
ENDBRANCH  47  49
ENDBRANCH  46  47
ENDBRANCH  45  46
ENDBRANCH  44  45
ENDBRANCH  43  44
ENDBRANCH   1  43
TORSDOF 12
ENDMDL
