MODEL 1
REMARK VINA RESULT:     1.717      0.000      0.000
REMARK INTER + INTRA:           2.640
REMARK INTER:                   2.119
REMARK INTRA:                   0.521
REMARK UNBOUND:                 0.521
REMARK SMILES O=c1c(O)c(-c2cc(O)c(O)c(O)c2)oc2cc(O)cc(O)c12
REMARK SMILES IDX 5 1 3 2 2 3 1 4 23 5 21 6 20 7 18 8 17 9 16 10 15 11 6 12
REMARK SMILES IDX 7 13 8 14 14 15 10 16 12 17 9 18 11 20 13 22 4 24 22 26
REMARK SMILES IDX 19 28
REMARK H PARENT 9 19 11 21 13 23 4 25 22 27 19 29
REMARK Flexibility Score: inf
ROOT
ATOM      1  C   UNL     1      18.855   0.427  12.109  1.00  0.00     0.180 A 
ATOM      2  C   UNL     1      18.386  -0.307  11.006  1.00  0.00     0.208 A 
ATOM      3  C   UNL     1      18.403  -1.710  11.064  1.00  0.00     0.238 A 
ATOM      4  O   UNL     1      17.930  -2.360  10.096  1.00  0.00    -0.285 OA
ATOM      5  C   UNL     1      18.903  -2.360  12.217  1.00  0.00     0.111 A 
ATOM      6  C   UNL     1      19.005  -3.776  12.368  1.00  0.00     0.134 A 
ATOM      7  C   UNL     1      19.394  -4.312  13.602  1.00  0.00     0.093 A 
ATOM      8  C   UNL     1      19.747  -3.483  14.669  1.00  0.00     0.123 A 
ATOM      9  C   UNL     1      19.709  -2.100  14.512  1.00  0.00     0.094 A 
ATOM     10  C   UNL     1      19.290  -1.535  13.305  1.00  0.00     0.146 A 
ATOM     11  O   UNL     1      19.258  -0.212  13.201  1.00  0.00    -0.452 OA
ENDROOT
BRANCH   1  12
ATOM     12  C   UNL     1      18.893   1.908  12.112  1.00  0.00     0.029 A 
ATOM     13  C   UNL     1      18.383   2.612  11.011  1.00  0.00     0.062 A 
ATOM     14  C   UNL     1      18.388   4.012  10.994  1.00  0.00     0.162 A 
ATOM     15  C   UNL     1      19.374   2.625  13.220  1.00  0.00     0.062 A 
ATOM     16  C   UNL     1      18.890   4.725  12.097  1.00  0.00     0.200 A 
ATOM     17  C   UNL     1      19.381   4.027  13.213  1.00  0.00     0.162 A 
BRANCH  14  18
ATOM     18  O   UNL     1      17.886   4.674   9.875  1.00  0.00    -0.504 OA
ATOM     19  H   UNL     1      18.386   5.436   9.430  1.00  0.00     0.293 HD
ENDBRANCH  14  18
BRANCH  16  20
ATOM     20  O   UNL     1      18.893   6.120  12.071  1.00  0.00    -0.502 OA
ATOM     21  H   UNL     1      19.290   6.673  12.821  1.00  0.00     0.293 HD
ENDBRANCH  16  20
BRANCH  17  22
ATOM     22  O   UNL     1      19.867   4.728  14.315  1.00  0.00    -0.504 OA
ATOM     23  H   UNL     1      19.845   5.740  14.353  1.00  0.00     0.293 HD
ENDBRANCH  17  22
ENDBRANCH   1  12
BRANCH   2  24
ATOM     24  O   UNL     1      17.875   0.356   9.887  1.00  0.00    -0.502 OA
ATOM     25  H   UNL     1      18.297   1.198   9.514  1.00  0.00     0.293 HD
ENDBRANCH   2  24
BRANCH   6  26
ATOM     26  O   UNL     1      18.764  -4.690  11.338  1.00  0.00    -0.507 OA
ATOM     27  H   UNL     1      19.479  -5.204  10.846  1.00  0.00     0.293 HD
ENDBRANCH   6  26
BRANCH   8  28
ATOM     28  O   UNL     1      20.148  -4.025  15.889  1.00  0.00    -0.508 OA
ATOM     29  H   UNL     1      20.381  -3.436  16.680  1.00  0.00     0.293 HD
ENDBRANCH   8  28
TORSDOF 7
ENDMDL
MODEL 2
REMARK VINA RESULT:     1.890      0.109      1.757
REMARK INTER + INTRA:           2.853
REMARK INTER:                   2.412
REMARK INTRA:                   0.442
REMARK UNBOUND:                 0.521
REMARK SMILES O=c1c(O)c(-c2cc(O)c(O)c(O)c2)oc2cc(O)cc(O)c12
REMARK SMILES IDX 5 1 3 2 2 3 1 4 23 5 21 6 20 7 18 8 17 9 16 10 15 11 6 12
REMARK SMILES IDX 7 13 8 14 14 15 10 16 12 17 9 18 11 20 13 22 4 24 22 26
REMARK SMILES IDX 19 28
REMARK H PARENT 9 19 11 21 13 23 4 25 22 27 19 29
REMARK Flexibility Score: inf
ROOT
ATOM      1  C   UNL     1      18.842   0.343  12.103  1.00  0.00     0.180 A 
ATOM      2  C   UNL     1      18.388  -0.400  10.999  1.00  0.00     0.208 A 
ATOM      3  C   UNL     1      18.421  -1.802  11.062  1.00  0.00     0.238 A 
ATOM      4  O   UNL     1      17.961  -2.461  10.093  1.00  0.00    -0.285 OA
ATOM      5  C   UNL     1      18.922  -2.444  12.219  1.00  0.00     0.111 A 
ATOM      6  C   UNL     1      19.040  -3.858  12.375  1.00  0.00     0.134 A 
ATOM      7  C   UNL     1      19.427  -4.386  13.613  1.00  0.00     0.093 A 
ATOM      8  C   UNL     1      19.765  -3.549  14.680  1.00  0.00     0.123 A 
ATOM      9  C   UNL     1      19.711  -2.167  14.518  1.00  0.00     0.094 A 
ATOM     10  C   UNL     1      19.293  -1.611  13.307  1.00  0.00     0.146 A 
ATOM     11  O   UNL     1      19.246  -0.288  13.199  1.00  0.00    -0.452 OA
ENDROOT
BRANCH   1  12
ATOM     12  C   UNL     1      18.862   1.824  12.102  1.00  0.00     0.029 A 
ATOM     13  C   UNL     1      19.364   2.508  13.219  1.00  0.00     0.062 A 
ATOM     14  C   UNL     1      19.413   3.906  13.238  1.00  0.00     0.162 A 
ATOM     15  C   UNL     1      18.442   2.560  10.981  1.00  0.00     0.062 A 
ATOM     16  C   UNL     1      18.972   4.639  12.122  1.00  0.00     0.200 A 
ATOM     17  C   UNL     1      18.489   3.961  10.990  1.00  0.00     0.162 A 
BRANCH  14  18
ATOM     18  O   UNL     1      19.906   4.548  14.373  1.00  0.00    -0.504 OA
ATOM     19  H   UNL     1      19.311   5.097  14.983  1.00  0.00     0.293 HD
ENDBRANCH  14  18
BRANCH  16  20
ATOM     20  O   UNL     1      19.022   6.033  12.150  1.00  0.00    -0.502 OA
ATOM     21  H   UNL     1      19.693   6.560  11.604  1.00  0.00     0.293 HD
ENDBRANCH  16  20
BRANCH  17  22
ATOM     22  O   UNL     1      18.063   4.681   9.875  1.00  0.00    -0.504 OA
ATOM     23  H   UNL     1      18.635   4.758   9.043  1.00  0.00     0.293 HD
ENDBRANCH  17  22
ENDBRANCH   1  12
BRANCH   2  24
ATOM     24  O   UNL     1      17.876   0.254   9.875  1.00  0.00    -0.502 OA
ATOM     25  H   UNL     1      17.147  -0.147   9.297  1.00  0.00     0.293 HD
ENDBRANCH   2  24
BRANCH   6  26
ATOM     26  O   UNL     1      18.815  -4.778  11.347  1.00  0.00    -0.507 OA
ATOM     27  H   UNL     1      18.305  -4.579  10.499  1.00  0.00     0.293 HD
ENDBRANCH   6  26
BRANCH   8  28
ATOM     28  O   UNL     1      20.165  -4.083  15.903  1.00  0.00    -0.508 OA
ATOM     29  H   UNL     1      20.965  -4.702  15.975  1.00  0.00     0.293 HD
ENDBRANCH   8  28
TORSDOF 7
ENDMDL
