MODEL 1
REMARK VINA RESULT:    -3.330      0.000      0.000
REMARK INTER + INTRA:         -10.738
REMARK INTER:                  -7.613
REMARK INTRA:                  -3.125
REMARK UNBOUND:                -3.125
REMARK SMILES CCCCCCCCCCCCCCCCCCCCCCCC(=O)[O-]
REMARK SMILES IDX 13 1 14 2 15 3 16 4 17 5 18 6 19 7 20 8 21 9 22 10 23 11
REMARK SMILES IDX 24 12 25 13 26 14 12 15 11 16 10 17 9 18 8 19 7 20 6 21 5 22
REMARK SMILES IDX 4 23 3 24 2 25 1 26
REMARK H PARENT
REMARK Flexibility Score: inf
ROOT
ATOM      1  C   UNL     1     144.772 141.683 147.731  1.00  0.00     0.000 C 
ENDROOT
BRANCH   1   2
ATOM      2  C   UNL     1     144.742 140.449 148.650  1.00  0.00     0.000 C 
BRANCH   2   3
ATOM      3  C   UNL     1     143.311 139.991 148.982  1.00  0.00     0.000 C 
BRANCH   3   4
ATOM      4  C   UNL     1     142.538 140.928 149.932  1.00  0.00     0.000 C 
BRANCH   4   5
ATOM      5  C   UNL     1     143.437 141.632 150.974  1.00  0.00     0.000 C 
BRANCH   5   6
ATOM      6  C   UNL     1     143.358 141.006 152.381  1.00  0.00     0.000 C 
BRANCH   6   7
ATOM      7  C   UNL     1     142.593 141.855 153.421  1.00  0.00     0.000 C 
BRANCH   7   8
ATOM      8  C   UNL     1     141.219 141.299 153.841  1.00  0.00     0.000 C 
BRANCH   8   9
ATOM      9  C   UNL     1     140.002 142.105 153.348  1.00  0.00     0.000 C 
BRANCH   9  10
ATOM     10  C   UNL     1     140.258 143.623 153.239  1.00  0.00     0.006 C 
BRANCH  10  11
ATOM     11  C   UNL     1     140.037 144.356 154.570  1.00  0.00     0.053 C 
BRANCH  11  12
ATOM     12  C   UNL     1     141.257 145.128 154.959  1.00  0.00     0.041 C 
ATOM     13  O   UNL     1     142.046 144.670 155.827  1.00  0.00    -0.550 OA
ATOM     14  O   UNL     1     141.526 146.353 154.361  1.00  0.00    -0.550 OA
ENDBRANCH  11  12
ENDBRANCH  10  11
ENDBRANCH   9  10
ENDBRANCH   8   9
ENDBRANCH   7   8
ENDBRANCH   6   7
ENDBRANCH   5   6
ENDBRANCH   4   5
ENDBRANCH   3   4
ENDBRANCH   2   3
ENDBRANCH   1   2
BRANCH   1  15
ATOM     15  C   UNL     1     145.280 141.354 146.311  1.00  0.00     0.000 C 
BRANCH  15  16
ATOM     16  C   UNL     1     144.766 140.011 145.756  1.00  0.00     0.000 C 
BRANCH  16  17
ATOM     17  C   UNL     1     143.539 140.108 144.831  1.00  0.00     0.000 C 
BRANCH  17  18
ATOM     18  C   UNL     1     142.175 140.005 145.539  1.00  0.00    -0.000 C 
BRANCH  18  19
ATOM     19  C   UNL     1     141.339 141.292 145.418  1.00  0.00    -0.000 C 
BRANCH  19  20
ATOM     20  C   UNL     1     141.049 141.942 146.782  1.00  0.00    -0.000 C 
BRANCH  20  21
ATOM     21  C   UNL     1     141.741 143.298 147.020  1.00  0.00    -0.000 C 
BRANCH  21  22
ATOM     22  C   UNL     1     141.818 144.185 145.756  1.00  0.00    -0.000 C 
BRANCH  22  23
ATOM     23  C   UNL     1     143.269 144.532 145.380  1.00  0.00    -0.000 C 
BRANCH  23  24
ATOM     24  C   UNL     1     143.787 143.697 144.198  1.00  0.00    -0.000 C 
BRANCH  24  25
ATOM     25  C   UNL     1     145.059 144.293 143.575  1.00  0.00    -0.003 C 
ATOM     26  C   UNL     1     145.029 144.188 142.054  1.00  0.00     0.004 C 
ENDBRANCH  24  25
ENDBRANCH  23  24
ENDBRANCH  22  23
ENDBRANCH  21  22
ENDBRANCH  20  21
ENDBRANCH  19  20
ENDBRANCH  18  19
ENDBRANCH  17  18
ENDBRANCH  16  17
ENDBRANCH  15  16
ENDBRANCH   1  15
TORSDOF 22
ENDMDL
MODEL 2
REMARK VINA RESULT:    -3.217      3.836      8.009
REMARK INTER + INTRA:         -10.480
REMARK INTER:                  -5.846
REMARK INTRA:                  -4.635
REMARK UNBOUND:                -3.125
REMARK SMILES CCCCCCCCCCCCCCCCCCCCCCCC(=O)[O-]
REMARK SMILES IDX 13 1 14 2 15 3 16 4 17 5 18 6 19 7 20 8 21 9 22 10 23 11
REMARK SMILES IDX 24 12 25 13 26 14 12 15 11 16 10 17 9 18 8 19 7 20 6 21 5 22
REMARK SMILES IDX 4 23 3 24 2 25 1 26
REMARK H PARENT
REMARK Flexibility Score: inf
ROOT
ATOM      1  C   UNL     1     143.046 144.298 146.499  1.00  0.00     0.000 C 
ENDROOT
BRANCH   1   2
ATOM      2  C   UNL     1     141.764 143.738 145.856  1.00  0.00     0.000 C 
BRANCH   2   3
ATOM      3  C   UNL     1     141.327 142.398 146.473  1.00  0.00     0.000 C 
BRANCH   3   4
ATOM      4  C   UNL     1     141.242 141.225 145.476  1.00  0.00     0.000 C 
BRANCH   4   5
ATOM      5  C   UNL     1     142.247 140.088 145.772  1.00  0.00     0.000 C 
BRANCH   5   6
ATOM      6  C   UNL     1     143.285 139.875 144.652  1.00  0.00     0.000 C 
BRANCH   6   7
ATOM      7  C   UNL     1     144.523 140.796 144.738  1.00  0.00     0.000 C 
BRANCH   7   8
ATOM      8  C   UNL     1     144.415 142.118 143.955  1.00  0.00     0.000 C 
BRANCH   8   9
ATOM      9  C   UNL     1     145.701 142.965 143.908  1.00  0.00     0.000 C 
BRANCH   9  10
ATOM     10  C   UNL     1     145.561 144.273 143.100  1.00  0.00     0.006 C 
BRANCH  10  11
ATOM     11  C   UNL     1     144.120 144.525 142.632  1.00  0.00     0.053 C 
BRANCH  11  12
ATOM     12  C   UNL     1     143.702 145.928 142.939  1.00  0.00     0.041 C 
ATOM     13  O   UNL     1     142.516 146.174 143.285  1.00  0.00    -0.550 OA
ATOM     14  O   UNL     1     144.622 146.965 142.845  1.00  0.00    -0.550 OA
ENDBRANCH  11  12
ENDBRANCH  10  11
ENDBRANCH   9  10
ENDBRANCH   8   9
ENDBRANCH   7   8
ENDBRANCH   6   7
ENDBRANCH   5   6
ENDBRANCH   4   5
ENDBRANCH   3   4
ENDBRANCH   2   3
ENDBRANCH   1   2
BRANCH   1  15
ATOM     15  C   UNL     1     143.744 143.275 147.420  1.00  0.00     0.000 C 
BRANCH  15  16
ATOM     16  C   UNL     1     144.964 143.840 148.175  1.00  0.00     0.000 C 
BRANCH  16  17
ATOM     17  C   UNL     1     146.332 143.331 147.685  1.00  0.00     0.000 C 
BRANCH  17  18
ATOM     18  C   UNL     1     146.411 141.816 147.418  1.00  0.00    -0.000 C 
BRANCH  18  19
ATOM     19  C   UNL     1     146.958 141.025 148.619  1.00  0.00    -0.000 C 
BRANCH  19  20
ATOM     20  C   UNL     1     145.844 140.401 149.476  1.00  0.00    -0.000 C 
BRANCH  20  21
ATOM     21  C   UNL     1     144.592 139.955 148.696  1.00  0.00    -0.000 C 
BRANCH  21  22
ATOM     22  C   UNL     1     143.267 140.222 149.446  1.00  0.00    -0.000 C 
BRANCH  22  23
ATOM     23  C   UNL     1     143.495 140.939 150.787  1.00  0.00    -0.000 C 
BRANCH  23  24
ATOM     24  C   UNL     1     142.278 141.771 151.223  1.00  0.00    -0.000 C 
BRANCH  24  25
ATOM     25  C   UNL     1     141.470 142.295 150.025  1.00  0.00    -0.003 C 
ATOM     26  C   UNL     1     141.167 143.782 150.173  1.00  0.00     0.004 C 
ENDBRANCH  24  25
ENDBRANCH  23  24
ENDBRANCH  22  23
ENDBRANCH  21  22
ENDBRANCH  20  21
ENDBRANCH  19  20
ENDBRANCH  18  19
ENDBRANCH  17  18
ENDBRANCH  16  17
ENDBRANCH  15  16
ENDBRANCH   1  15
TORSDOF 22
ENDMDL
MODEL 3
REMARK VINA RESULT:    -3.140     12.126     16.310
REMARK INTER + INTRA:         -10.304
REMARK INTER:                  -6.869
REMARK INTRA:                  -3.435
REMARK UNBOUND:                -3.125
REMARK SMILES CCCCCCCCCCCCCCCCCCCCCCCC(=O)[O-]
REMARK SMILES IDX 13 1 14 2 15 3 16 4 17 5 18 6 19 7 20 8 21 9 22 10 23 11
REMARK SMILES IDX 24 12 25 13 26 14 12 15 11 16 10 17 9 18 8 19 7 20 6 21 5 22
REMARK SMILES IDX 4 23 3 24 2 25 1 26
REMARK H PARENT
REMARK Flexibility Score: inf
ROOT
ATOM      1  C   UNL     1     142.545 155.797 152.674  1.00  0.00     0.000 C 
ENDROOT
BRANCH   1   2
ATOM      2  C   UNL     1     141.377 156.162 151.741  1.00  0.00     0.000 C 
BRANCH   2   3
ATOM      3  C   UNL     1     140.994 157.650 151.825  1.00  0.00     0.000 C 
BRANCH   3   4
ATOM      4  C   UNL     1     140.745 158.173 153.254  1.00  0.00     0.000 C 
BRANCH   4   5
ATOM      5  C   UNL     1     140.915 159.703 153.392  1.00  0.00     0.000 C 
BRANCH   5   6
ATOM      6  C   UNL     1     142.289 160.124 153.951  1.00  0.00     0.000 C 
BRANCH   6   7
ATOM      7  C   UNL     1     143.433 160.125 152.913  1.00  0.00     0.000 C 
BRANCH   7   8
ATOM      8  C   UNL     1     144.402 158.931 153.002  1.00  0.00     0.000 C 
BRANCH   8   9
ATOM      9  C   UNL     1     144.638 158.374 154.419  1.00  0.00     0.000 C 
BRANCH   9  10
ATOM     10  C   UNL     1     145.996 158.780 155.032  1.00  0.00     0.006 C 
BRANCH  10  11
ATOM     11  C   UNL     1     146.645 157.642 155.833  1.00  0.00     0.053 C 
BRANCH  11  12
ATOM     12  C   UNL     1     146.450 157.850 157.302  1.00  0.00     0.041 C 
ATOM     13  O   UNL     1     145.408 157.427 157.869  1.00  0.00    -0.550 OA
ATOM     14  O   UNL     1     147.420 158.510 158.046  1.00  0.00    -0.550 OA
ENDBRANCH  11  12
ENDBRANCH  10  11
ENDBRANCH   9  10
ENDBRANCH   8   9
ENDBRANCH   7   8
ENDBRANCH   6   7
ENDBRANCH   5   6
ENDBRANCH   4   5
ENDBRANCH   3   4
ENDBRANCH   2   3
ENDBRANCH   1   2
BRANCH   1  15
ATOM     15  C   UNL     1     142.353 154.427 153.359  1.00  0.00     0.000 C 
BRANCH  15  16
ATOM     16  C   UNL     1     143.636 153.861 154.000  1.00  0.00     0.000 C 
BRANCH  16  17
ATOM     17  C   UNL     1     144.273 154.746 155.087  1.00  0.00     0.000 C 
BRANCH  17  18
ATOM     18  C   UNL     1     143.299 155.275 156.156  1.00  0.00    -0.000 C 
BRANCH  18  19
ATOM     19  C   UNL     1     143.385 154.497 157.481  1.00  0.00    -0.000 C 
BRANCH  19  20
ATOM     20  C   UNL     1     142.108 153.695 157.783  1.00  0.00    -0.000 C 
BRANCH  20  21
ATOM     21  C   UNL     1     140.927 153.964 156.830  1.00  0.00    -0.000 C 
BRANCH  21  22
ATOM     22  C   UNL     1     140.441 152.706 156.076  1.00  0.00    -0.000 C 
BRANCH  22  23
ATOM     23  C   UNL     1     141.461 151.557 156.146  1.00  0.00    -0.000 C 
BRANCH  23  24
ATOM     24  C   UNL     1     140.789 150.176 156.225  1.00  0.00    -0.000 C 
BRANCH  24  25
ATOM     25  C   UNL     1     140.300 149.846 157.644  1.00  0.00    -0.003 C 
ATOM     26  C   UNL     1     141.351 150.211 158.687  1.00  0.00     0.004 C 
ENDBRANCH  24  25
ENDBRANCH  23  24
ENDBRANCH  22  23
ENDBRANCH  21  22
ENDBRANCH  20  21
ENDBRANCH  19  20
ENDBRANCH  18  19
ENDBRANCH  17  18
ENDBRANCH  16  17
ENDBRANCH  15  16
ENDBRANCH   1  15
TORSDOF 22
ENDMDL
MODEL 4
REMARK VINA RESULT:    -3.138     14.630     16.324
REMARK INTER + INTRA:         -10.299
REMARK INTER:                  -6.688
REMARK INTRA:                  -3.611
REMARK UNBOUND:                -3.125
REMARK SMILES CCCCCCCCCCCCCCCCCCCCCCCC(=O)[O-]
REMARK SMILES IDX 13 1 14 2 15 3 16 4 17 5 18 6 19 7 20 8 21 9 22 10 23 11
REMARK SMILES IDX 24 12 25 13 26 14 12 15 11 16 10 17 9 18 8 19 7 20 6 21 5 22
REMARK SMILES IDX 4 23 3 24 2 25 1 26
REMARK H PARENT
REMARK Flexibility Score: inf
ROOT
ATOM      1  C   UNL     1     144.176 157.054 150.533  1.00  0.00     0.000 C 
ENDROOT
BRANCH   1   2
ATOM      2  C   UNL     1     142.842 156.429 150.980  1.00  0.00     0.000 C 
BRANCH   2   3
ATOM      3  C   UNL     1     142.803 156.129 152.489  1.00  0.00     0.000 C 
BRANCH   3   4
ATOM      4  C   UNL     1     141.741 156.922 153.277  1.00  0.00     0.000 C 
BRANCH   4   5
ATOM      5  C   UNL     1     140.780 157.734 152.378  1.00  0.00     0.000 C 
BRANCH   5   6
ATOM      6  C   UNL     1     140.944 159.260 152.520  1.00  0.00     0.000 C 
BRANCH   6   7
ATOM      7  C   UNL     1     141.647 159.713 153.818  1.00  0.00     0.000 C 
BRANCH   7   8
ATOM      8  C   UNL     1     143.123 160.124 153.659  1.00  0.00     0.000 C 
BRANCH   8   9
ATOM      9  C   UNL     1     144.034 159.792 154.856  1.00  0.00     0.000 C 
BRANCH   9  10
ATOM     10  C   UNL     1     144.862 158.502 154.674  1.00  0.00     0.006 C 
BRANCH  10  11
ATOM     11  C   UNL     1     144.694 157.523 155.845  1.00  0.00     0.053 C 
BRANCH  11  12
ATOM     12  C   UNL     1     145.877 157.582 156.758  1.00  0.00     0.041 C 
ATOM     13  O   UNL     1     147.042 157.630 156.284  1.00  0.00    -0.550 OA
ATOM     14  O   UNL     1     145.693 157.587 158.136  1.00  0.00    -0.550 OA
ENDBRANCH  11  12
ENDBRANCH  10  11
ENDBRANCH   9  10
ENDBRANCH   8   9
ENDBRANCH   7   8
ENDBRANCH   6   7
ENDBRANCH   5   6
ENDBRANCH   4   5
ENDBRANCH   3   4
ENDBRANCH   2   3
ENDBRANCH   1   2
BRANCH   1  15
ATOM     15  C   UNL     1     144.000 158.079 149.393  1.00  0.00     0.000 C 
BRANCH  15  16
ATOM     16  C   UNL     1     143.132 159.296 149.771  1.00  0.00     0.000 C 
BRANCH  16  17
ATOM     17  C   UNL     1     142.051 159.677 148.742  1.00  0.00     0.000 C 
BRANCH  17  18
ATOM     18  C   UNL     1     140.721 158.911 148.875  1.00  0.00    -0.000 C 
BRANCH  18  19
ATOM     19  C   UNL     1     139.885 158.937 147.584  1.00  0.00    -0.000 C 
BRANCH  19  20
ATOM     20  C   UNL     1     140.725 159.267 146.339  1.00  0.00    -0.000 C 
BRANCH  20  21
ATOM     21  C   UNL     1     140.517 158.321 145.140  1.00  0.00    -0.000 C 
BRANCH  21  22
ATOM     22  C   UNL     1     141.772 157.497 144.776  1.00  0.00    -0.000 C 
BRANCH  22  23
ATOM     23  C   UNL     1     142.762 157.398 145.949  1.00  0.00    -0.000 C 
BRANCH  23  24
ATOM     24  C   UNL     1     144.212 157.196 145.481  1.00  0.00    -0.000 C 
BRANCH  24  25
ATOM     25  C   UNL     1     144.891 158.521 145.097  1.00  0.00    -0.003 C 
ATOM     26  C   UNL     1     144.457 159.651 146.025  1.00  0.00     0.004 C 
ENDBRANCH  24  25
ENDBRANCH  23  24
ENDBRANCH  22  23
ENDBRANCH  21  22
ENDBRANCH  20  21
ENDBRANCH  19  20
ENDBRANCH  18  19
ENDBRANCH  17  18
ENDBRANCH  16  17
ENDBRANCH  15  16
ENDBRANCH   1  15
TORSDOF 22
ENDMDL
MODEL 5
REMARK VINA RESULT:    -3.126      3.279      5.217
REMARK INTER + INTRA:         -10.272
REMARK INTER:                  -5.741
REMARK INTRA:                  -4.531
REMARK UNBOUND:                -3.125
REMARK SMILES CCCCCCCCCCCCCCCCCCCCCCCC(=O)[O-]
REMARK SMILES IDX 13 1 14 2 15 3 16 4 17 5 18 6 19 7 20 8 21 9 22 10 23 11
REMARK SMILES IDX 24 12 25 13 26 14 12 15 11 16 10 17 9 18 8 19 7 20 6 21 5 22
REMARK SMILES IDX 4 23 3 24 2 25 1 26
REMARK H PARENT
REMARK Flexibility Score: inf
ROOT
ATOM      1  C   UNL     1     145.465 142.301 145.682  1.00  0.00     0.000 C 
ENDROOT
BRANCH   1   2
ATOM      2  C   UNL     1     145.598 140.813 146.053  1.00  0.00     0.000 C 
BRANCH   2   3
ATOM      3  C   UNL     1     145.034 139.879 144.968  1.00  0.00     0.000 C 
BRANCH   3   4
ATOM      4  C   UNL     1     143.619 140.242 144.476  1.00  0.00     0.000 C 
BRANCH   4   5
ATOM      5  C   UNL     1     142.512 139.972 145.521  1.00  0.00     0.000 C 
BRANCH   5   6
ATOM      6  C   UNL     1     141.376 141.014 145.500  1.00  0.00     0.000 C 
BRANCH   6   7
ATOM      7  C   UNL     1     141.810 142.447 145.880  1.00  0.00     0.000 C 
BRANCH   7   8
ATOM      8  C   UNL     1     142.356 142.610 147.312  1.00  0.00     0.000 C 
BRANCH   8   9
ATOM      9  C   UNL     1     141.382 142.218 148.440  1.00  0.00     0.000 C 
BRANCH   9  10
ATOM     10  C   UNL     1     141.779 140.928 149.189  1.00  0.00     0.006 C 
BRANCH  10  11
ATOM     11  C   UNL     1     143.282 140.629 149.093  1.00  0.00     0.053 C 
BRANCH  11  12
ATOM     12  C   UNL     1     143.966 140.929 150.389  1.00  0.00     0.041 C 
ATOM     13  O   UNL     1     144.572 142.021 150.549  1.00  0.00    -0.550 OA
ATOM     14  O   UNL     1     143.932 140.002 151.424  1.00  0.00    -0.550 OA
ENDBRANCH  11  12
ENDBRANCH  10  11
ENDBRANCH   9  10
ENDBRANCH   8   9
ENDBRANCH   7   8
ENDBRANCH   6   7
ENDBRANCH   5   6
ENDBRANCH   4   5
ENDBRANCH   3   4
ENDBRANCH   2   3
ENDBRANCH   1   2
BRANCH   1  15
ATOM     15  C   UNL     1     146.572 142.775 144.716  1.00  0.00     0.000 C 
BRANCH  15  16
ATOM     16  C   UNL     1     146.073 143.072 143.288  1.00  0.00     0.000 C 
BRANCH  16  17
ATOM     17  C   UNL     1     144.609 143.540 143.188  1.00  0.00     0.000 C 
BRANCH  17  18
ATOM     18  C   UNL     1     144.344 144.649 142.152  1.00  0.00    -0.000 C 
BRANCH  18  19
ATOM     19  C   UNL     1     143.459 145.782 142.701  1.00  0.00    -0.000 C 
BRANCH  19  20
ATOM     20  C   UNL     1     142.843 145.443 144.069  1.00  0.00    -0.000 C 
BRANCH  20  21
ATOM     21  C   UNL     1     142.979 146.544 145.138  1.00  0.00    -0.000 C 
BRANCH  21  22
ATOM     22  C   UNL     1     143.495 146.026 146.499  1.00  0.00    -0.000 C 
BRANCH  22  23
ATOM     23  C   UNL     1     145.008 145.746 146.477  1.00  0.00    -0.000 C 
BRANCH  23  24
ATOM     24  C   UNL     1     145.811 146.903 145.859  1.00  0.00    -0.000 C 
BRANCH  24  25
ATOM     25  C   UNL     1     146.589 146.468 144.607  1.00  0.00    -0.003 C 
ATOM     26  C   UNL     1     148.089 146.669 144.793  1.00  0.00     0.004 C 
ENDBRANCH  24  25
ENDBRANCH  23  24
ENDBRANCH  22  23
ENDBRANCH  21  22
ENDBRANCH  20  21
ENDBRANCH  19  20
ENDBRANCH  18  19
ENDBRANCH  17  18
ENDBRANCH  16  17
ENDBRANCH  15  16
ENDBRANCH   1  15
TORSDOF 22
ENDMDL
MODEL 6
REMARK VINA RESULT:    -3.111      1.757      3.512
REMARK INTER + INTRA:         -10.236
REMARK INTER:                  -6.239
REMARK INTRA:                  -3.997
REMARK UNBOUND:                -3.125
REMARK SMILES CCCCCCCCCCCCCCCCCCCCCCCC(=O)[O-]
REMARK SMILES IDX 13 1 14 2 15 3 16 4 17 5 18 6 19 7 20 8 21 9 22 10 23 11
REMARK SMILES IDX 24 12 25 13 26 14 12 15 11 16 10 17 9 18 8 19 7 20 6 21 5 22
REMARK SMILES IDX 4 23 3 24 2 25 1 26
REMARK H PARENT
REMARK Flexibility Score: inf
ROOT
ATOM      1  C   UNL     1     144.784 139.875 144.845  1.00  0.00     0.000 C 
ENDROOT
BRANCH   1   2
ATOM      2  C   UNL     1     143.248 139.930 144.755  1.00  0.00     0.000 C 
BRANCH   2   3
ATOM      3  C   UNL     1     142.681 141.313 145.122  1.00  0.00     0.000 C 
BRANCH   3   4
ATOM      4  C   UNL     1     141.203 141.309 145.560  1.00  0.00     0.000 C 
BRANCH   4   5
ATOM      5  C   UNL     1     140.994 141.719 147.036  1.00  0.00     0.000 C 
BRANCH   5   6
ATOM      6  C   UNL     1     142.061 141.151 147.993  1.00  0.00     0.000 C 
BRANCH   6   7
ATOM      7  C   UNL     1     141.940 141.638 149.454  1.00  0.00     0.000 C 
BRANCH   7   8
ATOM      8  C   UNL     1     141.471 143.096 149.625  1.00  0.00     0.000 C 
BRANCH   8   9
ATOM      9  C   UNL     1     140.873 143.441 151.003  1.00  0.00     0.000 C 
BRANCH   9  10
ATOM     10  C   UNL     1     140.331 142.218 151.773  1.00  0.00     0.006 C 
BRANCH  10  11
ATOM     11  C   UNL     1     140.689 142.255 153.266  1.00  0.00     0.053 C 
BRANCH  11  12
ATOM     12  C   UNL     1     142.145 141.974 153.467  1.00  0.00     0.041 C 
ATOM     13  O   UNL     1     142.580 140.796 153.389  1.00  0.00    -0.550 OA
ATOM     14  O   UNL     1     143.023 143.016 153.740  1.00  0.00    -0.550 OA
ENDBRANCH  11  12
ENDBRANCH  10  11
ENDBRANCH   9  10
ENDBRANCH   8   9
ENDBRANCH   7   8
ENDBRANCH   6   7
ENDBRANCH   5   6
ENDBRANCH   4   5
ENDBRANCH   3   4
ENDBRANCH   2   3
ENDBRANCH   1   2
BRANCH   1  15
ATOM     15  C   UNL     1     145.316 140.336 146.218  1.00  0.00     0.000 C 
BRANCH  15  16
ATOM     16  C   UNL     1     146.538 141.272 146.135  1.00  0.00     0.000 C 
BRANCH  16  17
ATOM     17  C   UNL     1     146.350 142.656 146.784  1.00  0.00     0.000 C 
BRANCH  17  18
ATOM     18  C   UNL     1     145.072 142.816 147.629  1.00  0.00    -0.000 C 
BRANCH  18  19
ATOM     19  C   UNL     1     144.986 144.183 148.331  1.00  0.00    -0.000 C 
BRANCH  19  20
ATOM     20  C   UNL     1     144.024 145.153 147.624  1.00  0.00    -0.000 C 
BRANCH  20  21
ATOM     21  C   UNL     1     143.053 144.497 146.623  1.00  0.00    -0.000 C 
BRANCH  21  22
ATOM     22  C   UNL     1     142.520 145.471 145.548  1.00  0.00    -0.000 C 
BRANCH  22  23
ATOM     23  C   UNL     1     143.253 145.312 144.205  1.00  0.00    -0.000 C 
BRANCH  23  24
ATOM     24  C   UNL     1     144.360 144.246 144.262  1.00  0.00    -0.000 C 
BRANCH  24  25
ATOM     25  C   UNL     1     144.651 143.634 142.883  1.00  0.00    -0.003 C 
ATOM     26  C   UNL     1     146.044 143.016 142.838  1.00  0.00     0.004 C 
ENDBRANCH  24  25
ENDBRANCH  23  24
ENDBRANCH  22  23
ENDBRANCH  21  22
ENDBRANCH  20  21
ENDBRANCH  19  20
ENDBRANCH  18  19
ENDBRANCH  17  18
ENDBRANCH  16  17
ENDBRANCH  15  16
ENDBRANCH   1  15
TORSDOF 22
ENDMDL
MODEL 7
REMARK VINA RESULT:    -3.105      1.556      2.199
REMARK INTER + INTRA:         -10.225
REMARK INTER:                  -6.297
REMARK INTRA:                  -3.928
REMARK UNBOUND:                -3.125
REMARK SMILES CCCCCCCCCCCCCCCCCCCCCCCC(=O)[O-]
REMARK SMILES IDX 13 1 14 2 15 3 16 4 17 5 18 6 19 7 20 8 21 9 22 10 23 11
REMARK SMILES IDX 24 12 25 13 26 14 12 15 11 16 10 17 9 18 8 19 7 20 6 21 5 22
REMARK SMILES IDX 4 23 3 24 2 25 1 26
REMARK H PARENT
REMARK Flexibility Score: inf
ROOT
ATOM      1  C   UNL     1     144.984 141.812 147.579  1.00  0.00     0.000 C 
ENDROOT
BRANCH   1   2
ATOM      2  C   UNL     1     144.772 140.452 148.269  1.00  0.00     0.000 C 
BRANCH   2   3
ATOM      3  C   UNL     1     143.546 140.444 149.199  1.00  0.00     0.000 C 
BRANCH   3   4
ATOM      4  C   UNL     1     143.531 141.565 150.257  1.00  0.00     0.000 C 
BRANCH   4   5
ATOM      5  C   UNL     1     142.378 141.437 151.279  1.00  0.00     0.000 C 
BRANCH   5   6
ATOM      6  C   UNL     1     141.031 141.979 150.761  1.00  0.00     0.000 C 
BRANCH   6   7
ATOM      7  C   UNL     1     140.530 143.251 151.480  1.00  0.00     0.000 C 
BRANCH   7   8
ATOM      8  C   UNL     1     140.919 144.582 150.809  1.00  0.00     0.000 C 
BRANCH   8   9
ATOM      9  C   UNL     1     142.166 145.276 151.389  1.00  0.00     0.000 C 
BRANCH   9  10
ATOM     10  C   UNL     1     142.558 144.783 152.799  1.00  0.00     0.006 C 
BRANCH  10  11
ATOM     11  C   UNL     1     142.005 145.682 153.913  1.00  0.00     0.053 C 
BRANCH  11  12
ATOM     12  C   UNL     1     141.627 144.870 155.111  1.00  0.00     0.041 C 
ATOM     13  O   UNL     1     142.462 144.672 156.032  1.00  0.00    -0.550 OA
ATOM     14  O   UNL     1     140.349 144.332 155.212  1.00  0.00    -0.550 OA
ENDBRANCH  11  12
ENDBRANCH  10  11
ENDBRANCH   9  10
ENDBRANCH   8   9
ENDBRANCH   7   8
ENDBRANCH   6   7
ENDBRANCH   5   6
ENDBRANCH   4   5
ENDBRANCH   3   4
ENDBRANCH   2   3
ENDBRANCH   1   2
BRANCH   1  15
ATOM     15  C   UNL     1     145.184 141.679 146.054  1.00  0.00     0.000 C 
BRANCH  15  16
ATOM     16  C   UNL     1     144.677 140.346 145.468  1.00  0.00     0.000 C 
BRANCH  16  17
ATOM     17  C   UNL     1     143.307 140.415 144.768  1.00  0.00     0.000 C 
BRANCH  17  18
ATOM     18  C   UNL     1     142.088 140.273 145.699  1.00  0.00    -0.000 C 
BRANCH  18  19
ATOM     19  C   UNL     1     141.187 141.521 145.700  1.00  0.00    -0.000 C 
BRANCH  19  20
ATOM     20  C   UNL     1     141.085 142.177 147.087  1.00  0.00    -0.000 C 
BRANCH  20  21
ATOM     21  C   UNL     1     141.823 143.523 147.230  1.00  0.00    -0.000 C 
BRANCH  21  22
ATOM     22  C   UNL     1     141.792 144.386 145.949  1.00  0.00    -0.000 C 
BRANCH  22  23
ATOM     23  C   UNL     1     143.203 144.665 145.402  1.00  0.00    -0.000 C 
BRANCH  23  24
ATOM     24  C   UNL     1     144.077 145.441 146.400  1.00  0.00    -0.000 C 
BRANCH  24  25
ATOM     25  C   UNL     1     145.549 145.500 145.962  1.00  0.00    -0.003 C 
ATOM     26  C   UNL     1     146.482 145.176 147.124  1.00  0.00     0.004 C 
ENDBRANCH  24  25
ENDBRANCH  23  24
ENDBRANCH  22  23
ENDBRANCH  21  22
ENDBRANCH  20  21
ENDBRANCH  19  20
ENDBRANCH  18  19
ENDBRANCH  17  18
ENDBRANCH  16  17
ENDBRANCH  15  16
ENDBRANCH   1  15
TORSDOF 22
ENDMDL
MODEL 8
REMARK VINA RESULT:    -3.100      3.875      8.177
REMARK INTER + INTRA:         -10.213
REMARK INTER:                  -6.178
REMARK INTRA:                  -4.035
REMARK UNBOUND:                -3.125
REMARK SMILES CCCCCCCCCCCCCCCCCCCCCCCC(=O)[O-]
REMARK SMILES IDX 13 1 14 2 15 3 16 4 17 5 18 6 19 7 20 8 21 9 22 10 23 11
REMARK SMILES IDX 24 12 25 13 26 14 12 15 11 16 10 17 9 18 8 19 7 20 6 21 5 22
REMARK SMILES IDX 4 23 3 24 2 25 1 26
REMARK H PARENT
REMARK Flexibility Score: inf
ROOT
ATOM      1  C   UNL     1     142.036 143.851 145.814  1.00  0.00     0.000 C 
ENDROOT
BRANCH   1   2
ATOM      2  C   UNL     1     141.495 142.576 146.485  1.00  0.00     0.000 C 
BRANCH   2   3
ATOM      3  C   UNL     1     141.202 141.452 145.476  1.00  0.00     0.000 C 
BRANCH   3   4
ATOM      4  C   UNL     1     142.172 140.256 145.542  1.00  0.00     0.000 C 
BRANCH   4   5
ATOM      5  C   UNL     1     143.635 140.662 145.835  1.00  0.00     0.000 C 
BRANCH   5   6
ATOM      6  C   UNL     1     144.526 140.712 144.578  1.00  0.00     0.000 C 
BRANCH   6   7
ATOM      7  C   UNL     1     145.175 142.086 144.304  1.00  0.00     0.000 C 
BRANCH   7   8
ATOM      8  C   UNL     1     144.387 143.008 143.353  1.00  0.00     0.000 C 
BRANCH   8   9
ATOM      9  C   UNL     1     145.231 143.742 142.293  1.00  0.00     0.000 C 
BRANCH   9  10
ATOM     10  C   UNL     1     144.764 145.186 142.011  1.00  0.00     0.006 C 
BRANCH  10  11
ATOM     11  C   UNL     1     143.892 145.755 143.140  1.00  0.00     0.053 C 
BRANCH  11  12
ATOM     12  C   UNL     1     142.852 146.680 142.591  1.00  0.00     0.041 C 
ATOM     13  O   UNL     1     142.037 146.273 141.722  1.00  0.00    -0.550 OA
ATOM     14  O   UNL     1     142.782 147.993 143.041  1.00  0.00    -0.550 OA
ENDBRANCH  11  12
ENDBRANCH  10  11
ENDBRANCH   9  10
ENDBRANCH   8   9
ENDBRANCH   7   8
ENDBRANCH   6   7
ENDBRANCH   5   6
ENDBRANCH   4   5
ENDBRANCH   3   4
ENDBRANCH   2   3
ENDBRANCH   1   2
BRANCH   1  15
ATOM     15  C   UNL     1     143.243 144.452 146.564  1.00  0.00     0.000 C 
BRANCH  15  16
ATOM     16  C   UNL     1     143.555 143.760 147.906  1.00  0.00     0.000 C 
BRANCH  16  17
ATOM     17  C   UNL     1     143.477 144.669 149.147  1.00  0.00     0.000 C 
BRANCH  17  18
ATOM     18  C   UNL     1     142.110 145.339 149.384  1.00  0.00    -0.000 C 
BRANCH  18  19
ATOM     19  C   UNL     1     141.033 144.348 149.861  1.00  0.00    -0.000 C 
BRANCH  19  20
ATOM     20  C   UNL     1     141.465 143.558 151.108  1.00  0.00    -0.000 C 
BRANCH  20  21
ATOM     21  C   UNL     1     141.135 142.053 151.074  1.00  0.00    -0.000 C 
BRANCH  21  22
ATOM     22  C   UNL     1     141.274 141.419 149.672  1.00  0.00    -0.000 C 
BRANCH  22  23
ATOM     23  C   UNL     1     142.556 140.579 149.540  1.00  0.00    -0.000 C 
BRANCH  23  24
ATOM     24  C   UNL     1     143.362 140.525 150.849  1.00  0.00    -0.000 C 
BRANCH  24  25
ATOM     25  C   UNL     1     144.855 140.812 150.626  1.00  0.00    -0.003 C 
ATOM     26  C   UNL     1     145.218 140.725 149.147  1.00  0.00     0.004 C 
ENDBRANCH  24  25
ENDBRANCH  23  24
ENDBRANCH  22  23
ENDBRANCH  21  22
ENDBRANCH  20  21
ENDBRANCH  19  20
ENDBRANCH  18  19
ENDBRANCH  17  18
ENDBRANCH  16  17
ENDBRANCH  15  16
ENDBRANCH   1  15
TORSDOF 22
ENDMDL
MODEL 9
REMARK VINA RESULT:    -3.049      3.626      7.905
REMARK INTER + INTRA:         -10.095
REMARK INTER:                  -6.269
REMARK INTRA:                  -3.826
REMARK UNBOUND:                -3.125
REMARK SMILES CCCCCCCCCCCCCCCCCCCCCCCC(=O)[O-]
REMARK SMILES IDX 13 1 14 2 15 3 16 4 17 5 18 6 19 7 20 8 21 9 22 10 23 11
REMARK SMILES IDX 24 12 25 13 26 14 12 15 11 16 10 17 9 18 8 19 7 20 6 21 5 22
REMARK SMILES IDX 4 23 3 24 2 25 1 26
REMARK H PARENT
REMARK Flexibility Score: inf
ROOT
ATOM      1  C   UNL     1     141.026 144.367 150.681  1.00  0.00     0.000 C 
ENDROOT
BRANCH   1   2
ATOM      2  C   UNL     1     141.965 145.000 149.638  1.00  0.00     0.000 C 
BRANCH   2   3
ATOM      3  C   UNL     1     142.583 143.960 148.687  1.00  0.00     0.000 C 
BRANCH   3   4
ATOM      4  C   UNL     1     142.745 144.434 147.229  1.00  0.00     0.000 C 
BRANCH   4   5
ATOM      5  C   UNL     1     141.772 143.747 146.243  1.00  0.00     0.000 C 
BRANCH   5   6
ATOM      6  C   UNL     1     141.073 142.504 146.830  1.00  0.00     0.000 C 
BRANCH   6   7
ATOM      7  C   UNL     1     140.633 141.459 145.781  1.00  0.00     0.000 C 
BRANCH   7   8
ATOM      8  C   UNL     1     141.699 140.411 145.409  1.00  0.00     0.000 C 
BRANCH   8   9
ATOM      9  C   UNL     1     142.925 140.355 146.341  1.00  0.00     0.000 C 
BRANCH   9  10
ATOM     10  C   UNL     1     144.265 140.644 145.631  1.00  0.00     0.006 C 
BRANCH  10  11
ATOM     11  C   UNL     1     144.094 141.526 144.386  1.00  0.00     0.053 C 
BRANCH  11  12
ATOM     12  C   UNL     1     145.278 142.423 144.206  1.00  0.00     0.041 C 
ATOM     13  O   UNL     1     145.397 143.462 144.907  1.00  0.00    -0.550 OA
ATOM     14  O   UNL     1     146.252 142.111 143.266  1.00  0.00    -0.550 OA
ENDBRANCH  11  12
ENDBRANCH  10  11
ENDBRANCH   9  10
ENDBRANCH   8   9
ENDBRANCH   7   8
ENDBRANCH   6   7
ENDBRANCH   5   6
ENDBRANCH   4   5
ENDBRANCH   3   4
ENDBRANCH   2   3
ENDBRANCH   1   2
BRANCH   1  15
ATOM     15  C   UNL     1     141.074 142.825 150.665  1.00  0.00     0.000 C 
BRANCH  15  16
ATOM     16  C   UNL     1     139.993 142.155 151.537  1.00  0.00     0.000 C 
BRANCH  16  17
ATOM     17  C   UNL     1     139.931 142.643 152.996  1.00  0.00     0.000 C 
BRANCH  17  18
ATOM     18  C   UNL     1     141.248 142.521 153.786  1.00  0.00    -0.000 C 
BRANCH  18  19
ATOM     19  C   UNL     1     141.814 141.090 153.786  1.00  0.00    -0.000 C 
BRANCH  19  20
ATOM     20  C   UNL     1     143.159 140.984 153.046  1.00  0.00    -0.000 C 
BRANCH  20  21
ATOM     21  C   UNL     1     144.071 142.220 153.169  1.00  0.00    -0.000 C 
BRANCH  21  22
ATOM     22  C   UNL     1     144.638 142.710 151.818  1.00  0.00    -0.000 C 
BRANCH  22  23
ATOM     23  C   UNL     1     144.565 141.623 150.731  1.00  0.00    -0.000 C 
BRANCH  23  24
ATOM     24  C   UNL     1     145.865 141.518 149.917  1.00  0.00    -0.000 C 
BRANCH  24  25
ATOM     25  C   UNL     1     145.735 142.160 148.526  1.00  0.00    -0.003 C 
ATOM     26  C   UNL     1     146.294 143.579 148.521  1.00  0.00     0.004 C 
ENDBRANCH  24  25
ENDBRANCH  23  24
ENDBRANCH  22  23
ENDBRANCH  21  22
ENDBRANCH  20  21
ENDBRANCH  19  20
ENDBRANCH  18  19
ENDBRANCH  17  18
ENDBRANCH  16  17
ENDBRANCH  15  16
ENDBRANCH   1  15
TORSDOF 22
ENDMDL
