MODEL 1
REMARK VINA RESULT:    -3.471      0.000      0.000
REMARK INTER + INTRA:          -6.119
REMARK INTER:                  -5.298
REMARK INTRA:                  -0.822
REMARK UNBOUND:                -0.822
REMARK SMILES CCCCCCCCCCC(=O)[O-]
REMARK SMILES IDX 7 1 8 2 9 3 10 4 11 5 12 6 13 7 6 8 5 9 4 10 3 11 2 12 1 13
REMARK H PARENT
REMARK Flexibility Score: inf
ROOT
ATOM      1  C   UNL     1      34.493 -49.141  -0.481  1.00  0.00     0.000 C 
ENDROOT
BRANCH   1   2
ATOM      2  C   UNL     1      33.197 -49.395   0.304  1.00  0.00     0.000 C 
BRANCH   2   3
ATOM      3  C   UNL     1      33.423 -50.263   1.553  1.00  0.00     0.006 C 
BRANCH   3   4
ATOM      4  C   UNL     1      34.517 -49.704   2.471  1.00  0.00     0.053 C 
BRANCH   4   5
ATOM      5  C   UNL     1      35.449 -50.794   2.897  1.00  0.00     0.041 C 
ATOM      6  O   UNL     1      34.991 -51.904   3.279  1.00  0.00    -0.550 OA
ATOM      7  O   UNL     1      36.822 -50.604   2.825  1.00  0.00    -0.550 OA
ENDBRANCH   4   5
ENDBRANCH   3   4
ENDBRANCH   2   3
ENDBRANCH   1   2
BRANCH   1   8
ATOM      8  C   UNL     1      34.423 -47.808  -1.237  1.00  0.00     0.000 C 
BRANCH   8   9
ATOM      9  C   UNL     1      33.033 -47.595  -1.851  1.00  0.00    -0.000 C 
BRANCH   9  10
ATOM     10  C   UNL     1      32.977 -48.132  -3.286  1.00  0.00    -0.000 C 
BRANCH  10  11
ATOM     11  C   UNL     1      32.114 -49.400  -3.364  1.00  0.00    -0.000 C 
BRANCH  11  12
ATOM     12  C   UNL     1      32.778 -50.515  -4.187  1.00  0.00    -0.003 C 
ATOM     13  C   UNL     1      34.272 -50.279  -4.406  1.00  0.00     0.004 C 
ENDBRANCH  11  12
ENDBRANCH  10  11
ENDBRANCH   9  10
ENDBRANCH   8   9
ENDBRANCH   1   8
TORSDOF 9
ENDMDL
MODEL 2
REMARK VINA RESULT:    -3.429      2.884      4.510
REMARK INTER + INTRA:          -6.055
REMARK INTER:                  -5.333
REMARK INTRA:                  -0.722
REMARK UNBOUND:                -0.822
REMARK SMILES CCCCCCCCCCC(=O)[O-]
REMARK SMILES IDX 7 1 8 2 9 3 10 4 11 5 12 6 13 7 6 8 5 9 4 10 3 11 2 12 1 13
REMARK H PARENT
REMARK Flexibility Score: inf
ROOT
ATOM      1  C   UNL     1      35.549 -49.348   2.311  1.00  0.00     0.000 C 
ENDROOT
BRANCH   1   2
ATOM      2  C   UNL     1      35.725 -48.660   3.674  1.00  0.00     0.000 C 
BRANCH   2   3
ATOM      3  C   UNL     1      36.980 -49.141   4.421  1.00  0.00     0.006 C 
BRANCH   3   4
ATOM      4  C   UNL     1      36.664 -50.204   5.481  1.00  0.00     0.053 C 
BRANCH   4   5
ATOM      5  C   UNL     1      36.931 -51.574   4.943  1.00  0.00     0.041 C 
ATOM      6  O   UNL     1      36.126 -52.514   5.179  1.00  0.00    -0.550 OA
ATOM      7  O   UNL     1      38.040 -51.803   4.140  1.00  0.00    -0.550 OA
ENDBRANCH   4   5
ENDBRANCH   3   4
ENDBRANCH   2   3
ENDBRANCH   1   2
BRANCH   1   8
ATOM      8  C   UNL     1      34.186 -50.047   2.223  1.00  0.00     0.000 C 
BRANCH   8   9
ATOM      9  C   UNL     1      33.433 -49.628   0.955  1.00  0.00    -0.000 C 
BRANCH   9  10
ATOM     10  C   UNL     1      34.093 -48.407   0.301  1.00  0.00    -0.000 C 
BRANCH  10  11
ATOM     11  C   UNL     1      33.215 -47.157   0.460  1.00  0.00    -0.000 C 
BRANCH  11  12
ATOM     12  C   UNL     1      33.754 -46.190   1.524  1.00  0.00    -0.003 C 
ATOM     13  C   UNL     1      32.860 -44.965   1.718  1.00  0.00     0.004 C 
ENDBRANCH  11  12
ENDBRANCH  10  11
ENDBRANCH   9  10
ENDBRANCH   8   9
ENDBRANCH   1   8
TORSDOF 9
ENDMDL
MODEL 3
REMARK VINA RESULT:    -3.427      3.478      4.792
REMARK INTER + INTRA:          -6.052
REMARK INTER:                  -5.272
REMARK INTRA:                  -0.780
REMARK UNBOUND:                -0.822
REMARK SMILES CCCCCCCCCCC(=O)[O-]
REMARK SMILES IDX 7 1 8 2 9 3 10 4 11 5 12 6 13 7 6 8 5 9 4 10 3 11 2 12 1 13
REMARK H PARENT
REMARK Flexibility Score: inf
ROOT
ATOM      1  C   UNL     1      35.322 -45.647   2.268  1.00  0.00     0.000 C 
ENDROOT
BRANCH   1   2
ATOM      2  C   UNL     1      34.963 -46.681   3.346  1.00  0.00     0.000 C 
BRANCH   2   3
ATOM      3  C   UNL     1      35.076 -48.128   2.837  1.00  0.00     0.006 C 
BRANCH   3   4
ATOM      4  C   UNL     1      34.086 -48.435   1.707  1.00  0.00     0.053 C 
BRANCH   4   5
ATOM      5  C   UNL     1      33.709 -49.883   1.722  1.00  0.00     0.041 C 
ATOM      6  O   UNL     1      34.375 -50.703   2.409  1.00  0.00    -0.550 OA
ATOM      7  O   UNL     1      32.593 -50.319   1.021  1.00  0.00    -0.550 OA
ENDBRANCH   4   5
ENDBRANCH   3   4
ENDBRANCH   2   3
ENDBRANCH   1   2
BRANCH   1   8
ATOM      8  C   UNL     1      34.347 -44.463   2.299  1.00  0.00     0.000 C 
BRANCH   8   9
ATOM      9  C   UNL     1      32.971 -44.868   1.754  1.00  0.00    -0.000 C 
BRANCH   9  10
ATOM     10  C   UNL     1      32.592 -44.022   0.533  1.00  0.00    -0.000 C 
BRANCH  10  11
ATOM     11  C   UNL     1      33.814 -43.273  -0.018  1.00  0.00    -0.000 C 
BRANCH  11  12
ATOM     12  C   UNL     1      34.154 -43.680  -1.460  1.00  0.00    -0.003 C 
ATOM     13  C   UNL     1      34.597 -45.138  -1.575  1.00  0.00     0.004 C 
ENDBRANCH  11  12
ENDBRANCH  10  11
ENDBRANCH   9  10
ENDBRANCH   8   9
ENDBRANCH   1   8
TORSDOF 9
ENDMDL
MODEL 4
REMARK VINA RESULT:    -3.402      2.740      3.844
REMARK INTER + INTRA:          -6.013
REMARK INTER:                  -5.056
REMARK INTRA:                  -0.957
REMARK UNBOUND:                -0.822
REMARK SMILES CCCCCCCCCCC(=O)[O-]
REMARK SMILES IDX 7 1 8 2 9 3 10 4 11 5 12 6 13 7 6 8 5 9 4 10 3 11 2 12 1 13
REMARK H PARENT
REMARK Flexibility Score: inf
ROOT
ATOM      1  C   UNL     1      35.721 -45.890   2.490  1.00  0.00     0.000 C 
ENDROOT
BRANCH   1   2
ATOM      2  C   UNL     1      35.309 -47.080   3.371  1.00  0.00     0.000 C 
BRANCH   2   3
ATOM      3  C   UNL     1      36.376 -48.185   3.410  1.00  0.00     0.006 C 
BRANCH   3   4
ATOM      4  C   UNL     1      36.402 -48.935   4.747  1.00  0.00     0.053 C 
BRANCH   4   5
ATOM      5  C   UNL     1      36.504 -50.409   4.518  1.00  0.00     0.041 C 
ATOM      6  O   UNL     1      36.534 -51.201   5.497  1.00  0.00    -0.550 OA
ATOM      7  O   UNL     1      36.515 -50.914   3.224  1.00  0.00    -0.550 OA
ENDBRANCH   4   5
ENDBRANCH   3   4
ENDBRANCH   2   3
ENDBRANCH   1   2
BRANCH   1   8
ATOM      8  C   UNL     1      34.934 -45.884   1.174  1.00  0.00     0.000 C 
BRANCH   8   9
ATOM      9  C   UNL     1      33.553 -46.526   1.355  1.00  0.00    -0.000 C 
BRANCH   9  10
ATOM     10  C   UNL     1      33.238 -47.491   0.205  1.00  0.00    -0.000 C 
BRANCH  10  11
ATOM     11  C   UNL     1      34.270 -48.627   0.144  1.00  0.00    -0.000 C 
BRANCH  11  12
ATOM     12  C   UNL     1      33.919 -49.792   1.082  1.00  0.00    -0.003 C 
ATOM     13  C   UNL     1      32.441 -50.174   1.025  1.00  0.00     0.004 C 
ENDBRANCH  11  12
ENDBRANCH  10  11
ENDBRANCH   9  10
ENDBRANCH   8   9
ENDBRANCH   1   8
TORSDOF 9
ENDMDL
MODEL 5
REMARK VINA RESULT:    -3.401      4.386      5.427
REMARK INTER + INTRA:          -6.013
REMARK INTER:                  -5.523
REMARK INTRA:                  -0.490
REMARK UNBOUND:                -0.822
REMARK SMILES CCCCCCCCCCC(=O)[O-]
REMARK SMILES IDX 7 1 8 2 9 3 10 4 11 5 12 6 13 7 6 8 5 9 4 10 3 11 2 12 1 13
REMARK H PARENT
REMARK Flexibility Score: inf
ROOT
ATOM      1  C   UNL     1      36.999 -47.782   3.338  1.00  0.00     0.000 C 
ENDROOT
BRANCH   1   2
ATOM      2  C   UNL     1      37.729 -48.740   4.291  1.00  0.00     0.000 C 
BRANCH   2   3
ATOM      3  C   UNL     1      36.761 -49.585   5.136  1.00  0.00     0.006 C 
BRANCH   3   4
ATOM      4  C   UNL     1      37.265 -51.017   5.357  1.00  0.00     0.053 C 
BRANCH   4   5
ATOM      5  C   UNL     1      36.424 -51.990   4.593  1.00  0.00     0.041 C 
ATOM      6  O   UNL     1      35.924 -52.988   5.177  1.00  0.00    -0.550 OA
ATOM      7  O   UNL     1      36.149 -51.770   3.250  1.00  0.00    -0.550 OA
ENDBRANCH   4   5
ENDBRANCH   3   4
ENDBRANCH   2   3
ENDBRANCH   1   2
BRANCH   1   8
ATOM      8  C   UNL     1      35.521 -47.645   3.725  1.00  0.00     0.000 C 
BRANCH   8   9
ATOM      9  C   UNL     1      34.660 -47.308   2.500  1.00  0.00    -0.000 C 
BRANCH   9  10
ATOM     10  C   UNL     1      35.014 -45.924   1.943  1.00  0.00    -0.000 C 
BRANCH  10  11
ATOM     11  C   UNL     1      34.096 -44.843   2.531  1.00  0.00    -0.000 C 
BRANCH  11  12
ATOM     12  C   UNL     1      32.779 -44.700   1.753  1.00  0.00    -0.003 C 
ATOM     13  C   UNL     1      32.994 -44.566   0.246  1.00  0.00     0.004 C 
ENDBRANCH  11  12
ENDBRANCH  10  11
ENDBRANCH   9  10
ENDBRANCH   8   9
ENDBRANCH   1   8
TORSDOF 9
ENDMDL
MODEL 6
REMARK VINA RESULT:    -3.385      2.949      4.436
REMARK INTER + INTRA:          -5.988
REMARK INTER:                  -5.235
REMARK INTRA:                  -0.753
REMARK UNBOUND:                -0.822
REMARK SMILES CCCCCCCCCCC(=O)[O-]
REMARK SMILES IDX 7 1 8 2 9 3 10 4 11 5 12 6 13 7 6 8 5 9 4 10 3 11 2 12 1 13
REMARK H PARENT
REMARK Flexibility Score: inf
ROOT
ATOM      1  C   UNL     1      36.649 -47.027   2.865  1.00  0.00     0.000 C 
ENDROOT
BRANCH   1   2
ATOM      2  C   UNL     1      37.288 -48.073   3.792  1.00  0.00     0.000 C 
BRANCH   2   3
ATOM      3  C   UNL     1      36.243 -48.920   4.537  1.00  0.00     0.006 C 
BRANCH   3   4
ATOM      4  C   UNL     1      36.840 -50.198   5.139  1.00  0.00     0.053 C 
BRANCH   4   5
ATOM      5  C   UNL     1      36.222 -51.408   4.512  1.00  0.00     0.041 C 
ATOM      6  O   UNL     1      35.761 -51.348   3.341  1.00  0.00    -0.550 OA
ATOM      7  O   UNL     1      36.200 -52.614   5.200  1.00  0.00    -0.550 OA
ENDBRANCH   4   5
ENDBRANCH   3   4
ENDBRANCH   2   3
ENDBRANCH   1   2
BRANCH   1   8
ATOM      8  C   UNL     1      35.210 -46.719   3.297  1.00  0.00     0.000 C 
BRANCH   8   9
ATOM      9  C   UNL     1      34.660 -45.497   2.550  1.00  0.00    -0.000 C 
BRANCH   9  10
ATOM     10  C   UNL     1      33.488 -45.888   1.641  1.00  0.00    -0.000 C 
BRANCH  10  11
ATOM     11  C   UNL     1      33.953 -46.830   0.520  1.00  0.00    -0.000 C 
BRANCH  11  12
ATOM     12  C   UNL     1      33.246 -48.193   0.565  1.00  0.00    -0.003 C 
ATOM     13  C   UNL     1      34.220 -49.359   0.732  1.00  0.00     0.004 C 
ENDBRANCH  11  12
ENDBRANCH  10  11
ENDBRANCH   9  10
ENDBRANCH   8   9
ENDBRANCH   1   8
TORSDOF 9
ENDMDL
MODEL 7
REMARK VINA RESULT:    -3.325      3.779      5.443
REMARK INTER + INTRA:          -5.896
REMARK INTER:                  -5.141
REMARK INTRA:                  -0.755
REMARK UNBOUND:                -0.822
REMARK SMILES CCCCCCCCCCC(=O)[O-]
REMARK SMILES IDX 7 1 8 2 9 3 10 4 11 5 12 6 13 7 6 8 5 9 4 10 3 11 2 12 1 13
REMARK H PARENT
REMARK Flexibility Score: inf
ROOT
ATOM      1  C   UNL     1      33.594 -46.027   0.496  1.00  0.00     0.000 C 
ENDROOT
BRANCH   1   2
ATOM      2  C   UNL     1      33.183 -47.508   0.478  1.00  0.00     0.000 C 
BRANCH   2   3
ATOM      3  C   UNL     1      34.368 -48.453   0.738  1.00  0.00     0.006 C 
BRANCH   3   4
ATOM      4  C   UNL     1      34.478 -48.870   2.210  1.00  0.00     0.053 C 
BRANCH   4   5
ATOM      5  C   UNL     1      34.243 -50.341   2.355  1.00  0.00     0.041 C 
ATOM      6  O   UNL     1      33.179 -50.857   1.921  1.00  0.00    -0.550 OA
ATOM      7  O   UNL     1      35.218 -51.149   2.923  1.00  0.00    -0.550 OA
ENDBRANCH   4   5
ENDBRANCH   3   4
ENDBRANCH   2   3
ENDBRANCH   1   2
BRANCH   1   8
ATOM      8  C   UNL     1      33.065 -45.327   1.754  1.00  0.00     0.000 C 
BRANCH   8   9
ATOM      9  C   UNL     1      34.202 -44.648   2.527  1.00  0.00    -0.000 C 
BRANCH   9  10
ATOM     10  C   UNL     1      35.379 -44.319   1.598  1.00  0.00    -0.000 C 
BRANCH  10  11
ATOM     11  C   UNL     1      35.879 -42.886   1.833  1.00  0.00    -0.000 C 
BRANCH  11  12
ATOM     12  C   UNL     1      35.505 -41.935   0.686  1.00  0.00    -0.003 C 
ATOM     13  C   UNL     1      34.700 -42.625  -0.415  1.00  0.00     0.004 C 
ENDBRANCH  11  12
ENDBRANCH  10  11
ENDBRANCH   9  10
ENDBRANCH   8   9
ENDBRANCH   1   8
TORSDOF 9
ENDMDL
MODEL 8
REMARK VINA RESULT:    -3.323      2.783      4.404
REMARK INTER + INTRA:          -5.894
REMARK INTER:                  -4.975
REMARK INTRA:                  -0.919
REMARK UNBOUND:                -0.822
REMARK SMILES CCCCCCCCCCC(=O)[O-]
REMARK SMILES IDX 7 1 8 2 9 3 10 4 11 5 12 6 13 7 6 8 5 9 4 10 3 11 2 12 1 13
REMARK H PARENT
REMARK Flexibility Score: inf
ROOT
ATOM      1  C   UNL     1      33.439 -49.789   0.780  1.00  0.00     0.000 C 
ENDROOT
BRANCH   1   2
ATOM      2  C   UNL     1      33.955 -50.232   2.157  1.00  0.00     0.000 C 
BRANCH   2   3
ATOM      3  C   UNL     1      35.469 -50.018   2.317  1.00  0.00     0.006 C 
BRANCH   3   4
ATOM      4  C   UNL     1      35.834 -49.352   3.650  1.00  0.00     0.053 C 
BRANCH   4   5
ATOM      5  C   UNL     1      36.511 -50.332   4.555  1.00  0.00     0.041 C 
ATOM      6  O   UNL     1      36.517 -50.143   5.801  1.00  0.00    -0.550 OA
ATOM      7  O   UNL     1      37.092 -51.479   4.030  1.00  0.00    -0.550 OA
ENDBRANCH   4   5
ENDBRANCH   3   4
ENDBRANCH   2   3
ENDBRANCH   1   2
BRANCH   1   8
ATOM      8  C   UNL     1      33.215 -48.272   0.740  1.00  0.00     0.000 C 
BRANCH   8   9
ATOM      9  C   UNL     1      34.285 -47.580  -0.113  1.00  0.00    -0.000 C 
BRANCH   9  10
ATOM     10  C   UNL     1      34.779 -46.293   0.560  1.00  0.00    -0.000 C 
BRANCH  10  11
ATOM     11  C   UNL     1      34.346 -46.243   2.032  1.00  0.00    -0.000 C 
BRANCH  11  12
ATOM     12  C   UNL     1      33.561 -44.967   2.374  1.00  0.00    -0.003 C 
ATOM     13  C   UNL     1      32.845 -44.371   1.162  1.00  0.00     0.004 C 
ENDBRANCH  11  12
ENDBRANCH  10  11
ENDBRANCH   9  10
ENDBRANCH   8   9
ENDBRANCH   1   8
TORSDOF 9
ENDMDL
MODEL 9
REMARK VINA RESULT:    -3.289      3.025      4.100
REMARK INTER + INTRA:          -5.842
REMARK INTER:                  -4.951
REMARK INTRA:                  -0.891
REMARK UNBOUND:                -0.822
REMARK SMILES CCCCCCCCCCC(=O)[O-]
REMARK SMILES IDX 7 1 8 2 9 3 10 4 11 5 12 6 13 7 6 8 5 9 4 10 3 11 2 12 1 13
REMARK H PARENT
REMARK Flexibility Score: inf
ROOT
ATOM      1  C   UNL     1      33.890 -46.082   1.769  1.00  0.00     0.000 C 
ENDROOT
BRANCH   1   2
ATOM      2  C   UNL     1      34.216 -46.747   0.422  1.00  0.00     0.000 C 
BRANCH   2   3
ATOM      3  C   UNL     1      33.492 -48.090   0.236  1.00  0.00     0.006 C 
BRANCH   3   4
ATOM      4  C   UNL     1      34.239 -49.259   0.891  1.00  0.00     0.053 C 
BRANCH   4   5
ATOM      5  C   UNL     1      33.268 -50.256   1.440  1.00  0.00     0.041 C 
ATOM      6  O   UNL     1      32.090 -50.302   0.997  1.00  0.00    -0.550 OA
ATOM      7  O   UNL     1      33.677 -51.168   2.404  1.00  0.00    -0.550 OA
ENDBRANCH   4   5
ENDBRANCH   3   4
ENDBRANCH   2   3
ENDBRANCH   1   2
BRANCH   1   8
ATOM      8  C   UNL     1      32.830 -44.988   1.598  1.00  0.00     0.000 C 
BRANCH   8   9
ATOM      9  C   UNL     1      33.322 -43.886   0.651  1.00  0.00    -0.000 C 
BRANCH   9  10
ATOM     10  C   UNL     1      32.260 -43.551  -0.404  1.00  0.00    -0.000 C 
BRANCH  10  11
ATOM     11  C   UNL     1      32.643 -44.133  -1.772  1.00  0.00    -0.000 C 
BRANCH  11  12
ATOM     12  C   UNL     1      31.671 -45.227  -2.240  1.00  0.00    -0.003 C 
ATOM     13  C   UNL     1      32.385 -46.423  -2.869  1.00  0.00     0.004 C 
ENDBRANCH  11  12
ENDBRANCH  10  11
ENDBRANCH   9  10
ENDBRANCH   8   9
ENDBRANCH   1   8
TORSDOF 9
ENDMDL
