MODEL 1
REMARK VINA RESULT:    -4.311      0.000      0.000
REMARK INTER + INTRA:          -4.437
REMARK INTER:                  -4.437
REMARK INTRA:                   0.000
REMARK UNBOUND:                 0.000
REMARK SMILES Nc1ncnc2nc[nH]c12
REMARK SMILES IDX 8 1 7 2 6 3 5 4 4 5 3 6 2 7 10 8 9 9 1 11
REMARK H PARENT 9 10 1 12 1 13
REMARK Flexibility Score: inf
ROOT
ATOM      1  C   UNL     1      39.012 -43.142  19.012  1.00  0.00     0.199 A 
ATOM      2  N   UNL     1      39.042 -42.022  19.786  1.00  0.00    -0.217 NA
ATOM      3  C   UNL     1      38.609 -42.482  20.971  1.00  0.00     0.182 A 
ATOM      4  N   UNL     1      38.449 -41.763  22.108  1.00  0.00    -0.215 NA
ATOM      5  C   UNL     1      37.994 -42.410  23.223  1.00  0.00     0.226 A 
ATOM      6  N   UNL     1      37.710 -43.753  23.181  1.00  0.00    -0.217 NA
ATOM      7  C   UNL     1      37.870 -44.480  22.035  1.00  0.00     0.152 A 
ATOM      8  C   UNL     1      38.335 -43.806  20.910  1.00  0.00     0.127 A 
ATOM      9  N   UNL     1      38.584 -44.248  19.671  1.00  0.00    -0.340 N 
ATOM     10  H   UNL     1      38.478 -45.214  19.289  1.00  0.00     0.168 HD
ENDROOT
BRANCH   7  11
ATOM     11  N   UNL     1      37.568 -45.875  22.015  1.00  0.00    -0.382 N 
ATOM     12  H   UNL     1      36.757 -46.225  21.459  1.00  0.00     0.158 HD
ATOM     13  H   UNL     1      38.141 -46.563  22.550  1.00  0.00     0.158 HD
ENDBRANCH   7  11
TORSDOF 1
ENDMDL
MODEL 2
REMARK VINA RESULT:    -3.953      1.077      3.079
REMARK INTER + INTRA:          -4.069
REMARK INTER:                  -4.069
REMARK INTRA:                   0.000
REMARK UNBOUND:                 0.000
REMARK SMILES Nc1ncnc2nc[nH]c12
REMARK SMILES IDX 8 1 7 2 6 3 5 4 4 5 3 6 2 7 10 8 9 9 1 11
REMARK H PARENT 9 10 1 12 1 13
REMARK Flexibility Score: inf
ROOT
ATOM      1  C   UNL     1      37.155 -45.883  23.011  1.00  0.00     0.199 A 
ATOM      2  N   UNL     1      37.206 -44.764  23.784  1.00  0.00    -0.217 NA
ATOM      3  C   UNL     1      37.686 -43.847  22.928  1.00  0.00     0.182 A 
ATOM      4  N   UNL     1      37.932 -42.542  23.195  1.00  0.00    -0.215 NA
ATOM      5  C   UNL     1      38.424 -41.758  22.189  1.00  0.00     0.226 A 
ATOM      6  N   UNL     1      38.659 -42.289  20.945  1.00  0.00    -0.217 NA
ATOM      7  C   UNL     1      38.412 -43.605  20.673  1.00  0.00     0.152 A 
ATOM      8  C   UNL     1      37.911 -44.389  21.708  1.00  0.00     0.127 A 
ATOM      9  N   UNL     1      37.580 -45.686  21.737  1.00  0.00    -0.340 N 
ATOM     10  H   UNL     1      37.632 -46.390  20.968  1.00  0.00     0.168 HD
ENDROOT
BRANCH   7  11
ATOM     11  N   UNL     1      38.665 -44.136  19.371  1.00  0.00    -0.382 N 
ATOM     12  H   UNL     1      39.025 -43.513  18.616  1.00  0.00     0.158 HD
ATOM     13  H   UNL     1      38.497 -45.141  19.152  1.00  0.00     0.158 HD
ENDBRANCH   7  11
TORSDOF 1
ENDMDL
MODEL 3
REMARK VINA RESULT:    -3.801      0.925      2.906
REMARK INTER + INTRA:          -3.912
REMARK INTER:                  -3.912
REMARK INTRA:                   0.000
REMARK UNBOUND:                 0.000
REMARK SMILES Nc1ncnc2nc[nH]c12
REMARK SMILES IDX 8 1 7 2 6 3 5 4 4 5 3 6 2 7 10 8 9 9 1 11
REMARK H PARENT 9 10 1 12 1 13
REMARK Flexibility Score: inf
ROOT
ATOM      1  C   UNL     1      38.260 -41.107  23.064  1.00  0.00     0.199 A 
ATOM      2  N   UNL     1      38.634 -40.547  21.881  1.00  0.00    -0.217 NA
ATOM      3  C   UNL     1      38.715 -41.615  21.072  1.00  0.00     0.182 A 
ATOM      4  N   UNL     1      39.055 -41.613  19.761  1.00  0.00    -0.215 NA
ATOM      5  C   UNL     1      39.083 -42.809  19.099  1.00  0.00     0.226 A 
ATOM      6  N   UNL     1      38.772 -43.975  19.754  1.00  0.00    -0.217 NA
ATOM      7  C   UNL     1      38.429 -43.979  21.076  1.00  0.00     0.152 A 
ATOM      8  C   UNL     1      38.405 -42.754  21.735  1.00  0.00     0.127 A 
ATOM      9  N   UNL     1      38.112 -42.455  23.007  1.00  0.00    -0.340 N 
ATOM     10  H   UNL     1      37.834 -43.097  23.781  1.00  0.00     0.168 HD
ENDROOT
BRANCH   7  11
ATOM     11  N   UNL     1      38.110 -45.205  21.737  1.00  0.00    -0.382 N 
ATOM     12  H   UNL     1      38.433 -46.113  21.336  1.00  0.00     0.158 HD
ATOM     13  H   UNL     1      37.556 -45.218  22.620  1.00  0.00     0.158 HD
ENDBRANCH   7  11
TORSDOF 1
ENDMDL
MODEL 4
REMARK VINA RESULT:    -3.765      8.736     10.091
REMARK INTER + INTRA:          -3.875
REMARK INTER:                  -3.875
REMARK INTRA:                   0.000
REMARK UNBOUND:                 0.000
REMARK SMILES Nc1ncnc2nc[nH]c12
REMARK SMILES IDX 8 1 7 2 6 3 5 4 4 5 3 6 2 7 10 8 9 9 1 11
REMARK H PARENT 9 10 1 12 1 13
REMARK Flexibility Score: inf
ROOT
ATOM      1  C   UNL     1      44.375 -43.818  30.942  1.00  0.00     0.199 A 
ATOM      2  N   UNL     1      43.541 -43.166  30.086  1.00  0.00    -0.217 NA
ATOM      3  C   UNL     1      42.711 -44.146  29.695  1.00  0.00     0.182 A 
ATOM      4  N   UNL     1      41.675 -44.030  28.829  1.00  0.00    -0.215 NA
ATOM      5  C   UNL     1      40.938 -45.147  28.551  1.00  0.00     0.226 A 
ATOM      6  N   UNL     1      41.247 -46.349  29.139  1.00  0.00    -0.217 NA
ATOM      7  C   UNL     1      42.291 -46.468  30.012  1.00  0.00     0.152 A 
ATOM      8  C   UNL     1      43.030 -45.321  30.285  1.00  0.00     0.127 A 
ATOM      9  N   UNL     1      44.089 -45.137  31.084  1.00  0.00    -0.340 N 
ATOM     10  H   UNL     1      44.585 -45.835  31.680  1.00  0.00     0.168 HD
ENDROOT
BRANCH   7  11
ATOM     11  N   UNL     1      42.593 -47.729  30.611  1.00  0.00    -0.382 N 
ATOM     12  H   UNL     1      42.104 -48.591  30.285  1.00  0.00     0.158 HD
ATOM     13  H   UNL     1      43.298 -47.812  31.375  1.00  0.00     0.158 HD
ENDBRANCH   7  11
TORSDOF 1
ENDMDL
MODEL 5
REMARK VINA RESULT:    -3.762      1.686      2.710
REMARK INTER + INTRA:          -3.872
REMARK INTER:                  -3.872
REMARK INTRA:                   0.000
REMARK UNBOUND:                 0.000
REMARK SMILES Nc1ncnc2nc[nH]c12
REMARK SMILES IDX 8 1 7 2 6 3 5 4 4 5 3 6 2 7 10 8 9 9 1 11
REMARK H PARENT 9 10 1 12 1 13
REMARK Flexibility Score: inf
ROOT
ATOM      1  C   UNL     1      38.197 -41.500  22.208  1.00  0.00     0.199 A 
ATOM      2  N   UNL     1      38.065 -41.894  23.504  1.00  0.00    -0.217 NA
ATOM      3  C   UNL     1      37.706 -43.182  23.376  1.00  0.00     0.182 A 
ATOM      4  N   UNL     1      37.445 -44.053  24.380  1.00  0.00    -0.215 NA
ATOM      5  C   UNL     1      37.092 -45.332  24.051  1.00  0.00     0.226 A 
ATOM      6  N   UNL     1      37.007 -45.713  22.735  1.00  0.00    -0.217 NA
ATOM      7  C   UNL     1      37.270 -44.837  21.720  1.00  0.00     0.152 A 
ATOM      8  C   UNL     1      37.628 -43.539  22.073  1.00  0.00     0.127 A 
ATOM      9  N   UNL     1      37.937 -42.483  21.309  1.00  0.00    -0.340 N 
ATOM     10  H   UNL     1      37.973 -42.419  20.268  1.00  0.00     0.168 HD
ENDROOT
BRANCH   7  11
ATOM     11  N   UNL     1      37.174 -45.257  20.358  1.00  0.00    -0.382 N 
ATOM     12  H   UNL     1      36.922 -44.567  19.617  1.00  0.00     0.158 HD
ATOM     13  H   UNL     1      37.351 -46.247  20.081  1.00  0.00     0.158 HD
ENDBRANCH   7  11
TORSDOF 1
ENDMDL
MODEL 6
REMARK VINA RESULT:    -3.658      8.305      9.918
REMARK INTER + INTRA:          -3.765
REMARK INTER:                  -3.765
REMARK INTRA:                   0.000
REMARK UNBOUND:                 0.000
REMARK SMILES Nc1ncnc2nc[nH]c12
REMARK SMILES IDX 8 1 7 2 6 3 5 4 4 5 3 6 2 7 10 8 9 9 1 11
REMARK H PARENT 9 10 1 12 1 13
REMARK Flexibility Score: inf
ROOT
ATOM      1  C   UNL     1      43.957 -43.256  30.726  1.00  0.00     0.199 A 
ATOM      2  N   UNL     1      44.073 -44.596  30.936  1.00  0.00    -0.217 NA
ATOM      3  C   UNL     1      43.002 -45.080  30.285  1.00  0.00     0.182 A 
ATOM      4  N   UNL     1      42.641 -46.381  30.180  1.00  0.00    -0.215 NA
ATOM      5  C   UNL     1      41.511 -46.682  29.472  1.00  0.00     0.226 A 
ATOM      6  N   UNL     1      40.769 -45.685  28.887  1.00  0.00    -0.217 NA
ATOM      7  C   UNL     1      41.132 -44.372  28.993  1.00  0.00     0.152 A 
ATOM      8  C   UNL     1      42.285 -44.083  29.717  1.00  0.00     0.127 A 
ATOM      9  N   UNL     1      42.874 -42.911  29.985  1.00  0.00    -0.340 N 
ATOM     10  H   UNL     1      42.580 -41.952  29.696  1.00  0.00     0.168 HD
ENDROOT
BRANCH   7  11
ATOM     11  N   UNL     1      40.344 -43.352  28.377  1.00  0.00    -0.382 N 
ATOM     12  H   UNL     1      40.431 -43.174  27.353  1.00  0.00     0.158 HD
ATOM     13  H   UNL     1      39.677 -42.773  28.931  1.00  0.00     0.158 HD
ENDBRANCH   7  11
TORSDOF 1
ENDMDL
MODEL 7
REMARK VINA RESULT:    -3.634      1.511      2.486
REMARK INTER + INTRA:          -3.741
REMARK INTER:                  -3.741
REMARK INTRA:                   0.000
REMARK UNBOUND:                 0.000
REMARK SMILES Nc1ncnc2nc[nH]c12
REMARK SMILES IDX 8 1 7 2 6 3 5 4 4 5 3 6 2 7 10 8 9 9 1 11
REMARK H PARENT 9 10 1 12 1 13
REMARK Flexibility Score: inf
ROOT
ATOM      1  C   UNL     1      39.343 -39.846  19.966  1.00  0.00     0.199 A 
ATOM      2  N   UNL     1      38.946 -39.941  21.265  1.00  0.00    -0.217 NA
ATOM      3  C   UNL     1      38.722 -41.258  21.399  1.00  0.00     0.182 A 
ATOM      4  N   UNL     1      38.303 -41.898  22.517  1.00  0.00    -0.215 NA
ATOM      5  C   UNL     1      38.130 -43.253  22.460  1.00  0.00     0.226 A 
ATOM      6  N   UNL     1      38.377 -43.938  21.297  1.00  0.00    -0.217 NA
ATOM      7  C   UNL     1      38.800 -43.295  20.168  1.00  0.00     0.152 A 
ATOM      8  C   UNL     1      38.971 -41.916  20.243  1.00  0.00     0.127 A 
ATOM      9  N   UNL     1      39.368 -41.036  19.315  1.00  0.00    -0.340 N 
ATOM     10  H   UNL     1      39.636 -41.211  18.322  1.00  0.00     0.168 HD
ENDROOT
BRANCH   7  11
ATOM     11  N   UNL     1      39.050 -44.029  18.968  1.00  0.00    -0.382 N 
ATOM     12  H   UNL     1      39.398 -43.534  18.117  1.00  0.00     0.158 HD
ATOM     13  H   UNL     1      38.891 -45.058  18.918  1.00  0.00     0.158 HD
ENDBRANCH   7  11
TORSDOF 1
ENDMDL
MODEL 8
REMARK VINA RESULT:    -3.609      8.662      9.958
REMARK INTER + INTRA:          -3.714
REMARK INTER:                  -3.714
REMARK INTRA:                   0.000
REMARK UNBOUND:                 0.000
REMARK SMILES Nc1ncnc2nc[nH]c12
REMARK SMILES IDX 8 1 7 2 6 3 5 4 4 5 3 6 2 7 10 8 9 9 1 11
REMARK H PARENT 9 10 1 12 1 13
REMARK Flexibility Score: inf
ROOT
ATOM      1  C   UNL     1      43.728 -43.233  30.161  1.00  0.00     0.199 A 
ATOM      2  N   UNL     1      43.005 -43.153  31.312  1.00  0.00    -0.217 NA
ATOM      3  C   UNL     1      42.011 -44.027  31.086  1.00  0.00     0.182 A 
ATOM      4  N   UNL     1      40.996 -44.333  31.929  1.00  0.00    -0.215 NA
ATOM      5  C   UNL     1      40.072 -45.254  31.520  1.00  0.00     0.226 A 
ATOM      6  N   UNL     1      40.177 -45.845  30.286  1.00  0.00    -0.217 NA
ATOM      7  C   UNL     1      41.200 -45.537  29.433  1.00  0.00     0.152 A 
ATOM      8  C   UNL     1      42.132 -44.599  29.865  1.00  0.00     0.127 A 
ATOM      9  N   UNL     1      43.220 -44.108  29.257  1.00  0.00    -0.340 N 
ATOM     10  H   UNL     1      43.598 -44.338  28.312  1.00  0.00     0.168 HD
ENDROOT
BRANCH   7  11
ATOM     11  N   UNL     1      41.289 -46.165  28.154  1.00  0.00    -0.382 N 
ATOM     12  H   UNL     1      42.117 -46.755  27.919  1.00  0.00     0.158 HD
ATOM     13  H   UNL     1      40.539 -46.048  27.438  1.00  0.00     0.158 HD
ENDBRANCH   7  11
TORSDOF 1
ENDMDL
MODEL 9
REMARK VINA RESULT:    -3.547      7.173      8.589
REMARK INTER + INTRA:          -3.650
REMARK INTER:                  -3.650
REMARK INTRA:                   0.000
REMARK UNBOUND:                 0.000
REMARK SMILES Nc1ncnc2nc[nH]c12
REMARK SMILES IDX 8 1 7 2 6 3 5 4 4 5 3 6 2 7 10 8 9 9 1 11
REMARK H PARENT 9 10 1 12 1 13
REMARK Flexibility Score: inf
ROOT
ATOM      1  C   UNL     1      38.905 -44.078  27.886  1.00  0.00     0.199 A 
ATOM      2  N   UNL     1      39.352 -43.285  28.898  1.00  0.00    -0.217 NA
ATOM      3  C   UNL     1      40.348 -44.020  29.418  1.00  0.00     0.182 A 
ATOM      4  N   UNL     1      41.138 -43.684  30.466  1.00  0.00    -0.215 NA
ATOM      5  C   UNL     1      42.107 -44.568  30.854  1.00  0.00     0.226 A 
ATOM      6  N   UNL     1      42.267 -45.760  30.192  1.00  0.00    -0.217 NA
ATOM      7  C   UNL     1      41.471 -46.100  29.135  1.00  0.00     0.152 A 
ATOM      8  C   UNL     1      40.491 -45.190  28.753  1.00  0.00     0.127 A 
ATOM      9  N   UNL     1      39.581 -45.250  27.772  1.00  0.00    -0.340 N 
ATOM     10  H   UNL     1      39.420 -46.011  27.077  1.00  0.00     0.168 HD
ENDROOT
BRANCH   7  11
ATOM     11  N   UNL     1      41.656 -47.346  28.462  1.00  0.00    -0.382 N 
ATOM     12  H   UNL     1      42.226 -48.099  28.906  1.00  0.00     0.158 HD
ATOM     13  H   UNL     1      41.232 -47.526  27.526  1.00  0.00     0.158 HD
ENDBRANCH   7  11
TORSDOF 1
ENDMDL
