MODEL 1
REMARK VINA RESULT:    -4.869      0.000      0.000
REMARK INTER + INTRA:          -8.074
REMARK INTER:                  -7.146
REMARK INTRA:                  -0.928
REMARK UNBOUND:                -0.928
REMARK SMILES O=C([O-])CCCCCCCC(=O)[O-]
REMARK SMILES IDX 7 1 6 2 5 3 4 4 2 5 1 6 3 7 8 8 9 9 10 10 11 11 12 12 13 13
REMARK H PARENT
REMARK Flexibility Score: inf
ROOT
ATOM      1  C   UNL     1     -27.063  -1.134  22.852  1.00  0.00     0.000 C 
ENDROOT
BRANCH   1   2
ATOM      2  C   UNL     1     -27.565   0.298  22.613  1.00  0.00     0.000 C 
BRANCH   2   3
ATOM      3  C   UNL     1     -29.002   0.340  22.070  1.00  0.00     0.006 C 
BRANCH   3   4
ATOM      4  C   UNL     1     -29.603  -1.059  21.882  1.00  0.00     0.053 C 
BRANCH   4   5
ATOM      5  C   UNL     1     -30.777  -1.250  22.790  1.00  0.00     0.041 C 
ATOM      6  O   UNL     1     -31.661  -0.358  22.879  1.00  0.00    -0.550 OA
ATOM      7  O   UNL     1     -30.869  -2.391  23.578  1.00  0.00    -0.550 OA
ENDBRANCH   4   5
ENDBRANCH   3   4
ENDBRANCH   2   3
ENDBRANCH   1   2
BRANCH   1   8
ATOM      8  C   UNL     1     -26.849  -1.396  24.351  1.00  0.00     0.000 C 
BRANCH   8   9
ATOM      9  C   UNL     1     -27.483  -0.311  25.238  1.00  0.00     0.006 C 
BRANCH   9  10
ATOM     10  C   UNL     1     -28.633  -0.851  26.098  1.00  0.00     0.053 C 
BRANCH  10  11
ATOM     11  C   UNL     1     -29.825   0.048  25.998  1.00  0.00     0.041 C 
ATOM     12  O   UNL     1     -29.731   1.165  25.426  1.00  0.00    -0.550 OA
ATOM     13  O   UNL     1     -31.028  -0.328  26.582  1.00  0.00    -0.550 OA
ENDBRANCH  10  11
ENDBRANCH   9  10
ENDBRANCH   8   9
ENDBRANCH   1   8
TORSDOF 8
ENDMDL
MODEL 2
REMARK VINA RESULT:    -4.863      1.174      3.651
REMARK INTER + INTRA:          -8.065
REMARK INTER:                  -7.140
REMARK INTRA:                  -0.925
REMARK UNBOUND:                -0.928
REMARK SMILES O=C([O-])CCCCCCCC(=O)[O-]
REMARK SMILES IDX 7 1 6 2 5 3 4 4 2 5 1 6 3 7 8 8 9 9 10 10 11 11 12 12 13 13
REMARK H PARENT
REMARK Flexibility Score: inf
ROOT
ATOM      1  C   UNL     1     -27.148  -0.195  22.435  1.00  0.00     0.000 C 
ENDROOT
BRANCH   1   2
ATOM      2  C   UNL     1     -26.584  -1.217  23.434  1.00  0.00     0.000 C 
BRANCH   2   3
ATOM      3  C   UNL     1     -27.271  -1.146  24.807  1.00  0.00     0.006 C 
BRANCH   3   4
ATOM      4  C   UNL     1     -27.704   0.279  25.178  1.00  0.00     0.053 C 
BRANCH   4   5
ATOM      5  C   UNL     1     -28.667   0.251  26.322  1.00  0.00     0.041 C 
ATOM      6  O   UNL     1     -28.582  -0.646  27.201  1.00  0.00    -0.550 OA
ATOM      7  O   UNL     1     -29.693   1.187  26.391  1.00  0.00    -0.550 OA
ENDBRANCH   4   5
ENDBRANCH   3   4
ENDBRANCH   2   3
ENDBRANCH   1   2
BRANCH   1   8
ATOM      8  C   UNL     1     -27.878  -0.901  21.283  1.00  0.00     0.000 C 
BRANCH   8   9
ATOM      9  C   UNL     1     -29.396  -0.654  21.303  1.00  0.00     0.006 C 
BRANCH   9  10
ATOM     10  C   UNL     1     -30.146  -1.660  22.186  1.00  0.00     0.053 C 
BRANCH  10  11
ATOM     11  C   UNL     1     -30.745  -0.970  23.370  1.00  0.00     0.041 C 
ATOM     12  O   UNL     1     -30.976   0.267  23.333  1.00  0.00    -0.550 OA
ATOM     13  O   UNL     1     -31.002  -1.685  24.533  1.00  0.00    -0.550 OA
ENDBRANCH  10  11
ENDBRANCH   9  10
ENDBRANCH   8   9
ENDBRANCH   1   8
TORSDOF 8
ENDMDL
MODEL 3
REMARK VINA RESULT:    -4.851      2.683      3.505
REMARK INTER + INTRA:          -8.049
REMARK INTER:                  -7.170
REMARK INTRA:                  -0.878
REMARK UNBOUND:                -0.928
REMARK SMILES O=C([O-])CCCCCCCC(=O)[O-]
REMARK SMILES IDX 7 1 6 2 5 3 4 4 2 5 1 6 3 7 8 8 9 9 10 10 11 11 12 12 13 13
REMARK H PARENT
REMARK Flexibility Score: inf
ROOT
ATOM      1  C   UNL     1     -30.285  -1.951  23.795  1.00  0.00     0.000 C 
ENDROOT
BRANCH   1   2
ATOM      2  C   UNL     1     -30.566  -0.887  22.723  1.00  0.00     0.000 C 
BRANCH   2   3
ATOM      3  C   UNL     1     -30.106  -1.320  21.322  1.00  0.00     0.006 C 
BRANCH   3   4
ATOM      4  C   UNL     1     -29.049  -0.379  20.731  1.00  0.00     0.053 C 
BRANCH   4   5
ATOM      5  C   UNL     1     -27.986  -1.164  20.027  1.00  0.00     0.041 C 
ATOM      6  O   UNL     1     -26.925  -1.475  20.629  1.00  0.00    -0.550 OA
ATOM      7  O   UNL     1     -28.147  -1.508  18.690  1.00  0.00    -0.550 OA
ENDBRANCH   4   5
ENDBRANCH   3   4
ENDBRANCH   2   3
ENDBRANCH   1   2
BRANCH   1   8
ATOM      8  C   UNL     1     -28.887  -2.559  23.609  1.00  0.00     0.000 C 
BRANCH   8   9
ATOM      9  C   UNL     1     -27.881  -2.064  24.660  1.00  0.00     0.006 C 
BRANCH   9  10
ATOM     10  C   UNL     1     -26.784  -1.178  24.056  1.00  0.00     0.053 C 
BRANCH  10  11
ATOM     11  C   UNL     1     -27.248   0.241  23.968  1.00  0.00     0.041 C 
ATOM     12  O   UNL     1     -26.777   1.009  23.090  1.00  0.00    -0.550 OA
ATOM     13  O   UNL     1     -28.166   0.729  24.890  1.00  0.00    -0.550 OA
ENDBRANCH  10  11
ENDBRANCH   9  10
ENDBRANCH   8   9
ENDBRANCH   1   8
TORSDOF 8
ENDMDL
MODEL 4
REMARK VINA RESULT:    -4.848      2.644      3.647
REMARK INTER + INTRA:          -8.044
REMARK INTER:                  -7.188
REMARK INTRA:                  -0.855
REMARK UNBOUND:                -0.928
REMARK SMILES O=C([O-])CCCCCCCC(=O)[O-]
REMARK SMILES IDX 7 1 6 2 5 3 4 4 2 5 1 6 3 7 8 8 9 9 10 10 11 11 12 12 13 13
REMARK H PARENT
REMARK Flexibility Score: inf
ROOT
ATOM      1  C   UNL     1     -30.836  -1.302  24.694  1.00  0.00     0.000 C 
ENDROOT
BRANCH   1   2
ATOM      2  C   UNL     1     -30.786  -2.269  23.501  1.00  0.00     0.000 C 
BRANCH   2   3
ATOM      3  C   UNL     1     -30.215  -1.616  22.233  1.00  0.00     0.006 C 
BRANCH   3   4
ATOM      4  C   UNL     1     -28.900  -2.262  21.777  1.00  0.00     0.053 C 
BRANCH   4   5
ATOM      5  C   UNL     1     -28.196  -1.377  20.797  1.00  0.00     0.041 C 
ATOM      6  O   UNL     1     -26.942  -1.417  20.694  1.00  0.00    -0.550 OA
ATOM      7  O   UNL     1     -28.922  -0.472  20.031  1.00  0.00    -0.550 OA
ENDBRANCH   4   5
ENDBRANCH   3   4
ENDBRANCH   2   3
ENDBRANCH   1   2
BRANCH   1   8
ATOM      8  C   UNL     1     -30.553   0.139  24.244  1.00  0.00     0.000 C 
BRANCH   8   9
ATOM      9  C   UNL     1     -29.338   0.754  24.956  1.00  0.00     0.006 C 
BRANCH   9  10
ATOM     10  C   UNL     1     -28.285  -0.294  25.340  1.00  0.00     0.053 C 
BRANCH  10  11
ATOM     11  C   UNL     1     -27.189  -0.328  24.322  1.00  0.00     0.041 C 
ATOM     12  O   UNL     1     -27.039   0.629  23.519  1.00  0.00    -0.550 OA
ATOM     13  O   UNL     1     -26.363  -1.441  24.230  1.00  0.00    -0.550 OA
ENDBRANCH  10  11
ENDBRANCH   9  10
ENDBRANCH   8   9
ENDBRANCH   1   8
TORSDOF 8
ENDMDL
MODEL 5
REMARK VINA RESULT:    -4.821      2.547      5.014
REMARK INTER + INTRA:          -8.004
REMARK INTER:                  -7.180
REMARK INTRA:                  -0.824
REMARK UNBOUND:                -0.928
REMARK SMILES O=C([O-])CCCCCCCC(=O)[O-]
REMARK SMILES IDX 7 1 6 2 5 3 4 4 2 5 1 6 3 7 8 8 9 9 10 10 11 11 12 12 13 13
REMARK H PARENT
REMARK Flexibility Score: inf
ROOT
ATOM      1  C   UNL     1     -30.882  -1.474  24.114  1.00  0.00     0.000 C 
ENDROOT
BRANCH   1   2
ATOM      2  C   UNL     1     -30.259  -0.681  25.273  1.00  0.00     0.000 C 
BRANCH   2   3
ATOM      3  C   UNL     1     -28.779  -1.025  25.500  1.00  0.00     0.006 C 
BRANCH   3   4
ATOM      4  C   UNL     1     -27.856   0.188  25.324  1.00  0.00     0.053 C 
BRANCH   4   5
ATOM      5  C   UNL     1     -27.349   0.260  23.919  1.00  0.00     0.041 C 
ATOM      6  O   UNL     1     -26.342  -0.412  23.573  1.00  0.00    -0.550 OA
ATOM      7  O   UNL     1     -27.958   1.108  23.002  1.00  0.00    -0.550 OA
ENDBRANCH   4   5
ENDBRANCH   3   4
ENDBRANCH   2   3
ENDBRANCH   1   2
BRANCH   1   8
ATOM      8  C   UNL     1     -31.201  -0.552  22.928  1.00  0.00     0.000 C 
BRANCH   8   9
ATOM      9  C   UNL     1     -30.514  -1.002  21.627  1.00  0.00     0.006 C 
BRANCH   9  10
ATOM     10  C   UNL     1     -29.339  -1.955  21.879  1.00  0.00     0.053 C 
BRANCH  10  11
ATOM     11  C   UNL     1     -28.513  -2.102  20.641  1.00  0.00     0.041 C 
ATOM     12  O   UNL     1     -28.952  -2.757  19.660  1.00  0.00    -0.550 OA
ATOM     13  O   UNL     1     -27.236  -1.558  20.589  1.00  0.00    -0.550 OA
ENDBRANCH  10  11
ENDBRANCH   9  10
ENDBRANCH   8   9
ENDBRANCH   1   8
TORSDOF 8
ENDMDL
MODEL 6
REMARK VINA RESULT:    -4.802      1.629      2.437
REMARK INTER + INTRA:          -7.977
REMARK INTER:                  -7.199
REMARK INTRA:                  -0.778
REMARK UNBOUND:                -0.928
REMARK SMILES O=C([O-])CCCCCCCC(=O)[O-]
REMARK SMILES IDX 7 1 6 2 5 3 4 4 2 5 1 6 3 7 8 8 9 9 10 10 11 11 12 12 13 13
REMARK H PARENT
REMARK Flexibility Score: inf
ROOT
ATOM      1  C   UNL     1     -27.510  -0.739  21.373  1.00  0.00     0.000 C 
ENDROOT
BRANCH   1   2
ATOM      2  C   UNL     1     -28.828  -0.927  20.606  1.00  0.00     0.000 C 
BRANCH   2   3
ATOM      3  C   UNL     1     -29.894  -1.665  21.430  1.00  0.00     0.006 C 
BRANCH   3   4
ATOM      4  C   UNL     1     -31.019  -0.738  21.908  1.00  0.00     0.053 C 
BRANCH   4   5
ATOM      5  C   UNL     1     -31.134  -0.782  23.399  1.00  0.00     0.041 C 
ATOM      6  O   UNL     1     -30.898   0.248  24.084  1.00  0.00    -0.550 OA
ATOM      7  O   UNL     1     -31.453  -1.975  24.037  1.00  0.00    -0.550 OA
ENDBRANCH   4   5
ENDBRANCH   3   4
ENDBRANCH   2   3
ENDBRANCH   1   2
BRANCH   1   8
ATOM      8  C   UNL     1     -27.642   0.372  22.425  1.00  0.00     0.000 C 
BRANCH   8   9
ATOM      9  C   UNL     1     -26.718   0.156  23.634  1.00  0.00     0.006 C 
BRANCH   9  10
ATOM     10  C   UNL     1     -26.564  -1.326  24.003  1.00  0.00     0.053 C 
BRANCH  10  11
ATOM     11  C   UNL     1     -27.805  -1.828  24.671  1.00  0.00     0.041 C 
ATOM     12  O   UNL     1     -28.320  -1.181  25.620  1.00  0.00    -0.550 OA
ATOM     13  O   UNL     1     -28.363  -3.037  24.279  1.00  0.00    -0.550 OA
ENDBRANCH  10  11
ENDBRANCH   9  10
ENDBRANCH   8   9
ENDBRANCH   1   8
TORSDOF 8
ENDMDL
MODEL 7
REMARK VINA RESULT:    -4.800      1.882      4.017
REMARK INTER + INTRA:          -7.974
REMARK INTER:                  -7.161
REMARK INTRA:                  -0.812
REMARK UNBOUND:                -0.928
REMARK SMILES O=C([O-])CCCCCCCC(=O)[O-]
REMARK SMILES IDX 7 1 6 2 5 3 4 4 2 5 1 6 3 7 8 8 9 9 10 10 11 11 12 12 13 13
REMARK H PARENT
REMARK Flexibility Score: inf
ROOT
ATOM      1  C   UNL     1     -26.838  -1.033  23.770  1.00  0.00     0.000 C 
ENDROOT
BRANCH   1   2
ATOM      2  C   UNL     1     -27.511  -0.609  25.084  1.00  0.00     0.000 C 
BRANCH   2   3
ATOM      3  C   UNL     1     -28.963  -1.100  25.193  1.00  0.00     0.006 C 
BRANCH   3   4
ATOM      4  C   UNL     1     -29.983   0.031  25.011  1.00  0.00     0.053 C 
BRANCH   4   5
ATOM      5  C   UNL     1     -30.830  -0.219  23.803  1.00  0.00     0.041 C 
ATOM      6  O   UNL     1     -30.986   0.684  22.940  1.00  0.00    -0.550 OA
ATOM      7  O   UNL     1     -31.488  -1.434  23.655  1.00  0.00    -0.550 OA
ENDBRANCH   4   5
ENDBRANCH   3   4
ENDBRANCH   2   3
ENDBRANCH   1   2
BRANCH   1   8
ATOM      8  C   UNL     1     -27.146  -0.029  22.649  1.00  0.00     0.000 C 
BRANCH   8   9
ATOM      9  C   UNL     1     -27.545  -0.716  21.332  1.00  0.00     0.006 C 
BRANCH   9  10
ATOM     10  C   UNL     1     -28.525  -1.876  21.545  1.00  0.00     0.053 C 
BRANCH  10  11
ATOM     11  C   UNL     1     -29.453  -1.996  20.377  1.00  0.00     0.041 C 
ATOM     12  O   UNL     1     -30.601  -1.483  20.425  1.00  0.00    -0.550 OA
ATOM     13  O   UNL     1     -29.067  -2.718  19.255  1.00  0.00    -0.550 OA
ENDBRANCH  10  11
ENDBRANCH   9  10
ENDBRANCH   8   9
ENDBRANCH   1   8
TORSDOF 8
ENDMDL
MODEL 8
REMARK VINA RESULT:    -4.796      2.226      4.287
REMARK INTER + INTRA:          -7.967
REMARK INTER:                  -7.096
REMARK INTRA:                  -0.871
REMARK UNBOUND:                -0.928
REMARK SMILES O=C([O-])CCCCCCCC(=O)[O-]
REMARK SMILES IDX 7 1 6 2 5 3 4 4 2 5 1 6 3 7 8 8 9 9 10 10 11 11 12 12 13 13
REMARK H PARENT
REMARK Flexibility Score: inf
ROOT
ATOM      1  C   UNL     1     -30.813  -0.471  22.502  1.00  0.00     0.000 C 
ENDROOT
BRANCH   1   2
ATOM      2  C   UNL     1     -31.076  -1.507  23.607  1.00  0.00     0.000 C 
BRANCH   2   3
ATOM      3  C   UNL     1     -30.521  -1.071  24.972  1.00  0.00     0.006 C 
BRANCH   3   4
ATOM      4  C   UNL     1     -30.082   0.399  24.990  1.00  0.00     0.053 C 
BRANCH   4   5
ATOM      5  C   UNL     1     -29.383   0.720  26.273  1.00  0.00     0.041 C 
ATOM      6  O   UNL     1     -28.151   0.496  26.396  1.00  0.00    -0.550 OA
ATOM      7  O   UNL     1     -30.103   1.221  27.351  1.00  0.00    -0.550 OA
ENDBRANCH   4   5
ENDBRANCH   3   4
ENDBRANCH   2   3
ENDBRANCH   1   2
BRANCH   1   8
ATOM      8  C   UNL     1     -30.106  -1.119  21.302  1.00  0.00     0.000 C 
BRANCH   8   9
ATOM      9  C   UNL     1     -28.861  -1.922  21.712  1.00  0.00     0.006 C 
BRANCH   9  10
ATOM     10  C   UNL     1     -27.577  -1.084  21.668  1.00  0.00     0.053 C 
BRANCH  10  11
ATOM     11  C   UNL     1     -27.140  -0.727  23.053  1.00  0.00     0.041 C 
ATOM     12  O   UNL     1     -26.762   0.445  23.316  1.00  0.00    -0.550 OA
ATOM     13  O   UNL     1     -27.104  -1.701  24.043  1.00  0.00    -0.550 OA
ENDBRANCH  10  11
ENDBRANCH   9  10
ENDBRANCH   8   9
ENDBRANCH   1   8
TORSDOF 8
ENDMDL
MODEL 9
REMARK VINA RESULT:    -4.779      2.315      3.296
REMARK INTER + INTRA:          -7.943
REMARK INTER:                  -7.153
REMARK INTRA:                  -0.790
REMARK UNBOUND:                -0.928
REMARK SMILES O=C([O-])CCCCCCCC(=O)[O-]
REMARK SMILES IDX 7 1 6 2 5 3 4 4 2 5 1 6 3 7 8 8 9 9 10 10 11 11 12 12 13 13
REMARK H PARENT
REMARK Flexibility Score: inf
ROOT
ATOM      1  C   UNL     1     -30.673  -1.718  22.920  1.00  0.00     0.000 C 
ENDROOT
BRANCH   1   2
ATOM      2  C   UNL     1     -29.755  -1.817  21.692  1.00  0.00     0.000 C 
BRANCH   2   3
ATOM      3  C   UNL     1     -28.266  -1.864  22.067  1.00  0.00     0.006 C 
BRANCH   3   4
ATOM      4  C   UNL     1     -27.596  -0.486  21.998  1.00  0.00     0.053 C 
BRANCH   4   5
ATOM      5  C   UNL     1     -26.912  -0.172  23.292  1.00  0.00     0.041 C 
ATOM      6  O   UNL     1     -26.722   1.024  23.634  1.00  0.00    -0.550 OA
ATOM      7  O   UNL     1     -26.440  -1.202  24.096  1.00  0.00    -0.550 OA
ENDBRANCH   4   5
ENDBRANCH   3   4
ENDBRANCH   2   3
ENDBRANCH   1   2
BRANCH   1   8
ATOM      8  C   UNL     1     -31.189  -0.283  23.104  1.00  0.00     0.000 C 
BRANCH   8   9
ATOM      9  C   UNL     1     -30.435   0.480  24.206  1.00  0.00     0.006 C 
BRANCH   9  10
ATOM     10  C   UNL     1     -30.184  -0.379  25.452  1.00  0.00     0.053 C 
BRANCH  10  11
ATOM     11  C   UNL     1     -29.465   0.415  26.496  1.00  0.00     0.041 C 
ATOM     12  O   UNL     1     -28.208   0.382  26.564  1.00  0.00    -0.550 OA
ATOM     13  O   UNL     1     -30.186   1.152  27.427  1.00  0.00    -0.550 OA
ENDBRANCH  10  11
ENDBRANCH   9  10
ENDBRANCH   8   9
ENDBRANCH   1   8
TORSDOF 8
ENDMDL
