MODEL 1
REMARK VINA RESULT:     0.125      0.000      0.000
REMARK INTER + INTRA:           2.385
REMARK INTER:                   0.183
REMARK INTRA:                   2.202
REMARK UNBOUND:                 2.202
REMARK SMILES Cc1cc2c(C(C)C)c(O)c(O)c(C=O)c2c(O)c1-c1c(C)cc2c(C(C)C)c(O)c(O)c(C=O)c2c1O
REMARK SMILES IDX 1 1 2 2 3 3 4 4 16 5 13 6 11 7 9 8 5 9 17 10 19 11 20 12
REMARK SMILES IDX 37 13 21 14 36 15 23 16 22 17 24 18 33 19 25 20 31 21 29 22
REMARK SMILES IDX 38 23 34 25 35 26 26 27 27 28 28 29 32 30 30 32 18 34 6 36
REMARK SMILES IDX 7 37 8 38 14 39 15 40 10 41 12 43
REMARK H PARENT 38 24 32 31 30 33 18 35 10 42 12 44
REMARK Flexibility Score: inf
ROOT
ATOM      1  C   UNL     1      13.762  50.006  63.325  1.00  0.00     0.045 C 
ATOM      2  C   UNL     1      14.468  50.295  62.021  1.00  0.00    -0.039 A 
ATOM      3  C   UNL     1      15.829  50.603  62.033  1.00  0.00     0.013 A 
ATOM      4  C   UNL     1      16.551  50.841  60.842  1.00  0.00    -0.006 A 
ATOM      5  C   UNL     1      15.845  50.847  59.599  1.00  0.00     0.039 A 
ATOM      6  C   UNL     1      16.562  51.141  58.401  1.00  0.00     0.072 A 
ATOM      7  C   UNL     1      17.893  51.592  58.477  1.00  0.00     0.169 A 
ATOM      8  C   UNL     1      18.568  51.610  59.701  1.00  0.00     0.162 A 
ATOM      9  C   UNL     1      17.954  51.109  60.870  1.00  0.00     0.008 A 
ATOM     10  C   UNL     1      14.437  50.611  59.603  1.00  0.00     0.132 A 
ATOM     11  C   UNL     1      13.765  50.307  60.806  1.00  0.00     0.031 A 
ENDROOT
BRANCH  11  12
ATOM     12  C   UNL     1      12.304  50.028  60.799  1.00  0.00     0.031 A 
ATOM     13  C   UNL     1      11.431  50.801  61.594  1.00  0.00     0.132 A 
ATOM     14  C   UNL     1      11.797  48.986  60.004  1.00  0.00    -0.039 A 
ATOM     15  C   UNL     1      10.029  50.531  61.599  1.00  0.00     0.039 A 
ATOM     16  C   UNL     1      10.419  48.772  59.950  1.00  0.00     0.013 A 
ATOM     17  C   UNL     1      12.718  48.090  59.213  1.00  0.00     0.045 C 
ATOM     18  C   UNL     1       9.512  49.576  60.673  1.00  0.00    -0.006 A 
ATOM     19  C   UNL     1       9.124  51.190  62.485  1.00  0.00     0.072 A 
ATOM     20  C   UNL     1       8.101  49.426  60.509  1.00  0.00     0.008 A 
ATOM     21  C   UNL     1       7.747  50.889  62.434  1.00  0.00     0.169 A 
ATOM     22  C   UNL     1       7.245  50.025  61.455  1.00  0.00     0.162 A 
BRANCH  13  23
ATOM     23  O   UNL     1      11.953  51.852  62.357  1.00  0.00    -0.507 OA
ATOM     24  H   UNL     1      12.619  51.728  63.109  1.00  0.00     0.293 HD
ENDBRANCH  13  23
BRANCH  19  25
ATOM     25  C   UNL     1       9.595  52.125  63.529  1.00  0.00     0.264 C 
ATOM     26  O   UNL     1       9.238  51.977  64.728  1.00  0.00    -0.298 OA
ENDBRANCH  19  25
BRANCH  20  27
ATOM     27  C   UNL     1       7.504  48.626  59.337  1.00  0.00     0.017 C 
ATOM     28  C   UNL     1       6.351  47.736  59.812  1.00  0.00     0.012 C 
ATOM     29  C   UNL     1       7.081  49.502  58.142  1.00  0.00     0.012 C 
ENDBRANCH  20  27
BRANCH  21  30
ATOM     30  O   UNL     1       6.846  51.420  63.364  1.00  0.00    -0.504 OA
ATOM     31  H   UNL     1       7.118  51.982  64.159  1.00  0.00     0.293 HD
ENDBRANCH  21  30
BRANCH  22  32
ATOM     32  O   UNL     1       5.877  49.738  61.436  1.00  0.00    -0.504 OA
ATOM     33  H   UNL     1       5.179  50.390  61.096  1.00  0.00     0.293 HD
ENDBRANCH  22  32
ENDBRANCH  11  12
BRANCH  10  34
ATOM     34  O   UNL     1      13.699  50.717  58.417  1.00  0.00    -0.507 OA
ATOM     35  H   UNL     1      13.145  49.966  58.027  1.00  0.00     0.293 HD
ENDBRANCH  10  34
BRANCH   9  36
ATOM     36  C   UNL     1      18.795  50.903  62.144  1.00  0.00     0.017 C 
ATOM     37  C   UNL     1      18.554  52.034  63.147  1.00  0.00     0.012 C 
ATOM     38  C   UNL     1      20.300  50.709  61.874  1.00  0.00     0.012 C 
ENDBRANCH   9  36
BRANCH   6  39
ATOM     39  C   UNL     1      15.974  50.951  57.060  1.00  0.00     0.264 C 
ATOM     40  O   UNL     1      15.825  49.792  56.589  1.00  0.00    -0.298 OA
ENDBRANCH   6  39
BRANCH   8  41
ATOM     41  O   UNL     1      19.865  52.125  59.759  1.00  0.00    -0.504 OA
ATOM     42  H   UNL     1      20.112  53.040  59.404  1.00  0.00     0.293 HD
ENDBRANCH   8  41
BRANCH   7  43
ATOM     43  O   UNL     1      18.593  52.004  57.335  1.00  0.00    -0.504 OA
ATOM     44  H   UNL     1      19.081  51.375  56.711  1.00  0.00     0.293 HD
ENDBRANCH   7  43
TORSDOF 11
ENDMDL
MODEL 2
REMARK VINA RESULT:     1.495      0.524      9.430
REMARK INTER + INTRA:           4.397
REMARK INTER:                   2.343
REMARK INTRA:                   2.054
REMARK UNBOUND:                 2.202
REMARK SMILES Cc1cc2c(C(C)C)c(O)c(O)c(C=O)c2c(O)c1-c1c(C)cc2c(C(C)C)c(O)c(O)c(C=O)c2c1O
REMARK SMILES IDX 1 1 2 2 3 3 4 4 16 5 13 6 11 7 9 8 5 9 17 10 19 11 20 12
REMARK SMILES IDX 37 13 21 14 36 15 23 16 22 17 24 18 33 19 25 20 31 21 29 22
REMARK SMILES IDX 38 23 34 25 35 26 26 27 27 28 28 29 32 30 30 32 18 34 6 36
REMARK SMILES IDX 7 37 8 38 14 39 15 40 10 41 12 43
REMARK H PARENT 38 24 32 31 30 33 18 35 10 42 12 44
REMARK Flexibility Score: inf
ROOT
ATOM      1  C   UNL     1      12.815  48.454  59.101  1.00  0.00     0.045 C 
ATOM      2  C   UNL     1      11.859  49.202  59.999  1.00  0.00    -0.039 A 
ATOM      3  C   UNL     1      10.489  48.952  59.900  1.00  0.00     0.013 A 
ATOM      4  C   UNL     1       9.551  49.590  60.743  1.00  0.00    -0.006 A 
ATOM      5  C   UNL     1      10.016  50.578  61.665  1.00  0.00     0.039 A 
ATOM      6  C   UNL     1       9.064  51.261  62.480  1.00  0.00     0.072 A 
ATOM      7  C   UNL     1       7.688  51.088  62.240  1.00  0.00     0.169 A 
ATOM      8  C   UNL     1       7.243  50.140  61.315  1.00  0.00     0.162 A 
ATOM      9  C   UNL     1       8.157  49.288  60.658  1.00  0.00     0.008 A 
ATOM     10  C   UNL     1      11.409  50.885  61.705  1.00  0.00     0.132 A 
ATOM     11  C   UNL     1      12.323  50.176  60.897  1.00  0.00     0.031 A 
ENDROOT
BRANCH  11  12
ATOM     12  C   UNL     1      13.777  50.477  60.968  1.00  0.00     0.031 A 
ATOM     13  C   UNL     1      14.469  50.908  59.816  1.00  0.00     0.132 A 
ATOM     14  C   UNL     1      14.463  50.322  62.185  1.00  0.00    -0.039 A 
ATOM     15  C   UNL     1      15.868  51.189  59.875  1.00  0.00     0.039 A 
ATOM     16  C   UNL     1      15.813  50.669  62.261  1.00  0.00     0.013 A 
ATOM     17  C   UNL     1      13.766  49.779  63.408  1.00  0.00     0.045 C 
ATOM     18  C   UNL     1      16.515  51.176  61.147  1.00  0.00    -0.006 A 
ATOM     19  C   UNL     1      16.639  51.494  58.713  1.00  0.00     0.072 A 
ATOM     20  C   UNL     1      17.858  51.645  61.274  1.00  0.00     0.008 A 
ATOM     21  C   UNL     1      18.016  51.774  58.838  1.00  0.00     0.169 A 
ATOM     22  C   UNL     1      18.613  51.855  60.101  1.00  0.00     0.162 A 
BRANCH  13  23
ATOM     23  O   UNL     1      13.761  51.082  58.620  1.00  0.00    -0.507 OA
ATOM     24  H   UNL     1      13.645  50.360  57.922  1.00  0.00     0.293 HD
ENDBRANCH  13  23
BRANCH  19  25
ATOM     25  C   UNL     1      16.059  51.441  57.355  1.00  0.00     0.264 C 
ATOM     26  O   UNL     1      16.195  50.412  56.641  1.00  0.00    -0.298 OA
ENDBRANCH  19  25
BRANCH  20  27
ATOM     27  C   UNL     1      18.494  51.916  62.649  1.00  0.00     0.017 C 
ATOM     28  C   UNL     1      17.419  52.090  63.726  1.00  0.00     0.012 C 
ATOM     29  C   UNL     1      19.539  50.863  63.065  1.00  0.00     0.012 C 
ENDBRANCH  20  27
BRANCH  21  30
ATOM     30  O   UNL     1      18.831  51.958  57.715  1.00  0.00    -0.504 OA
ATOM     31  H   UNL     1      19.449  52.746  57.587  1.00  0.00     0.293 HD
ENDBRANCH  21  30
BRANCH  22  32
ATOM     32  O   UNL     1      19.981  52.125  60.192  1.00  0.00    -0.504 OA
ATOM     33  H   UNL     1      20.463  52.250  61.075  1.00  0.00     0.293 HD
ENDBRANCH  22  32
ENDBRANCH  11  12
BRANCH  10  34
ATOM     34  O   UNL     1      11.882  51.922  62.520  1.00  0.00    -0.507 OA
ATOM     35  H   UNL     1      12.829  52.276  62.493  1.00  0.00     0.293 HD
ENDBRANCH  10  34
BRANCH   9  36
ATOM     36  C   UNL     1       7.633  48.090  59.844  1.00  0.00     0.017 C 
ATOM     37  C   UNL     1       7.554  48.435  58.354  1.00  0.00     0.012 C 
ATOM     38  C   UNL     1       6.296  47.523  60.357  1.00  0.00     0.012 C 
ENDBRANCH   9  36
BRANCH   6  39
ATOM     39  C   UNL     1       9.464  52.125  63.609  1.00  0.00     0.264 C 
ATOM     40  O   UNL     1       9.108  51.842  64.783  1.00  0.00    -0.298 OA
ENDBRANCH   6  39
BRANCH   8  41
ATOM     41  O   UNL     1       5.875  50.035  61.047  1.00  0.00    -0.504 OA
ATOM     42  H   UNL     1       5.186  49.838  61.762  1.00  0.00     0.293 HD
ENDBRANCH   8  41
BRANCH   7  43
ATOM     43  O   UNL     1       6.724  51.830  62.936  1.00  0.00    -0.504 OA
ATOM     44  H   UNL     1       5.972  51.420  63.473  1.00  0.00     0.293 HD
ENDBRANCH   7  43
TORSDOF 11
ENDMDL
MODEL 3
REMARK VINA RESULT:     2.254      2.727      5.413
REMARK INTER + INTRA:           5.511
REMARK INTER:                  -0.039
REMARK INTRA:                   5.550
REMARK UNBOUND:                 2.202
REMARK SMILES Cc1cc2c(C(C)C)c(O)c(O)c(C=O)c2c(O)c1-c1c(C)cc2c(C(C)C)c(O)c(O)c(C=O)c2c1O
REMARK SMILES IDX 1 1 2 2 3 3 4 4 16 5 13 6 11 7 9 8 5 9 17 10 19 11 20 12
REMARK SMILES IDX 37 13 21 14 36 15 23 16 22 17 24 18 33 19 25 20 31 21 29 22
REMARK SMILES IDX 38 23 34 25 35 26 26 27 27 28 28 29 32 30 30 32 18 34 6 36
REMARK SMILES IDX 7 37 8 38 14 39 15 40 10 41 12 43
REMARK H PARENT 38 24 32 31 30 33 18 35 10 42 12 44
REMARK Flexibility Score: inf
ROOT
ATOM      1  C   UNL     1      16.445  50.431  58.176  1.00  0.00     0.045 C 
ATOM      2  C   UNL     1      17.348  50.770  59.338  1.00  0.00    -0.039 A 
ATOM      3  C   UNL     1      18.682  51.100  59.095  1.00  0.00     0.013 A 
ATOM      4  C   UNL     1      19.563  51.467  60.138  1.00  0.00    -0.006 A 
ATOM      5  C   UNL     1      19.090  51.416  61.486  1.00  0.00     0.039 A 
ATOM      6  C   UNL     1      19.994  51.734  62.544  1.00  0.00     0.072 A 
ATOM      7  C   UNL     1      21.361  51.913  62.265  1.00  0.00     0.169 A 
ATOM      8  C   UNL     1      21.819  51.932  60.944  1.00  0.00     0.162 A 
ATOM      9  C   UNL     1      20.913  51.847  59.865  1.00  0.00     0.008 A 
ATOM     10  C   UNL     1      17.747  50.999  61.733  1.00  0.00     0.132 A 
ATOM     11  C   UNL     1      16.879  50.710  60.660  1.00  0.00     0.031 A 
ENDROOT
BRANCH  11  12
ATOM     12  C   UNL     1      15.471  50.309  60.922  1.00  0.00     0.031 A 
ATOM     13  C   UNL     1      14.872  49.281  60.162  1.00  0.00     0.132 A 
ATOM     14  C   UNL     1      14.734  50.964  61.924  1.00  0.00    -0.039 A 
ATOM     15  C   UNL     1      13.518  48.899  60.403  1.00  0.00     0.039 A 
ATOM     16  C   UNL     1      13.436  50.540  62.210  1.00  0.00     0.013 A 
ATOM     17  C   UNL     1      15.321  52.124  62.689  1.00  0.00     0.045 C 
ATOM     18  C   UNL     1      12.836  49.464  61.521  1.00  0.00    -0.006 A 
ATOM     19  C   UNL     1      12.826  47.965  59.574  1.00  0.00     0.072 A 
ATOM     20  C   UNL     1      11.558  48.960  61.912  1.00  0.00     0.008 A 
ATOM     21  C   UNL     1      11.491  47.618  59.871  1.00  0.00     0.169 A 
ATOM     22  C   UNL     1      10.871  48.104  61.026  1.00  0.00     0.162 A 
BRANCH  13  23
ATOM     23  O   UNL     1      15.633  48.623  59.188  1.00  0.00    -0.507 OA
ATOM     24  H   UNL     1      15.825  49.002  58.269  1.00  0.00     0.293 HD
ENDBRANCH  13  23
BRANCH  19  25
ATOM     25  C   UNL     1      13.436  47.404  58.350  1.00  0.00     0.264 C 
ATOM     26  O   UNL     1      12.736  47.199  57.323  1.00  0.00    -0.298 OA
ENDBRANCH  19  25
BRANCH  20  27
ATOM     27  C   UNL     1      10.918  49.335  63.261  1.00  0.00     0.017 C 
ATOM     28  C   UNL     1      11.840  48.966  64.426  1.00  0.00     0.012 C 
ATOM     29  C   UNL     1      10.469  50.807  63.344  1.00  0.00     0.012 C 
ENDBRANCH  20  27
BRANCH  21  30
ATOM     30  O   UNL     1      10.740  46.802  59.017  1.00  0.00    -0.504 OA
ATOM     31  H   UNL     1      10.043  47.147  58.372  1.00  0.00     0.293 HD
ENDBRANCH  21  30
BRANCH  22  32
ATOM     32  O   UNL     1       9.544  47.751  61.288  1.00  0.00    -0.504 OA
ATOM     33  H   UNL     1       8.906  47.427  60.571  1.00  0.00     0.293 HD
ENDBRANCH  22  32
ENDBRANCH  11  12
BRANCH  10  34
ATOM     34  O   UNL     1      17.288  50.836  63.046  1.00  0.00    -0.507 OA
ATOM     35  H   UNL     1      17.104  51.602  63.681  1.00  0.00     0.293 HD
ENDBRANCH  10  34
BRANCH   9  36
ATOM     36  C   UNL     1      21.405  52.125  58.432  1.00  0.00     0.017 C 
ATOM     37  C   UNL     1      20.236  52.125  57.443  1.00  0.00     0.012 C 
ATOM     38  C   UNL     1      22.531  51.182  57.965  1.00  0.00     0.012 C 
ENDBRANCH   9  36
BRANCH   6  39
ATOM     39  C   UNL     1      19.543  51.928  63.937  1.00  0.00     0.264 C 
ATOM     40  O   UNL     1      19.766  51.044  64.806  1.00  0.00    -0.298 OA
ENDBRANCH   6  39
BRANCH   8  41
ATOM     41  O   UNL     1      23.190  52.044  60.698  1.00  0.00    -0.504 OA
ATOM     42  H   UNL     1      23.822  51.254  60.728  1.00  0.00     0.293 HD
ENDBRANCH   8  41
BRANCH   7  43
ATOM     43  O   UNL     1      22.299  52.107  63.288  1.00  0.00    -0.504 OA
ATOM     44  H   UNL     1      23.296  51.993  63.172  1.00  0.00     0.293 HD
ENDBRANCH   7  43
TORSDOF 11
ENDMDL
MODEL 4
REMARK VINA RESULT:     2.729      2.613      9.424
REMARK INTER + INTRA:           6.207
REMARK INTER:                   4.003
REMARK INTRA:                   2.203
REMARK UNBOUND:                 2.202
REMARK SMILES Cc1cc2c(C(C)C)c(O)c(O)c(C=O)c2c(O)c1-c1c(C)cc2c(C(C)C)c(O)c(O)c(C=O)c2c1O
REMARK SMILES IDX 1 1 2 2 3 3 4 4 16 5 13 6 11 7 9 8 5 9 17 10 19 11 20 12
REMARK SMILES IDX 37 13 21 14 36 15 23 16 22 17 24 18 33 19 25 20 31 21 29 22
REMARK SMILES IDX 38 23 34 25 35 26 26 27 27 28 28 29 32 30 30 32 18 34 6 36
REMARK SMILES IDX 7 37 8 38 14 39 15 40 10 41 12 43
REMARK H PARENT 38 24 32 31 30 33 18 35 10 42 12 44
REMARK Flexibility Score: inf
ROOT
ATOM      1  C   UNL     1      15.875  52.125  62.845  1.00  0.00     0.045 C 
ATOM      2  C   UNL     1      15.088  51.147  62.005  1.00  0.00    -0.039 A 
ATOM      3  C   UNL     1      13.816  50.755  62.422  1.00  0.00     0.013 A 
ATOM      4  C   UNL     1      13.016  49.876  61.656  1.00  0.00    -0.006 A 
ATOM      5  C   UNL     1      13.565  49.311  60.464  1.00  0.00     0.039 A 
ATOM      6  C   UNL     1      12.780  48.382  59.718  1.00  0.00     0.072 A 
ATOM      7  C   UNL     1      11.570  47.902  60.253  1.00  0.00     0.169 A 
ATOM      8  C   UNL     1      11.054  48.441  61.436  1.00  0.00     0.162 A 
ATOM      9  C   UNL     1      11.697  49.523  62.076  1.00  0.00     0.008 A 
ATOM     10  C   UNL     1      14.899  49.654  60.086  1.00  0.00     0.132 A 
ATOM     11  C   UNL     1      15.638  50.590  60.839  1.00  0.00     0.031 A 
ENDROOT
BRANCH  11  12
ATOM     12  C   UNL     1      17.014  50.970  60.422  1.00  0.00     0.031 A 
ATOM     13  C   UNL     1      18.106  50.741  61.286  1.00  0.00     0.132 A 
ATOM     14  C   UNL     1      17.222  51.566  59.166  1.00  0.00    -0.039 A 
ATOM     15  C   UNL     1      19.428  51.112  60.895  1.00  0.00     0.039 A 
ATOM     16  C   UNL     1      18.522  51.859  58.752  1.00  0.00     0.013 A 
ATOM     17  C   UNL     1      16.062  51.901  58.261  1.00  0.00     0.045 C 
ATOM     18  C   UNL     1      19.643  51.572  59.561  1.00  0.00    -0.006 A 
ATOM     19  C   UNL     1      20.542  51.029  61.783  1.00  0.00     0.072 A 
ATOM     20  C   UNL     1      20.972  51.760  59.072  1.00  0.00     0.008 A 
ATOM     21  C   UNL     1      21.827  51.400  61.333  1.00  0.00     0.169 A 
ATOM     22  C   UNL     1      22.037  51.753  59.996  1.00  0.00     0.162 A 
BRANCH  13  23
ATOM     23  O   UNL     1      17.880  50.121  62.521  1.00  0.00    -0.507 OA
ATOM     24  H   UNL     1      17.808  49.120  62.647  1.00  0.00     0.293 HD
ENDBRANCH  13  23
BRANCH  19  25
ATOM     25  C   UNL     1      20.384  50.646  63.202  1.00  0.00     0.264 C 
ATOM     26  O   UNL     1      20.294  51.529  64.096  1.00  0.00    -0.298 OA
ENDBRANCH  19  25
BRANCH  20  27
ATOM     27  C   UNL     1      21.260  51.976  57.576  1.00  0.00     0.017 C 
ATOM     28  C   UNL     1      22.284  50.960  57.062  1.00  0.00     0.012 C 
ATOM     29  C   UNL     1      19.994  51.990  56.698  1.00  0.00     0.012 C 
ENDBRANCH  20  27
BRANCH  21  30
ATOM     30  O   UNL     1      22.922  51.449  62.204  1.00  0.00    -0.504 OA
ATOM     31  H   UNL     1      22.915  51.080  63.144  1.00  0.00     0.293 HD
ENDBRANCH  21  30
BRANCH  22  32
ATOM     32  O   UNL     1      23.320  52.125  59.582  1.00  0.00    -0.504 OA
ATOM     33  H   UNL     1      23.497  52.653  58.736  1.00  0.00     0.293 HD
ENDBRANCH  22  32
ENDBRANCH  11  12
BRANCH  10  34
ATOM     34  O   UNL     1      15.503  49.035  58.984  1.00  0.00    -0.507 OA
ATOM     35  H   UNL     1      16.156  48.267  59.054  1.00  0.00     0.293 HD
ENDBRANCH  10  34
BRANCH   9  36
ATOM     36  C   UNL     1      10.984  50.261  63.224  1.00  0.00     0.017 C 
ATOM     37  C   UNL     1      10.974  49.412  64.498  1.00  0.00     0.012 C 
ATOM     38  C   UNL     1       9.567  50.749  62.868  1.00  0.00     0.012 C 
ENDBRANCH   9  36
BRANCH   6  39
ATOM     39  C   UNL     1      13.167  47.923  58.369  1.00  0.00     0.264 C 
ATOM     40  O   UNL     1      12.559  46.963  57.825  1.00  0.00    -0.298 OA
ENDBRANCH   6  39
BRANCH   8  41
ATOM     41  O   UNL     1       9.887  47.901  61.980  1.00  0.00    -0.504 OA
ATOM     42  H   UNL     1       8.994  48.378  61.957  1.00  0.00     0.293 HD
ENDBRANCH   8  41
BRANCH   7  43
ATOM     43  O   UNL     1      10.830  46.901  59.610  1.00  0.00    -0.504 OA
ATOM     44  H   UNL     1       9.935  46.560  59.935  1.00  0.00     0.293 HD
ENDBRANCH   7  43
TORSDOF 11
ENDMDL
MODEL 5
REMARK VINA RESULT:     2.968      2.496      9.577
REMARK INTER + INTRA:           6.558
REMARK INTER:                   4.796
REMARK INTRA:                   1.762
REMARK UNBOUND:                 2.202
REMARK SMILES Cc1cc2c(C(C)C)c(O)c(O)c(C=O)c2c(O)c1-c1c(C)cc2c(C(C)C)c(O)c(O)c(C=O)c2c1O
REMARK SMILES IDX 1 1 2 2 3 3 4 4 16 5 13 6 11 7 9 8 5 9 17 10 19 11 20 12
REMARK SMILES IDX 37 13 21 14 36 15 23 16 22 17 24 18 33 19 25 20 31 21 29 22
REMARK SMILES IDX 38 23 34 25 35 26 26 27 27 28 28 29 32 30 30 32 18 34 6 36
REMARK SMILES IDX 7 37 8 38 14 39 15 40 10 41 12 43
REMARK H PARENT 38 24 32 31 30 33 18 35 10 42 12 44
REMARK Flexibility Score: inf
ROOT
ATOM      1  C   UNL     1      16.183  48.479  58.142  1.00  0.00     0.045 C 
ATOM      2  C   UNL     1      15.185  49.197  59.020  1.00  0.00    -0.039 A 
ATOM      3  C   UNL     1      13.841  48.825  58.975  1.00  0.00     0.013 A 
ATOM      4  C   UNL     1      12.870  49.431  59.804  1.00  0.00    -0.006 A 
ATOM      5  C   UNL     1      13.267  50.511  60.651  1.00  0.00     0.039 A 
ATOM      6  C   UNL     1      12.278  51.159  61.449  1.00  0.00     0.072 A 
ATOM      7  C   UNL     1      10.917  50.854  61.259  1.00  0.00     0.169 A 
ATOM      8  C   UNL     1      10.536  49.815  60.406  1.00  0.00     0.162 A 
ATOM      9  C   UNL     1      11.506  49.005  59.776  1.00  0.00     0.008 A 
ATOM     10  C   UNL     1      14.629  50.939  60.633  1.00  0.00     0.132 A 
ATOM     11  C   UNL     1      15.583  50.262  59.844  1.00  0.00     0.031 A 
ENDROOT
BRANCH  11  12
ATOM     12  C   UNL     1      17.006  50.690  59.855  1.00  0.00     0.031 A 
ATOM     13  C   UNL     1      17.777  50.561  61.031  1.00  0.00     0.132 A 
ATOM     14  C   UNL     1      17.581  51.233  58.693  1.00  0.00    -0.039 A 
ATOM     15  C   UNL     1      19.142  50.980  61.050  1.00  0.00     0.039 A 
ATOM     16  C   UNL     1      18.934  51.571  58.689  1.00  0.00     0.013 A 
ATOM     17  C   UNL     1      16.755  51.462  57.451  1.00  0.00     0.045 C 
ATOM     18  C   UNL     1      19.752  51.383  59.825  1.00  0.00    -0.006 A 
ATOM     19  C   UNL     1      19.921  50.999  62.246  1.00  0.00     0.072 A 
ATOM     20  C   UNL     1      21.160  51.614  59.765  1.00  0.00     0.008 A 
ATOM     21  C   UNL     1      21.269  51.412  62.198  1.00  0.00     0.169 A 
ATOM     22  C   UNL     1      21.879  51.708  60.975  1.00  0.00     0.162 A 
BRANCH  13  23
ATOM     23  O   UNL     1      17.193  49.993  62.170  1.00  0.00    -0.507 OA
ATOM     24  H   UNL     1      16.293  49.532  62.173  1.00  0.00     0.293 HD
ENDBRANCH  13  23
BRANCH  19  25
ATOM     25  C   UNL     1      19.336  50.679  63.565  1.00  0.00     0.264 C 
ATOM     26  O   UNL     1      19.707  51.300  64.596  1.00  0.00    -0.298 OA
ENDBRANCH  19  25
BRANCH  20  27
ATOM     27  C   UNL     1      21.898  51.770  58.424  1.00  0.00     0.017 C 
ATOM     28  C   UNL     1      22.763  50.541  58.128  1.00  0.00     0.012 C 
ATOM     29  C   UNL     1      20.968  52.101  57.241  1.00  0.00     0.012 C 
ENDBRANCH  20  27
BRANCH  21  30
ATOM     30  O   UNL     1      22.031  51.560  63.363  1.00  0.00    -0.504 OA
ATOM     31  H   UNL     1      22.457  50.793  63.864  1.00  0.00     0.293 HD
ENDBRANCH  21  30
BRANCH  22  32
ATOM     32  O   UNL     1      23.213  52.124  60.961  1.00  0.00    -0.504 OA
ATOM     33  H   UNL     1      23.994  51.483  61.035  1.00  0.00     0.293 HD
ENDBRANCH  22  32
ENDBRANCH  11  12
BRANCH  10  34
ATOM     34  O   UNL     1      15.027  52.062  61.370  1.00  0.00    -0.507 OA
ATOM     35  H   UNL     1      15.882  52.575  61.202  1.00  0.00     0.293 HD
ENDBRANCH  10  34
BRANCH   9  36
ATOM     36  C   UNL     1      11.071  47.719  59.051  1.00  0.00     0.017 C 
ATOM     37  C   UNL     1      10.431  46.729  60.029  1.00  0.00     0.012 C 
ATOM     38  C   UNL     1      12.196  47.050  58.237  1.00  0.00     0.012 C 
ENDBRANCH   9  36
BRANCH   6  39
ATOM     39  C   UNL     1      12.626  52.124  62.512  1.00  0.00     0.264 C 
ATOM     40  O   UNL     1      12.003  52.117  63.606  1.00  0.00    -0.298 OA
ENDBRANCH   6  39
BRANCH   8  41
ATOM     41  O   UNL     1       9.177  49.577  60.183  1.00  0.00    -0.504 OA
ATOM     42  H   UNL     1       8.797  48.652  60.025  1.00  0.00     0.293 HD
ENDBRANCH   8  41
BRANCH   7  43
ATOM     43  O   UNL     1       9.908  51.553  61.936  1.00  0.00    -0.504 OA
ATOM     44  H   UNL     1      10.062  52.106  62.768  1.00  0.00     0.293 HD
ENDBRANCH   7  43
TORSDOF 11
ENDMDL
