MODEL 1
REMARK VINA RESULT:    -5.744      0.000      0.000
REMARK INTER + INTRA:          -6.571
REMARK INTER:                  -6.416
REMARK INTRA:                  -0.155
REMARK UNBOUND:                -0.155
REMARK SMILES COc1cc2ccc(=O)oc2cc1OC
REMARK SMILES IDX 3 1 13 2 12 3 11 4 5 5 4 6 6 7 7 8 8 9 9 10 10 11 2 12 1 13
REMARK SMILES IDX 14 14 15 15
REMARK H PARENT
REMARK Flexibility Score: inf
ROOT
ATOM      1  C   UNL     1      29.731  22.944  49.823  1.00  0.00     0.161 A 
ATOM      2  C   UNL     1      28.448  22.396  49.990  1.00  0.00     0.164 A 
ATOM      3  C   UNL     1      27.460  22.620  49.010  1.00  0.00     0.098 A 
ATOM      4  C   UNL     1      27.748  23.383  47.877  1.00  0.00     0.142 A 
ATOM      5  C   UNL     1      29.034  23.933  47.709  1.00  0.00     0.022 A 
ATOM      6  C   UNL     1      30.021  23.714  48.679  1.00  0.00     0.062 A 
ATOM      7  C   UNL     1      29.291  24.693  46.562  1.00  0.00     0.019 A 
ATOM      8  C   UNL     1      28.276  24.883  45.625  1.00  0.00     0.094 A 
ATOM      9  C   UNL     1      27.023  24.307  45.858  1.00  0.00     0.336 A 
ATOM     10  O   UNL     1      26.093  24.466  45.025  1.00  0.00    -0.246 OA
ATOM     11  O   UNL     1      26.806  23.588  46.958  1.00  0.00    -0.423 OA
ENDROOT
BRANCH   1  12
ATOM     12  O   UNL     1      30.692  22.702  50.818  1.00  0.00    -0.493 OA
ATOM     13  C   UNL     1      31.062  23.634  51.829  1.00  0.00     0.278 C 
ENDBRANCH   1  12
BRANCH   2  14
ATOM     14  O   UNL     1      28.195  21.634  51.141  1.00  0.00    -0.493 OA
ATOM     15  C   UNL     1      27.610  22.145  52.335  1.00  0.00     0.278 C 
ENDBRANCH   2  14
TORSDOF 2
ENDMDL
MODEL 2
REMARK VINA RESULT:    -5.681      1.456      5.581
REMARK INTER + INTRA:          -6.500
REMARK INTER:                  -6.517
REMARK INTRA:                   0.018
REMARK UNBOUND:                -0.155
REMARK SMILES COc1cc2ccc(=O)oc2cc1OC
REMARK SMILES IDX 3 1 13 2 12 3 11 4 5 5 4 6 6 7 7 8 8 9 9 10 10 11 2 12 1 13
REMARK SMILES IDX 14 14 15 15
REMARK H PARENT
REMARK Flexibility Score: inf
ROOT
ATOM      1  C   UNL     1      27.536  24.436  47.597  1.00  0.00     0.161 A 
ATOM      2  C   UNL     1      28.927  24.332  47.422  1.00  0.00     0.164 A 
ATOM      3  C   UNL     1      29.712  23.712  48.414  1.00  0.00     0.098 A 
ATOM      4  C   UNL     1      29.118  23.202  49.571  1.00  0.00     0.142 A 
ATOM      5  C   UNL     1      27.724  23.306  49.748  1.00  0.00     0.022 A 
ATOM      6  C   UNL     1      26.938  23.921  48.765  1.00  0.00     0.062 A 
ATOM      7  C   UNL     1      27.159  22.786  50.917  1.00  0.00     0.019 A 
ATOM      8  C   UNL     1      27.983  22.183  51.867  1.00  0.00     0.094 A 
ATOM      9  C   UNL     1      29.359  22.116  51.623  1.00  0.00     0.336 A 
ATOM     10  O   UNL     1      30.121  21.575  52.467  1.00  0.00    -0.246 OA
ATOM     11  O   UNL     1      29.870  22.619  50.502  1.00  0.00    -0.423 OA
ENDROOT
BRANCH   1  12
ATOM     12  O   UNL     1      26.784  25.059  46.589  1.00  0.00    -0.493 OA
ATOM     13  C   UNL     1      26.431  24.451  45.351  1.00  0.00     0.278 C 
ENDBRANCH   1  12
BRANCH   2  14
ATOM     14  O   UNL     1      29.490  24.855  46.247  1.00  0.00    -0.493 OA
ATOM     15  C   UNL     1      30.848  25.264  46.115  1.00  0.00     0.278 C 
ENDBRANCH   2  14
TORSDOF 2
ENDMDL
MODEL 3
REMARK VINA RESULT:    -5.672      1.521      5.004
REMARK INTER + INTRA:          -6.490
REMARK INTER:                  -6.522
REMARK INTRA:                   0.033
REMARK UNBOUND:                -0.155
REMARK SMILES COc1cc2ccc(=O)oc2cc1OC
REMARK SMILES IDX 3 1 13 2 12 3 11 4 5 5 4 6 6 7 7 8 8 9 9 10 10 11 2 12 1 13
REMARK SMILES IDX 14 14 15 15
REMARK H PARENT
REMARK Flexibility Score: inf
ROOT
ATOM      1  C   UNL     1      28.965  24.383  47.444  1.00  0.00     0.161 A 
ATOM      2  C   UNL     1      27.577  24.490  47.633  1.00  0.00     0.164 A 
ATOM      3  C   UNL     1      26.995  24.011  48.823  1.00  0.00     0.098 A 
ATOM      4  C   UNL     1      27.788  23.429  49.814  1.00  0.00     0.142 A 
ATOM      5  C   UNL     1      29.180  23.320  49.626  1.00  0.00     0.022 A 
ATOM      6  C   UNL     1      29.765  23.795  48.445  1.00  0.00     0.062 A 
ATOM      7  C   UNL     1      29.947  22.732  50.637  1.00  0.00     0.019 A 
ATOM      8  C   UNL     1      29.319  22.274  51.794  1.00  0.00     0.094 A 
ATOM      9  C   UNL     1      27.932  22.416  51.913  1.00  0.00     0.336 A 
ATOM     10  O   UNL     1      27.345  22.009  52.950  1.00  0.00    -0.246 OA
ATOM     11  O   UNL     1      27.227  22.979  50.935  1.00  0.00    -0.423 OA
ENDROOT
BRANCH   1  12
ATOM     12  O   UNL     1      29.513  24.871  46.247  1.00  0.00    -0.493 OA
ATOM     13  C   UNL     1      30.865  25.290  46.087  1.00  0.00     0.278 C 
ENDBRANCH   1  12
BRANCH   2  14
ATOM     14  O   UNL     1      26.811  25.082  46.616  1.00  0.00    -0.493 OA
ATOM     15  C   UNL     1      26.463  24.442  45.392  1.00  0.00     0.278 C 
ENDBRANCH   2  14
TORSDOF 2
ENDMDL
MODEL 4
REMARK VINA RESULT:    -5.668      1.839      3.152
REMARK INTER + INTRA:          -6.485
REMARK INTER:                  -6.375
REMARK INTRA:                  -0.110
REMARK UNBOUND:                -0.155
REMARK SMILES COc1cc2ccc(=O)oc2cc1OC
REMARK SMILES IDX 3 1 13 2 12 3 11 4 5 5 4 6 6 7 7 8 8 9 9 10 10 11 2 12 1 13
REMARK SMILES IDX 14 14 15 15
REMARK H PARENT
REMARK Flexibility Score: inf
ROOT
ATOM      1  C   UNL     1      28.377  22.163  51.974  1.00  0.00     0.161 A 
ATOM      2  C   UNL     1      29.710  22.043  51.544  1.00  0.00     0.164 A 
ATOM      3  C   UNL     1      30.096  22.590  50.305  1.00  0.00     0.098 A 
ATOM      4  C   UNL     1      29.163  23.247  49.499  1.00  0.00     0.142 A 
ATOM      5  C   UNL     1      27.826  23.367  49.929  1.00  0.00     0.022 A 
ATOM      6  C   UNL     1      27.436  22.827  51.161  1.00  0.00     0.062 A 
ATOM      7  C   UNL     1      26.917  24.031  49.100  1.00  0.00     0.019 A 
ATOM      8  C   UNL     1      27.353  24.552  47.882  1.00  0.00     0.094 A 
ATOM      9  C   UNL     1      28.695  24.395  47.521  1.00  0.00     0.336 A 
ATOM     10  O   UNL     1      29.109  24.858  46.426  1.00  0.00    -0.246 OA
ATOM     11  O   UNL     1      29.539  23.758  48.329  1.00  0.00    -0.423 OA
ENDROOT
BRANCH   1  12
ATOM     12  O   UNL     1      28.026  21.608  53.215  1.00  0.00    -0.493 OA
ATOM     13  C   UNL     1      27.959  22.337  54.437  1.00  0.00     0.278 C 
ENDBRANCH   1  12
BRANCH   2  14
ATOM     14  O   UNL     1      30.620  21.377  52.379  1.00  0.00    -0.493 OA
ATOM     15  C   UNL     1      31.821  20.755  51.932  1.00  0.00     0.278 C 
ENDBRANCH   2  14
TORSDOF 2
ENDMDL
MODEL 5
REMARK VINA RESULT:    -5.277      1.769      2.504
REMARK INTER + INTRA:          -6.048
REMARK INTER:                  -5.891
REMARK INTRA:                  -0.157
REMARK UNBOUND:                -0.155
REMARK SMILES COc1cc2ccc(=O)oc2cc1OC
REMARK SMILES IDX 3 1 13 2 12 3 11 4 5 5 4 6 6 7 7 8 8 9 9 10 10 11 2 12 1 13
REMARK SMILES IDX 14 14 15 15
REMARK H PARENT
REMARK Flexibility Score: inf
ROOT
ATOM      1  C   UNL     1      29.745  21.896  51.981  1.00  0.00     0.161 A 
ATOM      2  C   UNL     1      28.421  22.132  52.390  1.00  0.00     0.164 A 
ATOM      3  C   UNL     1      27.546  22.845  51.547  1.00  0.00     0.098 A 
ATOM      4  C   UNL     1      27.986  23.322  50.310  1.00  0.00     0.142 A 
ATOM      5  C   UNL     1      29.313  23.086  49.899  1.00  0.00     0.022 A 
ATOM      6  C   UNL     1      30.188  22.377  50.732  1.00  0.00     0.062 A 
ATOM      7  C   UNL     1      29.723  23.576  48.655  1.00  0.00     0.019 A 
ATOM      8  C   UNL     1      28.815  24.277  47.862  1.00  0.00     0.094 A 
ATOM      9  C   UNL     1      27.514  24.472  48.334  1.00  0.00     0.336 A 
ATOM     10  O   UNL     1      26.678  25.102  47.634  1.00  0.00    -0.246 OA
ATOM     11  O   UNL     1      27.150  23.995  49.523  1.00  0.00    -0.423 OA
ENDROOT
BRANCH   1  12
ATOM     12  O   UNL     1      30.590  21.181  52.844  1.00  0.00    -0.493 OA
ATOM     13  C   UNL     1      31.693  21.746  53.547  1.00  0.00     0.278 C 
ENDBRANCH   1  12
BRANCH   2  14
ATOM     14  O   UNL     1      28.014  21.638  53.639  1.00  0.00    -0.493 OA
ATOM     15  C   UNL     1      27.972  22.408  54.837  1.00  0.00     0.278 C 
ENDBRANCH   2  14
TORSDOF 2
ENDMDL
MODEL 6
REMARK VINA RESULT:    -5.135      1.828      5.322
REMARK INTER + INTRA:          -5.890
REMARK INTER:                  -5.779
REMARK INTRA:                  -0.111
REMARK UNBOUND:                -0.155
REMARK SMILES COc1cc2ccc(=O)oc2cc1OC
REMARK SMILES IDX 3 1 13 2 12 3 11 4 5 5 4 6 6 7 7 8 8 9 9 10 10 11 2 12 1 13
REMARK SMILES IDX 14 14 15 15
REMARK H PARENT
REMARK Flexibility Score: inf
ROOT
ATOM      1  C   UNL     1      29.758  22.949  48.947  1.00  0.00     0.161 A 
ATOM      2  C   UNL     1      28.354  22.962  48.887  1.00  0.00     0.164 A 
ATOM      3  C   UNL     1      27.603  22.711  50.052  1.00  0.00     0.098 A 
ATOM      4  C   UNL     1      28.244  22.446  51.264  1.00  0.00     0.142 A 
ATOM      5  C   UNL     1      29.652  22.432  51.325  1.00  0.00     0.022 A 
ATOM      6  C   UNL     1      30.404  22.682  50.170  1.00  0.00     0.062 A 
ATOM      7  C   UNL     1      30.263  22.164  52.554  1.00  0.00     0.019 A 
ATOM      8  C   UNL     1      29.471  21.920  53.676  1.00  0.00     0.094 A 
ATOM      9  C   UNL     1      28.080  21.951  53.540  1.00  0.00     0.336 A 
ATOM     10  O   UNL     1      27.346  21.735  54.540  1.00  0.00    -0.246 OA
ATOM     11  O   UNL     1      27.523  22.209  52.359  1.00  0.00    -0.423 OA
ENDROOT
BRANCH   1  12
ATOM     12  O   UNL     1      30.475  23.204  47.768  1.00  0.00    -0.493 OA
ATOM     13  C   UNL     1      31.887  23.071  47.635  1.00  0.00     0.278 C 
ENDBRANCH   1  12
BRANCH   2  14
ATOM     14  O   UNL     1      27.743  23.232  47.652  1.00  0.00    -0.493 OA
ATOM     15  C   UNL     1      27.246  24.508  47.259  1.00  0.00     0.278 C 
ENDBRANCH   2  14
TORSDOF 2
ENDMDL
MODEL 7
REMARK VINA RESULT:    -5.049      1.950      6.023
REMARK INTER + INTRA:          -5.794
REMARK INTER:                  -5.675
REMARK INTRA:                  -0.118
REMARK UNBOUND:                -0.155
REMARK SMILES COc1cc2ccc(=O)oc2cc1OC
REMARK SMILES IDX 3 1 13 2 12 3 11 4 5 5 4 6 6 7 7 8 8 9 9 10 10 11 2 12 1 13
REMARK SMILES IDX 14 14 15 15
REMARK H PARENT
REMARK Flexibility Score: inf
ROOT
ATOM      1  C   UNL     1      28.508  22.570  49.126  1.00  0.00     0.161 A 
ATOM      2  C   UNL     1      29.883  22.833  49.249  1.00  0.00     0.164 A 
ATOM      3  C   UNL     1      30.485  22.820  50.522  1.00  0.00     0.098 A 
ATOM      4  C   UNL     1      29.725  22.550  51.662  1.00  0.00     0.142 A 
ATOM      5  C   UNL     1      28.346  22.286  51.540  1.00  0.00     0.022 A 
ATOM      6  C   UNL     1      27.742  22.297  50.276  1.00  0.00     0.062 A 
ATOM      7  C   UNL     1      27.613  22.019  52.700  1.00  0.00     0.019 A 
ATOM      8  C   UNL     1      28.259  22.020  53.936  1.00  0.00     0.094 A 
ATOM      9  C   UNL     1      29.631  22.289  53.980  1.00  0.00     0.336 A 
ATOM     10  O   UNL     1      30.235  22.294  55.085  1.00  0.00    -0.246 OA
ATOM     11  O   UNL     1      30.305  22.541  52.861  1.00  0.00    -0.423 OA
ENDROOT
BRANCH   1  12
ATOM     12  O   UNL     1      27.940  22.591  47.842  1.00  0.00    -0.493 OA
ATOM     13  C   UNL     1      27.263  23.708  47.275  1.00  0.00     0.278 C 
ENDBRANCH   1  12
BRANCH   2  14
ATOM     14  O   UNL     1      30.616  23.101  48.082  1.00  0.00    -0.493 OA
ATOM     15  C   UNL     1      31.855  22.484  47.748  1.00  0.00     0.278 C 
ENDBRANCH   2  14
TORSDOF 2
ENDMDL
MODEL 8
REMARK VINA RESULT:    -4.940      1.952      5.887
REMARK INTER + INTRA:          -5.673
REMARK INTER:                  -5.568
REMARK INTRA:                  -0.105
REMARK UNBOUND:                -0.155
REMARK SMILES COc1cc2ccc(=O)oc2cc1OC
REMARK SMILES IDX 3 1 13 2 12 3 11 4 5 5 4 6 6 7 7 8 8 9 9 10 10 11 2 12 1 13
REMARK SMILES IDX 14 14 15 15
REMARK H PARENT
REMARK Flexibility Score: inf
ROOT
ATOM      1  C   UNL     1      26.839  22.865  49.950  1.00  0.00     0.161 A 
ATOM      2  C   UNL     1      27.534  24.008  49.517  1.00  0.00     0.164 A 
ATOM      3  C   UNL     1      28.708  24.406  50.186  1.00  0.00     0.098 A 
ATOM      4  C   UNL     1      29.185  23.675  51.276  1.00  0.00     0.142 A 
ATOM      5  C   UNL     1      28.488  22.529  51.711  1.00  0.00     0.022 A 
ATOM      6  C   UNL     1      27.321  22.128  51.049  1.00  0.00     0.062 A 
ATOM      7  C   UNL     1      28.991  21.818  52.805  1.00  0.00     0.019 A 
ATOM      8  C   UNL     1      30.157  22.258  53.431  1.00  0.00     0.094 A 
ATOM      9  C   UNL     1      30.795  23.403  52.944  1.00  0.00     0.336 A 
ATOM     10  O   UNL     1      31.850  23.817  53.494  1.00  0.00    -0.246 OA
ATOM     11  O   UNL     1      30.295  24.061  51.901  1.00  0.00    -0.423 OA
ENDROOT
BRANCH   1  12
ATOM     12  O   UNL     1      25.673  22.496  49.260  1.00  0.00    -0.493 OA
ATOM     13  C   UNL     1      24.772  21.478  49.684  1.00  0.00     0.278 C 
ENDBRANCH   1  12
BRANCH   2  14
ATOM     14  O   UNL     1      27.026  24.718  48.418  1.00  0.00    -0.493 OA
ATOM     15  C   UNL     1      27.458  24.541  47.073  1.00  0.00     0.278 C 
ENDBRANCH   2  14
TORSDOF 2
ENDMDL
MODEL 9
REMARK VINA RESULT:    -4.808     12.282     13.256
REMARK INTER + INTRA:          -5.525
REMARK INTER:                  -5.425
REMARK INTRA:                  -0.100
REMARK UNBOUND:                -0.155
REMARK SMILES COc1cc2ccc(=O)oc2cc1OC
REMARK SMILES IDX 3 1 13 2 12 3 11 4 5 5 4 6 6 7 7 8 8 9 9 10 10 11 2 12 1 13
REMARK SMILES IDX 14 14 15 15
REMARK H PARENT
REMARK Flexibility Score: inf
ROOT
ATOM      1  C   UNL     1      18.666  25.174  40.708  1.00  0.00     0.161 A 
ATOM      2  C   UNL     1      19.370  26.380  40.863  1.00  0.00     0.164 A 
ATOM      3  C   UNL     1      19.169  27.162  42.017  1.00  0.00     0.098 A 
ATOM      4  C   UNL     1      18.275  26.749  43.006  1.00  0.00     0.142 A 
ATOM      5  C   UNL     1      17.567  25.539  42.851  1.00  0.00     0.022 A 
ATOM      6  C   UNL     1      17.763  24.757  41.706  1.00  0.00     0.062 A 
ATOM      7  C   UNL     1      16.679  25.152  43.860  1.00  0.00     0.019 A 
ATOM      8  C   UNL     1      16.518  25.966  44.981  1.00  0.00     0.094 A 
ATOM      9  C   UNL     1      17.254  27.152  45.067  1.00  0.00     0.336 A 
ATOM     10  O   UNL     1      17.124  27.901  46.071  1.00  0.00    -0.246 OA
ATOM     11  O   UNL     1      18.093  27.496  44.093  1.00  0.00    -0.423 OA
ENDROOT
BRANCH   1  12
ATOM     12  O   UNL     1      18.889  24.418  39.546  1.00  0.00    -0.493 OA
ATOM     13  C   UNL     1      19.847  23.370  39.435  1.00  0.00     0.278 C 
ENDBRANCH   1  12
BRANCH   2  14
ATOM     14  O   UNL     1      20.261  26.764  39.849  1.00  0.00    -0.493 OA
ATOM     15  C   UNL     1      20.445  28.104  39.401  1.00  0.00     0.278 C 
ENDBRANCH   2  14
TORSDOF 2
ENDMDL
