MODEL 1
REMARK VINA RESULT:    -5.752      0.000      0.000
REMARK INTER + INTRA:          -7.269
REMARK INTER:                  -7.097
REMARK INTRA:                  -0.172
REMARK UNBOUND:                -0.172
REMARK SMILES COc1cc(-c2oc3cc(O)cc(O)c3c(=O)c2O)ccc1O
REMARK SMILES IDX 6 1 18 2 16 3 17 4 15 5 13 6 12 7 10 8 9 9 8 10 7 11 5 12
REMARK SMILES IDX 3 13 22 14 4 15 21 16 20 17 2 18 1 19 23 20 19 22 14 24
REMARK SMILES IDX 11 26
REMARK H PARENT 23 21 19 23 14 25 11 27
REMARK Flexibility Score: inf
ROOT
ATOM      1  C   UNL     1      -2.104  49.771  23.255  1.00  0.00     0.180 A 
ATOM      2  C   UNL     1      -2.645  51.069  23.188  1.00  0.00     0.208 A 
ATOM      3  C   UNL     1      -3.685  51.417  24.064  1.00  0.00     0.238 A 
ATOM      4  O   UNL     1      -4.185  52.574  24.006  1.00  0.00    -0.285 OA
ATOM      5  C   UNL     1      -4.150  50.474  25.004  1.00  0.00     0.111 A 
ATOM      6  C   UNL     1      -5.190  50.746  25.924  1.00  0.00     0.134 A 
ATOM      7  C   UNL     1      -5.591  49.757  26.834  1.00  0.00     0.093 A 
ATOM      8  C   UNL     1      -4.970  48.501  26.840  1.00  0.00     0.123 A 
ATOM      9  C   UNL     1      -3.945  48.228  25.934  1.00  0.00     0.094 A 
ATOM     10  C   UNL     1      -3.533  49.201  25.019  1.00  0.00     0.146 A 
ATOM     11  O   UNL     1      -2.558  48.913  24.164  1.00  0.00    -0.452 OA
ENDROOT
BRANCH   1  12
ATOM     12  C   UNL     1      -1.019  49.323  22.353  1.00  0.00     0.025 A 
ATOM     13  C   UNL     1       1.336  49.402  21.698  1.00  0.00     0.161 A 
ATOM     14  C   UNL     1       1.084  48.452  20.700  1.00  0.00     0.157 A 
ATOM     15  C   UNL     1       0.279  49.829  22.529  1.00  0.00     0.062 A 
ATOM     16  C   UNL     1      -0.205  47.930  20.535  1.00  0.00     0.051 A 
ATOM     17  C   UNL     1      -1.249  48.355  21.360  1.00  0.00     0.016 A 
BRANCH  13  18
ATOM     18  O   UNL     1       2.643  49.896  21.837  1.00  0.00    -0.493 OA
ATOM     19  C   UNL     1       3.229  50.877  20.986  1.00  0.00     0.278 C 
ENDBRANCH  13  18
BRANCH  14  20
ATOM     20  O   UNL     1       2.123  48.027  19.875  1.00  0.00    -0.504 OA
ATOM     21  H   UNL     1       2.177  48.306  18.902  1.00  0.00     0.293 HD
ENDBRANCH  14  20
ENDBRANCH   1  12
BRANCH   2  22
ATOM     22  O   UNL     1      -2.133  52.002  22.282  1.00  0.00    -0.502 OA
ATOM     23  H   UNL     1      -2.530  52.928  22.173  1.00  0.00     0.293 HD
ENDBRANCH   2  22
BRANCH   6  24
ATOM     24  O   UNL     1      -5.827  51.988  25.942  1.00  0.00    -0.507 OA
ATOM     25  H   UNL     1      -6.448  52.280  25.195  1.00  0.00     0.293 HD
ENDBRANCH   6  24
BRANCH   8  26
ATOM     26  O   UNL     1      -5.367  47.519  27.745  1.00  0.00    -0.508 OA
ATOM     27  H   UNL     1      -6.340  47.260  27.854  1.00  0.00     0.293 HD
ENDBRANCH   8  26
TORSDOF 6
ENDMDL
MODEL 2
REMARK VINA RESULT:    -5.448      3.477      5.383
REMARK INTER + INTRA:          -6.893
REMARK INTER:                  -6.679
REMARK INTRA:                  -0.215
REMARK UNBOUND:                -0.172
REMARK SMILES COc1cc(-c2oc3cc(O)cc(O)c3c(=O)c2O)ccc1O
REMARK SMILES IDX 6 1 18 2 16 3 17 4 15 5 13 6 12 7 10 8 9 9 8 10 7 11 5 12
REMARK SMILES IDX 3 13 22 14 4 15 21 16 20 17 2 18 1 19 23 20 19 22 14 24
REMARK SMILES IDX 11 26
REMARK H PARENT 23 21 19 23 14 25 11 27
REMARK Flexibility Score: inf
ROOT
ATOM      1  C   UNL     1      -3.392  47.531  23.824  1.00  0.00     0.180 A 
ATOM      2  C   UNL     1      -2.139  47.628  24.459  1.00  0.00     0.208 A 
ATOM      3  C   UNL     1      -1.748  48.861  25.004  1.00  0.00     0.238 A 
ATOM      4  O   UNL     1      -0.622  48.962  25.565  1.00  0.00    -0.285 OA
ATOM      5  C   UNL     1      -2.621  49.966  24.926  1.00  0.00     0.111 A 
ATOM      6  C   UNL     1      -2.304  51.240  25.454  1.00  0.00     0.134 A 
ATOM      7  C   UNL     1      -3.231  52.288  25.345  1.00  0.00     0.093 A 
ATOM      8  C   UNL     1      -4.466  52.084  24.718  1.00  0.00     0.123 A 
ATOM      9  C   UNL     1      -4.781  50.830  24.195  1.00  0.00     0.094 A 
ATOM     10  C   UNL     1      -3.871  49.774  24.293  1.00  0.00     0.146 A 
ATOM     11  O   UNL     1      -4.195  48.591  23.783  1.00  0.00    -0.452 OA
ENDROOT
BRANCH   1  12
ATOM     12  C   UNL     1      -3.868  46.272  23.209  1.00  0.00     0.025 A 
ATOM     13  C   UNL     1      -3.581  44.513  21.533  1.00  0.00     0.161 A 
ATOM     14  C   UNL     1      -4.702  43.849  22.048  1.00  0.00     0.157 A 
ATOM     15  C   UNL     1      -3.163  45.723  22.125  1.00  0.00     0.062 A 
ATOM     16  C   UNL     1      -5.395  44.383  23.141  1.00  0.00     0.051 A 
ATOM     17  C   UNL     1      -4.978  45.581  23.724  1.00  0.00     0.016 A 
BRANCH  13  18
ATOM     18  O   UNL     1      -2.908  43.944  20.441  1.00  0.00    -0.493 OA
ATOM     19  C   UNL     1      -1.492  43.903  20.297  1.00  0.00     0.278 C 
ENDBRANCH  13  18
BRANCH  14  20
ATOM     20  O   UNL     1      -5.121  42.653  21.467  1.00  0.00    -0.504 OA
ATOM     21  H   UNL     1      -5.868  42.629  20.782  1.00  0.00     0.293 HD
ENDBRANCH  14  20
ENDBRANCH   1  12
BRANCH   2  22
ATOM     22  O   UNL     1      -1.314  46.505  24.566  1.00  0.00    -0.502 OA
ATOM     23  H   UNL     1      -1.648  45.618  24.923  1.00  0.00     0.293 HD
ENDBRANCH   2  22
BRANCH   6  24
ATOM     24  O   UNL     1      -1.082  51.473  26.085  1.00  0.00    -0.507 OA
ATOM     25  H   UNL     1      -0.704  52.409  26.186  1.00  0.00     0.293 HD
ENDBRANCH   6  24
BRANCH   8  26
ATOM     26  O   UNL     1      -5.387  53.125  24.610  1.00  0.00    -0.508 OA
ATOM     27  H   UNL     1      -5.752  53.596  25.429  1.00  0.00     0.293 HD
ENDBRANCH   8  26
TORSDOF 6
ENDMDL
MODEL 3
REMARK VINA RESULT:    -5.357      3.485      5.674
REMARK INTER + INTRA:          -6.782
REMARK INTER:                  -6.681
REMARK INTRA:                  -0.100
REMARK UNBOUND:                -0.172
REMARK SMILES COc1cc(-c2oc3cc(O)cc(O)c3c(=O)c2O)ccc1O
REMARK SMILES IDX 6 1 18 2 16 3 17 4 15 5 13 6 12 7 10 8 9 9 8 10 7 11 5 12
REMARK SMILES IDX 3 13 22 14 4 15 21 16 20 17 2 18 1 19 23 20 19 22 14 24
REMARK SMILES IDX 11 26
REMARK H PARENT 23 21 19 23 14 25 11 27
REMARK Flexibility Score: inf
ROOT
ATOM      1  C   UNL     1      -3.035  47.755  23.740  1.00  0.00     0.180 A 
ATOM      2  C   UNL     1      -1.819  47.945  24.425  1.00  0.00     0.208 A 
ATOM      3  C   UNL     1      -1.569  49.185  25.033  1.00  0.00     0.238 A 
ATOM      4  O   UNL     1      -0.479  49.370  25.640  1.00  0.00    -0.285 OA
ATOM      5  C   UNL     1      -2.543  50.203  24.967  1.00  0.00     0.111 A 
ATOM      6  C   UNL     1      -2.372  51.477  25.557  1.00  0.00     0.134 A 
ATOM      7  C   UNL     1      -3.392  52.435  25.455  1.00  0.00     0.093 A 
ATOM      8  C   UNL     1      -4.580  52.140  24.774  1.00  0.00     0.123 A 
ATOM      9  C   UNL     1      -4.753  50.884  24.190  1.00  0.00     0.094 A 
ATOM     10  C   UNL     1      -3.747  49.918  24.280  1.00  0.00     0.146 A 
ATOM     11  O   UNL     1      -3.935  48.733  23.711  1.00  0.00    -0.452 OA
ENDROOT
BRANCH   1  12
ATOM     12  C   UNL     1      -3.363  46.483  23.057  1.00  0.00     0.025 A 
ATOM     13  C   UNL     1      -4.900  44.608  22.733  1.00  0.00     0.161 A 
ATOM     14  C   UNL     1      -4.056  44.095  21.740  1.00  0.00     0.157 A 
ATOM     15  C   UNL     1      -4.551  45.810  23.384  1.00  0.00     0.062 A 
ATOM     16  C   UNL     1      -2.880  44.775  21.397  1.00  0.00     0.051 A 
ATOM     17  C   UNL     1      -2.538  45.964  22.044  1.00  0.00     0.016 A 
BRANCH  13  18
ATOM     18  O   UNL     1      -6.073  43.902  23.045  1.00  0.00    -0.493 OA
ATOM     19  C   UNL     1      -6.125  42.757  23.890  1.00  0.00     0.278 C 
ENDBRANCH  13  18
BRANCH  14  20
ATOM     20  O   UNL     1      -4.394  42.908  21.094  1.00  0.00    -0.504 OA
ATOM     21  H   UNL     1      -5.348  42.708  20.815  1.00  0.00     0.293 HD
ENDBRANCH  14  20
ENDBRANCH   1  12
BRANCH   2  22
ATOM     22  O   UNL     1      -0.891  46.903  24.518  1.00  0.00    -0.502 OA
ATOM     23  H   UNL     1      -0.079  46.953  25.122  1.00  0.00     0.293 HD
ENDBRANCH   2  22
BRANCH   6  24
ATOM     24  O   UNL     1      -1.200  51.800  26.242  1.00  0.00    -0.507 OA
ATOM     25  H   UNL     1      -0.294  51.786  25.786  1.00  0.00     0.293 HD
ENDBRANCH   6  24
BRANCH   8  26
ATOM     26  O   UNL     1      -5.594  53.090  24.673  1.00  0.00    -0.508 OA
ATOM     27  H   UNL     1      -5.739  53.788  25.392  1.00  0.00     0.293 HD
ENDBRANCH   8  26
TORSDOF 6
ENDMDL
MODEL 4
REMARK VINA RESULT:    -5.283      1.167      2.820
REMARK INTER + INTRA:          -6.691
REMARK INTER:                  -6.736
REMARK INTRA:                   0.045
REMARK UNBOUND:                -0.172
REMARK SMILES COc1cc(-c2oc3cc(O)cc(O)c3c(=O)c2O)ccc1O
REMARK SMILES IDX 6 1 18 2 16 3 17 4 15 5 13 6 12 7 10 8 9 9 8 10 7 11 5 12
REMARK SMILES IDX 3 13 22 14 4 15 21 16 20 17 2 18 1 19 23 20 19 22 14 24
REMARK SMILES IDX 11 26
REMARK H PARENT 23 21 19 23 14 25 11 27
REMARK Flexibility Score: inf
ROOT
ATOM      1  C   UNL     1      -1.765  48.796  23.552  1.00  0.00     0.180 A 
ATOM      2  C   UNL     1      -2.018  47.807  24.522  1.00  0.00     0.208 A 
ATOM      3  C   UNL     1      -3.072  48.000  25.428  1.00  0.00     0.238 A 
ATOM      4  O   UNL     1      -3.302  47.125  26.308  1.00  0.00    -0.285 OA
ATOM      5  C   UNL     1      -3.866  49.162  25.338  1.00  0.00     0.111 A 
ATOM      6  C   UNL     1      -4.948  49.430  26.209  1.00  0.00     0.134 A 
ATOM      7  C   UNL     1      -5.697  50.606  26.049  1.00  0.00     0.093 A 
ATOM      8  C   UNL     1      -5.381  51.518  25.034  1.00  0.00     0.123 A 
ATOM      9  C   UNL     1      -4.314  51.258  24.174  1.00  0.00     0.094 A 
ATOM     10  C   UNL     1      -3.556  50.093  24.318  1.00  0.00     0.146 A 
ATOM     11  O   UNL     1      -2.543  49.873  23.488  1.00  0.00    -0.452 OA
ENDROOT
BRANCH   1  12
ATOM     12  C   UNL     1      -0.660  48.675  22.574  1.00  0.00     0.025 A 
ATOM     13  C   UNL     1       1.602  49.287  21.873  1.00  0.00     0.161 A 
ATOM     14  C   UNL     1       1.487  48.427  20.773  1.00  0.00     0.157 A 
ATOM     15  C   UNL     1       0.525  49.401  22.776  1.00  0.00     0.062 A 
ATOM     16  C   UNL     1       0.314  47.686  20.579  1.00  0.00     0.051 A 
ATOM     17  C   UNL     1      -0.750  47.802  21.476  1.00  0.00     0.016 A 
BRANCH  13  18
ATOM     18  O   UNL     1       2.795  50.008  22.036  1.00  0.00    -0.493 OA
ATOM     19  C   UNL     1       3.343  50.893  21.064  1.00  0.00     0.278 C 
ENDBRANCH  13  18
BRANCH  14  20
ATOM     20  O   UNL     1       2.546  48.311  19.875  1.00  0.00    -0.504 OA
ATOM     21  H   UNL     1       2.817  47.415  19.486  1.00  0.00     0.293 HD
ENDBRANCH  14  20
ENDBRANCH   1  12
BRANCH   2  22
ATOM     22  O   UNL     1      -1.248  46.641  24.559  1.00  0.00    -0.502 OA
ATOM     23  H   UNL     1      -0.595  46.446  25.309  1.00  0.00     0.293 HD
ENDBRANCH   2  22
BRANCH   6  24
ATOM     24  O   UNL     1      -5.287  48.540  27.229  1.00  0.00    -0.507 OA
ATOM     25  H   UNL     1      -5.789  48.842  28.056  1.00  0.00     0.293 HD
ENDBRANCH   6  24
BRANCH   8  26
ATOM     26  O   UNL     1      -6.125  52.685  24.874  1.00  0.00    -0.508 OA
ATOM     27  H   UNL     1      -5.686  53.563  24.622  1.00  0.00     0.293 HD
ENDBRANCH   8  26
TORSDOF 6
ENDMDL
MODEL 5
REMARK VINA RESULT:    -5.281      1.293      1.651
REMARK INTER + INTRA:          -6.687
REMARK INTER:                  -6.827
REMARK INTRA:                   0.140
REMARK UNBOUND:                -0.172
REMARK SMILES COc1cc(-c2oc3cc(O)cc(O)c3c(=O)c2O)ccc1O
REMARK SMILES IDX 6 1 18 2 16 3 17 4 15 5 13 6 12 7 10 8 9 9 8 10 7 11 5 12
REMARK SMILES IDX 3 13 22 14 4 15 21 16 20 17 2 18 1 19 23 20 19 22 14 24
REMARK SMILES IDX 11 26
REMARK H PARENT 23 21 19 23 14 25 11 27
REMARK Flexibility Score: inf
ROOT
ATOM      1  C   UNL     1      -1.934  48.782  23.864  1.00  0.00     0.180 A 
ATOM      2  C   UNL     1      -2.634  49.958  24.192  1.00  0.00     0.208 A 
ATOM      3  C   UNL     1      -3.617  49.906  25.193  1.00  0.00     0.238 A 
ATOM      4  O   UNL     1      -4.259  50.951  25.489  1.00  0.00    -0.285 OA
ATOM      5  C   UNL     1      -3.867  48.690  25.862  1.00  0.00     0.111 A 
ATOM      6  C   UNL     1      -4.836  48.554  26.884  1.00  0.00     0.134 A 
ATOM      7  C   UNL     1      -5.019  47.311  27.509  1.00  0.00     0.093 A 
ATOM      8  C   UNL     1      -4.251  46.203  27.128  1.00  0.00     0.123 A 
ATOM      9  C   UNL     1      -3.296  46.332  26.120  1.00  0.00     0.094 A 
ATOM     10  C   UNL     1      -3.099  47.562  25.486  1.00  0.00     0.146 A 
ATOM     11  O   UNL     1      -2.187  47.656  24.525  1.00  0.00    -0.452 OA
ENDROOT
BRANCH   1  12
ATOM     12  C   UNL     1      -0.897  48.752  22.807  1.00  0.00     0.025 A 
ATOM     13  C   UNL     1       1.361  49.323  22.063  1.00  0.00     0.161 A 
ATOM     14  C   UNL     1       1.121  48.665  20.849  1.00  0.00     0.157 A 
ATOM     15  C   UNL     1       0.348  49.356  23.043  1.00  0.00     0.062 A 
ATOM     16  C   UNL     1      -0.113  48.044  20.619  1.00  0.00     0.051 A 
ATOM     17  C   UNL     1      -1.113  48.079  21.592  1.00  0.00     0.016 A 
BRANCH  13  18
ATOM     18  O   UNL     1       2.612  49.928  22.259  1.00  0.00    -0.493 OA
ATOM     19  C   UNL     1       3.201  50.872  21.370  1.00  0.00     0.278 C 
ENDBRANCH  13  18
BRANCH  14  20
ATOM     20  O   UNL     1       2.117  48.630  19.876  1.00  0.00    -0.504 OA
ATOM     21  H   UNL     1       2.019  49.126  18.997  1.00  0.00     0.293 HD
ENDBRANCH  14  20
ENDBRANCH   1  12
BRANCH   2  22
ATOM     22  O   UNL     1      -2.333  51.162  23.549  1.00  0.00    -0.502 OA
ATOM     23  H   UNL     1      -1.381  51.457  23.368  1.00  0.00     0.293 HD
ENDBRANCH   2  22
BRANCH   6  24
ATOM     24  O   UNL     1      -5.615  49.640  27.285  1.00  0.00    -0.507 OA
ATOM     25  H   UNL     1      -5.199  50.526  27.547  1.00  0.00     0.293 HD
ENDBRANCH   6  24
BRANCH   8  26
ATOM     26  O   UNL     1      -4.432  44.968  27.749  1.00  0.00    -0.508 OA
ATOM     27  H   UNL     1      -3.826  44.657  28.498  1.00  0.00     0.293 HD
ENDBRANCH   8  26
TORSDOF 6
ENDMDL
MODEL 6
REMARK VINA RESULT:    -4.970      2.735      6.985
REMARK INTER + INTRA:          -6.303
REMARK INTER:                  -5.906
REMARK INTRA:                  -0.397
REMARK UNBOUND:                -0.172
REMARK SMILES COc1cc(-c2oc3cc(O)cc(O)c3c(=O)c2O)ccc1O
REMARK SMILES IDX 6 1 18 2 16 3 17 4 15 5 13 6 12 7 10 8 9 9 8 10 7 11 5 12
REMARK SMILES IDX 3 13 22 14 4 15 21 16 20 17 2 18 1 19 23 20 19 22 14 24
REMARK SMILES IDX 11 26
REMARK H PARENT 23 21 19 23 14 25 11 27
REMARK Flexibility Score: inf
ROOT
ATOM      1  C   UNL     1      -3.775  47.692  24.964  1.00  0.00     0.180 A 
ATOM      2  C   UNL     1      -4.503  48.859  24.659  1.00  0.00     0.208 A 
ATOM      3  C   UNL     1      -3.854  49.908  23.990  1.00  0.00     0.238 A 
ATOM      4  O   UNL     1      -4.493  50.962  23.721  1.00  0.00    -0.285 OA
ATOM      5  C   UNL     1      -2.501  49.767  23.618  1.00  0.00     0.111 A 
ATOM      6  C   UNL     1      -1.776  50.774  22.938  1.00  0.00     0.134 A 
ATOM      7  C   UNL     1      -0.434  50.554  22.595  1.00  0.00     0.093 A 
ATOM      8  C   UNL     1       0.196  49.345  22.919  1.00  0.00     0.123 A 
ATOM      9  C   UNL     1      -0.515  48.350  23.590  1.00  0.00     0.094 A 
ATOM     10  C   UNL     1      -1.853  48.551  23.942  1.00  0.00     0.146 A 
ATOM     11  O   UNL     1      -2.505  47.589  24.585  1.00  0.00    -0.452 OA
ENDROOT
BRANCH   1  12
ATOM     12  C   UNL     1      -4.383  46.550  25.684  1.00  0.00     0.025 A 
ATOM     13  C   UNL     1      -5.524  44.388  25.612  1.00  0.00     0.161 A 
ATOM     14  C   UNL     1      -5.495  44.334  27.012  1.00  0.00     0.157 A 
ATOM     15  C   UNL     1      -4.958  45.498  24.952  1.00  0.00     0.062 A 
ATOM     16  C   UNL     1      -4.905  45.371  27.744  1.00  0.00     0.051 A 
ATOM     17  C   UNL     1      -4.346  46.469  27.087  1.00  0.00     0.016 A 
BRANCH  13  18
ATOM     18  O   UNL     1      -6.118  43.326  24.913  1.00  0.00    -0.493 OA
ATOM     19  C   UNL     1      -6.123  43.196  23.494  1.00  0.00     0.278 C 
ENDBRANCH  13  18
BRANCH  14  20
ATOM     20  O   UNL     1      -6.054  43.240  27.670  1.00  0.00    -0.504 OA
ATOM     21  H   UNL     1      -6.656  42.581  27.188  1.00  0.00     0.293 HD
ENDBRANCH  14  20
ENDBRANCH   1  12
BRANCH   2  22
ATOM     22  O   UNL     1      -5.856  48.954  24.994  1.00  0.00    -0.502 OA
ATOM     23  H   UNL     1      -6.595  48.705  24.346  1.00  0.00     0.293 HD
ENDBRANCH   2  22
BRANCH   6  24
ATOM     24  O   UNL     1      -2.376  51.988  22.601  1.00  0.00    -0.507 OA
ATOM     25  H   UNL     1      -3.384  52.101  22.596  1.00  0.00     0.293 HD
ENDBRANCH   6  24
BRANCH   8  26
ATOM     26  O   UNL     1       1.529  49.126  22.577  1.00  0.00    -0.508 OA
ATOM     27  H   UNL     1       1.844  49.174  21.616  1.00  0.00     0.293 HD
ENDBRANCH   8  26
TORSDOF 6
ENDMDL
MODEL 7
REMARK VINA RESULT:    -4.949      3.197      5.868
REMARK INTER + INTRA:          -6.279
REMARK INTER:                  -5.880
REMARK INTRA:                  -0.398
REMARK UNBOUND:                -0.172
REMARK SMILES COc1cc(-c2oc3cc(O)cc(O)c3c(=O)c2O)ccc1O
REMARK SMILES IDX 6 1 18 2 16 3 17 4 15 5 13 6 12 7 10 8 9 9 8 10 7 11 5 12
REMARK SMILES IDX 3 13 22 14 4 15 21 16 20 17 2 18 1 19 23 20 19 22 14 24
REMARK SMILES IDX 11 26
REMARK H PARENT 23 21 19 23 14 25 11 27
REMARK Flexibility Score: inf
ROOT
ATOM      1  C   UNL     1      -4.506  47.744  25.321  1.00  0.00     0.180 A 
ATOM      2  C   UNL     1      -4.659  47.393  26.675  1.00  0.00     0.208 A 
ATOM      3  C   UNL     1      -5.115  46.104  26.995  1.00  0.00     0.238 A 
ATOM      4  O   UNL     1      -5.266  45.782  28.206  1.00  0.00    -0.285 OA
ATOM      5  C   UNL     1      -5.387  45.185  25.961  1.00  0.00     0.111 A 
ATOM      6  C   UNL     1      -5.844  43.867  26.199  1.00  0.00     0.134 A 
ATOM      7  C   UNL     1      -6.085  43.008  25.116  1.00  0.00     0.093 A 
ATOM      8  C   UNL     1      -5.876  43.443  23.802  1.00  0.00     0.123 A 
ATOM      9  C   UNL     1      -5.427  44.742  23.563  1.00  0.00     0.094 A 
ATOM     10  C   UNL     1      -5.182  45.613  24.629  1.00  0.00     0.146 A 
ATOM     11  O   UNL     1      -4.759  46.846  24.373  1.00  0.00    -0.452 OA
ENDROOT
BRANCH   1  12
ATOM     12  C   UNL     1      -4.049  49.089  24.903  1.00  0.00     0.025 A 
ATOM     13  C   UNL     1      -2.220  50.583  24.269  1.00  0.00     0.161 A 
ATOM     14  C   UNL     1      -3.145  51.612  24.049  1.00  0.00     0.157 A 
ATOM     15  C   UNL     1      -2.680  49.319  24.689  1.00  0.00     0.062 A 
ATOM     16  C   UNL     1      -4.513  51.381  24.242  1.00  0.00     0.051 A 
ATOM     17  C   UNL     1      -4.965  50.127  24.658  1.00  0.00     0.016 A 
BRANCH  13  18
ATOM     18  O   UNL     1      -0.858  50.852  24.059  1.00  0.00    -0.493 OA
ATOM     19  C   UNL     1       0.209  50.086  24.610  1.00  0.00     0.278 C 
ENDBRANCH  13  18
BRANCH  14  20
ATOM     20  O   UNL     1      -2.696  52.865  23.635  1.00  0.00    -0.504 OA
ATOM     21  H   UNL     1      -2.615  53.641  24.283  1.00  0.00     0.293 HD
ENDBRANCH  14  20
ENDBRANCH   1  12
BRANCH   2  22
ATOM     22  O   UNL     1      -4.335  48.306  27.683  1.00  0.00    -0.502 OA
ATOM     23  H   UNL     1      -3.733  48.064  28.461  1.00  0.00     0.293 HD
ENDBRANCH   2  22
BRANCH   6  24
ATOM     24  O   UNL     1      -6.061  43.404  27.498  1.00  0.00    -0.507 OA
ATOM     25  H   UNL     1      -5.424  43.625  28.255  1.00  0.00     0.293 HD
ENDBRANCH   6  24
BRANCH   8  26
ATOM     26  O   UNL     1      -6.114  42.590  22.726  1.00  0.00    -0.508 OA
ATOM     27  H   UNL     1      -6.839  42.784  22.045  1.00  0.00     0.293 HD
ENDBRANCH   8  26
TORSDOF 6
ENDMDL
MODEL 8
REMARK VINA RESULT:    -4.931      2.150      7.193
REMARK INTER + INTRA:          -6.256
REMARK INTER:                  -5.855
REMARK INTRA:                  -0.401
REMARK UNBOUND:                -0.172
REMARK SMILES COc1cc(-c2oc3cc(O)cc(O)c3c(=O)c2O)ccc1O
REMARK SMILES IDX 6 1 18 2 16 3 17 4 15 5 13 6 12 7 10 8 9 9 8 10 7 11 5 12
REMARK SMILES IDX 3 13 22 14 4 15 21 16 20 17 2 18 1 19 23 20 19 22 14 24
REMARK SMILES IDX 11 26
REMARK H PARENT 23 21 19 23 14 25 11 27
REMARK Flexibility Score: inf
ROOT
ATOM      1  C   UNL     1      -3.153  48.653  24.545  1.00  0.00     0.180 A 
ATOM      2  C   UNL     1      -3.816  48.834  23.316  1.00  0.00     0.208 A 
ATOM      3  C   UNL     1      -3.066  49.200  22.187  1.00  0.00     0.238 A 
ATOM      4  O   UNL     1      -3.651  49.375  21.083  1.00  0.00    -0.285 OA
ATOM      5  C   UNL     1      -1.669  49.356  22.299  1.00  0.00     0.111 A 
ATOM      6  C   UNL     1      -0.841  49.717  21.210  1.00  0.00     0.134 A 
ATOM      7  C   UNL     1       0.543  49.844  21.401  1.00  0.00     0.093 A 
ATOM      8  C   UNL     1       1.113  49.616  22.659  1.00  0.00     0.123 A 
ATOM      9  C   UNL     1       0.300  49.261  23.736  1.00  0.00     0.094 A 
ATOM     10  C   UNL     1      -1.082  49.130  23.567  1.00  0.00     0.146 A 
ATOM     11  O   UNL     1      -1.833  48.796  24.610  1.00  0.00    -0.452 OA
ENDROOT
BRANCH   1  12
ATOM     12  C   UNL     1      -3.877  48.287  25.784  1.00  0.00     0.025 A 
ATOM     13  C   UNL     1      -4.610  46.564  27.357  1.00  0.00     0.161 A 
ATOM     14  C   UNL     1      -5.189  47.554  28.161  1.00  0.00     0.157 A 
ATOM     15  C   UNL     1      -3.947  46.939  26.170  1.00  0.00     0.062 A 
ATOM     16  C   UNL     1      -5.104  48.902  27.789  1.00  0.00     0.051 A 
ATOM     17  C   UNL     1      -4.446  49.269  26.613  1.00  0.00     0.016 A 
BRANCH  13  18
ATOM     18  O   UNL     1      -4.711  45.225  27.766  1.00  0.00    -0.493 OA
ATOM     19  C   UNL     1      -5.341  44.196  27.010  1.00  0.00     0.278 C 
ENDBRANCH  13  18
BRANCH  14  20
ATOM     20  O   UNL     1      -5.848  47.191  29.334  1.00  0.00    -0.504 OA
ATOM     21  H   UNL     1      -6.286  47.881  29.933  1.00  0.00     0.293 HD
ENDBRANCH  14  20
ENDBRANCH   1  12
BRANCH   2  22
ATOM     22  O   UNL     1      -5.195  48.625  23.220  1.00  0.00    -0.502 OA
ATOM     23  H   UNL     1      -5.760  48.360  24.019  1.00  0.00     0.293 HD
ENDBRANCH   2  22
BRANCH   6  24
ATOM     24  O   UNL     1      -1.380  49.950  19.944  1.00  0.00    -0.507 OA
ATOM     25  H   UNL     1      -1.996  49.281  19.496  1.00  0.00     0.293 HD
ENDBRANCH   6  24
BRANCH   8  26
ATOM     26  O   UNL     1       2.488  49.741  22.849  1.00  0.00    -0.508 OA
ATOM     27  H   UNL     1       2.870  50.261  23.629  1.00  0.00     0.293 HD
ENDBRANCH   8  26
TORSDOF 6
ENDMDL
MODEL 9
REMARK VINA RESULT:    -4.674      2.075      6.922
REMARK INTER + INTRA:          -5.939
REMARK INTER:                  -5.543
REMARK INTRA:                  -0.396
REMARK UNBOUND:                -0.172
REMARK SMILES COc1cc(-c2oc3cc(O)cc(O)c3c(=O)c2O)ccc1O
REMARK SMILES IDX 6 1 18 2 16 3 17 4 15 5 13 6 12 7 10 8 9 9 8 10 7 11 5 12
REMARK SMILES IDX 3 13 22 14 4 15 21 16 20 17 2 18 1 19 23 20 19 22 14 24
REMARK SMILES IDX 11 26
REMARK H PARENT 23 21 19 23 14 25 11 27
REMARK Flexibility Score: inf
ROOT
ATOM      1  C   UNL     1      -3.430  47.966  24.650  1.00  0.00     0.180 A 
ATOM      2  C   UNL     1      -4.056  49.181  24.314  1.00  0.00     0.208 A 
ATOM      3  C   UNL     1      -3.333  50.137  23.581  1.00  0.00     0.238 A 
ATOM      4  O   UNL     1      -3.881  51.234  23.284  1.00  0.00    -0.285 OA
ATOM      5  C   UNL     1      -2.012  49.854  23.179  1.00  0.00     0.111 A 
ATOM      6  C   UNL     1      -1.219  50.759  22.436  1.00  0.00     0.134 A 
ATOM      7  C   UNL     1       0.086  50.400  22.066  1.00  0.00     0.093 A 
ATOM      8  C   UNL     1       0.611  49.153  22.426  1.00  0.00     0.123 A 
ATOM      9  C   UNL     1      -0.168  48.257  23.160  1.00  0.00     0.094 A 
ATOM     10  C   UNL     1      -1.470  48.597  23.539  1.00  0.00     0.146 A 
ATOM     11  O   UNL     1      -2.187  47.728  24.241  1.00  0.00    -0.452 OA
ENDROOT
BRANCH   1  12
ATOM     12  C   UNL     1      -4.118  46.917  25.436  1.00  0.00     0.025 A 
ATOM     13  C   UNL     1      -4.738  45.990  27.613  1.00  0.00     0.161 A 
ATOM     14  C   UNL     1      -5.463  44.979  26.969  1.00  0.00     0.157 A 
ATOM     15  C   UNL     1      -4.073  46.963  26.839  1.00  0.00     0.062 A 
ATOM     16  C   UNL     1      -5.527  44.941  25.570  1.00  0.00     0.051 A 
ATOM     17  C   UNL     1      -4.867  45.906  24.808  1.00  0.00     0.016 A 
BRANCH  13  18
ATOM     18  O   UNL     1      -4.702  45.998  29.016  1.00  0.00    -0.493 OA
ATOM     19  C   UNL     1      -5.044  47.119  29.826  1.00  0.00     0.278 C 
ENDBRANCH  13  18
BRANCH  14  20
ATOM     20  O   UNL     1      -6.121  44.013  27.728  1.00  0.00    -0.504 OA
ATOM     21  H   UNL     1      -6.842  44.263  28.396  1.00  0.00     0.293 HD
ENDBRANCH  14  20
ENDBRANCH   1  12
BRANCH   2  22
ATOM     22  O   UNL     1      -5.383  49.417  24.682  1.00  0.00    -0.502 OA
ATOM     23  H   UNL     1      -5.871  48.838  25.355  1.00  0.00     0.293 HD
ENDBRANCH   2  22
BRANCH   6  24
ATOM     24  O   UNL     1      -1.714  52.009  22.062  1.00  0.00    -0.507 OA
ATOM     25  H   UNL     1      -2.124  52.644  22.738  1.00  0.00     0.293 HD
ENDBRANCH   6  24
BRANCH   8  26
ATOM     26  O   UNL     1       1.906  48.795  22.057  1.00  0.00    -0.508 OA
ATOM     27  H   UNL     1       2.571  49.482  21.722  1.00  0.00     0.293 HD
ENDBRANCH   8  26
TORSDOF 6
ENDMDL
