MODEL 1
REMARK VINA RESULT:    -4.516      0.000      0.000
REMARK INTER + INTRA:          -6.771
REMARK INTER:                  -6.364
REMARK INTRA:                  -0.407
REMARK UNBOUND:                -0.407
REMARK SMILES CCCCCCCCC(=O)[O-]
REMARK SMILES IDX 6 1 7 2 8 3 9 4 10 5 11 6 5 7 4 8 3 9 2 10 1 11
REMARK H PARENT
REMARK Flexibility Score: inf
ROOT
ATOM      1  C   UNL     1      26.947  43.871  35.414  1.00  0.00     0.000 C 
ENDROOT
BRANCH   1   2
ATOM      2  C   UNL     1      27.742  42.615  35.015  1.00  0.00     0.006 C 
BRANCH   2   3
ATOM      3  C   UNL     1      27.834  42.448  33.494  1.00  0.00     0.053 C 
BRANCH   3   4
ATOM      4  C   UNL     1      27.671  41.016  33.081  1.00  0.00     0.041 C 
ATOM      5  O   UNL     1      27.129  40.189  33.861  1.00  0.00    -0.550 OA
ATOM      6  O   UNL     1      28.090  40.603  31.823  1.00  0.00    -0.550 OA
ENDBRANCH   3   4
ENDBRANCH   2   3
ENDBRANCH   1   2
BRANCH   1   7
ATOM      7  C   UNL     1      25.710  43.541  36.265  1.00  0.00     0.000 C 
BRANCH   7   8
ATOM      8  C   UNL     1      24.684  42.679  35.509  1.00  0.00    -0.000 C 
BRANCH   8   9
ATOM      9  C   UNL     1      23.381  43.440  35.210  1.00  0.00    -0.000 C 
BRANCH   9  10
ATOM     10  C   UNL     1      23.182  44.651  36.132  1.00  0.00    -0.003 C 
ATOM     11  C   UNL     1      22.181  45.636  35.535  1.00  0.00     0.004 C 
ENDBRANCH   9  10
ENDBRANCH   8   9
ENDBRANCH   7   8
ENDBRANCH   1   7
TORSDOF 7
ENDMDL
MODEL 2
REMARK VINA RESULT:    -4.455      2.114      3.555
REMARK INTER + INTRA:          -6.685
REMARK INTER:                  -6.388
REMARK INTRA:                  -0.297
REMARK UNBOUND:                -0.407
REMARK SMILES CCCCCCCCC(=O)[O-]
REMARK SMILES IDX 6 1 7 2 8 3 9 4 10 5 11 6 5 7 4 8 3 9 2 10 1 11
REMARK H PARENT
REMARK Flexibility Score: inf
ROOT
ATOM      1  C   UNL     1      27.912  41.290  32.448  1.00  0.00     0.000 C 
ENDROOT
BRANCH   1   2
ATOM      2  C   UNL     1      28.000  39.775  32.199  1.00  0.00     0.006 C 
BRANCH   2   3
ATOM      3  C   UNL     1      27.611  38.961  33.440  1.00  0.00     0.053 C 
BRANCH   3   4
ATOM      4  C   UNL     1      27.495  37.499  33.131  1.00  0.00     0.041 C 
ATOM      5  O   UNL     1      27.360  36.663  34.064  1.00  0.00    -0.550 OA
ATOM      6  O   UNL     1      27.505  37.063  31.813  1.00  0.00    -0.550 OA
ENDBRANCH   3   4
ENDBRANCH   2   3
ENDBRANCH   1   2
BRANCH   1   7
ATOM      7  C   UNL     1      27.538  41.630  33.900  1.00  0.00     0.000 C 
BRANCH   7   8
ATOM      8  C   UNL     1      27.808  43.104  34.252  1.00  0.00    -0.000 C 
BRANCH   8   9
ATOM      9  C   UNL     1      26.992  43.579  35.465  1.00  0.00    -0.000 C 
BRANCH   9  10
ATOM     10  C   UNL     1      25.623  42.889  35.563  1.00  0.00    -0.003 C 
ATOM     11  C   UNL     1      24.613  43.774  36.286  1.00  0.00     0.004 C 
ENDBRANCH   9  10
ENDBRANCH   8   9
ENDBRANCH   7   8
ENDBRANCH   1   7
TORSDOF 7
ENDMDL
MODEL 3
REMARK VINA RESULT:    -4.432      4.602      7.665
REMARK INTER + INTRA:          -6.652
REMARK INTER:                  -6.435
REMARK INTRA:                  -0.217
REMARK UNBOUND:                -0.407
REMARK SMILES CCCCCCCCC(=O)[O-]
REMARK SMILES IDX 6 1 7 2 8 3 9 4 10 5 11 6 5 7 4 8 3 9 2 10 1 11
REMARK H PARENT
REMARK Flexibility Score: inf
ROOT
ATOM      1  C   UNL     1      27.411  37.757  33.487  1.00  0.00     0.000 C 
ENDROOT
BRANCH   1   2
ATOM      2  C   UNL     1      28.111  39.059  33.914  1.00  0.00     0.006 C 
BRANCH   2   3
ATOM      3  C   UNL     1      27.158  40.260  33.904  1.00  0.00     0.053 C 
BRANCH   3   4
ATOM      4  C   UNL     1      27.663  41.364  33.025  1.00  0.00     0.041 C 
ATOM      5  O   UNL     1      27.902  41.146  31.808  1.00  0.00    -0.550 OA
ATOM      6  O   UNL     1      27.839  42.640  33.544  1.00  0.00    -0.550 OA
ENDBRANCH   3   4
ENDBRANCH   2   3
ENDBRANCH   1   2
BRANCH   1   7
ATOM      7  C   UNL     1      27.489  37.514  31.971  1.00  0.00     0.000 C 
BRANCH   7   8
ATOM      8  C   UNL     1      27.721  36.034  31.620  1.00  0.00    -0.000 C 
BRANCH   8   9
ATOM      9  C   UNL     1      26.623  35.467  30.704  1.00  0.00    -0.000 C 
BRANCH   9  10
ATOM     10  C   UNL     1      26.749  33.950  30.501  1.00  0.00    -0.003 C 
ATOM     11  C   UNL     1      25.462  33.364  29.929  1.00  0.00     0.004 C 
ENDBRANCH   9  10
ENDBRANCH   8   9
ENDBRANCH   7   8
ENDBRANCH   1   7
TORSDOF 7
ENDMDL
MODEL 4
REMARK VINA RESULT:    -4.339      6.078      8.520
REMARK INTER + INTRA:          -6.521
REMARK INTER:                  -5.955
REMARK INTRA:                  -0.566
REMARK UNBOUND:                -0.407
REMARK SMILES CCCCCCCCC(=O)[O-]
REMARK SMILES IDX 6 1 7 2 8 3 9 4 10 5 11 6 5 7 4 8 3 9 2 10 1 11
REMARK H PARENT
REMARK Flexibility Score: inf
ROOT
ATOM      1  C   UNL     1      28.543  35.463  30.833  1.00  0.00     0.000 C 
ENDROOT
BRANCH   1   2
ATOM      2  C   UNL     1      27.791  34.564  29.837  1.00  0.00     0.006 C 
BRANCH   2   3
ATOM      3  C   UNL     1      26.767  33.659  30.533  1.00  0.00     0.053 C 
BRANCH   3   4
ATOM      4  C   UNL     1      25.360  34.073  30.228  1.00  0.00     0.041 C 
ATOM      5  O   UNL     1      24.967  35.237  30.505  1.00  0.00    -0.550 OA
ATOM      6  O   UNL     1      24.491  33.183  29.610  1.00  0.00    -0.550 OA
ENDBRANCH   3   4
ENDBRANCH   2   3
ENDBRANCH   1   2
BRANCH   1   7
ATOM      7  C   UNL     1      28.204  35.137  32.296  1.00  0.00     0.000 C 
BRANCH   7   8
ATOM      8  C   UNL     1      27.498  36.301  33.014  1.00  0.00    -0.000 C 
BRANCH   8   9
ATOM      9  C   UNL     1      27.172  37.467  32.066  1.00  0.00    -0.000 C 
BRANCH   9  10
ATOM     10  C   UNL     1      27.875  38.771  32.471  1.00  0.00    -0.003 C 
ATOM     11  C   UNL     1      27.524  39.161  33.904  1.00  0.00     0.004 C 
ENDBRANCH   9  10
ENDBRANCH   8   9
ENDBRANCH   7   8
ENDBRANCH   1   7
TORSDOF 7
ENDMDL
MODEL 5
REMARK VINA RESULT:    -4.307      4.611      7.883
REMARK INTER + INTRA:          -6.476
REMARK INTER:                  -6.093
REMARK INTRA:                  -0.383
REMARK UNBOUND:                -0.407
REMARK SMILES CCCCCCCCC(=O)[O-]
REMARK SMILES IDX 6 1 7 2 8 3 9 4 10 5 11 6 5 7 4 8 3 9 2 10 1 11
REMARK H PARENT
REMARK Flexibility Score: inf
ROOT
ATOM      1  C   UNL     1      27.578  37.090  33.378  1.00  0.00     0.000 C 
ENDROOT
BRANCH   1   2
ATOM      2  C   UNL     1      27.163  38.357  34.144  1.00  0.00     0.006 C 
BRANCH   2   3
ATOM      3  C   UNL     1      28.163  39.504  33.952  1.00  0.00     0.053 C 
BRANCH   3   4
ATOM      4  C   UNL     1      27.479  40.778  33.561  1.00  0.00     0.041 C 
ATOM      5  O   UNL     1      26.653  41.320  34.342  1.00  0.00    -0.550 OA
ATOM      6  O   UNL     1      27.778  41.384  32.347  1.00  0.00    -0.550 OA
ENDBRANCH   3   4
ENDBRANCH   2   3
ENDBRANCH   1   2
BRANCH   1   7
ATOM      7  C   UNL     1      27.518  37.275  31.853  1.00  0.00     0.000 C 
BRANCH   7   8
ATOM      8  C   UNL     1      28.011  36.035  31.086  1.00  0.00    -0.000 C 
BRANCH   8   9
ATOM      9  C   UNL     1      28.405  34.881  32.022  1.00  0.00    -0.000 C 
BRANCH   9  10
ATOM     10  C   UNL     1      27.905  33.518  31.521  1.00  0.00    -0.003 C 
ATOM     11  C   UNL     1      26.756  33.685  30.532  1.00  0.00     0.004 C 
ENDBRANCH   9  10
ENDBRANCH   8   9
ENDBRANCH   7   8
ENDBRANCH   1   7
TORSDOF 7
ENDMDL
MODEL 6
REMARK VINA RESULT:    -4.281      3.173      6.438
REMARK INTER + INTRA:          -6.440
REMARK INTER:                  -6.072
REMARK INTRA:                  -0.368
REMARK UNBOUND:                -0.407
REMARK SMILES CCCCCCCCC(=O)[O-]
REMARK SMILES IDX 6 1 7 2 8 3 9 4 10 5 11 6 5 7 4 8 3 9 2 10 1 11
REMARK H PARENT
REMARK Flexibility Score: inf
ROOT
ATOM      1  C   UNL     1      27.997  40.184  32.577  1.00  0.00     0.000 C 
ENDROOT
BRANCH   1   2
ATOM      2  C   UNL     1      27.592  41.648  32.819  1.00  0.00     0.006 C 
BRANCH   2   3
ATOM      3  C   UNL     1      27.892  42.102  34.253  1.00  0.00     0.053 C 
BRANCH   3   4
ATOM      4  C   UNL     1      26.658  42.583  34.954  1.00  0.00     0.041 C 
ATOM      5  O   UNL     1      25.623  41.865  34.980  1.00  0.00    -0.550 OA
ATOM      6  O   UNL     1      26.661  43.810  35.604  1.00  0.00    -0.550 OA
ENDBRANCH   3   4
ENDBRANCH   2   3
ENDBRANCH   1   2
BRANCH   1   7
ATOM      7  C   UNL     1      28.005  39.351  33.869  1.00  0.00     0.000 C 
BRANCH   7   8
ATOM      8  C   UNL     1      27.480  37.920  33.655  1.00  0.00    -0.000 C 
BRANCH   8   9
ATOM      9  C   UNL     1      27.273  37.585  32.169  1.00  0.00    -0.000 C 
BRANCH   9  10
ATOM     10  C   UNL     1      27.550  36.107  31.853  1.00  0.00    -0.003 C 
ATOM     11  C   UNL     1      28.145  35.947  30.458  1.00  0.00     0.004 C 
ENDBRANCH   9  10
ENDBRANCH   8   9
ENDBRANCH   7   8
ENDBRANCH   1   7
TORSDOF 7
ENDMDL
MODEL 7
REMARK VINA RESULT:    -4.224      5.166      7.290
REMARK INTER + INTRA:          -6.359
REMARK INTER:                  -5.992
REMARK INTRA:                  -0.367
REMARK UNBOUND:                -0.407
REMARK SMILES CCCCCCCCC(=O)[O-]
REMARK SMILES IDX 6 1 7 2 8 3 9 4 10 5 11 6 5 7 4 8 3 9 2 10 1 11
REMARK H PARENT
REMARK Flexibility Score: inf
ROOT
ATOM      1  C   UNL     1      27.423  37.297  31.966  1.00  0.00     0.000 C 
ENDROOT
BRANCH   1   2
ATOM      2  C   UNL     1      27.853  36.099  31.102  1.00  0.00     0.006 C 
BRANCH   2   3
ATOM      3  C   UNL     1      26.652  35.348  30.516  1.00  0.00     0.053 C 
BRANCH   3   4
ATOM      4  C   UNL     1      26.833  33.862  30.593  1.00  0.00     0.041 C 
ATOM      5  O   UNL     1      26.249  33.108  29.771  1.00  0.00    -0.550 OA
ATOM      6  O   UNL     1      27.671  33.313  31.555  1.00  0.00    -0.550 OA
ENDBRANCH   3   4
ENDBRANCH   2   3
ENDBRANCH   1   2
BRANCH   1   7
ATOM      7  C   UNL     1      27.470  36.988  33.471  1.00  0.00     0.000 C 
BRANCH   7   8
ATOM      8  C   UNL     1      27.265  38.241  34.340  1.00  0.00    -0.000 C 
BRANCH   8   9
ATOM      9  C   UNL     1      28.244  39.372  33.984  1.00  0.00    -0.000 C 
BRANCH   9  10
ATOM     10  C   UNL     1      27.528  40.643  33.505  1.00  0.00    -0.003 C 
ATOM     11  C   UNL     1      27.939  41.001  32.080  1.00  0.00     0.004 C 
ENDBRANCH   9  10
ENDBRANCH   8   9
ENDBRANCH   7   8
ENDBRANCH   1   7
TORSDOF 7
ENDMDL
MODEL 8
REMARK VINA RESULT:    -4.198      5.508      8.562
REMARK INTER + INTRA:          -6.322
REMARK INTER:                  -5.938
REMARK INTRA:                  -0.384
REMARK UNBOUND:                -0.407
REMARK SMILES CCCCCCCCC(=O)[O-]
REMARK SMILES IDX 6 1 7 2 8 3 9 4 10 5 11 6 5 7 4 8 3 9 2 10 1 11
REMARK H PARENT
REMARK Flexibility Score: inf
ROOT
ATOM      1  C   UNL     1      27.188  35.861  32.920  1.00  0.00     0.000 C 
ENDROOT
BRANCH   1   2
ATOM      2  C   UNL     1      27.544  37.295  33.349  1.00  0.00     0.006 C 
BRANCH   2   3
ATOM      3  C   UNL     1      27.619  38.254  32.155  1.00  0.00     0.053 C 
BRANCH   3   4
ATOM      4  C   UNL     1      27.943  39.653  32.584  1.00  0.00     0.041 C 
ATOM      5  O   UNL     1      28.338  40.500  31.741  1.00  0.00    -0.550 OA
ATOM      6  O   UNL     1      27.779  40.028  33.912  1.00  0.00    -0.550 OA
ENDBRANCH   3   4
ENDBRANCH   2   3
ENDBRANCH   1   2
BRANCH   1   7
ATOM      7  C   UNL     1      28.378  35.119  32.291  1.00  0.00     0.000 C 
BRANCH   7   8
ATOM      8  C   UNL     1      27.978  33.760  31.689  1.00  0.00    -0.000 C 
BRANCH   8   9
ATOM      9  C   UNL     1      27.511  33.877  30.229  1.00  0.00    -0.000 C 
BRANCH   9  10
ATOM     10  C   UNL     1      26.117  33.272  30.006  1.00  0.00    -0.003 C 
ATOM     11  C   UNL     1      25.027  34.325  30.185  1.00  0.00     0.004 C 
ENDBRANCH   9  10
ENDBRANCH   8   9
ENDBRANCH   7   8
ENDBRANCH   1   7
TORSDOF 7
ENDMDL
MODEL 9
REMARK VINA RESULT:    -4.141      7.912     10.651
REMARK INTER + INTRA:          -6.242
REMARK INTER:                  -5.888
REMARK INTRA:                  -0.355
REMARK UNBOUND:                -0.407
REMARK SMILES CCCCCCCCC(=O)[O-]
REMARK SMILES IDX 6 1 7 2 8 3 9 4 10 5 11 6 5 7 4 8 3 9 2 10 1 11
REMARK H PARENT
REMARK Flexibility Score: inf
ROOT
ATOM      1  C   UNL     1      27.618  33.320  31.090  1.00  0.00     0.000 C 
ENDROOT
BRANCH   1   2
ATOM      2  C   UNL     1      28.555  34.491  31.428  1.00  0.00     0.006 C 
BRANCH   2   3
ATOM      3  C   UNL     1      28.624  34.760  32.937  1.00  0.00     0.053 C 
BRANCH   3   4
ATOM      4  C   UNL     1      27.566  35.726  33.378  1.00  0.00     0.041 C 
ATOM      5  O   UNL     1      27.158  36.622  32.592  1.00  0.00    -0.550 OA
ATOM      6  O   UNL     1      27.010  35.618  34.646  1.00  0.00    -0.550 OA
ENDBRANCH   3   4
ENDBRANCH   2   3
ENDBRANCH   1   2
BRANCH   1   7
ATOM      7  C   UNL     1      26.778  33.580  29.829  1.00  0.00     0.000 C 
BRANCH   7   8
ATOM      8  C   UNL     1      25.293  33.830  30.147  1.00  0.00    -0.000 C 
BRANCH   8   9
ATOM      9  C   UNL     1      24.354  32.956  29.300  1.00  0.00    -0.000 C 
BRANCH   9  10
ATOM     10  C   UNL     1      25.112  31.923  28.454  1.00  0.00    -0.003 C 
ATOM     11  C   UNL     1      24.322  30.623  28.338  1.00  0.00     0.004 C 
ENDBRANCH   9  10
ENDBRANCH   8   9
ENDBRANCH   7   8
ENDBRANCH   1   7
TORSDOF 7
ENDMDL
