MODEL 1
REMARK VINA RESULT:    -5.007      0.000      0.000
REMARK INTER + INTRA:          -6.206
REMARK INTER:                  -6.032
REMARK INTRA:                  -0.174
REMARK UNBOUND:                -0.174
REMARK SMILES [NH3+][C@@H](Cc1cnc[nH]1)C(=O)[O-]
REMARK SMILES IDX 3 1 2 2 1 3 9 7 10 8 11 9 4 10 5 11 8 12 6 13 7 14
REMARK H PARENT 1 4 1 5 1 6 8 15
REMARK Flexibility Score: inf
ROOT
ATOM      1  C   UNL     1     -22.980 -21.835 -12.956  1.00  0.00     0.127 C 
ENDROOT
BRANCH   1   2
ATOM      2  C   UNL     1     -24.497 -22.037 -12.769  1.00  0.00     0.233 C 
BRANCH   2   3
ATOM      3  N   UNL     1     -24.766 -22.821 -11.557  1.00  0.00    -0.350 N 
ATOM      4  H   UNL     1     -24.158 -22.500 -10.768  1.00  0.00     0.345 HD
ATOM      5  H   UNL     1     -24.583 -23.834 -11.742  1.00  0.00     0.345 HD
ATOM      6  H   UNL     1     -25.769 -22.714 -11.281  1.00  0.00     0.345 HD
ENDBRANCH   2   3
BRANCH   2   7
ATOM      7  C   UNL     1     -25.107 -22.710 -13.972  1.00  0.00     0.099 C 
ATOM      8  O   UNL     1     -26.292 -23.137 -13.933  1.00  0.00    -0.544 OA
ATOM      9  O   UNL     1     -24.354 -22.883 -15.125  1.00  0.00    -0.544 OA
ENDBRANCH   2   7
ENDBRANCH   1   2
BRANCH   1  10
ATOM     10  C   UNL     1     -22.623 -20.380 -13.041  1.00  0.00     0.041 A 
ATOM     11  C   UNL     1     -21.533 -19.770 -12.462  1.00  0.00     0.134 A 
ATOM     12  N   UNL     1     -23.378 -19.441 -13.631  1.00  0.00    -0.348 N 
ATOM     13  N   UNL     1     -21.592 -18.444 -12.701  1.00  0.00    -0.245 NA
ATOM     14  C   UNL     1     -22.727 -18.283 -13.415  1.00  0.00     0.196 A 
ATOM     15  H   UNL     1     -24.281 -19.574 -14.139  1.00  0.00     0.167 HD
ENDBRANCH   1  10
TORSDOF 4
ENDMDL
MODEL 2
REMARK VINA RESULT:    -4.783      0.814      1.104
REMARK INTER + INTRA:          -5.936
REMARK INTER:                  -5.778
REMARK INTRA:                  -0.157
REMARK UNBOUND:                -0.174
REMARK SMILES [NH3+][C@@H](Cc1cnc[nH]1)C(=O)[O-]
REMARK SMILES IDX 3 1 2 2 1 3 9 7 10 8 11 9 4 10 5 11 8 12 6 13 7 14
REMARK H PARENT 1 4 1 5 1 6 8 15
REMARK Flexibility Score: inf
ROOT
ATOM      1  C   UNL     1     -22.990 -21.812 -12.948  1.00  0.00     0.127 C 
ENDROOT
BRANCH   1   2
ATOM      2  C   UNL     1     -24.501 -22.058 -12.765  1.00  0.00     0.233 C 
BRANCH   2   3
ATOM      3  N   UNL     1     -24.751 -22.839 -11.547  1.00  0.00    -0.350 N 
ATOM      4  H   UNL     1     -25.310 -22.283 -10.859  1.00  0.00     0.345 HD
ATOM      5  H   UNL     1     -23.841 -23.113 -11.109  1.00  0.00     0.345 HD
ATOM      6  H   UNL     1     -25.274 -23.711 -11.787  1.00  0.00     0.345 HD
ENDBRANCH   2   3
BRANCH   2   7
ATOM      7  C   UNL     1     -25.086 -22.759 -13.964  1.00  0.00     0.099 C 
ATOM      8  O   UNL     1     -26.298 -23.104 -13.975  1.00  0.00    -0.544 OA
ATOM      9  O   UNL     1     -24.280 -23.051 -15.057  1.00  0.00    -0.544 OA
ENDBRANCH   2   7
ENDBRANCH   1   2
BRANCH   1  10
ATOM     10  C   UNL     1     -22.662 -20.348 -12.925  1.00  0.00     0.041 A 
ATOM     11  C   UNL     1     -23.449 -19.325 -13.405  1.00  0.00     0.134 A 
ATOM     12  N   UNL     1     -21.499 -19.832 -12.503  1.00  0.00    -0.348 N 
ATOM     13  N   UNL     1     -22.786 -18.159 -13.273  1.00  0.00    -0.245 NA
ATOM     14  C   UNL     1     -21.605 -18.508 -12.719  1.00  0.00     0.196 A 
ATOM     15  H   UNL     1     -20.680 -20.344 -12.103  1.00  0.00     0.167 HD
ENDBRANCH   1  10
TORSDOF 4
ENDMDL
MODEL 3
REMARK VINA RESULT:    -4.656      1.858      2.265
REMARK INTER + INTRA:          -5.783
REMARK INTER:                  -5.675
REMARK INTRA:                  -0.108
REMARK UNBOUND:                -0.174
REMARK SMILES [NH3+][C@@H](Cc1cnc[nH]1)C(=O)[O-]
REMARK SMILES IDX 3 1 2 2 1 3 9 7 10 8 11 9 4 10 5 11 8 12 6 13 7 14
REMARK H PARENT 1 4 1 5 1 6 8 15
REMARK Flexibility Score: inf
ROOT
ATOM      1  C   UNL     1     -24.520 -20.869 -13.723  1.00  0.00     0.127 C 
ENDROOT
BRANCH   1   2
ATOM      2  C   UNL     1     -24.754 -22.241 -13.058  1.00  0.00     0.233 C 
BRANCH   2   3
ATOM      3  N   UNL     1     -25.331 -23.187 -14.021  1.00  0.00    -0.350 N 
ATOM      4  H   UNL     1     -24.794 -24.085 -14.024  1.00  0.00     0.345 HD
ATOM      5  H   UNL     1     -25.312 -22.772 -14.981  1.00  0.00     0.345 HD
ATOM      6  H   UNL     1     -26.326 -23.384 -13.770  1.00  0.00     0.345 HD
ENDBRANCH   2   3
BRANCH   2   7
ATOM      7  C   UNL     1     -25.648 -22.114 -11.851  1.00  0.00     0.099 C 
ATOM      8  O   UNL     1     -26.661 -22.852 -11.725  1.00  0.00    -0.544 OA
ATOM      9  O   UNL     1     -25.369 -21.161 -10.879  1.00  0.00    -0.544 OA
ENDBRANCH   2   7
ENDBRANCH   1   2
BRANCH   1  10
ATOM     10  C   UNL     1     -23.264 -20.219 -13.222  1.00  0.00     0.041 A 
ATOM     11  C   UNL     1     -23.060 -18.871 -13.030  1.00  0.00     0.134 A 
ATOM     12  N   UNL     1     -22.117 -20.868 -12.969  1.00  0.00    -0.348 N 
ATOM     13  N   UNL     1     -21.785 -18.670 -12.641  1.00  0.00    -0.245 NA
ATOM     14  C   UNL     1     -21.244 -19.907 -12.615  1.00  0.00     0.196 A 
ATOM     15  H   UNL     1     -21.933 -21.893 -13.043  1.00  0.00     0.167 HD
ENDBRANCH   1  10
TORSDOF 4
ENDMDL
MODEL 4
REMARK VINA RESULT:    -4.556      1.823      2.115
REMARK INTER + INTRA:          -5.663
REMARK INTER:                  -5.501
REMARK INTRA:                  -0.162
REMARK UNBOUND:                -0.174
REMARK SMILES [NH3+][C@@H](Cc1cnc[nH]1)C(=O)[O-]
REMARK SMILES IDX 3 1 2 2 1 3 9 7 10 8 11 9 4 10 5 11 8 12 6 13 7 14
REMARK H PARENT 1 4 1 5 1 6 8 15
REMARK Flexibility Score: inf
ROOT
ATOM      1  C   UNL     1     -24.609 -20.731 -13.679  1.00  0.00     0.127 C 
ENDROOT
BRANCH   1   2
ATOM      2  C   UNL     1     -24.721 -22.114 -13.006  1.00  0.00     0.233 C 
BRANCH   2   3
ATOM      3  N   UNL     1     -25.210 -23.112 -13.965  1.00  0.00    -0.350 N 
ATOM      4  H   UNL     1     -25.628 -23.931 -13.465  1.00  0.00     0.345 HD
ATOM      5  H   UNL     1     -24.421 -23.442 -14.567  1.00  0.00     0.345 HD
ATOM      6  H   UNL     1     -25.936 -22.684 -14.583  1.00  0.00     0.345 HD
ENDBRANCH   2   3
BRANCH   2   7
ATOM      7  C   UNL     1     -25.625 -22.060 -11.802  1.00  0.00     0.099 C 
ATOM      8  O   UNL     1     -26.597 -22.855 -11.695  1.00  0.00    -0.544 OA
ATOM      9  O   UNL     1     -25.403 -21.113 -10.810  1.00  0.00    -0.544 OA
ENDBRANCH   2   7
ENDBRANCH   1   2
BRANCH   1  10
ATOM     10  C   UNL     1     -23.333 -20.036 -13.303  1.00  0.00     0.041 A 
ATOM     11  C   UNL     1     -22.236 -20.609 -12.700  1.00  0.00     0.134 A 
ATOM     12  N   UNL     1     -23.114 -18.719 -13.429  1.00  0.00    -0.348 N 
ATOM     13  N   UNL     1     -21.317 -19.654 -12.458  1.00  0.00    -0.245 NA
ATOM     14  C   UNL     1     -21.886 -18.518 -12.916  1.00  0.00     0.196 A 
ATOM     15  H   UNL     1     -23.758 -18.000 -13.827  1.00  0.00     0.167 HD
ENDBRANCH   1  10
TORSDOF 4
ENDMDL
MODEL 5
REMARK VINA RESULT:    -4.494      2.613      4.586
REMARK INTER + INTRA:          -5.588
REMARK INTER:                  -5.452
REMARK INTRA:                  -0.136
REMARK UNBOUND:                -0.174
REMARK SMILES [NH3+][C@@H](Cc1cnc[nH]1)C(=O)[O-]
REMARK SMILES IDX 3 1 2 2 1 3 9 7 10 8 11 9 4 10 5 11 8 12 6 13 7 14
REMARK H PARENT 1 4 1 5 1 6 8 15
REMARK Flexibility Score: inf
ROOT
ATOM      1  C   UNL     1     -24.291 -21.468 -12.148  1.00  0.00     0.127 C 
ENDROOT
BRANCH   1   2
ATOM      2  C   UNL     1     -23.810 -20.078 -12.612  1.00  0.00     0.233 C 
BRANCH   2   3
ATOM      3  N   UNL     1     -24.321 -19.782 -13.957  1.00  0.00    -0.350 N 
ATOM      4  H   UNL     1     -25.327 -19.500 -13.916  1.00  0.00     0.345 HD
ATOM      5  H   UNL     1     -24.224 -20.626 -14.567  1.00  0.00     0.345 HD
ATOM      6  H   UNL     1     -23.765 -19.005 -14.383  1.00  0.00     0.345 HD
ENDBRANCH   2   3
BRANCH   2   7
ATOM      7  C   UNL     1     -22.306 -19.990 -12.594  1.00  0.00     0.099 C 
ATOM      8  O   UNL     1     -21.603 -20.989 -12.900  1.00  0.00    -0.544 OA
ATOM      9  O   UNL     1     -21.686 -18.806 -12.215  1.00  0.00    -0.544 OA
ENDBRANCH   2   7
ENDBRANCH   1   2
BRANCH   1  10
ATOM     10  C   UNL     1     -24.565 -22.375 -13.312  1.00  0.00     0.041 A 
ATOM     11  C   UNL     1     -25.803 -22.714 -13.811  1.00  0.00     0.134 A 
ATOM     12  N   UNL     1     -23.629 -23.059 -13.985  1.00  0.00    -0.348 N 
ATOM     13  N   UNL     1     -25.646 -23.604 -14.811  1.00  0.00    -0.245 NA
ATOM     14  C   UNL     1     -24.310 -23.788 -14.888  1.00  0.00     0.196 A 
ATOM     15  H   UNL     1     -22.595 -23.042 -13.836  1.00  0.00     0.167 HD
ENDBRANCH   1  10
TORSDOF 4
ENDMDL
MODEL 6
REMARK VINA RESULT:    -4.407      3.154      4.864
REMARK INTER + INTRA:          -5.482
REMARK INTER:                  -5.346
REMARK INTRA:                  -0.136
REMARK UNBOUND:                -0.174
REMARK SMILES [NH3+][C@@H](Cc1cnc[nH]1)C(=O)[O-]
REMARK SMILES IDX 3 1 2 2 1 3 9 7 10 8 11 9 4 10 5 11 8 12 6 13 7 14
REMARK H PARENT 1 4 1 5 1 6 8 15
REMARK Flexibility Score: inf
ROOT
ATOM      1  C   UNL     1     -23.755 -19.244 -13.491  1.00  0.00     0.127 C 
ENDROOT
BRANCH   1   2
ATOM      2  C   UNL     1     -22.428 -18.520 -13.183  1.00  0.00     0.233 C 
BRANCH   2   3
ATOM      3  N   UNL     1     -22.107 -18.623 -11.754  1.00  0.00    -0.350 N 
ATOM      4  H   UNL     1     -22.117 -19.622 -11.444  1.00  0.00     0.345 HD
ATOM      5  H   UNL     1     -22.806 -18.082 -11.194  1.00  0.00     0.345 HD
ATOM      6  H   UNL     1     -21.160 -18.218 -11.574  1.00  0.00     0.345 HD
ENDBRANCH   2   3
BRANCH   2   7
ATOM      7  C   UNL     1     -22.490 -17.074 -13.602  1.00  0.00     0.099 C 
ATOM      8  O   UNL     1     -21.558 -16.281 -13.299  1.00  0.00    -0.544 OA
ATOM      9  O   UNL     1     -23.589 -16.603 -14.307  1.00  0.00    -0.544 OA
ENDBRANCH   2   7
ENDBRANCH   1   2
BRANCH   1  10
ATOM     10  C   UNL     1     -23.726 -20.671 -13.026  1.00  0.00     0.041 A 
ATOM     11  C   UNL     1     -24.569 -21.248 -12.104  1.00  0.00     0.134 A 
ATOM     12  N   UNL     1     -22.803 -21.574 -13.389  1.00  0.00    -0.348 N 
ATOM     13  N   UNL     1     -24.186 -22.524 -11.894  1.00  0.00    -0.245 NA
ATOM     14  C   UNL     1     -23.110 -22.685 -12.694  1.00  0.00     0.196 A 
ATOM     15  H   UNL     1     -22.009 -21.444 -14.055  1.00  0.00     0.167 HD
ENDBRANCH   1  10
TORSDOF 4
ENDMDL
MODEL 7
REMARK VINA RESULT:    -4.217      1.234      1.683
REMARK INTER + INTRA:          -5.253
REMARK INTER:                  -5.116
REMARK INTRA:                  -0.137
REMARK UNBOUND:                -0.174
REMARK SMILES [NH3+][C@@H](Cc1cnc[nH]1)C(=O)[O-]
REMARK SMILES IDX 3 1 2 2 1 3 9 7 10 8 11 9 4 10 5 11 8 12 6 13 7 14
REMARK H PARENT 1 4 1 5 1 6 8 15
REMARK Flexibility Score: inf
ROOT
ATOM      1  C   UNL     1     -22.698 -20.764 -12.700  1.00  0.00     0.127 C 
ENDROOT
BRANCH   1   2
ATOM      2  C   UNL     1     -24.136 -21.270 -12.929  1.00  0.00     0.233 C 
BRANCH   2   3
ATOM      3  N   UNL     1     -24.798 -21.533 -11.645  1.00  0.00    -0.350 N 
ATOM      4  H   UNL     1     -24.525 -20.816 -10.934  1.00  0.00     0.345 HD
ATOM      5  H   UNL     1     -24.531 -22.482 -11.296  1.00  0.00     0.345 HD
ATOM      6  H   UNL     1     -25.836 -21.512 -11.770  1.00  0.00     0.345 HD
ENDBRANCH   2   3
BRANCH   2   7
ATOM      7  C   UNL     1     -24.145 -22.511 -13.784  1.00  0.00     0.099 C 
ATOM      8  O   UNL     1     -24.973 -22.632 -14.726  1.00  0.00    -0.544 OA
ATOM      9  O   UNL     1     -23.250 -23.540 -13.522  1.00  0.00    -0.544 OA
ENDBRANCH   2   7
ENDBRANCH   1   2
BRANCH   1  10
ATOM     10  C   UNL     1     -22.584 -19.290 -12.957  1.00  0.00     0.041 A 
ATOM     11  C   UNL     1     -23.433 -18.525 -13.724  1.00  0.00     0.134 A 
ATOM     12  N   UNL     1     -21.572 -18.517 -12.535  1.00  0.00    -0.348 N 
ATOM     13  N   UNL     1     -22.963 -17.262 -13.776  1.00  0.00    -0.245 NA
ATOM     14  C   UNL     1     -21.832 -17.296 -13.040  1.00  0.00     0.196 A 
ATOM     15  H   UNL     1     -20.753 -18.799 -11.952  1.00  0.00     0.167 HD
ENDBRANCH   1  10
TORSDOF 4
ENDMDL
MODEL 8
REMARK VINA RESULT:    -4.085     10.133     10.841
REMARK INTER + INTRA:          -5.094
REMARK INTER:                  -5.007
REMARK INTRA:                  -0.087
REMARK UNBOUND:                -0.174
REMARK SMILES [NH3+][C@@H](Cc1cnc[nH]1)C(=O)[O-]
REMARK SMILES IDX 3 1 2 2 1 3 9 7 10 8 11 9 4 10 5 11 8 12 6 13 7 14
REMARK H PARENT 1 4 1 5 1 6 8 15
REMARK Flexibility Score: inf
ROOT
ATOM      1  C   UNL     1     -28.976 -30.653 -14.109  1.00  0.00     0.127 C 
ENDROOT
BRANCH   1   2
ATOM      2  C   UNL     1     -28.330 -29.812 -12.989  1.00  0.00     0.233 C 
BRANCH   2   3
ATOM      3  N   UNL     1     -26.868 -29.825 -13.116  1.00  0.00    -0.350 N 
ATOM      4  H   UNL     1     -26.422 -30.155 -12.228  1.00  0.00     0.345 HD
ATOM      5  H   UNL     1     -26.522 -28.862 -13.336  1.00  0.00     0.345 HD
ATOM      6  H   UNL     1     -26.585 -30.460 -13.896  1.00  0.00     0.345 HD
ENDBRANCH   2   3
BRANCH   2   7
ATOM      7  C   UNL     1     -28.741 -30.314 -11.628  1.00  0.00     0.099 C 
ATOM      8  O   UNL     1     -29.094 -29.506 -10.728  1.00  0.00    -0.544 OA
ATOM      9  O   UNL     1     -28.710 -31.675 -11.353  1.00  0.00    -0.544 OA
ENDBRANCH   2   7
ENDBRANCH   1   2
BRANCH   1  10
ATOM     10  C   UNL     1     -28.430 -30.286 -15.458  1.00  0.00     0.041 A 
ATOM     11  C   UNL     1     -27.809 -31.134 -16.347  1.00  0.00     0.134 A 
ATOM     12  N   UNL     1     -28.397 -29.042 -15.956  1.00  0.00    -0.348 N 
ATOM     13  N   UNL     1     -27.394 -30.425 -17.416  1.00  0.00    -0.245 NA
ATOM     14  C   UNL     1     -27.771 -29.157 -17.142  1.00  0.00     0.196 A 
ATOM     15  H   UNL     1     -28.765 -28.168 -15.518  1.00  0.00     0.167 HD
ENDBRANCH   1  10
TORSDOF 4
ENDMDL
MODEL 9
REMARK VINA RESULT:    -4.001     10.215     11.199
REMARK INTER + INTRA:          -4.993
REMARK INTER:                  -4.888
REMARK INTRA:                  -0.106
REMARK UNBOUND:                -0.174
REMARK SMILES [NH3+][C@@H](Cc1cnc[nH]1)C(=O)[O-]
REMARK SMILES IDX 3 1 2 2 1 3 9 7 10 8 11 9 4 10 5 11 8 12 6 13 7 14
REMARK H PARENT 1 4 1 5 1 6 8 15
REMARK Flexibility Score: inf
ROOT
ATOM      1  C   UNL     1     -27.690 -31.477 -15.000  1.00  0.00     0.127 C 
ENDROOT
BRANCH   1   2
ATOM      2  C   UNL     1     -27.852 -30.299 -15.982  1.00  0.00     0.233 C 
BRANCH   2   3
ATOM      3  N   UNL     1     -29.125 -29.606 -15.745  1.00  0.00    -0.350 N 
ATOM      4  H   UNL     1     -29.033 -28.924 -14.957  1.00  0.00     0.345 HD
ATOM      5  H   UNL     1     -29.870 -30.302 -15.513  1.00  0.00     0.345 HD
ATOM      6  H   UNL     1     -29.415 -29.093 -16.609  1.00  0.00     0.345 HD
ENDBRANCH   2   3
BRANCH   2   7
ATOM      7  C   UNL     1     -27.772 -30.769 -17.411  1.00  0.00     0.099 C 
ATOM      8  O   UNL     1     -26.854 -30.357 -18.170  1.00  0.00    -0.544 OA
ATOM      9  O   UNL     1     -28.728 -31.647 -17.907  1.00  0.00    -0.544 OA
ENDBRANCH   2   7
ENDBRANCH   1   2
BRANCH   1  10
ATOM     10  C   UNL     1     -27.881 -31.040 -13.577  1.00  0.00     0.041 A 
ATOM     11  C   UNL     1     -28.793 -31.550 -12.680  1.00  0.00     0.134 A 
ATOM     12  N   UNL     1     -27.235 -30.017 -12.999  1.00  0.00    -0.348 N 
ATOM     13  N   UNL     1     -28.713 -30.854 -11.528  1.00  0.00    -0.245 NA
ATOM     14  C   UNL     1     -27.754 -29.932 -11.760  1.00  0.00     0.196 A 
ATOM     15  H   UNL     1     -26.499 -29.407 -13.420  1.00  0.00     0.167 HD
ENDBRANCH   1  10
TORSDOF 4
ENDMDL
