MODEL 1
REMARK VINA RESULT:    -2.355      0.000      0.000
REMARK INTER + INTRA:          -6.437
REMARK INTER:                  -5.385
REMARK INTRA:                  -1.052
REMARK UNBOUND:                -1.052
REMARK SMILES CCCCCCCCCCCCCCCCCCCCCCCC(=O)[O-]
REMARK SMILES IDX 13 1 14 2 15 3 16 4 17 5 18 6 19 7 20 8 21 9 22 10 23 11
REMARK SMILES IDX 24 12 25 13 26 14 12 15 11 16 10 17 9 18 8 19 7 20 6 21 5 22
REMARK SMILES IDX 4 23 3 24 2 25 1 26
REMARK H PARENT
REMARK Flexibility Score: inf
ROOT
ATOM      1  C   UNL     1      -1.045 -50.131   3.166  1.00  0.00     0.000 C 
ENDROOT
BRANCH   1   2
ATOM      2  C   UNL     1      -2.286 -50.856   2.619  1.00  0.00     0.000 C 
BRANCH   2   3
ATOM      3  C   UNL     1      -2.004 -51.883   1.503  1.00  0.00     0.000 C 
BRANCH   3   4
ATOM      4  C   UNL     1      -2.078 -51.296   0.076  1.00  0.00     0.000 C 
BRANCH   4   5
ATOM      5  C   UNL     1      -3.461 -50.699  -0.244  1.00  0.00     0.000 C 
BRANCH   5   6
ATOM      6  C   UNL     1      -4.590 -51.738  -0.161  1.00  0.00     0.000 C 
BRANCH   6   7
ATOM      7  C   UNL     1      -5.095 -51.953   1.277  1.00  0.00     0.000 C 
BRANCH   7   8
ATOM      8  C   UNL     1      -6.621 -52.123   1.347  1.00  0.00     0.000 C 
BRANCH   8   9
ATOM      9  C   UNL     1      -7.378 -50.890   0.833  1.00  0.00     0.000 C 
BRANCH   9  10
ATOM     10  C   UNL     1      -8.621 -50.610   1.691  1.00  0.00     0.006 C 
BRANCH  10  11
ATOM     11  C   UNL     1      -8.664 -51.481   2.954  1.00  0.00     0.053 C 
BRANCH  11  12
ATOM     12  C   UNL     1      -8.126 -50.753   4.147  1.00  0.00     0.041 C 
ATOM     13  O   UNL     1      -8.522 -49.586   4.406  1.00  0.00    -0.550 OA
ATOM     14  O   UNL     1      -7.164 -51.348   4.952  1.00  0.00    -0.550 OA
ENDBRANCH  11  12
ENDBRANCH  10  11
ENDBRANCH   9  10
ENDBRANCH   8   9
ENDBRANCH   7   8
ENDBRANCH   6   7
ENDBRANCH   5   6
ENDBRANCH   4   5
ENDBRANCH   3   4
ENDBRANCH   2   3
ENDBRANCH   1   2
BRANCH   1  15
ATOM     15  C   UNL     1      -0.241 -50.919   4.218  1.00  0.00     0.000 C 
BRANCH  15  16
ATOM     16  C   UNL     1      -1.119 -51.718   5.206  1.00  0.00     0.000 C 
BRANCH  16  17
ATOM     17  C   UNL     1      -1.158 -51.075   6.605  1.00  0.00     0.000 C 
BRANCH  17  18
ATOM     18  C   UNL     1      -1.494 -52.090   7.711  1.00  0.00    -0.000 C 
BRANCH  18  19
ATOM     19  C   UNL     1      -2.389 -51.494   8.807  1.00  0.00    -0.000 C 
BRANCH  19  20
ATOM     20  C   UNL     1      -3.793 -52.107   8.767  1.00  0.00    -0.000 C 
BRANCH  20  21
ATOM     21  C   UNL     1      -4.498 -51.955  10.125  1.00  0.00    -0.000 C 
BRANCH  21  22
ATOM     22  C   UNL     1      -5.913 -51.355   9.984  1.00  0.00    -0.000 C 
BRANCH  22  23
ATOM     23  C   UNL     1      -6.468 -51.418   8.552  1.00  0.00    -0.000 C 
BRANCH  23  24
ATOM     24  C   UNL     1      -7.751 -50.597   8.370  1.00  0.00    -0.000 C 
BRANCH  24  25
ATOM     25  C   UNL     1      -8.239 -50.037   9.711  1.00  0.00    -0.003 C 
ATOM     26  C   UNL     1      -8.610 -48.562   9.591  1.00  0.00     0.004 C 
ENDBRANCH  24  25
ENDBRANCH  23  24
ENDBRANCH  22  23
ENDBRANCH  21  22
ENDBRANCH  20  21
ENDBRANCH  19  20
ENDBRANCH  18  19
ENDBRANCH  17  18
ENDBRANCH  16  17
ENDBRANCH  15  16
ENDBRANCH   1  15
TORSDOF 22
ENDMDL
MODEL 2
REMARK VINA RESULT:    -2.266      1.609      6.636
REMARK INTER + INTRA:          -6.233
REMARK INTER:                  -6.250
REMARK INTRA:                   0.017
REMARK UNBOUND:                -1.052
REMARK SMILES CCCCCCCCCCCCCCCCCCCCCCCC(=O)[O-]
REMARK SMILES IDX 13 1 14 2 15 3 16 4 17 5 18 6 19 7 20 8 21 9 22 10 23 11
REMARK SMILES IDX 24 12 25 13 26 14 12 15 11 16 10 17 9 18 8 19 7 20 6 21 5 22
REMARK SMILES IDX 4 23 3 24 2 25 1 26
REMARK H PARENT
REMARK Flexibility Score: inf
ROOT
ATOM      1  C   UNL     1      -1.846 -51.211   2.279  1.00  0.00     0.000 C 
ENDROOT
BRANCH   1   2
ATOM      2  C   UNL     1      -0.896 -50.504   3.259  1.00  0.00     0.000 C 
BRANCH   2   3
ATOM      3  C   UNL     1      -1.097 -50.869   4.744  1.00  0.00     0.000 C 
BRANCH   3   4
ATOM      4  C   UNL     1      -2.110 -52.009   4.979  1.00  0.00     0.000 C 
BRANCH   4   5
ATOM      5  C   UNL     1      -3.502 -51.486   5.379  1.00  0.00     0.000 C 
BRANCH   5   6
ATOM      6  C   UNL     1      -3.652 -51.295   6.895  1.00  0.00     0.000 C 
BRANCH   6   7
ATOM      7  C   UNL     1      -2.638 -52.125   7.702  1.00  0.00     0.000 C 
BRANCH   7   8
ATOM      8  C   UNL     1      -2.025 -51.336   8.870  1.00  0.00     0.000 C 
BRANCH   8   9
ATOM      9  C   UNL     1      -3.039 -51.053   9.989  1.00  0.00     0.000 C 
BRANCH   9  10
ATOM     10  C   UNL     1      -4.400 -51.691   9.675  1.00  0.00     0.006 C 
BRANCH  10  11
ATOM     11  C   UNL     1      -5.478 -50.641   9.375  1.00  0.00     0.053 C 
BRANCH  11  12
ATOM     12  C   UNL     1      -6.799 -51.276   9.066  1.00  0.00     0.041 C 
ATOM     13  O   UNL     1      -7.356 -52.020   9.915  1.00  0.00    -0.550 OA
ATOM     14  O   UNL     1      -7.397 -51.076   7.828  1.00  0.00    -0.550 OA
ENDBRANCH  11  12
ENDBRANCH  10  11
ENDBRANCH   9  10
ENDBRANCH   8   9
ENDBRANCH   7   8
ENDBRANCH   6   7
ENDBRANCH   5   6
ENDBRANCH   4   5
ENDBRANCH   3   4
ENDBRANCH   2   3
ENDBRANCH   1   2
BRANCH   1  15
ATOM     15  C   UNL     1      -1.405 -51.173   0.802  1.00  0.00     0.000 C 
BRANCH  15  16
ATOM     16  C   UNL     1      -2.539 -50.809  -0.180  1.00  0.00     0.000 C 
BRANCH  16  17
ATOM     17  C   UNL     1      -3.863 -50.501   0.544  1.00  0.00     0.000 C 
BRANCH  17  18
ATOM     18  C   UNL     1      -5.075 -50.536  -0.402  1.00  0.00    -0.000 C 
BRANCH  18  19
ATOM     19  C   UNL     1      -5.819 -51.879  -0.359  1.00  0.00    -0.000 C 
BRANCH  19  20
ATOM     20  C   UNL     1      -6.467 -52.107   1.011  1.00  0.00    -0.000 C 
BRANCH  20  21
ATOM     21  C   UNL     1      -5.445 -51.908   2.142  1.00  0.00    -0.000 C 
BRANCH  21  22
ATOM     22  C   UNL     1      -6.114 -51.867   3.532  1.00  0.00    -0.000 C 
BRANCH  22  23
ATOM     23  C   UNL     1      -7.644 -52.008   3.483  1.00  0.00    -0.000 C 
BRANCH  23  24
ATOM     24  C   UNL     1      -8.369 -50.976   4.357  1.00  0.00    -0.000 C 
BRANCH  24  25
ATOM     25  C   UNL     1      -9.125 -49.958   3.494  1.00  0.00    -0.003 C 
ATOM     26  C   UNL     1      -9.071 -50.339   2.017  1.00  0.00     0.004 C 
ENDBRANCH  24  25
ENDBRANCH  23  24
ENDBRANCH  22  23
ENDBRANCH  21  22
ENDBRANCH  20  21
ENDBRANCH  19  20
ENDBRANCH  18  19
ENDBRANCH  17  18
ENDBRANCH  16  17
ENDBRANCH  15  16
ENDBRANCH   1  15
TORSDOF 22
ENDMDL
MODEL 3
REMARK VINA RESULT:    -1.187      1.792      6.910
REMARK INTER + INTRA:          -3.766
REMARK INTER:                  -2.172
REMARK INTRA:                  -1.595
REMARK UNBOUND:                -1.052
REMARK SMILES CCCCCCCCCCCCCCCCCCCCCCCC(=O)[O-]
REMARK SMILES IDX 13 1 14 2 15 3 16 4 17 5 18 6 19 7 20 8 21 9 22 10 23 11
REMARK SMILES IDX 24 12 25 13 26 14 12 15 11 16 10 17 9 18 8 19 7 20 6 21 5 22
REMARK SMILES IDX 4 23 3 24 2 25 1 26
REMARK H PARENT
REMARK Flexibility Score: inf
ROOT
ATOM      1  C   UNL     1      -2.081 -50.705   3.484  1.00  0.00     0.000 C 
ENDROOT
BRANCH   1   2
ATOM      2  C   UNL     1      -1.085 -50.596   4.651  1.00  0.00     0.000 C 
BRANCH   2   3
ATOM      3  C   UNL     1      -1.083 -51.794   5.623  1.00  0.00     0.000 C 
BRANCH   3   4
ATOM      4  C   UNL     1      -2.467 -52.114   6.228  1.00  0.00     0.000 C 
BRANCH   4   5
ATOM      5  C   UNL     1      -2.516 -51.867   7.747  1.00  0.00     0.000 C 
BRANCH   5   6
ATOM      6  C   UNL     1      -3.415 -50.680   8.127  1.00  0.00     0.000 C 
BRANCH   6   7
ATOM      7  C   UNL     1      -3.912 -50.753   9.581  1.00  0.00     0.000 C 
BRANCH   7   8
ATOM      8  C   UNL     1      -4.848 -51.948   9.826  1.00  0.00     0.000 C 
BRANCH   8   9
ATOM      9  C   UNL     1      -5.936 -52.078   8.750  1.00  0.00     0.000 C 
BRANCH   9  10
ATOM     10  C   UNL     1      -7.335 -52.122   9.382  1.00  0.00     0.006 C 
BRANCH  10  11
ATOM     11  C   UNL     1      -8.292 -51.104   8.747  1.00  0.00     0.053 C 
BRANCH  11  12
ATOM     12  C   UNL     1      -8.058 -49.721   9.273  1.00  0.00     0.041 C 
ATOM     13  O   UNL     1      -8.985 -48.869   9.242  1.00  0.00    -0.550 OA
ATOM     14  O   UNL     1      -6.810 -49.362   9.764  1.00  0.00    -0.550 OA
ENDBRANCH  11  12
ENDBRANCH  10  11
ENDBRANCH   9  10
ENDBRANCH   8   9
ENDBRANCH   7   8
ENDBRANCH   6   7
ENDBRANCH   5   6
ENDBRANCH   4   5
ENDBRANCH   3   4
ENDBRANCH   2   3
ENDBRANCH   1   2
BRANCH   1  15
ATOM     15  C   UNL     1      -2.073 -52.058   2.745  1.00  0.00     0.000 C 
BRANCH  15  16
ATOM     16  C   UNL     1      -2.474 -51.960   1.258  1.00  0.00     0.000 C 
BRANCH  16  17
ATOM     17  C   UNL     1      -2.587 -50.501   0.777  1.00  0.00     0.000 C 
BRANCH  17  18
ATOM     18  C   UNL     1      -4.032 -50.106   0.427  1.00  0.00    -0.000 C 
BRANCH  18  19
ATOM     19  C   UNL     1      -4.985 -51.310   0.403  1.00  0.00    -0.000 C 
BRANCH  19  20
ATOM     20  C   UNL     1      -6.378 -50.902  -0.088  1.00  0.00    -0.000 C 
BRANCH  20  21
ATOM     21  C   UNL     1      -7.303 -52.124  -0.197  1.00  0.00    -0.000 C 
BRANCH  21  22
ATOM     22  C   UNL     1      -8.482 -52.054   0.795  1.00  0.00    -0.000 C 
BRANCH  22  23
ATOM     23  C   UNL     1      -8.498 -50.772   1.642  1.00  0.00    -0.000 C 
BRANCH  23  24
ATOM     24  C   UNL     1      -8.429 -51.049   3.150  1.00  0.00    -0.000 C 
BRANCH  24  25
ATOM     25  C   UNL     1      -6.980 -51.259   3.605  1.00  0.00    -0.003 C 
ATOM     26  C   UNL     1      -6.918 -52.068   4.897  1.00  0.00     0.004 C 
ENDBRANCH  24  25
ENDBRANCH  23  24
ENDBRANCH  22  23
ENDBRANCH  21  22
ENDBRANCH  20  21
ENDBRANCH  19  20
ENDBRANCH  18  19
ENDBRANCH  17  18
ENDBRANCH  16  17
ENDBRANCH  15  16
ENDBRANCH   1  15
TORSDOF 22
ENDMDL
MODEL 4
REMARK VINA RESULT:    -1.168      1.807      7.033
REMARK INTER + INTRA:          -3.723
REMARK INTER:                  -2.532
REMARK INTRA:                  -1.191
REMARK UNBOUND:                -1.052
REMARK SMILES CCCCCCCCCCCCCCCCCCCCCCCC(=O)[O-]
REMARK SMILES IDX 13 1 14 2 15 3 16 4 17 5 18 6 19 7 20 8 21 9 22 10 23 11
REMARK SMILES IDX 24 12 25 13 26 14 12 15 11 16 10 17 9 18 8 19 7 20 6 21 5 22
REMARK SMILES IDX 4 23 3 24 2 25 1 26
REMARK H PARENT
REMARK Flexibility Score: inf
ROOT
ATOM      1  C   UNL     1      -1.559 -50.680   3.061  1.00  0.00     0.000 C 
ENDROOT
BRANCH   1   2
ATOM      2  C   UNL     1      -1.632 -51.978   3.882  1.00  0.00     0.000 C 
BRANCH   2   3
ATOM      3  C   UNL     1      -0.838 -51.962   5.203  1.00  0.00     0.000 C 
BRANCH   3   4
ATOM      4  C   UNL     1      -1.696 -51.657   6.449  1.00  0.00     0.000 C 
BRANCH   4   5
ATOM      5  C   UNL     1      -0.841 -51.401   7.704  1.00  0.00     0.000 C 
BRANCH   5   6
ATOM      6  C   UNL     1      -1.668 -51.417   8.999  1.00  0.00     0.000 C 
BRANCH   6   7
ATOM      7  C   UNL     1      -3.069 -52.021   8.802  1.00  0.00     0.000 C 
BRANCH   7   8
ATOM      8  C   UNL     1      -3.947 -51.897  10.057  1.00  0.00     0.000 C 
BRANCH   8   9
ATOM      9  C   UNL     1      -5.438 -52.125   9.762  1.00  0.00     0.000 C 
BRANCH   9  10
ATOM     10  C   UNL     1      -5.782 -51.719   8.322  1.00  0.00     0.006 C 
BRANCH  10  11
ATOM     11  C   UNL     1      -7.297 -51.617   8.094  1.00  0.00     0.053 C 
BRANCH  11  12
ATOM     12  C   UNL     1      -7.960 -50.779   9.143  1.00  0.00     0.041 C 
ATOM     13  O   UNL     1      -8.693 -51.318  10.013  1.00  0.00    -0.550 OA
ATOM     14  O   UNL     1      -7.797 -49.400   9.140  1.00  0.00    -0.550 OA
ENDBRANCH  11  12
ENDBRANCH  10  11
ENDBRANCH   9  10
ENDBRANCH   8   9
ENDBRANCH   7   8
ENDBRANCH   6   7
ENDBRANCH   5   6
ENDBRANCH   4   5
ENDBRANCH   3   4
ENDBRANCH   2   3
ENDBRANCH   1   2
BRANCH   1  15
ATOM     15  C   UNL     1      -2.858 -50.303   2.320  1.00  0.00     0.000 C 
BRANCH  15  16
ATOM     16  C   UNL     1      -3.959 -51.382   2.401  1.00  0.00     0.000 C 
BRANCH  16  17
ATOM     17  C   UNL     1      -4.242 -51.822   3.849  1.00  0.00     0.000 C 
BRANCH  17  18
ATOM     18  C   UNL     1      -5.734 -52.098   4.101  1.00  0.00    -0.000 C 
BRANCH  18  19
ATOM     19  C   UNL     1      -6.477 -50.872   4.652  1.00  0.00    -0.000 C 
BRANCH  19  20
ATOM     20  C   UNL     1      -7.860 -50.729   4.008  1.00  0.00    -0.000 C 
BRANCH  20  21
ATOM     21  C   UNL     1      -8.258 -52.017   3.268  1.00  0.00    -0.000 C 
BRANCH  21  22
ATOM     22  C   UNL     1      -8.611 -51.754   1.789  1.00  0.00    -0.000 C 
BRANCH  22  23
ATOM     23  C   UNL     1      -7.468 -51.110   0.989  1.00  0.00    -0.000 C 
BRANCH  23  24
ATOM     24  C   UNL     1      -6.405 -52.121   0.542  1.00  0.00    -0.000 C 
BRANCH  24  25
ATOM     25  C   UNL     1      -5.971 -51.860  -0.906  1.00  0.00    -0.003 C 
ATOM     26  C   UNL     1      -4.453 -51.749  -1.015  1.00  0.00     0.004 C 
ENDBRANCH  24  25
ENDBRANCH  23  24
ENDBRANCH  22  23
ENDBRANCH  21  22
ENDBRANCH  20  21
ENDBRANCH  19  20
ENDBRANCH  18  19
ENDBRANCH  17  18
ENDBRANCH  16  17
ENDBRANCH  15  16
ENDBRANCH   1  15
TORSDOF 22
ENDMDL
MODEL 5
REMARK VINA RESULT:    -1.117      1.377      2.479
REMARK INTER + INTRA:          -3.606
REMARK INTER:                  -2.841
REMARK INTRA:                  -0.765
REMARK UNBOUND:                -1.052
REMARK SMILES CCCCCCCCCCCCCCCCCCCCCCCC(=O)[O-]
REMARK SMILES IDX 13 1 14 2 15 3 16 4 17 5 18 6 19 7 20 8 21 9 22 10 23 11
REMARK SMILES IDX 24 12 25 13 26 14 12 15 11 16 10 17 9 18 8 19 7 20 6 21 5 22
REMARK SMILES IDX 4 23 3 24 2 25 1 26
REMARK H PARENT
REMARK Flexibility Score: inf
ROOT
ATOM      1  C   UNL     1      -2.271 -49.344   1.890  1.00  0.00     0.000 C 
ENDROOT
BRANCH   1   2
ATOM      2  C   UNL     1      -3.262 -50.380   1.335  1.00  0.00     0.000 C 
BRANCH   2   3
ATOM      3  C   UNL     1      -3.528 -50.285  -0.181  1.00  0.00     0.000 C 
BRANCH   3   4
ATOM      4  C   UNL     1      -4.956 -50.700  -0.596  1.00  0.00     0.000 C 
BRANCH   4   5
ATOM      5  C   UNL     1      -5.439 -51.964   0.139  1.00  0.00     0.000 C 
BRANCH   5   6
ATOM      6  C   UNL     1      -5.935 -51.671   1.563  1.00  0.00     0.000 C 
BRANCH   6   7
ATOM      7  C   UNL     1      -4.898 -52.032   2.641  1.00  0.00     0.000 C 
BRANCH   7   8
ATOM      8  C   UNL     1      -5.206 -51.380   3.998  1.00  0.00     0.000 C 
BRANCH   8   9
ATOM      9  C   UNL     1      -6.302 -52.124   4.777  1.00  0.00     0.000 C 
BRANCH   9  10
ATOM     10  C   UNL     1      -7.477 -51.190   5.102  1.00  0.00     0.006 C 
BRANCH  10  11
ATOM     11  C   UNL     1      -8.723 -51.512   4.266  1.00  0.00     0.053 C 
BRANCH  11  12
ATOM     12  C   UNL     1      -8.968 -50.474   3.215  1.00  0.00     0.041 C 
ATOM     13  O   UNL     1      -9.001 -50.801   1.999  1.00  0.00    -0.550 OA
ATOM     14  O   UNL     1      -9.125 -49.142   3.573  1.00  0.00    -0.550 OA
ENDBRANCH  11  12
ENDBRANCH  10  11
ENDBRANCH   9  10
ENDBRANCH   8   9
ENDBRANCH   7   8
ENDBRANCH   6   7
ENDBRANCH   5   6
ENDBRANCH   4   5
ENDBRANCH   3   4
ENDBRANCH   2   3
ENDBRANCH   1   2
BRANCH   1  15
ATOM     15  C   UNL     1      -1.072 -49.936   2.657  1.00  0.00     0.000 C 
BRANCH  15  16
ATOM     16  C   UNL     1      -1.168 -51.459   2.890  1.00  0.00     0.000 C 
BRANCH  16  17
ATOM     17  C   UNL     1      -0.708 -51.864   4.302  1.00  0.00     0.000 C 
BRANCH  17  18
ATOM     18  C   UNL     1      -1.775 -51.583   5.374  1.00  0.00    -0.000 C 
BRANCH  18  19
ATOM     19  C   UNL     1      -1.175 -51.019   6.670  1.00  0.00    -0.000 C 
BRANCH  19  20
ATOM     20  C   UNL     1      -1.845 -51.636   7.902  1.00  0.00    -0.000 C 
BRANCH  20  21
ATOM     21  C   UNL     1      -3.362 -51.769   7.695  1.00  0.00    -0.000 C 
BRANCH  21  22
ATOM     22  C   UNL     1      -4.164 -50.851   8.642  1.00  0.00    -0.000 C 
BRANCH  22  23
ATOM     23  C   UNL     1      -5.189 -51.603   9.505  1.00  0.00    -0.000 C 
BRANCH  23  24
ATOM     24  C   UNL     1      -6.621 -51.492   8.966  1.00  0.00    -0.000 C 
BRANCH  24  25
ATOM     25  C   UNL     1      -7.605 -51.136  10.088  1.00  0.00    -0.003 C 
ATOM     26  C   UNL     1      -9.003 -51.667   9.786  1.00  0.00     0.004 C 
ENDBRANCH  24  25
ENDBRANCH  23  24
ENDBRANCH  22  23
ENDBRANCH  21  22
ENDBRANCH  20  21
ENDBRANCH  19  20
ENDBRANCH  18  19
ENDBRANCH  17  18
ENDBRANCH  16  17
ENDBRANCH  15  16
ENDBRANCH   1  15
TORSDOF 22
ENDMDL
MODEL 6
REMARK VINA RESULT:    -0.738      1.302      2.060
REMARK INTER + INTRA:          -2.741
REMARK INTER:                  -3.165
REMARK INTRA:                   0.424
REMARK UNBOUND:                -1.052
REMARK SMILES CCCCCCCCCCCCCCCCCCCCCCCC(=O)[O-]
REMARK SMILES IDX 13 1 14 2 15 3 16 4 17 5 18 6 19 7 20 8 21 9 22 10 23 11
REMARK SMILES IDX 24 12 25 13 26 14 12 15 11 16 10 17 9 18 8 19 7 20 6 21 5 22
REMARK SMILES IDX 4 23 3 24 2 25 1 26
REMARK H PARENT
REMARK Flexibility Score: inf
ROOT
ATOM      1  C   UNL     1      -1.935 -50.395   2.219  1.00  0.00     0.000 C 
ENDROOT
BRANCH   1   2
ATOM      2  C   UNL     1      -2.871 -50.017   1.059  1.00  0.00     0.000 C 
BRANCH   2   3
ATOM      3  C   UNL     1      -2.391 -50.454  -0.339  1.00  0.00     0.000 C 
BRANCH   3   4
ATOM      4  C   UNL     1      -3.088 -51.724  -0.875  1.00  0.00     0.000 C 
BRANCH   4   5
ATOM      5  C   UNL     1      -4.359 -52.076  -0.080  1.00  0.00     0.000 C 
BRANCH   5   6
ATOM      6  C   UNL     1      -4.999 -50.850   0.590  1.00  0.00     0.000 C 
BRANCH   6   7
ATOM      7  C   UNL     1      -6.070 -50.183  -0.289  1.00  0.00     0.000 C 
BRANCH   7   8
ATOM      8  C   UNL     1      -7.054 -51.197  -0.894  1.00  0.00     0.000 C 
BRANCH   8   9
ATOM      9  C   UNL     1      -7.675 -52.122   0.164  1.00  0.00     0.000 C 
BRANCH   9  10
ATOM     10  C   UNL     1      -8.310 -51.310   1.302  1.00  0.00     0.006 C 
BRANCH  10  11
ATOM     11  C   UNL     1      -7.815 -51.759   2.683  1.00  0.00     0.053 C 
BRANCH  11  12
ATOM     12  C   UNL     1      -8.028 -50.699   3.720  1.00  0.00     0.041 C 
ATOM     13  O   UNL     1      -7.410 -50.753   4.815  1.00  0.00    -0.550 OA
ATOM     14  O   UNL     1      -8.934 -49.672   3.491  1.00  0.00    -0.550 OA
ENDBRANCH  11  12
ENDBRANCH  10  11
ENDBRANCH   9  10
ENDBRANCH   8   9
ENDBRANCH   7   8
ENDBRANCH   6   7
ENDBRANCH   5   6
ENDBRANCH   4   5
ENDBRANCH   3   4
ENDBRANCH   2   3
ENDBRANCH   1   2
BRANCH   1  15
ATOM     15  C   UNL     1      -2.108 -51.831   2.753  1.00  0.00     0.000 C 
BRANCH  15  16
ATOM     16  C   UNL     1      -3.407 -52.045   3.560  1.00  0.00     0.000 C 
BRANCH  16  17
ATOM     17  C   UNL     1      -3.177 -51.929   5.078  1.00  0.00     0.000 C 
BRANCH  17  18
ATOM     18  C   UNL     1      -4.473 -52.111   5.887  1.00  0.00    -0.000 C 
BRANCH  18  19
ATOM     19  C   UNL     1      -4.233 -52.083   7.403  1.00  0.00    -0.000 C 
BRANCH  19  20
ATOM     20  C   UNL     1      -2.857 -51.494   7.733  1.00  0.00    -0.000 C 
BRANCH  20  21
ATOM     21  C   UNL     1      -2.577 -51.563   9.243  1.00  0.00    -0.000 C 
BRANCH  21  22
ATOM     22  C   UNL     1      -3.844 -51.903  10.057  1.00  0.00    -0.000 C 
BRANCH  22  23
ATOM     23  C   UNL     1      -4.859 -50.751  10.125  1.00  0.00    -0.000 C 
BRANCH  23  24
ATOM     24  C   UNL     1      -6.315 -51.233  10.083  1.00  0.00    -0.000 C 
BRANCH  24  25
ATOM     25  C   UNL     1      -7.207 -50.223   9.350  1.00  0.00    -0.003 C 
ATOM     26  C   UNL     1      -8.574 -50.108  10.019  1.00  0.00     0.004 C 
ENDBRANCH  24  25
ENDBRANCH  23  24
ENDBRANCH  22  23
ENDBRANCH  21  22
ENDBRANCH  20  21
ENDBRANCH  19  20
ENDBRANCH  18  19
ENDBRANCH  17  18
ENDBRANCH  16  17
ENDBRANCH  15  16
ENDBRANCH   1  15
TORSDOF 22
ENDMDL
