MODEL 1
REMARK VINA RESULT:    -5.504      0.000      0.000
REMARK INTER + INTRA:          -8.376
REMARK INTER:                  -8.079
REMARK INTRA:                  -0.297
REMARK UNBOUND:                -0.297
REMARK SMILES CCCOC(=O)c1ccccc1C(=O)OCCC
REMARK SMILES IDX 7 1 8 2 9 3 10 4 11 5 12 6 5 7 6 8 4 9 3 10 2 11 1 12 13 13
REMARK SMILES IDX 14 14 15 15 16 16 17 17 18 18
REMARK H PARENT
REMARK Flexibility Score: inf
ROOT
ATOM      1  C   UNL     1     137.172 123.140 139.796  1.00  0.00     0.074 A 
ATOM      2  C   UNL     1     137.756 122.984 138.526  1.00  0.00     0.016 A 
ATOM      3  C   UNL     1     136.971 123.015 137.372  1.00  0.00     0.001 A 
ATOM      4  C   UNL     1     135.594 123.202 137.469  1.00  0.00     0.001 A 
ATOM      5  C   UNL     1     134.998 123.383 138.716  1.00  0.00     0.016 A 
ATOM      6  C   UNL     1     135.773 123.377 139.891  1.00  0.00     0.074 A 
ENDROOT
BRANCH   1   7
ATOM      7  C   UNL     1     138.044 122.983 140.981  1.00  0.00     0.339 C 
ATOM      8  O   UNL     1     137.629 122.363 141.998  1.00  0.00    -0.246 OA
BRANCH   7   9
ATOM      9  O   UNL     1     139.354 123.476 140.942  1.00  0.00    -0.462 OA
BRANCH   9  10
ATOM     10  C   UNL     1     139.853 124.453 141.853  1.00  0.00     0.233 C 
BRANCH  10  11
ATOM     11  C   UNL     1     141.366 124.617 141.686  1.00  0.00     0.038 C 
ATOM     12  C   UNL     1     141.866 125.877 142.388  1.00  0.00     0.007 C 
ENDBRANCH  10  11
ENDBRANCH   9  10
ENDBRANCH   7   9
ENDBRANCH   1   7
BRANCH   6  13
ATOM     13  C   UNL     1     135.092 123.687 141.170  1.00  0.00     0.339 C 
ATOM     14  O   UNL     1     134.384 122.815 141.744  1.00  0.00    -0.246 OA
BRANCH  13  15
ATOM     15  O   UNL     1     135.287 124.936 141.767  1.00  0.00    -0.462 OA
BRANCH  15  16
ATOM     16  C   UNL     1     135.044 125.175 143.150  1.00  0.00     0.233 C 
BRANCH  16  17
ATOM     17  C   UNL     1     136.262 124.761 143.976  1.00  0.00     0.038 C 
ATOM     18  C   UNL     1     136.191 125.304 145.402  1.00  0.00     0.007 C 
ENDBRANCH  16  17
ENDBRANCH  15  16
ENDBRANCH  13  15
ENDBRANCH   6  13
TORSDOF 8
ENDMDL
MODEL 2
REMARK VINA RESULT:    -5.482      0.062      4.071
REMARK INTER + INTRA:          -8.343
REMARK INTER:                  -8.014
REMARK INTRA:                  -0.329
REMARK UNBOUND:                -0.297
REMARK SMILES CCCOC(=O)c1ccccc1C(=O)OCCC
REMARK SMILES IDX 7 1 8 2 9 3 10 4 11 5 12 6 5 7 6 8 4 9 3 10 2 11 1 12 13 13
REMARK SMILES IDX 14 14 15 15 16 16 17 17 18 18
REMARK H PARENT
REMARK Flexibility Score: inf
ROOT
ATOM      1  C   UNL     1     135.730 123.375 139.898  1.00  0.00     0.074 A 
ATOM      2  C   UNL     1     134.936 123.387 138.737  1.00  0.00     0.016 A 
ATOM      3  C   UNL     1     135.511 123.209 137.478  1.00  0.00     0.001 A 
ATOM      4  C   UNL     1     136.886 123.018 137.359  1.00  0.00     0.001 A 
ATOM      5  C   UNL     1     137.688 122.979 138.499  1.00  0.00     0.016 A 
ATOM      6  C   UNL     1     137.127 123.132 139.780  1.00  0.00     0.074 A 
ENDROOT
BRANCH   1   7
ATOM      7  C   UNL     1     135.073 123.681 141.188  1.00  0.00     0.339 C 
ATOM      8  O   UNL     1     134.351 122.816 141.755  1.00  0.00    -0.246 OA
BRANCH   7   9
ATOM      9  O   UNL     1     135.309 124.917 141.804  1.00  0.00    -0.462 OA
BRANCH   9  10
ATOM     10  C   UNL     1     135.044 125.170 143.183  1.00  0.00     0.233 C 
BRANCH  10  11
ATOM     11  C   UNL     1     136.248 124.772 144.041  1.00  0.00     0.038 C 
ATOM     12  C   UNL     1     136.193 125.438 145.413  1.00  0.00     0.007 C 
ENDBRANCH  10  11
ENDBRANCH   9  10
ENDBRANCH   7   9
ENDBRANCH   1   7
BRANCH   6  13
ATOM     13  C   UNL     1     138.019 122.967 140.951  1.00  0.00     0.339 C 
ATOM     14  O   UNL     1     137.626 122.331 141.968  1.00  0.00    -0.246 OA
BRANCH  13  15
ATOM     15  O   UNL     1     139.321 123.473 140.900  1.00  0.00    -0.462 OA
BRANCH  15  16
ATOM     16  C   UNL     1     139.813 124.430 141.834  1.00  0.00     0.233 C 
BRANCH  16  17
ATOM     17  C   UNL     1     141.324 124.595 141.669  1.00  0.00     0.038 C 
ATOM     18  C   UNL     1     141.837 125.848 142.376  1.00  0.00     0.007 C 
ENDBRANCH  16  17
ENDBRANCH  15  16
ENDBRANCH  13  15
ENDBRANCH   6  13
TORSDOF 8
ENDMDL
MODEL 3
REMARK VINA RESULT:    -5.360      2.325      3.838
REMARK INTER + INTRA:          -8.164
REMARK INTER:                  -7.911
REMARK INTRA:                  -0.253
REMARK UNBOUND:                -0.297
REMARK SMILES CCCOC(=O)c1ccccc1C(=O)OCCC
REMARK SMILES IDX 7 1 8 2 9 3 10 4 11 5 12 6 5 7 6 8 4 9 3 10 2 11 1 12 13 13
REMARK SMILES IDX 14 14 15 15 16 16 17 17 18 18
REMARK H PARENT
REMARK Flexibility Score: inf
ROOT
ATOM      1  C   UNL     1     135.797 123.023 141.404  1.00  0.00     0.074 A 
ATOM      2  C   UNL     1     134.854 122.309 140.641  1.00  0.00     0.016 A 
ATOM      3  C   UNL     1     133.532 122.191 141.071  1.00  0.00     0.001 A 
ATOM      4  C   UNL     1     133.131 122.783 142.267  1.00  0.00     0.001 A 
ATOM      5  C   UNL     1     134.043 123.515 143.026  1.00  0.00     0.016 A 
ATOM      6  C   UNL     1     135.376 123.666 142.601  1.00  0.00     0.074 A 
ENDROOT
BRANCH   1   7
ATOM      7  C   UNL     1     137.205 123.012 140.948  1.00  0.00     0.339 C 
ATOM      8  O   UNL     1     138.039 122.231 141.481  1.00  0.00    -0.246 OA
BRANCH   7   9
ATOM      9  O   UNL     1     137.589 123.832 139.880  1.00  0.00    -0.462 OA
BRANCH   9  10
ATOM     10  C   UNL     1     138.118 123.330 138.654  1.00  0.00     0.233 C 
BRANCH  10  11
ATOM     11  C   UNL     1     136.985 122.893 137.722  1.00  0.00     0.038 C 
ATOM     12  C   UNL     1     135.841 123.903 137.733  1.00  0.00     0.007 C 
ENDBRANCH  10  11
ENDBRANCH   9  10
ENDBRANCH   7   9
ENDBRANCH   1   7
BRANCH   6  13
ATOM     13  C   UNL     1     136.260 124.549 143.395  1.00  0.00     0.339 C 
ATOM     14  O   UNL     1     137.460 124.222 143.614  1.00  0.00    -0.246 OA
BRANCH  13  15
ATOM     15  O   UNL     1     135.774 125.776 143.855  1.00  0.00    -0.462 OA
BRANCH  15  16
ATOM     16  C   UNL     1     135.462 126.018 145.224  1.00  0.00     0.233 C 
BRANCH  16  17
ATOM     17  C   UNL     1     136.507 126.945 145.844  1.00  0.00     0.038 C 
ATOM     18  C   UNL     1     137.546 126.169 146.651  1.00  0.00     0.007 C 
ENDBRANCH  16  17
ENDBRANCH  15  16
ENDBRANCH  13  15
ENDBRANCH   6  13
TORSDOF 8
ENDMDL
MODEL 4
REMARK VINA RESULT:    -5.332      2.343      4.888
REMARK INTER + INTRA:          -8.123
REMARK INTER:                  -7.844
REMARK INTRA:                  -0.279
REMARK UNBOUND:                -0.297
REMARK SMILES CCCOC(=O)c1ccccc1C(=O)OCCC
REMARK SMILES IDX 7 1 8 2 9 3 10 4 11 5 12 6 5 7 6 8 4 9 3 10 2 11 1 12 13 13
REMARK SMILES IDX 14 14 15 15 16 16 17 17 18 18
REMARK H PARENT
REMARK Flexibility Score: inf
ROOT
ATOM      1  C   UNL     1     135.368 123.665 142.635  1.00  0.00     0.074 A 
ATOM      2  C   UNL     1     134.030 123.529 143.048  1.00  0.00     0.016 A 
ATOM      3  C   UNL     1     133.118 122.800 142.283  1.00  0.00     0.001 A 
ATOM      4  C   UNL     1     133.528 122.198 141.095  1.00  0.00     0.001 A 
ATOM      5  C   UNL     1     134.855 122.301 140.680  1.00  0.00     0.016 A 
ATOM      6  C   UNL     1     135.796 123.011 141.446  1.00  0.00     0.074 A 
ENDROOT
BRANCH   1   7
ATOM      7  C   UNL     1     136.251 124.545 143.433  1.00  0.00     0.339 C 
ATOM      8  O   UNL     1     137.448 124.212 143.652  1.00  0.00    -0.246 OA
BRANCH   7   9
ATOM      9  O   UNL     1     135.766 125.776 143.891  1.00  0.00    -0.462 OA
BRANCH   9  10
ATOM     10  C   UNL     1     135.465 126.042 145.260  1.00  0.00     0.233 C 
BRANCH  10  11
ATOM     11  C   UNL     1     136.523 126.964 145.870  1.00  0.00     0.038 C 
ATOM     12  C   UNL     1     137.552 126.170 146.671  1.00  0.00     0.007 C 
ENDBRANCH  10  11
ENDBRANCH   9  10
ENDBRANCH   7   9
ENDBRANCH   1   7
BRANCH   6  13
ATOM     13  C   UNL     1     137.210 122.985 141.005  1.00  0.00     0.339 C 
ATOM     14  O   UNL     1     138.030 122.186 141.536  1.00  0.00    -0.246 OA
BRANCH  13  15
ATOM     15  O   UNL     1     137.618 123.814 139.956  1.00  0.00    -0.462 OA
BRANCH  15  16
ATOM     16  C   UNL     1     137.988 123.310 138.675  1.00  0.00     0.233 C 
BRANCH  16  17
ATOM     17  C   UNL     1     136.770 123.280 137.751  1.00  0.00     0.038 C 
ATOM     18  C   UNL     1     135.813 124.435 138.038  1.00  0.00     0.007 C 
ENDBRANCH  16  17
ENDBRANCH  15  16
ENDBRANCH  13  15
ENDBRANCH   6  13
TORSDOF 8
ENDMDL
MODEL 5
REMARK VINA RESULT:    -5.053      1.808      4.788
REMARK INTER + INTRA:          -7.714
REMARK INTER:                  -7.211
REMARK INTRA:                  -0.503
REMARK UNBOUND:                -0.297
REMARK SMILES CCCOC(=O)c1ccccc1C(=O)OCCC
REMARK SMILES IDX 7 1 8 2 9 3 10 4 11 5 12 6 5 7 6 8 4 9 3 10 2 11 1 12 13 13
REMARK SMILES IDX 14 14 15 15 16 16 17 17 18 18
REMARK H PARENT
REMARK Flexibility Score: inf
ROOT
ATOM      1  C   UNL     1     136.789 123.892 143.185  1.00  0.00     0.074 A 
ATOM      2  C   UNL     1     137.638 124.278 144.238  1.00  0.00     0.016 A 
ATOM      3  C   UNL     1     137.187 125.143 145.237  1.00  0.00     0.001 A 
ATOM      4  C   UNL     1     135.885 125.635 145.198  1.00  0.00     0.001 A 
ATOM      5  C   UNL     1     135.019 125.247 144.175  1.00  0.00     0.016 A 
ATOM      6  C   UNL     1     135.445 124.359 143.171  1.00  0.00     0.074 A 
ENDROOT
BRANCH   1   7
ATOM      7  C   UNL     1     137.365 123.066 142.101  1.00  0.00     0.339 C 
ATOM      8  O   UNL     1     137.039 121.852 141.986  1.00  0.00    -0.246 OA
BRANCH   7   9
ATOM      9  O   UNL     1     138.226 123.656 141.168  1.00  0.00    -0.462 OA
BRANCH   9  10
ATOM     10  C   UNL     1     138.988 122.910 140.220  1.00  0.00     0.233 C 
BRANCH  10  11
ATOM     11  C   UNL     1     138.403 123.073 138.816  1.00  0.00     0.038 C 
ATOM     12  C   UNL     1     137.890 124.493 138.592  1.00  0.00     0.007 C 
ENDBRANCH  10  11
ENDBRANCH   9  10
ENDBRANCH   7   9
ENDBRANCH   1   7
BRANCH   6  13
ATOM     13  C   UNL     1     134.443 123.901 142.182  1.00  0.00     0.339 C 
ATOM     14  O   UNL     1     133.378 123.342 142.563  1.00  0.00    -0.246 OA
BRANCH  13  15
ATOM     15  O   UNL     1     134.658 124.144 140.822  1.00  0.00    -0.462 OA
BRANCH  15  16
ATOM     16  C   UNL     1     134.679 123.105 139.847  1.00  0.00     0.233 C 
BRANCH  16  17
ATOM     17  C   UNL     1     134.628 123.703 138.442  1.00  0.00     0.038 C 
ATOM     18  C   UNL     1     135.000 122.675 137.375  1.00  0.00     0.007 C 
ENDBRANCH  16  17
ENDBRANCH  15  16
ENDBRANCH  13  15
ENDBRANCH   6  13
TORSDOF 8
ENDMDL
MODEL 6
REMARK VINA RESULT:    -5.052      1.850      5.835
REMARK INTER + INTRA:          -7.712
REMARK INTER:                  -7.170
REMARK INTRA:                  -0.542
REMARK UNBOUND:                -0.297
REMARK SMILES CCCOC(=O)c1ccccc1C(=O)OCCC
REMARK SMILES IDX 7 1 8 2 9 3 10 4 11 5 12 6 5 7 6 8 4 9 3 10 2 11 1 12 13 13
REMARK SMILES IDX 14 14 15 15 16 16 17 17 18 18
REMARK H PARENT
REMARK Flexibility Score: inf
ROOT
ATOM      1  C   UNL     1     135.458 124.349 143.153  1.00  0.00     0.074 A 
ATOM      2  C   UNL     1     135.046 125.241 144.160  1.00  0.00     0.016 A 
ATOM      3  C   UNL     1     135.920 125.616 145.182  1.00  0.00     0.001 A 
ATOM      4  C   UNL     1     137.216 125.105 145.214  1.00  0.00     0.001 A 
ATOM      5  C   UNL     1     137.652 124.239 144.213  1.00  0.00     0.016 A 
ATOM      6  C   UNL     1     136.796 123.866 143.161  1.00  0.00     0.074 A 
ENDROOT
BRANCH   1   7
ATOM      7  C   UNL     1     134.448 123.907 142.167  1.00  0.00     0.339 C 
ATOM      8  O   UNL     1     133.365 123.388 142.554  1.00  0.00    -0.246 OA
BRANCH   7   9
ATOM      9  O   UNL     1     134.676 124.125 140.802  1.00  0.00    -0.462 OA
BRANCH   9  10
ATOM     10  C   UNL     1     134.609 123.093 139.820  1.00  0.00     0.233 C 
BRANCH  10  11
ATOM     11  C   UNL     1     134.556 123.696 138.414  1.00  0.00     0.038 C 
ATOM     12  C   UNL     1     135.002 122.684 137.362  1.00  0.00     0.007 C 
ENDBRANCH  10  11
ENDBRANCH   9  10
ENDBRANCH   7   9
ENDBRANCH   1   7
BRANCH   6  13
ATOM     13  C   UNL     1     137.358 123.034 142.072  1.00  0.00     0.339 C 
ATOM     14  O   UNL     1     137.035 121.819 141.965  1.00  0.00    -0.246 OA
BRANCH  13  15
ATOM     15  O   UNL     1     138.207 123.619 141.128  1.00  0.00    -0.462 OA
BRANCH  15  16
ATOM     16  C   UNL     1     138.911 122.860 140.149  1.00  0.00     0.233 C 
BRANCH  16  17
ATOM     17  C   UNL     1     138.392 123.195 138.752  1.00  0.00     0.038 C 
ATOM     18  C   UNL     1     137.786 124.596 138.693  1.00  0.00     0.007 C 
ENDBRANCH  16  17
ENDBRANCH  15  16
ENDBRANCH  13  15
ENDBRANCH   6  13
TORSDOF 8
ENDMDL
MODEL 7
REMARK VINA RESULT:    -4.852      1.944      3.249
REMARK INTER + INTRA:          -7.418
REMARK INTER:                  -6.449
REMARK INTRA:                  -0.969
REMARK UNBOUND:                -0.297
REMARK SMILES CCCOC(=O)c1ccccc1C(=O)OCCC
REMARK SMILES IDX 7 1 8 2 9 3 10 4 11 5 12 6 5 7 6 8 4 9 3 10 2 11 1 12 13 13
REMARK SMILES IDX 14 14 15 15 16 16 17 17 18 18
REMARK H PARENT
REMARK Flexibility Score: inf
ROOT
ATOM      1  C   UNL     1     137.550 123.252 140.482  1.00  0.00     0.074 A 
ATOM      2  C   UNL     1     138.791 122.979 139.879  1.00  0.00     0.016 A 
ATOM      3  C   UNL     1     138.945 123.061 138.494  1.00  0.00     0.001 A 
ATOM      4  C   UNL     1     137.862 123.413 137.692  1.00  0.00     0.001 A 
ATOM      5  C   UNL     1     136.629 123.711 138.271  1.00  0.00     0.016 A 
ATOM      6  C   UNL     1     136.457 123.657 139.666  1.00  0.00     0.074 A 
ENDROOT
BRANCH   1   7
ATOM      7  C   UNL     1     137.428 123.037 141.941  1.00  0.00     0.339 C 
ATOM      8  O   UNL     1     137.291 121.871 142.402  1.00  0.00    -0.246 OA
BRANCH   7   9
ATOM      9  O   UNL     1     137.527 124.131 142.809  1.00  0.00    -0.462 OA
BRANCH   9  10
ATOM     10  C   UNL     1     136.887 124.185 144.083  1.00  0.00     0.233 C 
BRANCH  10  11
ATOM     11  C   UNL     1     135.859 125.318 144.117  1.00  0.00     0.038 C 
ATOM     12  C   UNL     1     135.837 126.003 145.480  1.00  0.00     0.007 C 
ENDBRANCH  10  11
ENDBRANCH   9  10
ENDBRANCH   7   9
ENDBRANCH   1   7
BRANCH   6  13
ATOM     13  C   UNL     1     135.155 124.094 140.220  1.00  0.00     0.339 C 
ATOM     14  O   UNL     1     135.000 125.278 140.629  1.00  0.00    -0.246 OA
BRANCH  13  15
ATOM     15  O   UNL     1     134.080 123.201 140.236  1.00  0.00    -0.462 OA
BRANCH  15  16
ATOM     16  C   UNL     1     133.856 122.283 141.302  1.00  0.00     0.233 C 
BRANCH  16  17
ATOM     17  C   UNL     1     133.577 123.043 142.599  1.00  0.00     0.038 C 
ATOM     18  C   UNL     1     132.229 123.759 142.557  1.00  0.00     0.007 C 
ENDBRANCH  16  17
ENDBRANCH  15  16
ENDBRANCH  13  15
ENDBRANCH   6  13
TORSDOF 8
ENDMDL
MODEL 8
REMARK VINA RESULT:    -4.830      1.973      4.236
REMARK INTER + INTRA:          -7.385
REMARK INTER:                  -6.546
REMARK INTRA:                  -0.839
REMARK UNBOUND:                -0.297
REMARK SMILES CCCOC(=O)c1ccccc1C(=O)OCCC
REMARK SMILES IDX 7 1 8 2 9 3 10 4 11 5 12 6 5 7 6 8 4 9 3 10 2 11 1 12 13 13
REMARK SMILES IDX 14 14 15 15 16 16 17 17 18 18
REMARK H PARENT
REMARK Flexibility Score: inf
ROOT
ATOM      1  C   UNL     1     136.472 123.649 139.636  1.00  0.00     0.074 A 
ATOM      2  C   UNL     1     136.627 123.723 138.240  1.00  0.00     0.016 A 
ATOM      3  C   UNL     1     137.849 123.415 137.641  1.00  0.00     0.001 A 
ATOM      4  C   UNL     1     138.934 123.031 138.425  1.00  0.00     0.001 A 
ATOM      5  C   UNL     1     138.795 122.928 139.809  1.00  0.00     0.016 A 
ATOM      6  C   UNL     1     137.566 123.211 140.432  1.00  0.00     0.074 A 
ENDROOT
BRANCH   1   7
ATOM      7  C   UNL     1     135.185 124.097 140.213  1.00  0.00     0.339 C 
ATOM      8  O   UNL     1     135.045 125.287 140.606  1.00  0.00    -0.246 OA
BRANCH   7   9
ATOM      9  O   UNL     1     134.105 123.206 140.263  1.00  0.00    -0.462 OA
BRANCH   9  10
ATOM     10  C   UNL     1     133.901 122.278 141.327  1.00  0.00     0.233 C 
BRANCH  10  11
ATOM     11  C   UNL     1     133.518 123.014 142.613  1.00  0.00     0.038 C 
ATOM     12  C   UNL     1     132.198 123.762 142.449  1.00  0.00     0.007 C 
ENDBRANCH  10  11
ENDBRANCH   9  10
ENDBRANCH   7   9
ENDBRANCH   1   7
BRANCH   6  13
ATOM     13  C   UNL     1     137.457 122.972 141.890  1.00  0.00     0.339 C 
ATOM     14  O   UNL     1     137.319 121.800 142.337  1.00  0.00    -0.246 OA
BRANCH  13  15
ATOM     15  O   UNL     1     137.567 124.050 142.773  1.00  0.00    -0.462 OA
BRANCH  15  16
ATOM     16  C   UNL     1     136.537 124.400 143.694  1.00  0.00     0.233 C 
BRANCH  16  17
ATOM     17  C   UNL     1     137.124 124.586 145.092  1.00  0.00     0.038 C 
ATOM     18  C   UNL     1     136.282 125.539 145.939  1.00  0.00     0.007 C 
ENDBRANCH  16  17
ENDBRANCH  15  16
ENDBRANCH  13  15
ENDBRANCH   6  13
TORSDOF 8
ENDMDL
MODEL 9
REMARK VINA RESULT:    -4.670      1.147      4.110
REMARK INTER + INTRA:          -7.151
REMARK INTER:                  -6.456
REMARK INTRA:                  -0.695
REMARK UNBOUND:                -0.297
REMARK SMILES CCCOC(=O)c1ccccc1C(=O)OCCC
REMARK SMILES IDX 7 1 8 2 9 3 10 4 11 5 12 6 5 7 6 8 4 9 3 10 2 11 1 12 13 13
REMARK SMILES IDX 14 14 15 15 16 16 17 17 18 18
REMARK H PARENT
REMARK Flexibility Score: inf
ROOT
ATOM      1  C   UNL     1     137.214 123.719 142.482  1.00  0.00     0.074 A 
ATOM      2  C   UNL     1     137.633 124.161 143.750  1.00  0.00     0.016 A 
ATOM      3  C   UNL     1     136.718 124.698 144.657  1.00  0.00     0.001 A 
ATOM      4  C   UNL     1     135.373 124.802 144.312  1.00  0.00     0.001 A 
ATOM      5  C   UNL     1     134.931 124.347 143.069  1.00  0.00     0.016 A 
ATOM      6  C   UNL     1     135.832 123.782 142.149  1.00  0.00     0.074 A 
ENDROOT
BRANCH   1   7
ATOM      7  C   UNL     1     138.252 123.267 141.529  1.00  0.00     0.339 C 
ATOM      8  O   UNL     1     138.234 122.088 141.082  1.00  0.00    -0.246 OA
BRANCH   7   9
ATOM      9  O   UNL     1     139.219 124.176 141.082  1.00  0.00    -0.462 OA
BRANCH   9  10
ATOM     10  C   UNL     1     140.587 124.129 141.483  1.00  0.00     0.233 C 
BRANCH  10  11
ATOM     11  C   UNL     1     140.975 125.418 142.211  1.00  0.00     0.038 C 
ATOM     12  C   UNL     1     142.479 125.666 142.131  1.00  0.00     0.007 C 
ENDBRANCH  10  11
ENDBRANCH   9  10
ENDBRANCH   7   9
ENDBRANCH   1   7
BRANCH   6  13
ATOM     13  C   UNL     1     135.279 123.219 140.896  1.00  0.00     0.339 C 
ATOM     14  O   UNL     1     135.105 121.974 140.777  1.00  0.00    -0.246 OA
BRANCH  13  15
ATOM     15  O   UNL     1     134.897 124.081 139.864  1.00  0.00    -0.462 OA
BRANCH  15  16
ATOM     16  C   UNL     1     135.803 124.531 138.861  1.00  0.00     0.233 C 
BRANCH  16  17
ATOM     17  C   UNL     1     135.938 123.476 137.764  1.00  0.00     0.038 C 
ATOM     18  C   UNL     1     137.334 122.857 137.742  1.00  0.00     0.007 C 
ENDBRANCH  16  17
ENDBRANCH  15  16
ENDBRANCH  13  15
ENDBRANCH   6  13
TORSDOF 8
ENDMDL
