MODEL 1
REMARK VINA RESULT:    -3.636      0.000      0.000
REMARK INTER + INTRA:          -5.095
REMARK INTER:                  -4.911
REMARK INTRA:                  -0.183
REMARK UNBOUND:                -0.183
REMARK SMILES CCCCCCCC(=O)[O-]
REMARK SMILES IDX 5 1 6 2 7 3 8 4 9 5 10 6 4 7 3 8 2 9 1 10
REMARK H PARENT
REMARK Flexibility Score: inf
ROOT
ATOM      1  C   UNL     1     161.173 158.015 150.891  1.00  0.00     0.000 C 
ENDROOT
BRANCH   1   2
ATOM      2  C   UNL     1     159.829 157.742 150.204  1.00  0.00     0.006 C 
BRANCH   2   3
ATOM      3  C   UNL     1     158.761 158.734 150.673  1.00  0.00     0.053 C 
BRANCH   3   4
ATOM      4  C   UNL     1     157.590 158.008 151.256  1.00  0.00     0.041 C 
ATOM      5  O   UNL     1     156.572 157.780 150.551  1.00  0.00    -0.550 OA
ATOM      6  O   UNL     1     157.601 157.628 152.591  1.00  0.00    -0.550 OA
ENDBRANCH   3   4
ENDBRANCH   2   3
ENDBRANCH   1   2
BRANCH   1   7
ATOM      7  C   UNL     1     162.028 158.982 150.059  1.00  0.00     0.000 C 
BRANCH   7   8
ATOM      8  C   UNL     1     163.065 159.735 150.908  1.00  0.00    -0.000 C 
BRANCH   8   9
ATOM      9  C   UNL     1     164.036 158.791 151.631  1.00  0.00    -0.003 C 
ATOM     10  C   UNL     1     165.336 159.507 151.986  1.00  0.00     0.004 C 
ENDBRANCH   8   9
ENDBRANCH   7   8
ENDBRANCH   1   7
TORSDOF 6
ENDMDL
MODEL 2
REMARK VINA RESULT:    -3.616     14.029     15.080
REMARK INTER + INTRA:          -5.068
REMARK INTER:                  -4.751
REMARK INTRA:                  -0.318
REMARK UNBOUND:                -0.183
REMARK SMILES CCCCCCCC(=O)[O-]
REMARK SMILES IDX 5 1 6 2 7 3 8 4 9 5 10 6 4 7 3 8 2 9 1 10
REMARK H PARENT
REMARK Flexibility Score: inf
ROOT
ATOM      1  C   UNL     1     160.397 157.923 164.448  1.00  0.00     0.000 C 
ENDROOT
BRANCH   1   2
ATOM      2  C   UNL     1     161.729 157.177 164.298  1.00  0.00     0.006 C 
BRANCH   2   3
ATOM      3  C   UNL     1     162.775 157.719 165.277  1.00  0.00     0.053 C 
BRANCH   3   4
ATOM      4  C   UNL     1     163.107 156.691 166.312  1.00  0.00     0.041 C 
ATOM      5  O   UNL     1     162.631 156.787 167.474  1.00  0.00    -0.550 OA
ATOM      6  O   UNL     1     163.982 155.656 166.010  1.00  0.00    -0.550 OA
ENDBRANCH   3   4
ENDBRANCH   2   3
ENDBRANCH   1   2
BRANCH   1   7
ATOM      7  C   UNL     1     160.592 159.248 165.199  1.00  0.00     0.000 C 
BRANCH   7   8
ATOM      8  C   UNL     1     159.327 160.122 165.195  1.00  0.00    -0.000 C 
BRANCH   8   9
ATOM      9  C   UNL     1     158.530 160.002 163.888  1.00  0.00    -0.003 C 
ATOM     10  C   UNL     1     157.033 159.898 164.165  1.00  0.00     0.004 C 
ENDBRANCH   8   9
ENDBRANCH   7   8
ENDBRANCH   1   7
TORSDOF 6
ENDMDL
MODEL 3
REMARK VINA RESULT:    -3.599     14.209     15.210
REMARK INTER + INTRA:          -5.044
REMARK INTER:                  -4.578
REMARK INTRA:                  -0.466
REMARK UNBOUND:                -0.183
REMARK SMILES CCCCCCCC(=O)[O-]
REMARK SMILES IDX 5 1 6 2 7 3 8 4 9 5 10 6 4 7 3 8 2 9 1 10
REMARK H PARENT
REMARK Flexibility Score: inf
ROOT
ATOM      1  C   UNL     1     162.806 157.682 166.723  1.00  0.00     0.000 C 
ENDROOT
BRANCH   1   2
ATOM      2  C   UNL     1     162.496 156.183 166.623  1.00  0.00     0.006 C 
BRANCH   2   3
ATOM      3  C   UNL     1     162.583 155.699 165.173  1.00  0.00     0.053 C 
BRANCH   3   4
ATOM      4  C   UNL     1     163.813 154.874 164.968  1.00  0.00     0.041 C 
ATOM      5  O   UNL     1     163.780 153.864 164.217  1.00  0.00    -0.550 OA
ATOM      6  O   UNL     1     164.984 155.189 165.646  1.00  0.00    -0.550 OA
ENDBRANCH   3   4
ENDBRANCH   2   3
ENDBRANCH   1   2
BRANCH   1   7
ATOM      7  C   UNL     1     162.769 158.343 165.337  1.00  0.00     0.000 C 
BRANCH   7   8
ATOM      8  C   UNL     1     162.020 159.686 165.341  1.00  0.00    -0.000 C 
BRANCH   8   9
ATOM      9  C   UNL     1     160.495 159.512 165.303  1.00  0.00    -0.003 C 
ATOM     10  C   UNL     1     160.094 158.395 164.343  1.00  0.00     0.004 C 
ENDBRANCH   8   9
ENDBRANCH   7   8
ENDBRANCH   1   7
TORSDOF 6
ENDMDL
MODEL 4
REMARK VINA RESULT:    -3.539     13.502     14.481
REMARK INTER + INTRA:          -4.963
REMARK INTER:                  -4.410
REMARK INTRA:                  -0.553
REMARK UNBOUND:                -0.183
REMARK SMILES CCCCCCCC(=O)[O-]
REMARK SMILES IDX 5 1 6 2 7 3 8 4 9 5 10 6 4 7 3 8 2 9 1 10
REMARK H PARENT
REMARK Flexibility Score: inf
ROOT
ATOM      1  C   UNL     1     162.863 156.412 166.461  1.00  0.00     0.000 C 
ENDROOT
BRANCH   1   2
ATOM      2  C   UNL     1     163.735 156.032 165.259  1.00  0.00     0.006 C 
BRANCH   2   3
ATOM      3  C   UNL     1     163.160 154.819 164.523  1.00  0.00     0.053 C 
BRANCH   3   4
ATOM      4  C   UNL     1     161.890 155.184 163.821  1.00  0.00     0.041 C 
ATOM      5  O   UNL     1     161.918 155.950 162.822  1.00  0.00    -0.550 OA
ATOM      6  O   UNL     1     160.672 154.722 164.300  1.00  0.00    -0.550 OA
ENDBRANCH   3   4
ENDBRANCH   2   3
ENDBRANCH   1   2
BRANCH   1   7
ATOM      7  C   UNL     1     162.722 157.938 166.578  1.00  0.00     0.000 C 
BRANCH   7   8
ATOM      8  C   UNL     1     162.481 158.615 165.220  1.00  0.00    -0.000 C 
BRANCH   8   9
ATOM      9  C   UNL     1     161.118 159.319 165.144  1.00  0.00    -0.003 C 
ATOM     10  C   UNL     1     160.087 158.443 164.437  1.00  0.00     0.004 C 
ENDBRANCH   8   9
ENDBRANCH   7   8
ENDBRANCH   1   7
TORSDOF 6
ENDMDL
MODEL 5
REMARK VINA RESULT:    -3.497     13.709     14.544
REMARK INTER + INTRA:          -4.907
REMARK INTER:                  -4.413
REMARK INTRA:                  -0.494
REMARK UNBOUND:                -0.183
REMARK SMILES CCCCCCCC(=O)[O-]
REMARK SMILES IDX 5 1 6 2 7 3 8 4 9 5 10 6 4 7 3 8 2 9 1 10
REMARK H PARENT
REMARK Flexibility Score: inf
ROOT
ATOM      1  C   UNL     1     161.575 156.742 163.794  1.00  0.00     0.000 C 
ENDROOT
BRANCH   1   2
ATOM      2  C   UNL     1     160.669 157.544 164.737  1.00  0.00     0.006 C 
BRANCH   2   3
ATOM      3  C   UNL     1     161.160 158.987 164.876  1.00  0.00     0.053 C 
BRANCH   3   4
ATOM      4  C   UNL     1     162.567 159.016 165.386  1.00  0.00     0.041 C 
ATOM      5  O   UNL     1     163.492 159.475 164.665  1.00  0.00    -0.550 OA
ATOM      6  O   UNL     1     162.865 158.489 166.635  1.00  0.00    -0.550 OA
ENDBRANCH   3   4
ENDBRANCH   2   3
ENDBRANCH   1   2
BRANCH   1   7
ATOM      7  C   UNL     1     162.043 155.439 164.458  1.00  0.00     0.000 C 
BRANCH   7   8
ATOM      8  C   UNL     1     163.484 155.064 164.077  1.00  0.00    -0.000 C 
BRANCH   8   9
ATOM      9  C   UNL     1     164.531 155.807 164.922  1.00  0.00    -0.003 C 
ATOM     10  C   UNL     1     164.453 155.385 166.387  1.00  0.00     0.004 C 
ENDBRANCH   8   9
ENDBRANCH   7   8
ENDBRANCH   1   7
TORSDOF 6
ENDMDL
MODEL 6
REMARK VINA RESULT:    -3.421     13.921     14.610
REMARK INTER + INTRA:          -4.804
REMARK INTER:                  -4.338
REMARK INTRA:                  -0.466
REMARK UNBOUND:                -0.183
REMARK SMILES CCCCCCCC(=O)[O-]
REMARK SMILES IDX 5 1 6 2 7 3 8 4 9 5 10 6 4 7 3 8 2 9 1 10
REMARK H PARENT
REMARK Flexibility Score: inf
ROOT
ATOM      1  C   UNL     1     162.373 156.108 166.295  1.00  0.00     0.000 C 
ENDROOT
BRANCH   1   2
ATOM      2  C   UNL     1     162.512 157.635 166.310  1.00  0.00     0.006 C 
BRANCH   2   3
ATOM      3  C   UNL     1     162.215 158.228 164.930  1.00  0.00     0.053 C 
BRANCH   3   4
ATOM      4  C   UNL     1     160.895 158.931 164.934  1.00  0.00     0.041 C 
ATOM      5  O   UNL     1     160.758 160.016 165.557  1.00  0.00    -0.550 OA
ATOM      6  O   UNL     1     159.802 158.363 164.293  1.00  0.00    -0.550 OA
ENDBRANCH   3   4
ENDBRANCH   2   3
ENDBRANCH   1   2
BRANCH   1   7
ATOM      7  C   UNL     1     162.442 155.564 164.859  1.00  0.00     0.000 C 
BRANCH   7   8
ATOM      8  C   UNL     1     163.664 154.661 164.626  1.00  0.00    -0.000 C 
BRANCH   8   9
ATOM      9  C   UNL     1     164.893 155.111 165.429  1.00  0.00    -0.003 C 
ATOM     10  C   UNL     1     165.793 156.017 164.592  1.00  0.00     0.004 C 
ENDBRANCH   8   9
ENDBRANCH   7   8
ENDBRANCH   1   7
TORSDOF 6
ENDMDL
MODEL 7
REMARK VINA RESULT:    -3.408      2.826      4.515
REMARK INTER + INTRA:          -4.786
REMARK INTER:                  -4.228
REMARK INTRA:                  -0.558
REMARK UNBOUND:                -0.183
REMARK SMILES CCCCCCCC(=O)[O-]
REMARK SMILES IDX 5 1 6 2 7 3 8 4 9 5 10 6 4 7 3 8 2 9 1 10
REMARK H PARENT
REMARK Flexibility Score: inf
ROOT
ATOM      1  C   UNL     1     156.823 156.742 151.502  1.00  0.00     0.000 C 
ENDROOT
BRANCH   1   2
ATOM      2  C   UNL     1     157.698 156.799 152.761  1.00  0.00     0.006 C 
BRANCH   2   3
ATOM      3  C   UNL     1     158.255 155.415 153.106  1.00  0.00     0.053 C 
BRANCH   3   4
ATOM      4  C   UNL     1     159.638 155.255 152.560  1.00  0.00     0.041 C 
ATOM      5  O   UNL     1     160.638 155.440 153.304  1.00  0.00    -0.550 OA
ATOM      6  O   UNL     1     159.827 154.953 151.218  1.00  0.00    -0.550 OA
ENDBRANCH   3   4
ENDBRANCH   2   3
ENDBRANCH   1   2
BRANCH   1   7
ATOM      7  C   UNL     1     157.060 157.972 150.613  1.00  0.00     0.000 C 
BRANCH   7   8
ATOM      8  C   UNL     1     158.407 158.657 150.895  1.00  0.00    -0.000 C 
BRANCH   8   9
ATOM      9  C   UNL     1     159.493 158.265 149.882  1.00  0.00    -0.003 C 
ATOM     10  C   UNL     1     160.860 158.166 150.554  1.00  0.00     0.004 C 
ENDBRANCH   8   9
ENDBRANCH   7   8
ENDBRANCH   1   7
TORSDOF 6
ENDMDL
MODEL 8
REMARK VINA RESULT:    -3.362      3.389      5.343
REMARK INTER + INTRA:          -4.725
REMARK INTER:                  -4.054
REMARK INTRA:                  -0.670
REMARK UNBOUND:                -0.183
REMARK SMILES CCCCCCCC(=O)[O-]
REMARK SMILES IDX 5 1 6 2 7 3 8 4 9 5 10 6 4 7 3 8 2 9 1 10
REMARK H PARENT
REMARK Flexibility Score: inf
ROOT
ATOM      1  C   UNL     1     159.092 157.603 149.892  1.00  0.00     0.000 C 
ENDROOT
BRANCH   1   2
ATOM      2  C   UNL     1     159.994 156.669 150.708  1.00  0.00     0.006 C 
BRANCH   2   3
ATOM      3  C   UNL     1     159.513 155.218 150.613  1.00  0.00     0.053 C 
BRANCH   3   4
ATOM      4  C   UNL     1     158.978 154.756 151.931  1.00  0.00     0.041 C 
ATOM      5  O   UNL     1     158.558 153.577 152.065  1.00  0.00    -0.550 OA
ATOM      6  O   UNL     1     158.895 155.641 152.998  1.00  0.00    -0.550 OA
ENDBRANCH   3   4
ENDBRANCH   2   3
ENDBRANCH   1   2
BRANCH   1   7
ATOM      7  C   UNL     1     158.396 158.627 150.801  1.00  0.00     0.000 C 
BRANCH   7   8
ATOM      8  C   UNL     1     157.013 158.154 151.276  1.00  0.00    -0.000 C 
BRANCH   8   9
ATOM      9  C   UNL     1     156.363 157.157 150.304  1.00  0.00    -0.003 C 
ATOM     10  C   UNL     1     155.661 156.032 151.059  1.00  0.00     0.004 C 
ENDBRANCH   8   9
ENDBRANCH   7   8
ENDBRANCH   1   7
TORSDOF 6
ENDMDL
MODEL 9
REMARK VINA RESULT:    -3.316      4.851      7.049
REMARK INTER + INTRA:          -4.662
REMARK INTER:                  -4.462
REMARK INTRA:                  -0.200
REMARK UNBOUND:                -0.183
REMARK SMILES CCCCCCCC(=O)[O-]
REMARK SMILES IDX 5 1 6 2 7 3 8 4 9 5 10 6 4 7 3 8 2 9 1 10
REMARK H PARENT
REMARK Flexibility Score: inf
ROOT
ATOM      1  C   UNL     1     165.585 160.118 151.751  1.00  0.00     0.000 C 
ENDROOT
BRANCH   1   2
ATOM      2  C   UNL     1     166.766 159.582 152.569  1.00  0.00     0.006 C 
BRANCH   2   3
ATOM      3  C   UNL     1     166.294 159.013 153.910  1.00  0.00     0.053 C 
BRANCH   3   4
ATOM      4  C   UNL     1     166.751 157.598 154.070  1.00  0.00     0.041 C 
ATOM      5  O   UNL     1     166.855 157.093 155.219  1.00  0.00    -0.550 OA
ATOM      6  O   UNL     1     167.113 156.853 152.956  1.00  0.00    -0.550 OA
ENDBRANCH   3   4
ENDBRANCH   2   3
ENDBRANCH   1   2
BRANCH   1   7
ATOM      7  C   UNL     1     164.472 159.065 151.638  1.00  0.00     0.000 C 
BRANCH   7   8
ATOM      8  C   UNL     1     163.212 159.607 150.946  1.00  0.00    -0.000 C 
BRANCH   8   9
ATOM      9  C   UNL     1     162.567 158.580 150.003  1.00  0.00    -0.003 C 
ATOM     10  C   UNL     1     161.065 158.817 149.877  1.00  0.00     0.004 C 
ENDBRANCH   8   9
ENDBRANCH   7   8
ENDBRANCH   1   7
TORSDOF 6
ENDMDL
