MODEL 1
REMARK VINA RESULT:    -6.195      0.000      0.000
REMARK INTER + INTRA:         -12.022
REMARK INTER:                 -10.541
REMARK INTRA:                  -1.481
REMARK UNBOUND:                -1.481
REMARK SMILES CCCCCCCCCCCCCC(=O)[O-]
REMARK SMILES IDX 8 1 9 2 10 3 11 4 12 5 13 6 14 7 15 8 16 9 7 10 6 11 5 12
REMARK SMILES IDX 4 13 3 14 2 15 1 16
REMARK H PARENT
REMARK Flexibility Score: inf
ROOT
ATOM      1  C   UNL     1     -21.136 -43.555  24.909  1.00  0.00     0.000 C 
ENDROOT
BRANCH   1   2
ATOM      2  C   UNL     1     -21.732 -43.468  23.496  1.00  0.00     0.000 C 
BRANCH   2   3
ATOM      3  C   UNL     1     -22.002 -42.021  23.056  1.00  0.00     0.000 C 
BRANCH   3   4
ATOM      4  C   UNL     1     -20.823 -41.468  22.239  1.00  0.00     0.000 C 
BRANCH   4   5
ATOM      5  C   UNL     1     -20.273 -40.146  22.806  1.00  0.00     0.006 C 
BRANCH   5   6
ATOM      6  C   UNL     1     -19.338 -40.315  24.014  1.00  0.00     0.053 C 
BRANCH   6   7
ATOM      7  C   UNL     1     -19.835 -39.577  25.218  1.00  0.00     0.041 C 
ATOM      8  O   UNL     1     -21.046 -39.652  25.551  1.00  0.00    -0.550 OA
ATOM      9  O   UNL     1     -18.967 -38.778  25.952  1.00  0.00    -0.550 OA
ENDBRANCH   6   7
ENDBRANCH   5   6
ENDBRANCH   4   5
ENDBRANCH   3   4
ENDBRANCH   2   3
ENDBRANCH   1   2
BRANCH   1  10
ATOM     10  C   UNL     1     -19.978 -44.564  25.002  1.00  0.00     0.000 C 
BRANCH  10  11
ATOM     11  C   UNL     1     -20.024 -45.620  23.885  1.00  0.00    -0.000 C 
BRANCH  11  12
ATOM     12  C   UNL     1     -20.104 -47.053  24.432  1.00  0.00    -0.000 C 
BRANCH  12  13
ATOM     13  C   UNL     1     -21.526 -47.618  24.281  1.00  0.00    -0.000 C 
BRANCH  13  14
ATOM     14  C   UNL     1     -21.987 -47.679  22.816  1.00  0.00    -0.000 C 
BRANCH  14  15
ATOM     15  C   UNL     1     -23.344 -46.995  22.595  1.00  0.00    -0.003 C 
ATOM     16  C   UNL     1     -23.924 -46.486  23.911  1.00  0.00     0.004 C 
ENDBRANCH  14  15
ENDBRANCH  13  14
ENDBRANCH  12  13
ENDBRANCH  11  12
ENDBRANCH  10  11
ENDBRANCH   1  10
TORSDOF 12
ENDMDL
MODEL 2
REMARK VINA RESULT:    -6.138      1.115      1.455
REMARK INTER + INTRA:         -11.925
REMARK INTER:                 -10.636
REMARK INTRA:                  -1.289
REMARK UNBOUND:                -1.481
REMARK SMILES CCCCCCCCCCCCCC(=O)[O-]
REMARK SMILES IDX 8 1 9 2 10 3 11 4 12 5 13 6 14 7 15 8 16 9 7 10 6 11 5 12
REMARK SMILES IDX 4 13 3 14 2 15 1 16
REMARK H PARENT
REMARK Flexibility Score: inf
ROOT
ATOM      1  C   UNL     1     -20.148 -44.226  23.835  1.00  0.00     0.000 C 
ENDROOT
BRANCH   1   2
ATOM      2  C   UNL     1     -20.163 -42.697  23.991  1.00  0.00     0.000 C 
BRANCH   2   3
ATOM      3  C   UNL     1     -21.221 -42.023  23.104  1.00  0.00     0.000 C 
BRANCH   3   4
ATOM      4  C   UNL     1     -20.559 -41.099  22.069  1.00  0.00     0.000 C 
BRANCH   4   5
ATOM      5  C   UNL     1     -19.121 -40.706  22.454  1.00  0.00     0.006 C 
BRANCH   5   6
ATOM      6  C   UNL     1     -18.975 -39.268  22.974  1.00  0.00     0.053 C 
BRANCH   6   7
ATOM      7  C   UNL     1     -18.767 -39.225  24.457  1.00  0.00     0.041 C 
ATOM      8  O   UNL     1     -17.616 -39.033  24.929  1.00  0.00    -0.550 OA
ATOM      9  O   UNL     1     -19.839 -39.430  25.317  1.00  0.00    -0.550 OA
ENDBRANCH   6   7
ENDBRANCH   5   6
ENDBRANCH   4   5
ENDBRANCH   3   4
ENDBRANCH   2   3
ENDBRANCH   1   2
BRANCH   1  10
ATOM     10  C   UNL     1     -20.134 -44.958  25.189  1.00  0.00     0.000 C 
BRANCH  10  11
ATOM     11  C   UNL     1     -20.034 -46.484  25.034  1.00  0.00    -0.000 C 
BRANCH  11  12
ATOM     12  C   UNL     1     -20.127 -46.936  23.568  1.00  0.00    -0.000 C 
BRANCH  12  13
ATOM     13  C   UNL     1     -21.238 -47.983  23.388  1.00  0.00    -0.000 C 
BRANCH  13  14
ATOM     14  C   UNL     1     -22.491 -47.407  22.711  1.00  0.00    -0.000 C 
BRANCH  14  15
ATOM     15  C   UNL     1     -23.522 -46.885  23.723  1.00  0.00    -0.003 C 
ATOM     16  C   UNL     1     -23.667 -45.369  23.627  1.00  0.00     0.004 C 
ENDBRANCH  14  15
ENDBRANCH  13  14
ENDBRANCH  12  13
ENDBRANCH  11  12
ENDBRANCH  10  11
ENDBRANCH   1  10
TORSDOF 12
ENDMDL
MODEL 3
REMARK VINA RESULT:    -6.120      1.776      2.645
REMARK INTER + INTRA:         -11.895
REMARK INTER:                 -10.774
REMARK INTRA:                  -1.121
REMARK UNBOUND:                -1.481
REMARK SMILES CCCCCCCCCCCCCC(=O)[O-]
REMARK SMILES IDX 8 1 9 2 10 3 11 4 12 5 13 6 14 7 15 8 16 9 7 10 6 11 5 12
REMARK SMILES IDX 4 13 3 14 2 15 1 16
REMARK H PARENT
REMARK Flexibility Score: inf
ROOT
ATOM      1  C   UNL     1     -20.198 -43.749  25.770  1.00  0.00     0.000 C 
ENDROOT
BRANCH   1   2
ATOM      2  C   UNL     1     -19.325 -42.709  26.490  1.00  0.00     0.000 C 
BRANCH   2   3
ATOM      3  C   UNL     1     -20.144 -41.539  27.055  1.00  0.00     0.000 C 
BRANCH   3   4
ATOM      4  C   UNL     1     -19.813 -40.232  26.316  1.00  0.00     0.000 C 
BRANCH   4   5
ATOM      5  C   UNL     1     -20.839 -39.892  25.219  1.00  0.00     0.006 C 
BRANCH   5   6
ATOM      6  C   UNL     1     -20.264 -39.882  23.794  1.00  0.00     0.053 C 
BRANCH   6   7
ATOM      7  C   UNL     1     -20.922 -40.901  22.916  1.00  0.00     0.041 C 
ATOM      8  O   UNL     1     -21.897 -41.572  23.345  1.00  0.00    -0.550 OA
ATOM      9  O   UNL     1     -20.438 -41.131  21.634  1.00  0.00    -0.550 OA
ENDBRANCH   6   7
ENDBRANCH   5   6
ENDBRANCH   4   5
ENDBRANCH   3   4
ENDBRANCH   2   3
ENDBRANCH   1   2
BRANCH   1  10
ATOM     10  C   UNL     1     -19.732 -44.016  24.328  1.00  0.00     0.000 C 
BRANCH  10  11
ATOM     11  C   UNL     1     -19.896 -45.488  23.918  1.00  0.00    -0.000 C 
BRANCH  11  12
ATOM     12  C   UNL     1     -20.158 -46.410  25.118  1.00  0.00    -0.000 C 
BRANCH  12  13
ATOM     13  C   UNL     1     -21.133 -47.537  24.740  1.00  0.00    -0.000 C 
BRANCH  13  14
ATOM     14  C   UNL     1     -21.106 -47.865  23.239  1.00  0.00    -0.000 C 
BRANCH  14  15
ATOM     15  C   UNL     1     -22.481 -47.702  22.574  1.00  0.00    -0.003 C 
ATOM     16  C   UNL     1     -23.411 -46.856  23.437  1.00  0.00     0.004 C 
ENDBRANCH  14  15
ENDBRANCH  13  14
ENDBRANCH  12  13
ENDBRANCH  11  12
ENDBRANCH  10  11
ENDBRANCH   1  10
TORSDOF 12
ENDMDL
MODEL 4
REMARK VINA RESULT:    -6.062      1.011      1.649
REMARK INTER + INTRA:         -11.795
REMARK INTER:                 -10.535
REMARK INTRA:                  -1.261
REMARK UNBOUND:                -1.481
REMARK SMILES CCCCCCCCCCCCCC(=O)[O-]
REMARK SMILES IDX 8 1 9 2 10 3 11 4 12 5 13 6 14 7 15 8 16 9 7 10 6 11 5 12
REMARK SMILES IDX 4 13 3 14 2 15 1 16
REMARK H PARENT
REMARK Flexibility Score: inf
ROOT
ATOM      1  C   UNL     1     -21.644 -42.839  23.072  1.00  0.00     0.000 C 
ENDROOT
BRANCH   1   2
ATOM      2  C   UNL     1     -21.475 -41.344  22.759  1.00  0.00     0.000 C 
BRANCH   2   3
ATOM      3  C   UNL     1     -20.394 -41.080  21.700  1.00  0.00     0.000 C 
BRANCH   3   4
ATOM      4  C   UNL     1     -19.139 -40.466  22.340  1.00  0.00     0.000 C 
BRANCH   4   5
ATOM      5  C   UNL     1     -19.470 -39.386  23.386  1.00  0.00     0.006 C 
BRANCH   5   6
ATOM      6  C   UNL     1     -18.851 -39.635  24.771  1.00  0.00     0.053 C 
BRANCH   6   7
ATOM      7  C   UNL     1     -19.892 -39.927  25.808  1.00  0.00     0.041 C 
ATOM      8  O   UNL     1     -21.059 -39.473  25.679  1.00  0.00    -0.550 OA
ATOM      9  O   UNL     1     -19.563 -40.674  26.933  1.00  0.00    -0.550 OA
ENDBRANCH   6   7
ENDBRANCH   5   6
ENDBRANCH   4   5
ENDBRANCH   3   4
ENDBRANCH   2   3
ENDBRANCH   1   2
BRANCH   1  10
ATOM     10  C   UNL     1     -21.091 -43.219  24.456  1.00  0.00     0.000 C 
BRANCH  10  11
ATOM     11  C   UNL     1     -19.790 -44.032  24.369  1.00  0.00    -0.000 C 
BRANCH  11  12
ATOM     12  C   UNL     1     -19.994 -45.513  24.722  1.00  0.00    -0.000 C 
BRANCH  12  13
ATOM     13  C   UNL     1     -20.038 -46.377  23.451  1.00  0.00    -0.000 C 
BRANCH  13  14
ATOM     14  C   UNL     1     -20.927 -47.621  23.611  1.00  0.00    -0.000 C 
BRANCH  14  15
ATOM     15  C   UNL     1     -22.280 -47.475  22.899  1.00  0.00    -0.003 C 
ATOM     16  C   UNL     1     -23.326 -46.864  23.827  1.00  0.00     0.004 C 
ENDBRANCH  14  15
ENDBRANCH  13  14
ENDBRANCH  12  13
ENDBRANCH  11  12
ENDBRANCH  10  11
ENDBRANCH   1  10
TORSDOF 12
ENDMDL
MODEL 5
REMARK VINA RESULT:    -6.009      3.012      6.791
REMARK INTER + INTRA:         -11.706
REMARK INTER:                 -10.522
REMARK INTRA:                  -1.184
REMARK UNBOUND:                -1.481
REMARK SMILES CCCCCCCCCCCCCC(=O)[O-]
REMARK SMILES IDX 8 1 9 2 10 3 11 4 12 5 13 6 14 7 15 8 16 9 7 10 6 11 5 12
REMARK SMILES IDX 4 13 3 14 2 15 1 16
REMARK H PARENT
REMARK Flexibility Score: inf
ROOT
ATOM      1  C   UNL     1     -20.692 -42.882  24.952  1.00  0.00     0.000 C 
ENDROOT
BRANCH   1   2
ATOM      2  C   UNL     1     -19.746 -43.848  24.222  1.00  0.00     0.000 C 
BRANCH   2   3
ATOM      3  C   UNL     1     -19.996 -45.317  24.596  1.00  0.00     0.000 C 
BRANCH   3   4
ATOM      4  C   UNL     1     -20.037 -46.202  23.341  1.00  0.00     0.000 C 
BRANCH   4   5
ATOM      5  C   UNL     1     -20.633 -47.596  23.613  1.00  0.00     0.006 C 
BRANCH   5   6
ATOM      6  C   UNL     1     -22.094 -47.578  24.090  1.00  0.00     0.053 C 
BRANCH   6   7
ATOM      7  C   UNL     1     -23.003 -46.931  23.090  1.00  0.00     0.041 C 
ATOM      8  O   UNL     1     -23.259 -47.508  22.002  1.00  0.00    -0.550 OA
ATOM      9  O   UNL     1     -23.540 -45.676  23.348  1.00  0.00    -0.550 OA
ENDBRANCH   6   7
ENDBRANCH   5   6
ENDBRANCH   4   5
ENDBRANCH   3   4
ENDBRANCH   2   3
ENDBRANCH   1   2
BRANCH   1  10
ATOM     10  C   UNL     1     -20.325 -42.703  26.435  1.00  0.00     0.000 C 
BRANCH  10  11
ATOM     11  C   UNL     1     -20.301 -41.227  26.864  1.00  0.00    -0.000 C 
BRANCH  11  12
ATOM     12  C   UNL     1     -20.571 -40.269  25.695  1.00  0.00    -0.000 C 
BRANCH  12  13
ATOM     13  C   UNL     1     -19.341 -39.394  25.409  1.00  0.00    -0.000 C 
BRANCH  13  14
ATOM     14  C   UNL     1     -18.982 -39.346  23.915  1.00  0.00    -0.000 C 
BRANCH  14  15
ATOM     15  C   UNL     1     -20.160 -39.740  23.012  1.00  0.00    -0.003 C 
ATOM     16  C   UNL     1     -19.745 -40.807  22.003  1.00  0.00     0.004 C 
ENDBRANCH  14  15
ENDBRANCH  13  14
ENDBRANCH  12  13
ENDBRANCH  11  12
ENDBRANCH  10  11
ENDBRANCH   1  10
TORSDOF 12
ENDMDL
MODEL 6
REMARK VINA RESULT:    -5.979      1.986      2.878
REMARK INTER + INTRA:         -11.655
REMARK INTER:                 -10.981
REMARK INTRA:                  -0.675
REMARK UNBOUND:                -1.481
REMARK SMILES CCCCCCCCCCCCCC(=O)[O-]
REMARK SMILES IDX 8 1 9 2 10 3 11 4 12 5 13 6 14 7 15 8 16 9 7 10 6 11 5 12
REMARK SMILES IDX 4 13 3 14 2 15 1 16
REMARK H PARENT
REMARK Flexibility Score: inf
ROOT
ATOM      1  C   UNL     1     -21.087 -41.837  23.377  1.00  0.00     0.000 C 
ENDROOT
BRANCH   1   2
ATOM      2  C   UNL     1     -20.603 -41.335  22.007  1.00  0.00     0.000 C 
BRANCH   2   3
ATOM      3  C   UNL     1     -19.305 -40.519  22.102  1.00  0.00     0.000 C 
BRANCH   3   4
ATOM      4  C   UNL     1     -19.466 -39.344  23.079  1.00  0.00     0.000 C 
BRANCH   4   5
ATOM      5  C   UNL     1     -18.180 -38.509  23.224  1.00  0.00     0.006 C 
BRANCH   5   6
ATOM      6  C   UNL     1     -17.512 -38.611  24.604  1.00  0.00     0.053 C 
BRANCH   6   7
ATOM      7  C   UNL     1     -16.521 -37.511  24.831  1.00  0.00     0.041 C 
ATOM      8  O   UNL     1     -16.904 -36.313  24.869  1.00  0.00    -0.550 OA
ATOM      9  O   UNL     1     -15.170 -37.808  24.968  1.00  0.00    -0.550 OA
ENDBRANCH   6   7
ENDBRANCH   5   6
ENDBRANCH   4   5
ENDBRANCH   3   4
ENDBRANCH   2   3
ENDBRANCH   1   2
BRANCH   1  10
ATOM     10  C   UNL     1     -20.910 -43.356  23.546  1.00  0.00     0.000 C 
BRANCH  10  11
ATOM     11  C   UNL     1     -20.011 -43.717  24.739  1.00  0.00    -0.000 C 
BRANCH  11  12
ATOM     12  C   UNL     1     -19.980 -45.227  25.019  1.00  0.00    -0.000 C 
BRANCH  12  13
ATOM     13  C   UNL     1     -20.008 -46.028  23.707  1.00  0.00    -0.000 C 
BRANCH  13  14
ATOM     14  C   UNL     1     -20.387 -47.502  23.921  1.00  0.00    -0.000 C 
BRANCH  14  15
ATOM     15  C   UNL     1     -21.599 -47.928  23.079  1.00  0.00    -0.003 C 
ATOM     16  C   UNL     1     -22.850 -47.157  23.487  1.00  0.00     0.004 C 
ENDBRANCH  14  15
ENDBRANCH  13  14
ENDBRANCH  12  13
ENDBRANCH  11  12
ENDBRANCH  10  11
ENDBRANCH   1  10
TORSDOF 12
ENDMDL
MODEL 7
REMARK VINA RESULT:    -5.975      3.183      7.293
REMARK INTER + INTRA:         -11.648
REMARK INTER:                 -10.909
REMARK INTRA:                  -0.740
REMARK UNBOUND:                -1.481
REMARK SMILES CCCCCCCCCCCCCC(=O)[O-]
REMARK SMILES IDX 8 1 9 2 10 3 11 4 12 5 13 6 14 7 15 8 16 9 7 10 6 11 5 12
REMARK SMILES IDX 4 13 3 14 2 15 1 16
REMARK H PARENT
REMARK Flexibility Score: inf
ROOT
ATOM      1  C   UNL     1     -19.616 -43.101  24.266  1.00  0.00     0.000 C 
ENDROOT
BRANCH   1   2
ATOM      2  C   UNL     1     -19.626 -43.909  25.573  1.00  0.00     0.000 C 
BRANCH   2   3
ATOM      3  C   UNL     1     -20.169 -45.334  25.384  1.00  0.00     0.000 C 
BRANCH   3   4
ATOM      4  C   UNL     1     -20.006 -45.793  23.926  1.00  0.00     0.000 C 
BRANCH   4   5
ATOM      5  C   UNL     1     -20.383 -47.271  23.720  1.00  0.00     0.006 C 
BRANCH   5   6
ATOM      6  C   UNL     1     -21.814 -47.626  24.155  1.00  0.00     0.053 C 
BRANCH   6   7
ATOM      7  C   UNL     1     -22.844 -46.941  23.311  1.00  0.00     0.041 C 
ATOM      8  O   UNL     1     -23.852 -46.413  23.848  1.00  0.00    -0.550 OA
ATOM      9  O   UNL     1     -22.706 -46.916  21.929  1.00  0.00    -0.550 OA
ENDBRANCH   6   7
ENDBRANCH   5   6
ENDBRANCH   4   5
ENDBRANCH   3   4
ENDBRANCH   2   3
ENDBRANCH   1   2
BRANCH   1  10
ATOM     10  C   UNL     1     -20.778 -42.096  24.184  1.00  0.00     0.000 C 
BRANCH  10  11
ATOM     11  C   UNL     1     -21.198 -41.797  22.736  1.00  0.00    -0.000 C 
BRANCH  11  12
ATOM     12  C   UNL     1     -20.358 -40.681  22.096  1.00  0.00    -0.000 C 
BRANCH  12  13
ATOM     13  C   UNL     1     -19.864 -39.689  23.161  1.00  0.00    -0.000 C 
BRANCH  13  14
ATOM     14  C   UNL     1     -18.500 -39.073  22.809  1.00  0.00    -0.000 C 
BRANCH  14  15
ATOM     15  C   UNL     1     -17.874 -38.312  23.987  1.00  0.00    -0.003 C 
ATOM     16  C   UNL     1     -17.051 -37.124  23.498  1.00  0.00     0.004 C 
ENDBRANCH  14  15
ENDBRANCH  13  14
ENDBRANCH  12  13
ENDBRANCH  11  12
ENDBRANCH  10  11
ENDBRANCH   1  10
TORSDOF 12
ENDMDL
MODEL 8
REMARK VINA RESULT:    -5.972      1.655      2.769
REMARK INTER + INTRA:         -11.643
REMARK INTER:                 -10.115
REMARK INTRA:                  -1.528
REMARK UNBOUND:                -1.481
REMARK SMILES CCCCCCCCCCCCCC(=O)[O-]
REMARK SMILES IDX 8 1 9 2 10 3 11 4 12 5 13 6 14 7 15 8 16 9 7 10 6 11 5 12
REMARK SMILES IDX 4 13 3 14 2 15 1 16
REMARK H PARENT
REMARK Flexibility Score: inf
ROOT
ATOM      1  C   UNL     1     -20.342 -45.859  25.392  1.00  0.00     0.000 C 
ENDROOT
BRANCH   1   2
ATOM      2  C   UNL     1     -19.791 -44.967  24.268  1.00  0.00     0.000 C 
BRANCH   2   3
ATOM      3  C   UNL     1     -19.947 -43.470  24.571  1.00  0.00     0.000 C 
BRANCH   3   4
ATOM      4  C   UNL     1     -20.132 -43.232  26.079  1.00  0.00     0.000 C 
BRANCH   4   5
ATOM      5  C   UNL     1     -19.049 -42.314  26.675  1.00  0.00     0.006 C 
BRANCH   5   6
ATOM      6  C   UNL     1     -19.571 -40.953  27.163  1.00  0.00     0.053 C 
BRANCH   6   7
ATOM      7  C   UNL     1     -19.960 -40.059  26.026  1.00  0.00     0.041 C 
ATOM      8  O   UNL     1     -19.076 -39.564  25.280  1.00  0.00    -0.550 OA
ATOM      9  O   UNL     1     -21.297 -39.747  25.811  1.00  0.00    -0.550 OA
ENDBRANCH   6   7
ENDBRANCH   5   6
ENDBRANCH   4   5
ENDBRANCH   3   4
ENDBRANCH   2   3
ENDBRANCH   1   2
BRANCH   1  10
ATOM     10  C   UNL     1     -20.683 -47.279  24.907  1.00  0.00     0.000 C 
BRANCH  10  11
ATOM     11  C   UNL     1     -20.588 -47.419  23.379  1.00  0.00    -0.000 C 
BRANCH  11  12
ATOM     12  C   UNL     1     -21.879 -47.973  22.757  1.00  0.00    -0.000 C 
BRANCH  12  13
ATOM     13  C   UNL     1     -22.885 -46.844  22.487  1.00  0.00    -0.000 C 
BRANCH  13  14
ATOM     14  C   UNL     1     -24.030 -46.812  23.512  1.00  0.00    -0.000 C 
BRANCH  14  15
ATOM     15  C   UNL     1     -24.085 -45.493  24.295  1.00  0.00    -0.003 C 
ATOM     16  C   UNL     1     -23.371 -44.376  23.540  1.00  0.00     0.004 C 
ENDBRANCH  14  15
ENDBRANCH  13  14
ENDBRANCH  12  13
ENDBRANCH  11  12
ENDBRANCH  10  11
ENDBRANCH   1  10
TORSDOF 12
ENDMDL
MODEL 9
REMARK VINA RESULT:    -5.966      3.198      6.809
REMARK INTER + INTRA:         -11.632
REMARK INTER:                 -10.155
REMARK INTRA:                  -1.477
REMARK UNBOUND:                -1.481
REMARK SMILES CCCCCCCCCCCCCC(=O)[O-]
REMARK SMILES IDX 8 1 9 2 10 3 11 4 12 5 13 6 14 7 15 8 16 9 7 10 6 11 5 12
REMARK SMILES IDX 4 13 3 14 2 15 1 16
REMARK H PARENT
REMARK Flexibility Score: inf
ROOT
ATOM      1  C   UNL     1     -21.630 -43.748  24.060  1.00  0.00     0.000 C 
ENDROOT
BRANCH   1   2
ATOM      2  C   UNL     1     -20.172 -44.206  24.219  1.00  0.00     0.000 C 
BRANCH   2   3
ATOM      3  C   UNL     1     -19.947 -45.644  23.727  1.00  0.00     0.000 C 
BRANCH   3   4
ATOM      4  C   UNL     1     -20.252 -46.658  24.840  1.00  0.00     0.000 C 
BRANCH   4   5
ATOM      5  C   UNL     1     -21.338 -47.674  24.439  1.00  0.00     0.006 C 
BRANCH   5   6
ATOM      6  C   UNL     1     -21.726 -47.633  22.953  1.00  0.00     0.053 C 
BRANCH   6   7
ATOM      7  C   UNL     1     -23.144 -47.194  22.754  1.00  0.00     0.041 C 
ATOM      8  O   UNL     1     -23.709 -47.365  21.642  1.00  0.00    -0.550 OA
ATOM      9  O   UNL     1     -23.829 -46.564  23.786  1.00  0.00    -0.550 OA
ENDBRANCH   6   7
ENDBRANCH   5   6
ENDBRANCH   4   5
ENDBRANCH   3   4
ENDBRANCH   2   3
ENDBRANCH   1   2
BRANCH   1  10
ATOM     10  C   UNL     1     -21.750 -42.405  23.319  1.00  0.00     0.000 C 
BRANCH  10  11
ATOM     11  C   UNL     1     -20.395 -41.697  23.156  1.00  0.00    -0.000 C 
BRANCH  11  12
ATOM     12  C   UNL     1     -20.448 -40.218  23.569  1.00  0.00    -0.000 C 
BRANCH  12  13
ATOM     13  C   UNL     1     -21.198 -40.048  24.899  1.00  0.00    -0.000 C 
BRANCH  13  14
ATOM     14  C   UNL     1     -20.257 -40.041  26.114  1.00  0.00    -0.000 C 
BRANCH  14  15
ATOM     15  C   UNL     1     -20.285 -41.366  26.890  1.00  0.00    -0.003 C 
ATOM     16  C   UNL     1     -18.892 -41.982  26.976  1.00  0.00     0.004 C 
ENDBRANCH  14  15
ENDBRANCH  13  14
ENDBRANCH  12  13
ENDBRANCH  11  12
ENDBRANCH  10  11
ENDBRANCH   1  10
TORSDOF 12
ENDMDL
