MODEL 1
REMARK VINA RESULT:    -3.587      0.000      0.000
REMARK INTER + INTRA:          -5.794
REMARK INTER:                  -5.475
REMARK INTRA:                  -0.320
REMARK UNBOUND:                -0.320
REMARK SMILES CC1=CCC[C@H](C)C(=O)C[C@@H](C(C)C)C(=O)C1
REMARK SMILES IDX 8 1 9 2 6 3 7 4 5 5 4 6 3 7 2 8 1 9 10 11 11 12 15 13 16 14
REMARK SMILES IDX 17 15 12 17 13 18 14 19
REMARK H PARENT
REMARK Flexibility Score: 70.00
ROOT
ATOM      1  C   UNL     1      -5.886   2.907  55.660  1.00  0.00     0.136 C 
ATOM      2  O   UNL     1      -6.654   1.964  55.533  1.00  0.00    -0.299 OA
ENDROOT
BRANCH   1   3
ATOM      3  C   UNL     1      -6.087   4.111  54.750  1.00  0.00     0.053 C 
ATOM      4  C   UNL     1      -6.314   3.754  53.272  1.00  0.00     0.016 C 
BRANCH   3   5
ATOM      5  C   UNL     1      -7.091   5.117  55.395  1.00  0.00     0.015 C 
BRANCH   5   6
ATOM      6  C   UNL     1      -6.592   6.122  56.456  1.00  0.00     0.028 C 
BRANCH   6   7
ATOM      7  C   UNL     1      -7.075   5.949  57.880  1.00  0.00    -0.028 C 
ATOM      8  C   UNL     1      -6.320   5.652  58.964  1.00  0.00    -0.070 CG0
ATOM      9  C   UNL     1      -6.981   5.689  60.320  1.00  0.00     0.039 C 
ATOM     10  G   UNL     1      -4.888   5.169  58.876  1.00  0.00     0.000 G0
ENDBRANCH   6   7
ENDBRANCH   5   6
ENDBRANCH   3   5
ENDBRANCH   1   3
BRANCH   1  11
ATOM     11  C   UNL     1      -4.778   2.779  56.688  1.00  0.00     0.087 C 
BRANCH  11  12
ATOM     12  C   UNL     1      -5.276   2.616  58.152  1.00  0.00     0.066 C 
BRANCH  12  13
ATOM     13  C   UNL     1      -4.716   3.675  59.103  1.00  0.00     0.140 C 
ATOM     14  O   UNL     1      -4.108   3.312  60.100  1.00  0.00    -0.299 OA
BRANCH  13  15
ATOM     15  C   UNL     1      -4.888   5.170  58.884  1.00  0.00     0.106 CG0
ATOM     16  G   UNL     1      -6.324   5.638  58.990  1.00  0.00     0.000 G0
ENDBRANCH  13  15
ENDBRANCH  12  13
BRANCH  12  17
ATOM     17  C   UNL     1      -5.084   1.180  58.732  1.00  0.00    -0.006 C 
ATOM     18  C   UNL     1      -6.405   0.393  58.753  1.00  0.00     0.008 C 
ATOM     19  C   UNL     1      -3.989   0.348  58.040  1.00  0.00     0.008 C 
ENDBRANCH  12  17
ENDBRANCH  11  12
ENDBRANCH   1  11
TORSDOF 1
ENDMDL
MODEL 2
REMARK VINA RESULT:    -3.513      3.696      6.122
REMARK INTER + INTRA:          -5.681
REMARK INTER:                  -5.343
REMARK INTRA:                  -0.338
REMARK UNBOUND:                -0.320
REMARK SMILES CC1=CCC[C@H](C)C(=O)C[C@@H](C(C)C)C(=O)C1
REMARK SMILES IDX 8 1 9 2 6 3 7 4 5 5 4 6 3 7 2 8 1 9 10 11 11 12 15 13 16 14
REMARK SMILES IDX 17 15 12 17 13 18 14 19
REMARK H PARENT
REMARK Flexibility Score: 70.00
ROOT
ATOM      1  C   UNL     1      -9.931   5.710  53.344  1.00  0.00     0.136 C 
ATOM      2  O   UNL     1     -10.462   6.770  53.641  1.00  0.00    -0.299 OA
ENDROOT
BRANCH   1   3
ATOM      3  C   UNL     1      -9.630   5.458  51.873  1.00  0.00     0.053 C 
ATOM      4  C   UNL     1     -10.665   6.055  50.904  1.00  0.00     0.016 C 
BRANCH   3   5
ATOM      5  C   UNL     1      -8.128   5.751  51.568  1.00  0.00     0.015 C 
BRANCH   5   6
ATOM      6  C   UNL     1      -7.229   4.632  51.000  1.00  0.00     0.028 C 
BRANCH   6   7
ATOM      7  C   UNL     1      -7.553   3.202  51.378  1.00  0.00    -0.028 C 
ATOM      8  C   UNL     1      -7.372   2.620  52.587  1.00  0.00    -0.070 CG0
ATOM      9  C   UNL     1      -7.918   1.229  52.792  1.00  0.00     0.039 C 
ATOM     10  G   UNL     1      -6.551   3.241  53.698  1.00  0.00     0.000 G0
ENDBRANCH   6   7
ENDBRANCH   5   6
ENDBRANCH   3   5
ENDBRANCH   1   3
BRANCH   1  11
ATOM     11  C   UNL     1      -9.651   4.724  54.462  1.00  0.00     0.087 C 
BRANCH  11  12
ATOM     12  C   UNL     1      -8.231   4.844  55.083  1.00  0.00     0.066 C 
BRANCH  12  13
ATOM     13  C   UNL     1      -7.404   3.565  54.951  1.00  0.00     0.140 C 
ATOM     14  O   UNL     1      -7.390   2.771  55.881  1.00  0.00    -0.299 OA
BRANCH  13  15
ATOM     15  C   UNL     1      -6.575   3.229  53.722  1.00  0.00     0.106 CG0
ATOM     16  G   UNL     1      -7.383   2.638  52.586  1.00  0.00     0.000 G0
ENDBRANCH  13  15
ENDBRANCH  12  13
BRANCH  12  17
ATOM     17  C   UNL     1      -8.223   5.371  56.553  1.00  0.00    -0.006 C 
ATOM     18  C   UNL     1      -6.999   6.258  56.832  1.00  0.00     0.008 C 
ATOM     19  C   UNL     1      -9.509   6.102  56.980  1.00  0.00     0.008 C 
ENDBRANCH  12  17
ENDBRANCH  11  12
ENDBRANCH   1  11
TORSDOF 1
ENDMDL
MODEL 3
REMARK VINA RESULT:    -3.297      1.908      4.132
REMARK INTER + INTRA:          -5.352
REMARK INTER:                  -4.966
REMARK INTRA:                  -0.385
REMARK UNBOUND:                -0.320
REMARK SMILES CC1=CCC[C@H](C)C(=O)C[C@@H](C(C)C)C(=O)C1
REMARK SMILES IDX 8 1 9 2 6 3 7 4 5 5 4 6 3 7 2 8 1 9 10 11 11 12 15 13 16 14
REMARK SMILES IDX 17 15 12 17 13 18 14 19
REMARK H PARENT
REMARK Flexibility Score: 70.00
ROOT
ATOM      1  C   UNL     1      -6.828   4.067  59.435  1.00  0.00     0.136 C 
ATOM      2  O   UNL     1      -6.911   3.793  60.625  1.00  0.00    -0.299 OA
ENDROOT
BRANCH   1   3
ATOM      3  C   UNL     1      -6.568   5.519  59.061  1.00  0.00     0.053 C 
ATOM      4  C   UNL     1      -5.080   5.911  59.044  1.00  0.00     0.016 C 
BRANCH   3   5
ATOM      5  C   UNL     1      -7.416   5.919  57.812  1.00  0.00     0.015 C 
BRANCH   5   6
ATOM      6  C   UNL     1      -6.718   6.145  56.454  1.00  0.00     0.028 C 
BRANCH   6   7
ATOM      7  C   UNL     1      -7.427   5.668  55.204  1.00  0.00    -0.028 C 
ATOM      8  C   UNL     1      -7.249   4.484  54.571  1.00  0.00    -0.070 CG0
ATOM      9  C   UNL     1      -8.180   4.142  53.434  1.00  0.00     0.039 C 
ATOM     10  G   UNL     1      -6.096   3.547  54.862  1.00  0.00     0.000 G0
ENDBRANCH   6   7
ENDBRANCH   5   6
ENDBRANCH   3   5
ENDBRANCH   1   3
BRANCH   1  11
ATOM     11  C   UNL     1      -7.027   2.942  58.438  1.00  0.00     0.087 C 
BRANCH  11  12
ATOM     12  C   UNL     1      -5.867   2.777  57.416  1.00  0.00     0.066 C 
BRANCH  12  13
ATOM     13  C   UNL     1      -6.352   2.554  55.983  1.00  0.00     0.140 C 
ATOM     14  O   UNL     1      -6.977   1.536  55.722  1.00  0.00    -0.299 OA
BRANCH  13  15
ATOM     15  C   UNL     1      -6.082   3.530  54.848  1.00  0.00     0.106 CG0
ATOM     16  G   UNL     1      -7.224   4.488  54.585  1.00  0.00     0.000 G0
ENDBRANCH  13  15
ENDBRANCH  12  13
BRANCH  12  17
ATOM     17  C   UNL     1      -4.807   1.706  57.825  1.00  0.00    -0.006 C 
ATOM     18  C   UNL     1      -3.508   2.355  58.329  1.00  0.00     0.008 C 
ATOM     19  C   UNL     1      -5.305   0.667  58.846  1.00  0.00     0.008 C 
ENDBRANCH  12  17
ENDBRANCH  11  12
ENDBRANCH   1  11
TORSDOF 1
ENDMDL
MODEL 4
REMARK VINA RESULT:    -3.243      3.286      5.810
REMARK INTER + INTRA:          -5.269
REMARK INTER:                  -5.173
REMARK INTRA:                  -0.096
REMARK UNBOUND:                -0.320
REMARK SMILES CC1=CCC[C@H](C)C(=O)C[C@@H](C(C)C)C(=O)C1
REMARK SMILES IDX 8 1 9 2 6 3 7 4 5 5 4 6 3 7 2 8 1 9 10 11 11 12 15 13 16 14
REMARK SMILES IDX 17 15 12 17 13 18 14 19
REMARK H PARENT
REMARK Flexibility Score: 70.00
ROOT
ATOM      1  C   UNL     1      -9.357   3.299  51.908  1.00  0.00     0.136 C 
ATOM      2  O   UNL     1     -10.142   3.221  50.974  1.00  0.00    -0.299 OA
ENDROOT
BRANCH   1   3
ATOM      3  C   UNL     1      -7.869   3.265  51.586  1.00  0.00     0.053 C 
ATOM      4  C   UNL     1      -7.344   4.531  50.890  1.00  0.00     0.016 C 
BRANCH   3   5
ATOM      5  C   UNL     1      -7.059   2.749  52.817  1.00  0.00     0.015 C 
BRANCH   5   6
ATOM      6  C   UNL     1      -5.873   3.579  53.354  1.00  0.00     0.028 C 
BRANCH   6   7
ATOM      7  C   UNL     1      -5.700   3.683  54.854  1.00  0.00    -0.028 C 
ATOM      8  C   UNL     1      -6.496   4.356  55.718  1.00  0.00    -0.070 CG0
ATOM      9  C   UNL     1      -6.236   4.192  57.196  1.00  0.00     0.039 C 
ATOM     10  G   UNL     1      -7.548   5.353  55.280  1.00  0.00     0.000 G0
ENDBRANCH   6   7
ENDBRANCH   5   6
ENDBRANCH   3   5
ENDBRANCH   1   3
BRANCH   1  11
ATOM     11  C   UNL     1      -9.934   3.389  53.308  1.00  0.00     0.087 C 
BRANCH  11  12
ATOM     12  C   UNL     1      -9.821   4.795  53.960  1.00  0.00     0.066 C 
BRANCH  12  13
ATOM     13  C   UNL     1      -8.968   4.806  55.230  1.00  0.00     0.140 C 
ATOM     14  O   UNL     1      -9.443   4.361  56.265  1.00  0.00    -0.299 OA
BRANCH  13  15
ATOM     15  C   UNL     1      -7.554   5.361  55.281  1.00  0.00     0.106 CG0
ATOM     16  G   UNL     1      -6.516   4.343  55.707  1.00  0.00     0.000 G0
ENDBRANCH  13  15
ENDBRANCH  12  13
BRANCH  12  17
ATOM     17  C   UNL     1     -11.195   5.497  54.199  1.00  0.00    -0.006 C 
ATOM     18  C   UNL     1     -11.030   7.009  54.423  1.00  0.00     0.008 C 
ATOM     19  C   UNL     1     -12.246   5.241  53.104  1.00  0.00     0.008 C 
ENDBRANCH  12  17
ENDBRANCH  11  12
ENDBRANCH   1  11
TORSDOF 1
ENDMDL
MODEL 5
REMARK VINA RESULT:    -3.214      2.302      4.237
REMARK INTER + INTRA:          -5.224
REMARK INTER:                  -4.848
REMARK INTRA:                  -0.376
REMARK UNBOUND:                -0.320
REMARK SMILES CC1=CCC[C@H](C)C(=O)C[C@@H](C(C)C)C(=O)C1
REMARK SMILES IDX 8 1 9 2 6 3 7 4 5 5 4 6 3 7 2 8 1 9 10 11 11 12 15 13 16 14
REMARK SMILES IDX 17 15 12 17 13 18 14 19
REMARK H PARENT
REMARK Flexibility Score: 70.00
ROOT
ATOM      1  C   UNL     1      -7.751   5.667  56.444  1.00  0.00     0.136 C 
ATOM      2  O   UNL     1      -7.551   6.859  56.259  1.00  0.00    -0.299 OA
ENDROOT
BRANCH   1   3
ATOM      3  C   UNL     1      -7.760   4.755  55.225  1.00  0.00     0.053 C 
ATOM      4  C   UNL     1      -8.710   5.208  54.103  1.00  0.00     0.016 C 
BRANCH   3   5
ATOM      5  C   UNL     1      -6.300   4.391  54.808  1.00  0.00     0.015 C 
BRANCH   5   6
ATOM      6  C   UNL     1      -5.746   2.983  55.113  1.00  0.00     0.028 C 
BRANCH   6   7
ATOM      7  C   UNL     1      -6.722   1.918  55.563  1.00  0.00    -0.028 C 
ATOM      8  C   UNL     1      -7.027   1.582  56.839  1.00  0.00    -0.070 CG0
ATOM      9  C   UNL     1      -8.153   0.603  57.064  1.00  0.00     0.039 C 
ATOM     10  G   UNL     1      -6.223   2.041  58.037  1.00  0.00     0.000 G0
ENDBRANCH   6   7
ENDBRANCH   5   6
ENDBRANCH   3   5
ENDBRANCH   1   3
BRANCH   1  11
ATOM     11  C   UNL     1      -8.008   5.207  57.866  1.00  0.00     0.087 C 
BRANCH  11  12
ATOM     12  C   UNL     1      -6.763   4.612  58.583  1.00  0.00     0.066 C 
BRANCH  12  13
ATOM     13  C   UNL     1      -6.896   3.118  58.882  1.00  0.00     0.140 C 
ATOM     14  O   UNL     1      -7.567   2.764  59.841  1.00  0.00    -0.299 OA
BRANCH  13  15
ATOM     15  C   UNL     1      -6.218   2.037  58.055  1.00  0.00     0.106 CG0
ATOM     16  G   UNL     1      -7.027   1.590  56.855  1.00  0.00     0.000 G0
ENDBRANCH  13  15
ENDBRANCH  12  13
BRANCH  12  17
ATOM     17  C   UNL     1      -6.322   5.403  59.853  1.00  0.00    -0.006 C 
ATOM     18  C   UNL     1      -4.950   6.069  59.661  1.00  0.00     0.008 C 
ATOM     19  C   UNL     1      -7.344   6.443  60.349  1.00  0.00     0.008 C 
ENDBRANCH  12  17
ENDBRANCH  11  12
ENDBRANCH   1  11
TORSDOF 1
ENDMDL
MODEL 6
REMARK VINA RESULT:    -3.103      3.082      5.281
REMARK INTER + INTRA:          -5.056
REMARK INTER:                  -4.757
REMARK INTRA:                  -0.299
REMARK UNBOUND:                -0.320
REMARK SMILES CC1=CCC[C@H](C)C(=O)C[C@@H](C(C)C)C(=O)C1
REMARK SMILES IDX 8 1 9 2 6 3 7 4 5 5 4 6 3 7 2 8 1 9 10 11 11 12 15 13 16 14
REMARK SMILES IDX 17 15 12 17 13 18 14 19
REMARK H PARENT
REMARK Flexibility Score: 70.00
ROOT
ATOM      1  C   UNL     1      -7.962   2.865  53.630  1.00  0.00     0.136 C 
ATOM      2  O   UNL     1      -8.235   2.130  52.692  1.00  0.00    -0.299 OA
ENDROOT
BRANCH   1   3
ATOM      3  C   UNL     1      -6.543   2.814  54.179  1.00  0.00     0.053 C 
ATOM      4  C   UNL     1      -5.558   3.763  53.475  1.00  0.00     0.016 C 
BRANCH   3   5
ATOM      5  C   UNL     1      -6.562   2.849  55.739  1.00  0.00     0.015 C 
BRANCH   5   6
ATOM      6  C   UNL     1      -5.950   4.054  56.485  1.00  0.00     0.028 C 
BRANCH   6   7
ATOM      7  C   UNL     1      -6.796   4.745  57.533  1.00  0.00    -0.028 C 
ATOM      8  C   UNL     1      -7.703   5.729  57.327  1.00  0.00    -0.070 CG0
ATOM      9  C   UNL     1      -8.557   6.161  58.493  1.00  0.00     0.039 C 
ATOM     10  G   UNL     1      -7.819   6.497  56.027  1.00  0.00     0.000 G0
ENDBRANCH   6   7
ENDBRANCH   5   6
ENDBRANCH   3   5
ENDBRANCH   1   3
BRANCH   1  11
ATOM     11  C   UNL     1      -9.070   3.738  54.187  1.00  0.00     0.087 C 
BRANCH  11  12
ATOM     12  C   UNL     1      -8.890   5.258  53.913  1.00  0.00     0.066 C 
BRANCH  12  13
ATOM     13  C   UNL     1      -9.015   6.117  55.172  1.00  0.00     0.140 C 
ATOM     14  O   UNL     1     -10.120   6.522  55.503  1.00  0.00    -0.299 OA
BRANCH  13  15
ATOM     15  C   UNL     1      -7.828   6.514  56.035  1.00  0.00     0.106 CG0
ATOM     16  G   UNL     1      -7.709   5.712  57.314  1.00  0.00     0.000 G0
ENDBRANCH  13  15
ENDBRANCH  12  13
BRANCH  12  17
ATOM     17  C   UNL     1      -9.790   5.808  52.764  1.00  0.00    -0.006 C 
ATOM     18  C   UNL     1      -9.093   5.709  51.397  1.00  0.00     0.008 C 
ATOM     19  C   UNL     1     -11.191   5.174  52.685  1.00  0.00     0.008 C 
ENDBRANCH  12  17
ENDBRANCH  11  12
ENDBRANCH   1  11
TORSDOF 1
ENDMDL
MODEL 7
REMARK VINA RESULT:    -3.029      3.129      5.155
REMARK INTER + INTRA:          -4.943
REMARK INTER:                  -4.781
REMARK INTRA:                  -0.161
REMARK UNBOUND:                -0.320
REMARK SMILES CC1=CCC[C@H](C)C(=O)C[C@@H](C(C)C)C(=O)C1
REMARK SMILES IDX 8 1 9 2 6 3 7 4 5 5 4 6 3 7 2 8 1 9 10 11 11 12 15 13 16 14
REMARK SMILES IDX 17 15 12 17 13 18 14 19
REMARK H PARENT
REMARK Flexibility Score: 70.00
ROOT
ATOM      1  C   UNL     1      -9.644   6.158  52.614  1.00  0.00     0.136 C 
ATOM      2  O   UNL     1     -10.051   6.254  51.465  1.00  0.00    -0.299 OA
ENDROOT
BRANCH   1   3
ATOM      3  C   UNL     1     -10.620   6.477  53.739  1.00  0.00     0.053 C 
ATOM      4  C   UNL     1     -11.737   5.434  53.921  1.00  0.00     0.016 C 
BRANCH   3   5
ATOM      5  C   UNL     1      -9.847   6.912  55.023  1.00  0.00     0.015 C 
BRANCH   5   6
ATOM      6  C   UNL     1      -9.901   6.027  56.286  1.00  0.00     0.028 C 
BRANCH   6   7
ATOM      7  C   UNL     1      -8.697   6.023  57.203  1.00  0.00    -0.028 C 
ATOM      8  C   UNL     1      -7.579   5.269  57.074  1.00  0.00    -0.070 CG0
ATOM      9  C   UNL     1      -6.427   5.544  58.009  1.00  0.00     0.039 C 
ATOM     10  G   UNL     1      -7.472   4.092  56.128  1.00  0.00     0.000 G0
ENDBRANCH   6   7
ENDBRANCH   5   6
ENDBRANCH   3   5
ENDBRANCH   1   3
BRANCH   1  11
ATOM     11  C   UNL     1      -8.194   5.765  52.818  1.00  0.00     0.087 C 
BRANCH  11  12
ATOM     12  C   UNL     1      -7.993   4.390  53.515  1.00  0.00     0.066 C 
BRANCH  12  13
ATOM     13  C   UNL     1      -7.048   4.454  54.716  1.00  0.00     0.140 C 
ATOM     14  O   UNL     1      -5.892   4.811  54.540  1.00  0.00    -0.299 OA
BRANCH  13  15
ATOM     15  C   UNL     1      -7.466   4.078  56.129  1.00  0.00     0.106 CG0
ATOM     16  G   UNL     1      -7.579   5.262  57.066  1.00  0.00     0.000 G0
ENDBRANCH  13  15
ENDBRANCH  12  13
BRANCH  12  17
ATOM     17  C   UNL     1      -7.591   3.237  52.543  1.00  0.00    -0.006 C 
ATOM     18  C   UNL     1      -8.360   1.941  52.848  1.00  0.00     0.008 C 
ATOM     19  C   UNL     1      -7.718   3.583  51.049  1.00  0.00     0.008 C 
ENDBRANCH  12  17
ENDBRANCH  11  12
ENDBRANCH   1  11
TORSDOF 1
ENDMDL
MODEL 8
REMARK VINA RESULT:    -2.986      3.221      5.005
REMARK INTER + INTRA:          -4.877
REMARK INTER:                  -4.677
REMARK INTRA:                  -0.200
REMARK UNBOUND:                -0.320
REMARK SMILES CC1=CCC[C@H](C)C(=O)C[C@@H](C(C)C)C(=O)C1
REMARK SMILES IDX 8 1 9 2 6 3 7 4 5 5 4 6 3 7 2 8 1 9 10 11 11 12 15 13 16 14
REMARK SMILES IDX 17 15 12 17 13 18 14 19
REMARK H PARENT
REMARK Flexibility Score: 70.00
ROOT
ATOM      1  C   UNL     1      -6.533   5.364  57.942  1.00  0.00     0.136 C 
ATOM      2  O   UNL     1      -5.749   4.783  58.679  1.00  0.00    -0.299 OA
ENDROOT
BRANCH   1   3
ATOM      3  C   UNL     1      -6.273   5.303  56.444  1.00  0.00     0.053 C 
ATOM      4  C   UNL     1      -6.108   3.878  55.888  1.00  0.00     0.016 C 
BRANCH   3   5
ATOM      5  C   UNL     1      -7.256   6.247  55.683  1.00  0.00     0.015 C 
BRANCH   5   6
ATOM      6  C   UNL     1      -8.592   5.688  55.146  1.00  0.00     0.028 C 
BRANCH   6   7
ATOM      7  C   UNL     1      -9.862   6.440  55.482  1.00  0.00    -0.028 C 
ATOM      8  C   UNL     1     -10.659   6.249  56.560  1.00  0.00    -0.070 CG0
ATOM      9  C   UNL     1     -11.789   7.223  56.787  1.00  0.00     0.039 C 
ATOM     10  G   UNL     1     -10.552   5.046  57.473  1.00  0.00     0.000 G0
ENDBRANCH   6   7
ENDBRANCH   5   6
ENDBRANCH   3   5
ENDBRANCH   1   3
BRANCH   1  11
ATOM     11  C   UNL     1      -7.675   6.124  58.588  1.00  0.00     0.087 C 
BRANCH  11  12
ATOM     12  C   UNL     1      -8.674   5.233  59.379  1.00  0.00     0.066 C 
BRANCH  12  13
ATOM     13  C   UNL     1     -10.119   5.368  58.893  1.00  0.00     0.140 C 
ATOM     14  O   UNL     1     -10.974   5.747  59.680  1.00  0.00    -0.299 OA
BRANCH  13  15
ATOM     15  C   UNL     1     -10.558   5.036  57.476  1.00  0.00     0.106 CG0
ATOM     16  G   UNL     1     -10.649   6.244  56.568  1.00  0.00     0.000 G0
ENDBRANCH  13  15
ENDBRANCH  12  13
BRANCH  12  17
ATOM     17  C   UNL     1      -8.584   5.396  60.928  1.00  0.00    -0.006 C 
ATOM     18  C   UNL     1      -7.753   4.274  61.571  1.00  0.00     0.008 C 
ATOM     19  C   UNL     1      -8.067   6.767  61.400  1.00  0.00     0.008 C 
ENDBRANCH  12  17
ENDBRANCH  11  12
ENDBRANCH   1  11
TORSDOF 1
ENDMDL
MODEL 9
REMARK VINA RESULT:    -2.984      2.469      5.188
REMARK INTER + INTRA:          -4.874
REMARK INTER:                  -4.550
REMARK INTRA:                  -0.324
REMARK UNBOUND:                -0.320
REMARK SMILES CC1=CCC[C@H](C)C(=O)C[C@@H](C(C)C)C(=O)C1
REMARK SMILES IDX 8 1 9 2 6 3 7 4 5 5 4 6 3 7 2 8 1 9 10 11 11 12 15 13 16 14
REMARK SMILES IDX 17 15 12 17 13 18 14 19
REMARK H PARENT
REMARK Flexibility Score: 70.00
ROOT
ATOM      1  C   UNL     1      -5.843   4.877  58.922  1.00  0.00     0.136 C 
ATOM      2  O   UNL     1      -4.735   5.351  58.716  1.00  0.00    -0.299 OA
ENDROOT
BRANCH   1   3
ATOM      3  C   UNL     1      -5.940   3.372  59.134  1.00  0.00     0.053 C 
ATOM      4  C   UNL     1      -6.888   2.954  60.271  1.00  0.00     0.016 C 
BRANCH   3   5
ATOM      5  C   UNL     1      -6.115   2.641  57.765  1.00  0.00     0.015 C 
BRANCH   5   6
ATOM      6  C   UNL     1      -5.543   3.277  56.480  1.00  0.00     0.028 C 
BRANCH   6   7
ATOM      7  C   UNL     1      -6.474   3.448  55.299  1.00  0.00    -0.028 C 
ATOM      8  C   UNL     1      -7.021   4.605  54.856  1.00  0.00    -0.070 CG0
ATOM      9  C   UNL     1      -7.790   4.573  53.558  1.00  0.00     0.039 C 
ATOM     10  G   UNL     1      -7.006   5.893  55.651  1.00  0.00     0.000 G0
ENDBRANCH   6   7
ENDBRANCH   5   6
ENDBRANCH   3   5
ENDBRANCH   1   3
BRANCH   1  11
ATOM     11  C   UNL     1      -7.027   5.824  58.913  1.00  0.00     0.087 C 
BRANCH  11  12
ATOM     12  C   UNL     1      -8.197   5.381  57.990  1.00  0.00     0.066 C 
BRANCH  12  13
ATOM     13  C   UNL     1      -8.166   6.047  56.613  1.00  0.00     0.140 C 
ATOM     14  O   UNL     1      -9.123   6.722  56.261  1.00  0.00    -0.299 OA
BRANCH  13  15
ATOM     15  C   UNL     1      -7.005   5.902  55.642  1.00  0.00     0.106 CG0
ATOM     16  G   UNL     1      -7.032   4.611  54.850  1.00  0.00     0.000 G0
ENDBRANCH  13  15
ENDBRANCH  12  13
BRANCH  12  17
ATOM     17  C   UNL     1      -9.608   5.510  58.645  1.00  0.00    -0.006 C 
ATOM     18  C   UNL     1     -10.201   4.135  58.992  1.00  0.00     0.008 C 
ATOM     19  C   UNL     1      -9.662   6.431  59.878  1.00  0.00     0.008 C 
ENDBRANCH  12  17
ENDBRANCH  11  12
ENDBRANCH   1  11
TORSDOF 1
ENDMDL
