MODEL 1
REMARK VINA RESULT:    -3.737      0.000      0.000
REMARK INTER + INTRA:          -4.856
REMARK INTER:                  -4.611
REMARK INTRA:                  -0.245
REMARK UNBOUND:                -0.245
REMARK SMILES CCCCCC(=O)[O-]
REMARK SMILES IDX 4 1 5 2 6 3 7 4 8 5 3 6 2 7 1 8
REMARK H PARENT
REMARK Flexibility Score: inf
ROOT
ATOM      1  C   UNL     1      12.719  13.339  69.330  1.00  0.00     0.006 C 
ENDROOT
BRANCH   1   2
ATOM      2  C   UNL     1      11.299  13.496  69.882  1.00  0.00     0.053 C 
BRANCH   2   3
ATOM      3  C   UNL     1      11.335  13.723  71.359  1.00  0.00     0.041 C 
ATOM      4  O   UNL     1      11.023  12.794  72.151  1.00  0.00    -0.550 OA
ATOM      5  O   UNL     1      11.665  14.974  71.864  1.00  0.00    -0.550 OA
ENDBRANCH   2   3
ENDBRANCH   1   2
BRANCH   1   6
ATOM      6  C   UNL     1      13.168  14.609  68.597  1.00  0.00     0.000 C 
BRANCH   6   7
ATOM      7  C   UNL     1      14.181  15.398  69.434  1.00  0.00    -0.003 C 
ATOM      8  C   UNL     1      15.058  14.464  70.263  1.00  0.00     0.004 C 
ENDBRANCH   6   7
ENDBRANCH   1   6
TORSDOF 4
ENDMDL
MODEL 2
REMARK VINA RESULT:    -3.711      1.225      1.749
REMARK INTER + INTRA:          -4.824
REMARK INTER:                  -4.645
REMARK INTRA:                  -0.179
REMARK UNBOUND:                -0.245
REMARK SMILES CCCCCC(=O)[O-]
REMARK SMILES IDX 4 1 5 2 6 3 7 4 8 5 3 6 2 7 1 8
REMARK H PARENT
REMARK Flexibility Score: inf
ROOT
ATOM      1  C   UNL     1      13.023  14.702  68.704  1.00  0.00     0.006 C 
ENDROOT
BRANCH   1   2
ATOM      2  C   UNL     1      12.574  13.341  69.243  1.00  0.00     0.053 C 
BRANCH   2   3
ATOM      3  C   UNL     1      11.317  13.485  70.041  1.00  0.00     0.041 C 
ATOM      4  O   UNL     1      10.216  13.680  69.461  1.00  0.00    -0.550 OA
ATOM      5  O   UNL     1      11.366  13.450  71.429  1.00  0.00    -0.550 OA
ENDBRANCH   2   3
ENDBRANCH   1   2
BRANCH   1   6
ATOM      6  C   UNL     1      14.054  15.350  69.635  1.00  0.00     0.000 C 
BRANCH   6   7
ATOM      7  C   UNL     1      14.982  14.294  70.248  1.00  0.00    -0.003 C 
ATOM      8  C   UNL     1      16.434  14.537  69.847  1.00  0.00     0.004 C 
ENDBRANCH   6   7
ENDBRANCH   1   6
TORSDOF 4
ENDMDL
MODEL 3
REMARK VINA RESULT:    -3.692      1.609      2.002
REMARK INTER + INTRA:          -4.801
REMARK INTER:                  -4.591
REMARK INTRA:                  -0.210
REMARK UNBOUND:                -0.245
REMARK SMILES CCCCCC(=O)[O-]
REMARK SMILES IDX 4 1 5 2 6 3 7 4 8 5 3 6 2 7 1 8
REMARK H PARENT
REMARK Flexibility Score: inf
ROOT
ATOM      1  C   UNL     1      13.448  13.572  69.557  1.00  0.00     0.006 C 
ENDROOT
BRANCH   1   2
ATOM      2  C   UNL     1      12.181  13.023  68.893  1.00  0.00     0.053 C 
BRANCH   2   3
ATOM      3  C   UNL     1      10.980  13.321  69.733  1.00  0.00     0.041 C 
ATOM      4  O   UNL     1      11.084  13.388  70.987  1.00  0.00    -0.550 OA
ATOM      5  O   UNL     1       9.736  13.479  69.137  1.00  0.00    -0.550 OA
ENDBRANCH   2   3
ENDBRANCH   1   2
BRANCH   1   6
ATOM      6  C   UNL     1      13.747  14.998  69.077  1.00  0.00     0.000 C 
BRANCH   6   7
ATOM      7  C   UNL     1      14.127  15.905  70.253  1.00  0.00    -0.003 C 
ATOM      8  C   UNL     1      12.919  16.688  70.758  1.00  0.00     0.004 C 
ENDBRANCH   6   7
ENDBRANCH   1   6
TORSDOF 4
ENDMDL
MODEL 4
REMARK VINA RESULT:    -3.659      2.315      3.971
REMARK INTER + INTRA:          -4.760
REMARK INTER:                  -4.573
REMARK INTRA:                  -0.186
REMARK UNBOUND:                -0.245
REMARK SMILES CCCCCC(=O)[O-]
REMARK SMILES IDX 4 1 5 2 6 3 7 4 8 5 3 6 2 7 1 8
REMARK H PARENT
REMARK Flexibility Score: inf
ROOT
ATOM      1  C   UNL     1      11.871  13.581  70.310  1.00  0.00     0.006 C 
ENDROOT
BRANCH   1   2
ATOM      2  C   UNL     1      13.125  13.506  69.434  1.00  0.00     0.053 C 
BRANCH   2   3
ATOM      3  C   UNL     1      13.634  14.879  69.131  1.00  0.00     0.041 C 
ATOM      4  O   UNL     1      13.536  15.349  67.966  1.00  0.00    -0.550 OA
ATOM      5  O   UNL     1      14.260  15.624  70.122  1.00  0.00    -0.550 OA
ENDBRANCH   2   3
ENDBRANCH   1   2
BRANCH   1   6
ATOM      6  C   UNL     1      10.606  13.700  69.450  1.00  0.00     0.000 C 
BRANCH   6   7
ATOM      7  C   UNL     1      10.665  12.747  68.251  1.00  0.00    -0.003 C 
ATOM      8  C   UNL     1       9.760  11.538  68.463  1.00  0.00     0.004 C 
ENDBRANCH   6   7
ENDBRANCH   1   6
TORSDOF 4
ENDMDL
MODEL 5
REMARK VINA RESULT:    -3.652      2.418      3.953
REMARK INTER + INTRA:          -4.751
REMARK INTER:                  -4.604
REMARK INTRA:                  -0.147
REMARK UNBOUND:                -0.245
REMARK SMILES CCCCCC(=O)[O-]
REMARK SMILES IDX 4 1 5 2 6 3 7 4 8 5 3 6 2 7 1 8
REMARK H PARENT
REMARK Flexibility Score: inf
ROOT
ATOM      1  C   UNL     1      12.165  13.121  68.841  1.00  0.00     0.006 C 
ENDROOT
BRANCH   1   2
ATOM      2  C   UNL     1      13.418  13.602  69.580  1.00  0.00     0.053 C 
BRANCH   2   3
ATOM      3  C   UNL     1      13.773  14.992  69.157  1.00  0.00     0.041 C 
ATOM      4  O   UNL     1      13.425  15.419  68.024  1.00  0.00    -0.550 OA
ATOM      5  O   UNL     1      14.530  15.802  69.994  1.00  0.00    -0.550 OA
ENDBRANCH   2   3
ENDBRANCH   1   2
BRANCH   1   6
ATOM      6  C   UNL     1      10.899  13.422  69.652  1.00  0.00     0.000 C 
BRANCH   6   7
ATOM      7  C   UNL     1       9.722  13.759  68.730  1.00  0.00    -0.003 C 
ATOM      8  C   UNL     1       9.433  15.257  68.730  1.00  0.00     0.004 C 
ENDBRANCH   6   7
ENDBRANCH   1   6
TORSDOF 4
ENDMDL
MODEL 6
REMARK VINA RESULT:    -3.643      2.283      3.621
REMARK INTER + INTRA:          -4.740
REMARK INTER:                  -4.545
REMARK INTRA:                  -0.195
REMARK UNBOUND:                -0.245
REMARK SMILES CCCCCC(=O)[O-]
REMARK SMILES IDX 4 1 5 2 6 3 7 4 8 5 3 6 2 7 1 8
REMARK H PARENT
REMARK Flexibility Score: inf
ROOT
ATOM      1  C   UNL     1      12.020  13.186  68.973  1.00  0.00     0.006 C 
ENDROOT
BRANCH   1   2
ATOM      2  C   UNL     1      13.401  13.554  69.525  1.00  0.00     0.053 C 
BRANCH   2   3
ATOM      3  C   UNL     1      13.793  14.927  69.078  1.00  0.00     0.041 C 
ATOM      4  O   UNL     1      14.349  15.721  69.883  1.00  0.00    -0.550 OA
ATOM      5  O   UNL     1      13.501  15.349  67.788  1.00  0.00    -0.550 OA
ENDBRANCH   2   3
ENDBRANCH   1   2
BRANCH   1   6
ATOM      6  C   UNL     1      10.907  13.681  69.904  1.00  0.00     0.000 C 
BRANCH   6   7
ATOM      7  C   UNL     1      11.280  13.462  71.374  1.00  0.00    -0.003 C 
ATOM      8  C   UNL     1      11.213  14.767  72.161  1.00  0.00     0.004 C 
ENDBRANCH   6   7
ENDBRANCH   1   6
TORSDOF 4
ENDMDL
MODEL 7
REMARK VINA RESULT:    -3.602      2.073      2.423
REMARK INTER + INTRA:          -4.689
REMARK INTER:                  -4.548
REMARK INTRA:                  -0.141
REMARK UNBOUND:                -0.245
REMARK SMILES CCCCCC(=O)[O-]
REMARK SMILES IDX 4 1 5 2 6 3 7 4 8 5 3 6 2 7 1 8
REMARK H PARENT
REMARK Flexibility Score: inf
ROOT
ATOM      1  C   UNL     1      12.789  13.409  69.147  1.00  0.00     0.006 C 
ENDROOT
BRANCH   1   2
ATOM      2  C   UNL     1      11.443  13.513  69.871  1.00  0.00     0.053 C 
BRANCH   2   3
ATOM      3  C   UNL     1      10.318  13.498  68.886  1.00  0.00     0.041 C 
ATOM      4  O   UNL     1       9.472  14.432  68.875  1.00  0.00    -0.550 OA
ATOM      5  O   UNL     1      10.173  12.430  68.010  1.00  0.00    -0.550 OA
ENDBRANCH   2   3
ENDBRANCH   1   2
BRANCH   1   6
ATOM      6  C   UNL     1      13.302  14.795  68.739  1.00  0.00     0.000 C 
BRANCH   6   7
ATOM      7  C   UNL     1      14.165  15.410  69.848  1.00  0.00    -0.003 C 
ATOM      8  C   UNL     1      15.339  14.501  70.201  1.00  0.00     0.004 C 
ENDBRANCH   6   7
ENDBRANCH   1   6
TORSDOF 4
ENDMDL
MODEL 8
REMARK VINA RESULT:    -3.594      3.031      3.423
REMARK INTER + INTRA:          -4.679
REMARK INTER:                  -4.474
REMARK INTRA:                  -0.205
REMARK UNBOUND:                -0.245
REMARK SMILES CCCCCC(=O)[O-]
REMARK SMILES IDX 4 1 5 2 6 3 7 4 8 5 3 6 2 7 1 8
REMARK H PARENT
REMARK Flexibility Score: inf
ROOT
ATOM      1  C   UNL     1      12.435  13.505  68.766  1.00  0.00     0.006 C 
ENDROOT
BRANCH   1   2
ATOM      2  C   UNL     1      11.514  14.591  68.202  1.00  0.00     0.053 C 
BRANCH   2   3
ATOM      3  C   UNL     1      12.312  15.631  67.482  1.00  0.00     0.041 C 
ATOM      4  O   UNL     1      13.470  15.366  67.065  1.00  0.00    -0.550 OA
ATOM      5  O   UNL     1      11.797  16.910  67.313  1.00  0.00    -0.550 OA
ENDBRANCH   2   3
ENDBRANCH   1   2
BRANCH   1   6
ATOM      6  C   UNL     1      12.944  13.886  70.161  1.00  0.00     0.000 C 
BRANCH   6   7
ATOM      7  C   UNL     1      14.477  13.921  70.197  1.00  0.00    -0.003 C 
ATOM      8  C   UNL     1      14.997  15.353  70.120  1.00  0.00     0.004 C 
ENDBRANCH   6   7
ENDBRANCH   1   6
TORSDOF 4
ENDMDL
MODEL 9
REMARK VINA RESULT:    -3.466      1.903      3.158
REMARK INTER + INTRA:          -4.522
REMARK INTER:                  -4.369
REMARK INTRA:                  -0.153
REMARK UNBOUND:                -0.245
REMARK SMILES CCCCCC(=O)[O-]
REMARK SMILES IDX 4 1 5 2 6 3 7 4 8 5 3 6 2 7 1 8
REMARK H PARENT
REMARK Flexibility Score: inf
ROOT
ATOM      1  C   UNL     1      12.308  13.494  69.873  1.00  0.00     0.006 C 
ENDROOT
BRANCH   1   2
ATOM      2  C   UNL     1      11.297  13.630  71.016  1.00  0.00     0.053 C 
BRANCH   2   3
ATOM      3  C   UNL     1      11.385  14.990  71.632  1.00  0.00     0.041 C 
ATOM      4  O   UNL     1      10.860  15.213  72.756  1.00  0.00    -0.550 OA
ATOM      5  O   UNL     1      12.006  16.026  70.946  1.00  0.00    -0.550 OA
ENDBRANCH   2   3
ENDBRANCH   1   2
BRANCH   1   6
ATOM      6  C   UNL     1      11.600  13.200  68.545  1.00  0.00     0.000 C 
BRANCH   6   7
ATOM      7  C   UNL     1      10.103  12.948  68.764  1.00  0.00    -0.003 C 
ATOM      8  C   UNL     1       9.732  11.508  68.425  1.00  0.00     0.004 C 
ENDBRANCH   6   7
ENDBRANCH   1   6
TORSDOF 4
ENDMDL
