MODEL 1
REMARK VINA RESULT:    -6.717      0.000      0.000
REMARK INTER + INTRA:          -7.207
REMARK INTER:                  -7.110
REMARK INTRA:                  -0.097
REMARK UNBOUND:                -0.097
REMARK SMILES C=C(C)[C@@H]1CC=C(C)C(=O)C1
REMARK SMILES IDX 8 1 7 2 6 3 5 4 4 5 11 6 9 7 10 8 2 9 1 10 3 11
REMARK H PARENT
REMARK Flexibility Score: inf
ROOT
ATOM      1  C   UNL     1      28.262  60.353 136.706  1.00  0.00     0.048 C 
ATOM      2  C   UNL     1      27.545  59.357 137.576  1.00  0.00    -0.012 C 
ATOM      3  C   UNL     1      27.192  58.162 137.073  1.00  0.00    -0.019 C 
ATOM      4  C   UNL     1      26.489  57.122 137.905  1.00  0.00     0.036 C 
ATOM      5  C   UNL     1      25.568  57.778 138.951  1.00  0.00     0.025 C 
ATOM      6  C   UNL     1      26.364  58.775 139.814  1.00  0.00     0.089 C 
ATOM      7  C   UNL     1      27.117  59.744 138.944  1.00  0.00     0.158 C 
ATOM      8  O   UNL     1      27.416  60.879 139.405  1.00  0.00    -0.295 OA
ENDROOT
BRANCH   5   9
ATOM      9  C   UNL     1      24.867  56.735 139.810  1.00  0.00    -0.077 C 
ATOM     10  C   UNL     1      25.428  56.320 140.957  1.00  0.00     0.008 C 
ATOM     11  C   UNL     1      23.540  56.144 139.402  1.00  0.00     0.039 C 
ENDBRANCH   5   9
TORSDOF 1
ENDMDL
MODEL 2
REMARK VINA RESULT:    -6.190      2.328      4.717
REMARK INTER + INTRA:          -6.650
REMARK INTER:                  -6.553
REMARK INTRA:                  -0.097
REMARK UNBOUND:                -0.097
REMARK SMILES C=C(C)[C@@H]1CC=C(C)C(=O)C1
REMARK SMILES IDX 8 1 7 2 6 3 5 4 4 5 11 6 9 7 10 8 2 9 1 10 3 11
REMARK H PARENT
REMARK Flexibility Score: inf
ROOT
ATOM      1  C   UNL     1      24.320  54.735 139.743  1.00  0.00     0.048 C 
ATOM      2  C   UNL     1      25.297  55.848 139.480  1.00  0.00    -0.012 C 
ATOM      3  C   UNL     1      24.855  57.112 139.360  1.00  0.00    -0.019 C 
ATOM      4  C   UNL     1      25.791  58.265 139.115  1.00  0.00     0.036 C 
ATOM      5  C   UNL     1      26.999  57.828 138.267  1.00  0.00     0.025 C 
ATOM      6  C   UNL     1      27.709  56.630 138.926  1.00  0.00     0.089 C 
ATOM      7  C   UNL     1      26.726  55.534 139.230  1.00  0.00     0.158 C 
ATOM      8  O   UNL     1      27.137  54.344 139.306  1.00  0.00    -0.295 OA
ENDROOT
BRANCH   5   9
ATOM      9  C   UNL     1      27.962  58.983 138.030  1.00  0.00    -0.077 C 
ATOM     10  C   UNL     1      28.912  59.265 138.936  1.00  0.00     0.008 C 
ATOM     11  C   UNL     1      27.876  59.834 136.787  1.00  0.00     0.039 C 
ENDBRANCH   5   9
TORSDOF 1
ENDMDL
MODEL 3
REMARK VINA RESULT:    -6.087      3.810      4.317
REMARK INTER + INTRA:          -6.540
REMARK INTER:                  -6.442
REMARK INTRA:                  -0.098
REMARK UNBOUND:                -0.097
REMARK SMILES C=C(C)[C@@H]1CC=C(C)C(=O)C1
REMARK SMILES IDX 8 1 7 2 6 3 5 4 4 5 11 6 9 7 10 8 2 9 1 10 3 11
REMARK H PARENT
REMARK Flexibility Score: inf
ROOT
ATOM      1  C   UNL     1      31.213  57.728 139.363  1.00  0.00     0.048 C 
ATOM      2  C   UNL     1      30.155  57.542 140.415  1.00  0.00    -0.012 C 
ATOM      3  C   UNL     1      29.054  56.823 140.138  1.00  0.00    -0.019 C 
ATOM      4  C   UNL     1      27.974  56.591 141.161  1.00  0.00     0.036 C 
ATOM      5  C   UNL     1      27.843  57.795 142.112  1.00  0.00     0.025 C 
ATOM      6  C   UNL     1      29.201  58.114 142.762  1.00  0.00     0.089 C 
ATOM      7  C   UNL     1      30.269  58.256 141.712  1.00  0.00     0.158 C 
ATOM      8  O   UNL     1      31.284  58.962 141.961  1.00  0.00    -0.295 OA
ENDROOT
BRANCH   5   9
ATOM      9  C   UNL     1      26.765  57.562 143.161  1.00  0.00    -0.077 C 
ATOM     10  C   UNL     1      25.977  56.477 143.089  1.00  0.00     0.008 C 
ATOM     11  C   UNL     1      26.552  58.531 144.298  1.00  0.00     0.039 C 
ENDBRANCH   5   9
TORSDOF 1
ENDMDL
MODEL 4
REMARK VINA RESULT:    -6.022      2.717      4.577
REMARK INTER + INTRA:          -6.471
REMARK INTER:                  -6.378
REMARK INTRA:                  -0.093
REMARK UNBOUND:                -0.097
REMARK SMILES C=C(C)[C@@H]1CC=C(C)C(=O)C1
REMARK SMILES IDX 8 1 7 2 6 3 5 4 4 5 11 6 9 7 10 8 2 9 1 10 3 11
REMARK H PARENT
REMARK Flexibility Score: inf
ROOT
ATOM      1  C   UNL     1      23.926  56.530 139.368  1.00  0.00     0.048 C 
ATOM      2  C   UNL     1      25.344  56.662 139.849  1.00  0.00    -0.012 C 
ATOM      3  C   UNL     1      25.621  56.536 141.158  1.00  0.00    -0.019 C 
ATOM      4  C   UNL     1      27.026  56.641 141.690  1.00  0.00     0.036 C 
ATOM      5  C   UNL     1      27.863  57.629 140.856  1.00  0.00     0.025 C 
ATOM      6  C   UNL     1      27.831  57.232 139.368  1.00  0.00     0.089 C 
ATOM      7  C   UNL     1      26.414  57.056 138.897  1.00  0.00     0.158 C 
ATOM      8  O   UNL     1      26.149  57.212 137.674  1.00  0.00    -0.295 OA
ENDROOT
BRANCH   5   9
ATOM      9  C   UNL     1      29.290  57.728 141.375  1.00  0.00    -0.077 C 
ATOM     10  C   UNL     1      29.522  58.135 142.633  1.00  0.00     0.008 C 
ATOM     11  C   UNL     1      30.470  57.379 140.502  1.00  0.00     0.039 C 
ENDBRANCH   5   9
TORSDOF 1
ENDMDL
MODEL 5
REMARK VINA RESULT:    -6.001      1.845      4.407
REMARK INTER + INTRA:          -6.450
REMARK INTER:                  -6.355
REMARK INTRA:                  -0.095
REMARK UNBOUND:                -0.097
REMARK SMILES C=C(C)[C@@H]1CC=C(C)C(=O)C1
REMARK SMILES IDX 8 1 7 2 6 3 5 4 4 5 11 6 9 7 10 8 2 9 1 10 3 11
REMARK H PARENT
REMARK Flexibility Score: inf
ROOT
ATOM      1  C   UNL     1      25.943  56.666 143.528  1.00  0.00     0.048 C 
ATOM      2  C   UNL     1      26.136  57.236 142.150  1.00  0.00    -0.012 C 
ATOM      3  C   UNL     1      25.502  56.683 141.102  1.00  0.00    -0.019 C 
ATOM      4  C   UNL     1      25.646  57.226 139.705  1.00  0.00     0.036 C 
ATOM      5  C   UNL     1      27.049  57.821 139.483  1.00  0.00     0.025 C 
ATOM      6  C   UNL     1      27.355  58.883 140.555  1.00  0.00     0.089 C 
ATOM      7  C   UNL     1      27.120  58.326 141.933  1.00  0.00     0.158 C 
ATOM      8  O   UNL     1      27.743  58.823 142.910  1.00  0.00    -0.295 OA
ENDROOT
BRANCH   5   9
ATOM      9  C   UNL     1      27.198  58.389 138.079  1.00  0.00    -0.077 C 
ATOM     10  C   UNL     1      26.814  57.666 137.015  1.00  0.00     0.008 C 
ATOM     11  C   UNL     1      27.775  59.764 137.844  1.00  0.00     0.039 C 
ENDBRANCH   5   9
TORSDOF 1
ENDMDL
MODEL 6
REMARK VINA RESULT:    -5.989      3.203      4.821
REMARK INTER + INTRA:          -6.437
REMARK INTER:                  -6.347
REMARK INTRA:                  -0.089
REMARK UNBOUND:                -0.097
REMARK SMILES C=C(C)[C@@H]1CC=C(C)C(=O)C1
REMARK SMILES IDX 8 1 7 2 6 3 5 4 4 5 11 6 9 7 10 8 2 9 1 10 3 11
REMARK H PARENT
REMARK Flexibility Score: inf
ROOT
ATOM      1  C   UNL     1      24.187  56.632 139.021  1.00  0.00     0.048 C 
ATOM      2  C   UNL     1      25.593  56.837 139.513  1.00  0.00    -0.012 C 
ATOM      3  C   UNL     1      26.024  58.076 139.810  1.00  0.00    -0.019 C 
ATOM      4  C   UNL     1      27.415  58.335 140.323  1.00  0.00     0.036 C 
ATOM      5  C   UNL     1      28.421  57.331 139.730  1.00  0.00     0.025 C 
ATOM      6  C   UNL     1      27.959  55.888 140.002  1.00  0.00     0.089 C 
ATOM      7  C   UNL     1      26.538  55.693 139.550  1.00  0.00     0.158 C 
ATOM      8  O   UNL     1      26.146  54.536 139.238  1.00  0.00    -0.295 OA
ENDROOT
BRANCH   5   9
ATOM      9  C   UNL     1      29.828  57.573 140.258  1.00  0.00    -0.077 C 
ATOM     10  C   UNL     1      30.888  57.415 139.449  1.00  0.00     0.008 C 
ATOM     11  C   UNL     1      30.070  57.991 141.688  1.00  0.00     0.039 C 
ENDBRANCH   5   9
TORSDOF 1
ENDMDL
MODEL 7
REMARK VINA RESULT:    -5.980      2.302      3.367
REMARK INTER + INTRA:          -6.427
REMARK INTER:                  -6.330
REMARK INTRA:                  -0.098
REMARK UNBOUND:                -0.097
REMARK SMILES C=C(C)[C@@H]1CC=C(C)C(=O)C1
REMARK SMILES IDX 8 1 7 2 6 3 5 4 4 5 11 6 9 7 10 8 2 9 1 10 3 11
REMARK H PARENT
REMARK Flexibility Score: inf
ROOT
ATOM      1  C   UNL     1      26.726  57.462 137.057  1.00  0.00     0.048 C 
ATOM      2  C   UNL     1      26.667  57.263 138.546  1.00  0.00    -0.012 C 
ATOM      3  C   UNL     1      25.477  57.199 139.167  1.00  0.00    -0.019 C 
ATOM      4  C   UNL     1      25.361  56.983 140.652  1.00  0.00     0.036 C 
ATOM      5  C   UNL     1      26.544  57.626 141.400  1.00  0.00     0.025 C 
ATOM      6  C   UNL     1      27.879  57.105 140.837  1.00  0.00     0.089 C 
ATOM      7  C   UNL     1      27.921  57.263 139.342  1.00  0.00     0.158 C 
ATOM      8  O   UNL     1      29.038  57.360 138.766  1.00  0.00    -0.295 OA
ENDROOT
BRANCH   5   9
ATOM      9  C   UNL     1      26.445  57.397 142.901  1.00  0.00    -0.077 C 
ATOM     10  C   UNL     1      25.975  56.232 143.376  1.00  0.00     0.008 C 
ATOM     11  C   UNL     1      26.866  58.458 143.888  1.00  0.00     0.039 C 
ENDBRANCH   5   9
TORSDOF 1
ENDMDL
MODEL 8
REMARK VINA RESULT:    -5.897      3.578      4.398
REMARK INTER + INTRA:          -6.339
REMARK INTER:                  -6.247
REMARK INTRA:                  -0.093
REMARK UNBOUND:                -0.097
REMARK SMILES C=C(C)[C@@H]1CC=C(C)C(=O)C1
REMARK SMILES IDX 8 1 7 2 6 3 5 4 4 5 11 6 9 7 10 8 2 9 1 10 3 11
REMARK H PARENT
REMARK Flexibility Score: inf
ROOT
ATOM      1  C   UNL     1      31.209  57.655 139.417  1.00  0.00     0.048 C 
ATOM      2  C   UNL     1      30.056  57.749 140.378  1.00  0.00    -0.012 C 
ATOM      3  C   UNL     1      30.279  58.090 141.658  1.00  0.00    -0.019 C 
ATOM      4  C   UNL     1      29.159  58.216 142.657  1.00  0.00     0.036 C 
ATOM      5  C   UNL     1      28.027  57.219 142.350  1.00  0.00     0.025 C 
ATOM      6  C   UNL     1      27.538  57.395 140.901  1.00  0.00     0.089 C 
ATOM      7  C   UNL     1      28.696  57.345 139.942  1.00  0.00     0.158 C 
ATOM      8  O   UNL     1      28.491  56.990 138.749  1.00  0.00    -0.295 OA
ENDROOT
BRANCH   5   9
ATOM      9  C   UNL     1      26.881  57.352 143.343  1.00  0.00    -0.077 C 
ATOM     10  C   UNL     1      25.957  56.383 143.440  1.00  0.00     0.008 C 
ATOM     11  C   UNL     1      26.751  58.562 144.236  1.00  0.00     0.039 C 
ENDBRANCH   5   9
TORSDOF 1
ENDMDL
MODEL 9
REMARK VINA RESULT:    -5.757      1.975      2.929
REMARK INTER + INTRA:          -6.191
REMARK INTER:                  -6.092
REMARK INTRA:                  -0.098
REMARK UNBOUND:                -0.097
REMARK SMILES C=C(C)[C@@H]1CC=C(C)C(=O)C1
REMARK SMILES IDX 8 1 7 2 6 3 5 4 4 5 11 6 9 7 10 8 2 9 1 10 3 11
REMARK H PARENT
REMARK Flexibility Score: inf
ROOT
ATOM      1  C   UNL     1      27.883  59.987 136.740  1.00  0.00     0.048 C 
ATOM      2  C   UNL     1      27.395  59.471 138.065  1.00  0.00    -0.012 C 
ATOM      3  C   UNL     1      27.592  60.197 139.180  1.00  0.00    -0.019 C 
ATOM      4  C   UNL     1      27.108  59.735 140.529  1.00  0.00     0.036 C 
ATOM      5  C   UNL     1      27.148  58.200 140.637  1.00  0.00     0.025 C 
ATOM      6  C   UNL     1      26.354  57.562 139.483  1.00  0.00     0.089 C 
ATOM      7  C   UNL     1      26.811  58.110 138.159  1.00  0.00     0.158 C 
ATOM      8  O   UNL     1      26.658  57.412 137.120  1.00  0.00    -0.295 OA
ENDROOT
BRANCH   5   9
ATOM      9  C   UNL     1      26.643  57.723 141.991  1.00  0.00    -0.077 C 
ATOM     10  C   UNL     1      25.838  56.650 142.070  1.00  0.00     0.008 C 
ATOM     11  C   UNL     1      27.024  58.432 143.267  1.00  0.00     0.039 C 
ENDBRANCH   5   9
TORSDOF 1
ENDMDL
