MODEL 1
REMARK VINA RESULT:    -4.781      0.000      0.000
REMARK INTER + INTRA:          -5.200
REMARK INTER:                  -5.200
REMARK INTRA:                   0.000
REMARK UNBOUND:                 0.000
REMARK SMILES Oc1cccc(O)c1O
REMARK SMILES IDX 4 1 5 2 6 3 8 4 2 5 3 6 7 7 1 9 9 11
REMARK H PARENT 7 8 1 10 9 12
REMARK Flexibility Score: inf
ROOT
ATOM      1  C   UNL     1      25.078  58.025  59.727  1.00  0.00     0.008 A 
ATOM      2  C   UNL     1      23.933  57.226  59.720  1.00  0.00     0.050 A 
ATOM      3  C   UNL     1      22.691  57.776  59.369  1.00  0.00     0.161 A 
ATOM      4  C   UNL     1      22.600  59.132  59.022  1.00  0.00     0.200 A 
ATOM      5  C   UNL     1      23.755  59.936  59.028  1.00  0.00     0.161 A 
ATOM      6  C   UNL     1      24.991  59.376  59.382  1.00  0.00     0.050 A 
ENDROOT
BRANCH   3   7
ATOM      7  O   UNL     1      21.546  56.982  59.361  1.00  0.00    -0.504 OA
ATOM      8  H   UNL     1      21.425  56.233  58.689  1.00  0.00     0.293 HD
ENDBRANCH   3   7
BRANCH   5   9
ATOM      9  O   UNL     1      23.670  61.284  58.685  1.00  0.00    -0.504 OA
ATOM     10  H   UNL     1      24.045  62.010  59.285  1.00  0.00     0.293 HD
ENDBRANCH   5   9
BRANCH   4  11
ATOM     11  O   UNL     1      21.358  59.664  58.673  1.00  0.00    -0.502 OA
ATOM     12  H   UNL     1      20.732  60.064  59.361  1.00  0.00     0.293 HD
ENDBRANCH   4  11
TORSDOF 3
ENDMDL
MODEL 2
REMARK VINA RESULT:    -4.764      0.057      2.799
REMARK INTER + INTRA:          -5.181
REMARK INTER:                  -5.181
REMARK INTRA:                   0.000
REMARK UNBOUND:                 0.000
REMARK SMILES Oc1cccc(O)c1O
REMARK SMILES IDX 4 1 5 2 6 3 8 4 2 5 3 6 7 7 1 9 9 11
REMARK H PARENT 7 8 1 10 9 12
REMARK Flexibility Score: inf
ROOT
ATOM      1  C   UNL     1      25.073  58.002  59.741  1.00  0.00     0.008 A 
ATOM      2  C   UNL     1      24.966  59.355  59.410  1.00  0.00     0.050 A 
ATOM      3  C   UNL     1      23.721  59.899  59.062  1.00  0.00     0.161 A 
ATOM      4  C   UNL     1      22.580  59.083  59.046  1.00  0.00     0.200 A 
ATOM      5  C   UNL     1      22.689  57.720  59.381  1.00  0.00     0.161 A 
ATOM      6  C   UNL     1      23.939  57.187  59.727  1.00  0.00     0.050 A 
ENDROOT
BRANCH   3   7
ATOM      7  O   UNL     1      23.610  61.248  58.731  1.00  0.00    -0.504 OA
ATOM      8  H   UNL     1      24.240  61.685  58.069  1.00  0.00     0.293 HD
ENDBRANCH   3   7
BRANCH   5   9
ATOM      9  O   UNL     1      21.559  56.905  59.367  1.00  0.00    -0.504 OA
ATOM     10  H   UNL     1      21.634  55.893  59.385  1.00  0.00     0.293 HD
ENDBRANCH   5   9
BRANCH   4  11
ATOM     11  O   UNL     1      21.349  59.640  58.699  1.00  0.00    -0.502 OA
ATOM     12  H   UNL     1      20.664  59.909  59.395  1.00  0.00     0.293 HD
ENDBRANCH   4  11
TORSDOF 3
ENDMDL
MODEL 3
REMARK VINA RESULT:    -4.512      1.539      2.718
REMARK INTER + INTRA:          -4.908
REMARK INTER:                  -4.908
REMARK INTRA:                   0.000
REMARK UNBOUND:                 0.000
REMARK SMILES Oc1cccc(O)c1O
REMARK SMILES IDX 4 1 5 2 6 3 8 4 2 5 3 6 7 7 1 9 9 11
REMARK H PARENT 7 8 1 10 9 12
REMARK Flexibility Score: inf
ROOT
ATOM      1  C   UNL     1      24.109  57.443  60.082  1.00  0.00     0.008 A 
ATOM      2  C   UNL     1      25.174  57.748  59.231  1.00  0.00     0.050 A 
ATOM      3  C   UNL     1      25.003  58.672  58.190  1.00  0.00     0.161 A 
ATOM      4  C   UNL     1      23.759  59.294  58.005  1.00  0.00     0.200 A 
ATOM      5  C   UNL     1      22.687  58.987  58.863  1.00  0.00     0.161 A 
ATOM      6  C   UNL     1      22.870  58.060  59.900  1.00  0.00     0.050 A 
ENDROOT
BRANCH   3   7
ATOM      7  O   UNL     1      26.062  58.979  57.339  1.00  0.00    -0.504 OA
ATOM      8  H   UNL     1      25.921  59.116  56.345  1.00  0.00     0.293 HD
ENDBRANCH   3   7
BRANCH   5   9
ATOM      9  O   UNL     1      21.449  59.600  58.683  1.00  0.00    -0.504 OA
ATOM     10  H   UNL     1      20.762  59.230  58.036  1.00  0.00     0.293 HD
ENDBRANCH   5   9
BRANCH   4  11
ATOM     11  O   UNL     1      23.605  60.212  56.966  1.00  0.00    -0.502 OA
ATOM     12  H   UNL     1      23.374  61.184  57.136  1.00  0.00     0.293 HD
ENDBRANCH   4  11
TORSDOF 3
ENDMDL
MODEL 4
REMARK VINA RESULT:    -4.376      1.717      2.564
REMARK INTER + INTRA:          -4.759
REMARK INTER:                  -4.759
REMARK INTRA:                   0.000
REMARK UNBOUND:                 0.000
REMARK SMILES Oc1cccc(O)c1O
REMARK SMILES IDX 4 1 5 2 6 3 8 4 2 5 3 6 7 7 1 9 9 11
REMARK H PARENT 7 8 1 10 9 12
REMARK Flexibility Score: inf
ROOT
ATOM      1  C   UNL     1      23.159  60.609  59.736  1.00  0.00     0.008 A 
ATOM      2  C   UNL     1      22.010  59.819  59.821  1.00  0.00     0.050 A 
ATOM      3  C   UNL     1      22.105  58.424  59.720  1.00  0.00     0.161 A 
ATOM      4  C   UNL     1      23.358  57.819  59.534  1.00  0.00     0.200 A 
ATOM      5  C   UNL     1      24.515  58.616  59.450  1.00  0.00     0.161 A 
ATOM      6  C   UNL     1      24.407  60.011  59.551  1.00  0.00     0.050 A 
ENDROOT
BRANCH   3   7
ATOM      7  O   UNL     1      20.962  57.632  59.803  1.00  0.00    -0.504 OA
ATOM      8  H   UNL     1      20.705  57.160  60.663  1.00  0.00     0.293 HD
ENDBRANCH   3   7
BRANCH   5   9
ATOM      9  O   UNL     1      25.761  58.022  59.266  1.00  0.00    -0.504 OA
ATOM     10  H   UNL     1      26.217  58.013  58.360  1.00  0.00     0.293 HD
ENDBRANCH   5   9
BRANCH   4  11
ATOM     11  O   UNL     1      23.436  56.430  59.437  1.00  0.00    -0.502 OA
ATOM     12  H   UNL     1      22.984  55.817  60.105  1.00  0.00     0.293 HD
ENDBRANCH   4  11
TORSDOF 3
ENDMDL
MODEL 5
REMARK VINA RESULT:    -4.349      1.997      3.108
REMARK INTER + INTRA:          -4.731
REMARK INTER:                  -4.731
REMARK INTRA:                   0.000
REMARK UNBOUND:                 0.000
REMARK SMILES Oc1cccc(O)c1O
REMARK SMILES IDX 4 1 5 2 6 3 8 4 2 5 3 6 7 7 1 9 9 11
REMARK H PARENT 7 8 1 10 9 12
REMARK Flexibility Score: inf
ROOT
ATOM      1  C   UNL     1      26.352  58.665  57.622  1.00  0.00     0.008 A 
ATOM      2  C   UNL     1      25.692  59.519  56.734  1.00  0.00     0.050 A 
ATOM      3  C   UNL     1      24.350  59.862  56.952  1.00  0.00     0.161 A 
ATOM      4  C   UNL     1      23.668  59.348  58.065  1.00  0.00     0.200 A 
ATOM      5  C   UNL     1      24.334  58.489  58.959  1.00  0.00     0.161 A 
ATOM      6  C   UNL     1      25.676  58.152  58.730  1.00  0.00     0.050 A 
ENDROOT
BRANCH   3   7
ATOM      7  O   UNL     1      23.689  60.713  56.069  1.00  0.00    -0.504 OA
ATOM      8  H   UNL     1      23.079  60.353  55.343  1.00  0.00     0.293 HD
ENDBRANCH   3   7
BRANCH   5   9
ATOM      9  O   UNL     1      23.662  57.975  60.066  1.00  0.00    -0.504 OA
ATOM     10  H   UNL     1      22.940  58.505  60.542  1.00  0.00     0.293 HD
ENDBRANCH   5   9
BRANCH   4  11
ATOM     11  O   UNL     1      22.334  59.700  58.269  1.00  0.00    -0.502 OA
ATOM     12  H   UNL     1      22.048  60.660  58.422  1.00  0.00     0.293 HD
ENDBRANCH   4  11
TORSDOF 3
ENDMDL
MODEL 6
REMARK VINA RESULT:    -4.333      1.147      2.776
REMARK INTER + INTRA:          -4.713
REMARK INTER:                  -4.713
REMARK INTRA:                   0.000
REMARK UNBOUND:                 0.000
REMARK SMILES Oc1cccc(O)c1O
REMARK SMILES IDX 4 1 5 2 6 3 8 4 2 5 3 6 7 7 1 9 9 11
REMARK H PARENT 7 8 1 10 9 12
REMARK Flexibility Score: inf
ROOT
ATOM      1  C   UNL     1      25.257  59.487  59.653  1.00  0.00     0.008 A 
ATOM      2  C   UNL     1      24.295  60.499  59.709  1.00  0.00     0.050 A 
ATOM      3  C   UNL     1      22.931  60.178  59.655  1.00  0.00     0.161 A 
ATOM      4  C   UNL     1      22.531  58.838  59.546  1.00  0.00     0.200 A 
ATOM      5  C   UNL     1      23.501  57.820  59.491  1.00  0.00     0.161 A 
ATOM      6  C   UNL     1      24.862  58.152  59.544  1.00  0.00     0.050 A 
ENDROOT
BRANCH   3   7
ATOM      7  O   UNL     1      21.968  61.184  59.710  1.00  0.00    -0.504 OA
ATOM      8  H   UNL     1      21.900  61.810  60.504  1.00  0.00     0.293 HD
ENDBRANCH   3   7
BRANCH   5   9
ATOM      9  O   UNL     1      23.110  56.487  59.382  1.00  0.00    -0.504 OA
ATOM     10  H   UNL     1      23.584  55.843  58.758  1.00  0.00     0.293 HD
ENDBRANCH   5   9
BRANCH   4  11
ATOM     11  O   UNL     1      21.170  58.535  59.495  1.00  0.00    -0.502 OA
ATOM     12  H   UNL     1      20.577  58.580  60.315  1.00  0.00     0.293 HD
ENDBRANCH   4  11
TORSDOF 3
ENDMDL
MODEL 7
REMARK VINA RESULT:    -4.293      1.330      2.721
REMARK INTER + INTRA:          -4.670
REMARK INTER:                  -4.670
REMARK INTRA:                   0.000
REMARK UNBOUND:                 0.000
REMARK SMILES Oc1cccc(O)c1O
REMARK SMILES IDX 4 1 5 2 6 3 8 4 2 5 3 6 7 7 1 9 9 11
REMARK H PARENT 7 8 1 10 9 12
REMARK Flexibility Score: inf
ROOT
ATOM      1  C   UNL     1      24.958  60.297  59.486  1.00  0.00     0.008 A 
ATOM      2  C   UNL     1      23.603  60.494  59.205  1.00  0.00     0.050 A 
ATOM      3  C   UNL     1      22.731  59.398  59.134  1.00  0.00     0.161 A 
ATOM      4  C   UNL     1      23.220  58.100  59.347  1.00  0.00     0.200 A 
ATOM      5  C   UNL     1      24.584  57.903  59.631  1.00  0.00     0.161 A 
ATOM      6  C   UNL     1      25.447  59.006  59.699  1.00  0.00     0.050 A 
ENDROOT
BRANCH   3   7
ATOM      7  O   UNL     1      21.380  59.590  58.853  1.00  0.00    -0.504 OA
ATOM      8  H   UNL     1      20.944  59.177  58.037  1.00  0.00     0.293 HD
ENDBRANCH   3   7
BRANCH   5   9
ATOM      9  O   UNL     1      25.074  56.616  59.843  1.00  0.00    -0.504 OA
ATOM     10  H   UNL     1      25.151  56.224  60.775  1.00  0.00     0.293 HD
ENDBRANCH   5   9
BRANCH   4  11
ATOM     11  O   UNL     1      22.339  57.021  59.274  1.00  0.00    -0.502 OA
ATOM     12  H   UNL     1      21.569  56.909  59.923  1.00  0.00     0.293 HD
ENDBRANCH   4  11
TORSDOF 3
ENDMDL
MODEL 8
REMARK VINA RESULT:    -4.284      1.348      2.386
REMARK INTER + INTRA:          -4.660
REMARK INTER:                  -4.660
REMARK INTRA:                   0.000
REMARK UNBOUND:                 0.000
REMARK SMILES Oc1cccc(O)c1O
REMARK SMILES IDX 4 1 5 2 6 3 8 4 2 5 3 6 7 7 1 9 9 11
REMARK H PARENT 7 8 1 10 9 12
REMARK Flexibility Score: inf
ROOT
ATOM      1  C   UNL     1      25.001  60.258  59.172  1.00  0.00     0.008 A 
ATOM      2  C   UNL     1      25.510  58.971  59.365  1.00  0.00     0.050 A 
ATOM      3  C   UNL     1      24.644  57.869  59.400  1.00  0.00     0.161 A 
ATOM      4  C   UNL     1      23.263  58.058  59.239  1.00  0.00     0.200 A 
ATOM      5  C   UNL     1      22.752  59.355  59.044  1.00  0.00     0.161 A 
ATOM      6  C   UNL     1      23.628  60.450  59.012  1.00  0.00     0.050 A 
ENDROOT
BRANCH   3   7
ATOM      7  O   UNL     1      25.148  56.584  59.592  1.00  0.00    -0.504 OA
ATOM      8  H   UNL     1      25.323  55.961  58.812  1.00  0.00     0.293 HD
ENDBRANCH   3   7
BRANCH   5   9
ATOM      9  O   UNL     1      21.382  59.549  58.884  1.00  0.00    -0.504 OA
ATOM     10  H   UNL     1      20.901  59.265  58.037  1.00  0.00     0.293 HD
ENDBRANCH   5   9
BRANCH   4  11
ATOM     11  O   UNL     1      22.416  56.951  59.274  1.00  0.00    -0.502 OA
ATOM     12  H   UNL     1      22.244  56.431  60.126  1.00  0.00     0.293 HD
ENDBRANCH   4  11
TORSDOF 3
ENDMDL
MODEL 9
REMARK VINA RESULT:    -3.939      2.157      3.518
REMARK INTER + INTRA:          -4.284
REMARK INTER:                  -4.284
REMARK INTRA:                   0.000
REMARK UNBOUND:                 0.000
REMARK SMILES Oc1cccc(O)c1O
REMARK SMILES IDX 4 1 5 2 6 3 8 4 2 5 3 6 7 7 1 9 9 11
REMARK H PARENT 7 8 1 10 9 12
REMARK Flexibility Score: inf
ROOT
ATOM      1  C   UNL     1      22.692  58.050  59.639  1.00  0.00     0.008 A 
ATOM      2  C   UNL     1      22.698  59.092  58.709  1.00  0.00     0.050 A 
ATOM      3  C   UNL     1      23.871  59.404  58.007  1.00  0.00     0.161 A 
ATOM      4  C   UNL     1      25.042  58.666  58.238  1.00  0.00     0.200 A 
ATOM      5  C   UNL     1      25.034  57.615  59.174  1.00  0.00     0.161 A 
ATOM      6  C   UNL     1      23.855  57.314  59.871  1.00  0.00     0.050 A 
ENDROOT
BRANCH   3   7
ATOM      7  O   UNL     1      23.881  60.443  57.078  1.00  0.00    -0.504 OA
ATOM      8  H   UNL     1      23.431  61.330  57.271  1.00  0.00     0.293 HD
ENDBRANCH   3   7
BRANCH   5   9
ATOM      9  O   UNL     1      26.194  56.880  59.408  1.00  0.00    -0.504 OA
ATOM     10  H   UNL     1      26.244  56.187  60.147  1.00  0.00     0.293 HD
ENDBRANCH   5   9
BRANCH   4  11
ATOM     11  O   UNL     1      26.200  58.988  57.530  1.00  0.00    -0.502 OA
ATOM     12  H   UNL     1      26.170  59.356  56.587  1.00  0.00     0.293 HD
ENDBRANCH   4  11
TORSDOF 3
ENDMDL
