MODEL 1
REMARK VINA RESULT:     4.446      0.000      0.000
REMARK INTER + INTRA:           4.875
REMARK INTER:                   4.966
REMARK INTRA:                  -0.092
REMARK UNBOUND:                -0.092
REMARK SMILES CCc1ccc(O)cc1O
REMARK SMILES IDX 3 1 9 2 8 3 6 4 5 5 4 6 2 7 1 8 10 9 7 11
REMARK H PARENT 10 10 7 12
REMARK Flexibility Score: inf
ROOT
ATOM      1  C   UNL     1      14.483   3.187  29.913  1.00  0.00    -0.006 A 
ATOM      2  C   UNL     1      13.374   3.363  29.047  1.00  0.00     0.122 A 
ATOM      3  C   UNL     1      12.119   2.854  29.401  1.00  0.00     0.092 A 
ATOM      4  C   UNL     1      11.943   2.167  30.607  1.00  0.00     0.119 A 
ATOM      5  C   UNL     1      13.026   1.989  31.465  1.00  0.00     0.047 A 
ATOM      6  C   UNL     1      14.285   2.491  31.127  1.00  0.00     0.011 A 
ENDROOT
BRANCH   1   7
ATOM      7  C   UNL     1      15.841   3.747  29.515  1.00  0.00     0.036 C 
ATOM      8  C   UNL     1      16.113   5.196  29.921  1.00  0.00     0.009 C 
ENDBRANCH   1   7
BRANCH   2   9
ATOM      9  O   UNL     1      13.482   4.038  27.828  1.00  0.00    -0.508 OA
ATOM     10  H   UNL     1      12.923   3.815  27.016  1.00  0.00     0.293 HD
ENDBRANCH   2   9
BRANCH   4  11
ATOM     11  O   UNL     1      10.694   1.661  30.960  1.00  0.00    -0.508 OA
ATOM     12  H   UNL     1      10.354   0.783  30.586  1.00  0.00     0.293 HD
ENDBRANCH   4  11
TORSDOF 3
ENDMDL
MODEL 2
REMARK VINA RESULT:     4.564      8.470      9.374
REMARK INTER + INTRA:           5.006
REMARK INTER:                   4.992
REMARK INTRA:                   0.014
REMARK UNBOUND:                -0.092
REMARK SMILES CCc1ccc(O)cc1O
REMARK SMILES IDX 3 1 9 2 8 3 6 4 5 5 4 6 2 7 1 8 10 9 7 11
REMARK H PARENT 10 10 7 12
REMARK Flexibility Score: inf
ROOT
ATOM      1  C   UNL     1      12.029  12.761  29.252  1.00  0.00    -0.006 A 
ATOM      2  C   UNL     1      12.561  11.541  29.740  1.00  0.00     0.122 A 
ATOM      3  C   UNL     1      11.772  10.695  30.528  1.00  0.00     0.092 A 
ATOM      4  C   UNL     1      10.454  11.039  30.843  1.00  0.00     0.119 A 
ATOM      5  C   UNL     1       9.920  12.236  30.368  1.00  0.00     0.047 A 
ATOM      6  C   UNL     1      10.694  13.091  29.581  1.00  0.00     0.011 A 
ENDROOT
BRANCH   1   7
ATOM      7  C   UNL     1      12.899  13.670  28.397  1.00  0.00     0.036 C 
ATOM      8  C   UNL     1      14.043  14.379  29.123  1.00  0.00     0.009 C 
ENDBRANCH   1   7
BRANCH   2   9
ATOM      9  O   UNL     1      13.871  11.138  29.464  1.00  0.00    -0.508 OA
ATOM     10  H   UNL     1      14.163  10.766  28.570  1.00  0.00     0.293 HD
ENDBRANCH   2   9
BRANCH   4  11
ATOM     11  O   UNL     1       9.668  10.197  31.627  1.00  0.00    -0.508 OA
ATOM     12  H   UNL     1       9.990   9.853  32.524  1.00  0.00     0.293 HD
ENDBRANCH   4  11
TORSDOF 3
ENDMDL
MODEL 3
REMARK VINA RESULT:     5.275      8.632      9.467
REMARK INTER + INTRA:           5.800
REMARK INTER:                   5.893
REMARK INTRA:                  -0.093
REMARK UNBOUND:                -0.092
REMARK SMILES CCc1ccc(O)cc1O
REMARK SMILES IDX 3 1 9 2 8 3 6 4 5 5 4 6 2 7 1 8 10 9 7 11
REMARK H PARENT 10 10 7 12
REMARK Flexibility Score: inf
ROOT
ATOM      1  C   UNL     1      12.536  12.630  29.605  1.00  0.00    -0.006 A 
ATOM      2  C   UNL     1      11.232  12.628  29.048  1.00  0.00     0.122 A 
ATOM      3  C   UNL     1      10.210  11.886  29.653  1.00  0.00     0.092 A 
ATOM      4  C   UNL     1      10.460  11.140  30.808  1.00  0.00     0.119 A 
ATOM      5  C   UNL     1      11.737  11.135  31.365  1.00  0.00     0.047 A 
ATOM      6  C   UNL     1      12.768  11.870  30.775  1.00  0.00     0.011 A 
ENDROOT
BRANCH   1   7
ATOM      7  C   UNL     1      13.636  13.441  28.937  1.00  0.00     0.036 C 
ATOM      8  C   UNL     1      13.861  14.848  29.493  1.00  0.00     0.009 C 
ENDBRANCH   1   7
BRANCH   2   9
ATOM      9  O   UNL     1      10.916  13.350  27.894  1.00  0.00    -0.508 OA
ATOM     10  H   UNL     1      11.599  13.858  27.348  1.00  0.00     0.293 HD
ENDBRANCH   2   9
BRANCH   4  11
ATOM     11  O   UNL     1       9.443  10.403  31.411  1.00  0.00    -0.508 OA
ATOM     12  H   UNL     1       9.576   9.433  31.673  1.00  0.00     0.293 HD
ENDBRANCH   4  11
TORSDOF 3
ENDMDL
MODEL 4
REMARK VINA RESULT:     6.466      9.261     10.475
REMARK INTER + INTRA:           7.131
REMARK INTER:                   7.200
REMARK INTRA:                  -0.069
REMARK UNBOUND:                -0.092
REMARK SMILES CCc1ccc(O)cc1O
REMARK SMILES IDX 3 1 9 2 8 3 6 4 5 5 4 6 2 7 1 8 10 9 7 11
REMARK H PARENT 10 10 7 12
REMARK Flexibility Score: inf
ROOT
ATOM      1  C   UNL     1      12.197  13.590  28.059  1.00  0.00    -0.006 A 
ATOM      2  C   UNL     1      13.277  13.353  28.946  1.00  0.00     0.122 A 
ATOM      3  C   UNL     1      13.097  12.534  30.068  1.00  0.00     0.092 A 
ATOM      4  C   UNL     1      11.858  11.942  30.327  1.00  0.00     0.119 A 
ATOM      5  C   UNL     1      10.790  12.168  29.460  1.00  0.00     0.047 A 
ATOM      6  C   UNL     1      10.952  12.981  28.337  1.00  0.00     0.011 A 
ENDROOT
BRANCH   1   7
ATOM      7  C   UNL     1      12.407  14.482  26.843  1.00  0.00     0.036 C 
ATOM      8  C   UNL     1      11.374  14.343  25.724  1.00  0.00     0.009 C 
ENDBRANCH   1   7
BRANCH   2   9
ATOM      9  O   UNL     1      14.541  13.915  28.747  1.00  0.00    -0.508 OA
ATOM     10  H   UNL     1      14.802  14.834  29.080  1.00  0.00     0.293 HD
ENDBRANCH   2   9
BRANCH   4  11
ATOM     11  O   UNL     1      11.679  11.127  31.442  1.00  0.00    -0.508 OA
ATOM     12  H   UNL     1      10.758  10.815  31.728  1.00  0.00     0.293 HD
ENDBRANCH   4  11
TORSDOF 3
ENDMDL
MODEL 5
REMARK VINA RESULT:     6.546      2.016      3.696
REMARK INTER + INTRA:           7.220
REMARK INTER:                   7.307
REMARK INTRA:                  -0.086
REMARK UNBOUND:                -0.092
REMARK SMILES CCc1ccc(O)cc1O
REMARK SMILES IDX 3 1 9 2 8 3 6 4 5 5 4 6 2 7 1 8 10 9 7 11
REMARK H PARENT 10 10 7 12
REMARK Flexibility Score: inf
ROOT
ATOM      1  C   UNL     1      13.212   1.508  29.731  1.00  0.00    -0.006 A 
ATOM      2  C   UNL     1      12.866   2.675  29.003  1.00  0.00     0.122 A 
ATOM      3  C   UNL     1      13.608   3.850  29.167  1.00  0.00     0.092 A 
ATOM      4  C   UNL     1      14.694   3.891  30.046  1.00  0.00     0.119 A 
ATOM      5  C   UNL     1      15.043   2.749  30.766  1.00  0.00     0.047 A 
ATOM      6  C   UNL     1      14.314   1.568  30.614  1.00  0.00     0.011 A 
ENDROOT
BRANCH   1   7
ATOM      7  C   UNL     1      12.396   0.237  29.541  1.00  0.00     0.036 C 
ATOM      8  C   UNL     1      13.063  -0.871  28.724  1.00  0.00     0.009 C 
ENDBRANCH   1   7
BRANCH   2   9
ATOM      9  O   UNL     1      11.792   2.703  28.109  1.00  0.00    -0.508 OA
ATOM     10  H   UNL     1      11.898   2.839  27.113  1.00  0.00     0.293 HD
ENDBRANCH   2   9
BRANCH   4  11
ATOM     11  O   UNL     1      15.433   5.060  30.209  1.00  0.00    -0.508 OA
ATOM     12  H   UNL     1      15.738   5.610  29.414  1.00  0.00     0.293 HD
ENDBRANCH   4  11
TORSDOF 3
ENDMDL
MODEL 6
REMARK VINA RESULT:     7.006      1.559      2.188
REMARK INTER + INTRA:           7.734
REMARK INTER:                   7.822
REMARK INTRA:                  -0.088
REMARK UNBOUND:                -0.092
REMARK SMILES CCc1ccc(O)cc1O
REMARK SMILES IDX 3 1 9 2 8 3 6 4 5 5 4 6 2 7 1 8 10 9 7 11
REMARK H PARENT 10 10 7 12
REMARK Flexibility Score: inf
ROOT
ATOM      1  C   UNL     1      14.378   3.025  29.879  1.00  0.00    -0.006 A 
ATOM      2  C   UNL     1      14.184   2.200  31.016  1.00  0.00     0.122 A 
ATOM      3  C   UNL     1      12.900   1.750  31.347  1.00  0.00     0.092 A 
ATOM      4  C   UNL     1      11.797   2.107  30.566  1.00  0.00     0.119 A 
ATOM      5  C   UNL     1      11.976   2.917  29.446  1.00  0.00     0.047 A 
ATOM      6  C   UNL     1      13.250   3.374  29.101  1.00  0.00     0.011 A 
ENDROOT
BRANCH   1   7
ATOM      7  C   UNL     1      15.780   3.505  29.532  1.00  0.00     0.036 C 
ATOM      8  C   UNL     1      16.088   4.966  29.866  1.00  0.00     0.009 C 
ENDBRANCH   1   7
BRANCH   2   9
ATOM      9  O   UNL     1      15.243   1.808  31.840  1.00  0.00    -0.508 OA
ATOM     10  H   UNL     1      15.119   1.298  32.704  1.00  0.00     0.293 HD
ENDBRANCH   2   9
BRANCH   4  11
ATOM     11  O   UNL     1      10.519   1.659  30.894  1.00  0.00    -0.508 OA
ATOM     12  H   UNL     1       9.747   2.304  31.016  1.00  0.00     0.293 HD
ENDBRANCH   4  11
TORSDOF 3
ENDMDL
MODEL 7
REMARK VINA RESULT:     7.139      8.547     10.094
REMARK INTER + INTRA:           7.882
REMARK INTER:                   7.370
REMARK INTRA:                   0.511
REMARK UNBOUND:                -0.092
REMARK SMILES CCc1ccc(O)cc1O
REMARK SMILES IDX 3 1 9 2 8 3 6 4 5 5 4 6 2 7 1 8 10 9 7 11
REMARK H PARENT 10 10 7 12
REMARK Flexibility Score: inf
ROOT
ATOM      1  C   UNL     1      11.753  11.339  30.113  1.00  0.00    -0.006 A 
ATOM      2  C   UNL     1      11.244  12.655  29.978  1.00  0.00     0.122 A 
ATOM      3  C   UNL     1      12.058  13.674  29.469  1.00  0.00     0.092 A 
ATOM      4  C   UNL     1      13.377  13.410  29.089  1.00  0.00     0.119 A 
ATOM      5  C   UNL     1      13.887  12.119  29.216  1.00  0.00     0.047 A 
ATOM      6  C   UNL     1      13.089  11.091  29.722  1.00  0.00     0.011 A 
ENDROOT
BRANCH   1   7
ATOM      7  C   UNL     1      10.856  10.241  30.667  1.00  0.00     0.036 C 
ATOM      8  C   UNL     1       9.937  10.647  31.821  1.00  0.00     0.009 C 
ENDBRANCH   1   7
BRANCH   2   9
ATOM      9  O   UNL     1       9.936  12.987  30.341  1.00  0.00    -0.508 OA
ATOM     10  H   UNL     1       9.510  12.706  31.214  1.00  0.00     0.293 HD
ENDBRANCH   2   9
BRANCH   4  11
ATOM     11  O   UNL     1      14.187  14.423  28.581  1.00  0.00    -0.508 OA
ATOM     12  H   UNL     1      14.654  14.331  27.687  1.00  0.00     0.293 HD
ENDBRANCH   4  11
TORSDOF 3
ENDMDL
