MODEL 1
REMARK VINA RESULT:    -4.727      0.000      0.000
REMARK INTER + INTRA:          -5.387
REMARK INTER:                  -5.142
REMARK INTRA:                  -0.246
REMARK UNBOUND:                -0.246
REMARK SMILES O=C([O-])c1ccccc1O
REMARK SMILES IDX 4 1 9 2 5 3 8 4 6 5 7 6 2 7 1 8 3 9 10 10
REMARK H PARENT 10 11
REMARK Flexibility Score: inf
ROOT
ATOM      1  C   UNL     1      12.991  34.079  84.852  1.00  0.00     0.039 A 
ATOM      2  C   UNL     1      13.628  35.008  83.992  1.00  0.00     0.124 A 
ATOM      3  C   UNL     1      11.614  34.224  85.111  1.00  0.00     0.014 A 
ATOM      4  C   UNL     1      12.870  36.009  83.370  1.00  0.00     0.047 A 
ATOM      5  C   UNL     1      10.878  35.240  84.498  1.00  0.00     0.001 A 
ATOM      6  C   UNL     1      11.502  36.125  83.621  1.00  0.00     0.004 A 
ENDROOT
BRANCH   1   7
ATOM      7  C   UNL     1      13.709  32.938  85.460  1.00  0.00     0.075 C 
ATOM      8  O   UNL     1      14.642  32.370  84.832  1.00  0.00    -0.545 OA
ATOM      9  O   UNL     1      13.417  32.521  86.753  1.00  0.00    -0.545 OA
ENDBRANCH   1   7
BRANCH   2  10
ATOM     10  O   UNL     1      15.005  34.997  83.760  1.00  0.00    -0.507 OA
ATOM     11  H   UNL     1      15.412  34.980  82.835  1.00  0.00     0.293 HD
ENDBRANCH   2  10
TORSDOF 2
ENDMDL
MODEL 2
REMARK VINA RESULT:    -4.651      2.104      4.002
REMARK INTER + INTRA:          -5.305
REMARK INTER:                  -5.081
REMARK INTRA:                  -0.224
REMARK UNBOUND:                -0.246
REMARK SMILES O=C([O-])c1ccccc1O
REMARK SMILES IDX 4 1 9 2 5 3 8 4 6 5 7 6 2 7 1 8 3 9 10 10
REMARK H PARENT 10 11
REMARK Flexibility Score: inf
ROOT
ATOM      1  C   UNL     1      12.806  34.707  84.500  1.00  0.00     0.039 A 
ATOM      2  C   UNL     1      12.306  33.828  85.494  1.00  0.00     0.124 A 
ATOM      3  C   UNL     1      14.160  34.610  84.125  1.00  0.00     0.014 A 
ATOM      4  C   UNL     1      13.145  32.846  86.036  1.00  0.00     0.047 A 
ATOM      5  C   UNL     1      14.987  33.638  84.690  1.00  0.00     0.001 A 
ATOM      6  C   UNL     1      14.479  32.750  85.637  1.00  0.00     0.004 A 
ENDROOT
BRANCH   1   7
ATOM      7  C   UNL     1      11.950  35.698  83.813  1.00  0.00     0.075 C 
ATOM      8  O   UNL     1      12.264  36.121  82.669  1.00  0.00    -0.545 OA
ATOM      9  O   UNL     1      10.757  36.125  84.384  1.00  0.00    -0.545 OA
ENDBRANCH   1   7
BRANCH   2  10
ATOM     10  O   UNL     1      11.006  33.921  85.994  1.00  0.00    -0.507 OA
ATOM     11  H   UNL     1      10.367  34.665  85.748  1.00  0.00     0.293 HD
ENDBRANCH   2  10
TORSDOF 2
ENDMDL
MODEL 3
REMARK VINA RESULT:    -4.585      1.839      3.395
REMARK INTER + INTRA:          -5.232
REMARK INTER:                  -5.029
REMARK INTRA:                  -0.203
REMARK UNBOUND:                -0.246
REMARK SMILES O=C([O-])c1ccccc1O
REMARK SMILES IDX 4 1 9 2 5 3 8 4 6 5 7 6 2 7 1 8 3 9 10 10
REMARK H PARENT 10 11
REMARK Flexibility Score: inf
ROOT
ATOM      1  C   UNL     1      13.037  34.492  84.632  1.00  0.00     0.039 A 
ATOM      2  C   UNL     1      14.401  34.128  84.500  1.00  0.00     0.124 A 
ATOM      3  C   UNL     1      12.222  33.766  85.521  1.00  0.00     0.014 A 
ATOM      4  C   UNL     1      14.925  33.103  85.298  1.00  0.00     0.047 A 
ATOM      5  C   UNL     1      12.756  32.732  86.294  1.00  0.00     0.001 A 
ATOM      6  C   UNL     1      14.107  32.408  86.190  1.00  0.00     0.004 A 
ENDROOT
BRANCH   1   7
ATOM      7  C   UNL     1      12.444  35.630  83.897  1.00  0.00     0.075 C 
ATOM      8  O   UNL     1      13.045  36.125  82.906  1.00  0.00    -0.545 OA
ATOM      9  O   UNL     1      11.192  36.124  84.240  1.00  0.00    -0.545 OA
ENDBRANCH   1   7
BRANCH   2  10
ATOM     10  O   UNL     1      15.253  34.729  83.572  1.00  0.00    -0.507 OA
ATOM     11  H   UNL     1      15.055  34.771  82.581  1.00  0.00     0.293 HD
ENDBRANCH   2  10
TORSDOF 2
ENDMDL
MODEL 4
REMARK VINA RESULT:    -4.525      1.101      2.457
REMARK INTER + INTRA:          -5.168
REMARK INTER:                  -4.946
REMARK INTRA:                  -0.222
REMARK UNBOUND:                -0.246
REMARK SMILES O=C([O-])c1ccccc1O
REMARK SMILES IDX 4 1 9 2 5 3 8 4 6 5 7 6 2 7 1 8 3 9 10 10
REMARK H PARENT 10 11
REMARK Flexibility Score: inf
ROOT
ATOM      1  C   UNL     1      12.968  34.297  85.056  1.00  0.00     0.039 A 
ATOM      2  C   UNL     1      11.568  34.515  85.114  1.00  0.00     0.124 A 
ATOM      3  C   UNL     1      13.724  34.976  84.081  1.00  0.00     0.014 A 
ATOM      4  C   UNL     1      10.976  35.444  84.248  1.00  0.00     0.047 A 
ATOM      5  C   UNL     1      13.114  35.883  83.213  1.00  0.00     0.001 A 
ATOM      6  C   UNL     1      11.744  36.124  83.302  1.00  0.00     0.004 A 
ENDROOT
BRANCH   1   7
ATOM      7  C   UNL     1      13.672  33.409  86.007  1.00  0.00     0.075 C 
ATOM      8  O   UNL     1      13.129  33.093  87.098  1.00  0.00    -0.545 OA
ATOM      9  O   UNL     1      14.906  32.857  85.684  1.00  0.00    -0.545 OA
ENDBRANCH   1   7
BRANCH   2  10
ATOM     10  O   UNL     1      10.732  33.811  85.981  1.00  0.00    -0.507 OA
ATOM     11  H   UNL     1      10.824  32.820  86.159  1.00  0.00     0.293 HD
ENDBRANCH   2  10
TORSDOF 2
ENDMDL
MODEL 5
REMARK VINA RESULT:    -3.414     10.707     12.035
REMARK INTER + INTRA:          -3.959
REMARK INTER:                  -3.707
REMARK INTRA:                  -0.252
REMARK UNBOUND:                -0.246
REMARK SMILES O=C([O-])c1ccccc1O
REMARK SMILES IDX 4 1 9 2 5 3 8 4 6 5 7 6 2 7 1 8 3 9 10 10
REMARK H PARENT 10 11
REMARK Flexibility Score: inf
ROOT
ATOM      1  C   UNL     1      22.819  33.436  77.798  1.00  0.00     0.039 A 
ATOM      2  C   UNL     1      21.514  33.560  78.339  1.00  0.00     0.124 A 
ATOM      3  C   UNL     1      23.013  32.610  76.674  1.00  0.00     0.014 A 
ATOM      4  C   UNL     1      20.440  32.914  77.713  1.00  0.00     0.047 A 
ATOM      5  C   UNL     1      21.935  31.957  76.075  1.00  0.00     0.001 A 
ATOM      6  C   UNL     1      20.648  32.116  76.587  1.00  0.00     0.004 A 
ENDROOT
BRANCH   1   7
ATOM      7  C   UNL     1      23.978  34.171  78.346  1.00  0.00     0.075 C 
ATOM      8  O   UNL     1      25.109  33.619  78.401  1.00  0.00    -0.545 OA
ATOM      9  O   UNL     1      23.857  35.497  78.743  1.00  0.00    -0.545 OA
ENDBRANCH   1   7
BRANCH   2  10
ATOM     10  O   UNL     1      21.249  34.277  79.507  1.00  0.00    -0.507 OA
ATOM     11  H   UNL     1      21.290  35.285  79.561  1.00  0.00     0.293 HD
ENDBRANCH   2  10
TORSDOF 2
ENDMDL
MODEL 6
REMARK VINA RESULT:    -3.012      5.116      6.324
REMARK INTER + INTRA:          -3.523
REMARK INTER:                  -3.269
REMARK INTRA:                  -0.253
REMARK UNBOUND:                -0.246
REMARK SMILES O=C([O-])c1ccccc1O
REMARK SMILES IDX 4 1 9 2 5 3 8 4 6 5 7 6 2 7 1 8 3 9 10 10
REMARK H PARENT 10 11
REMARK Flexibility Score: inf
ROOT
ATOM      1  C   UNL     1      10.350  35.193  79.816  1.00  0.00     0.039 A 
ATOM      2  C   UNL     1      10.201  34.097  78.929  1.00  0.00     0.124 A 
ATOM      3  C   UNL     1       9.218  35.671  80.503  1.00  0.00     0.014 A 
ATOM      4  C   UNL     1       8.953  33.474  78.800  1.00  0.00     0.047 A 
ATOM      5  C   UNL     1       7.976  35.052  80.347  1.00  0.00     0.001 A 
ATOM      6  C   UNL     1       7.846  33.949  79.505  1.00  0.00     0.004 A 
ENDROOT
BRANCH   1   7
ATOM      7  C   UNL     1      11.659  35.831  80.077  1.00  0.00     0.075 C 
ATOM      8  O   UNL     1      12.027  36.057  81.261  1.00  0.00    -0.545 OA
ATOM      9  O   UNL     1      12.528  36.125  79.034  1.00  0.00    -0.545 OA
ENDBRANCH   1   7
BRANCH   2  10
ATOM     10  O   UNL     1      11.249  33.623  78.137  1.00  0.00    -0.507 OA
ATOM     11  H   UNL     1      11.776  34.209  77.504  1.00  0.00     0.293 HD
ENDBRANCH   2  10
TORSDOF 2
ENDMDL
MODEL 7
REMARK VINA RESULT:    -2.881      4.503      5.500
REMARK INTER + INTRA:          -3.379
REMARK INTER:                  -3.155
REMARK INTRA:                  -0.225
REMARK UNBOUND:                -0.246
REMARK SMILES O=C([O-])c1ccccc1O
REMARK SMILES IDX 4 1 9 2 5 3 8 4 6 5 7 6 2 7 1 8 3 9 10 10
REMARK H PARENT 10 11
REMARK Flexibility Score: inf
ROOT
ATOM      1  C   UNL     1      10.300  35.397  80.797  1.00  0.00     0.039 A 
ATOM      2  C   UNL     1      11.043  35.371  79.590  1.00  0.00     0.124 A 
ATOM      3  C   UNL     1       8.993  34.873  80.802  1.00  0.00     0.014 A 
ATOM      4  C   UNL     1      10.492  34.774  78.449  1.00  0.00     0.047 A 
ATOM      5  C   UNL     1       8.451  34.300  79.650  1.00  0.00     0.001 A 
ATOM      6  C   UNL     1       9.203  34.241  78.478  1.00  0.00     0.004 A 
ENDROOT
BRANCH   1   7
ATOM      7  C   UNL     1      10.859  35.919  82.063  1.00  0.00     0.075 C 
ATOM      8  O   UNL     1      10.104  36.124  83.051  1.00  0.00    -0.545 OA
ATOM      9  O   UNL     1      12.225  36.124  82.206  1.00  0.00    -0.545 OA
ENDBRANCH   1   7
BRANCH   2  10
ATOM     10  O   UNL     1      12.306  35.956  79.472  1.00  0.00    -0.507 OA
ATOM     11  H   UNL     1      13.006  35.640  78.815  1.00  0.00     0.293 HD
ENDBRANCH   2  10
TORSDOF 2
ENDMDL
MODEL 8
REMARK VINA RESULT:    -2.860      3.045      3.980
REMARK INTER + INTRA:          -3.356
REMARK INTER:                  -3.151
REMARK INTRA:                  -0.206
REMARK UNBOUND:                -0.246
REMARK SMILES O=C([O-])c1ccccc1O
REMARK SMILES IDX 4 1 9 2 5 3 8 4 6 5 7 6 2 7 1 8 3 9 10 10
REMARK H PARENT 10 11
REMARK Flexibility Score: inf
ROOT
ATOM      1  C   UNL     1      10.907  35.954  82.489  1.00  0.00     0.039 A 
ATOM      2  C   UNL     1      11.836  36.023  81.420  1.00  0.00     0.124 A 
ATOM      3  C   UNL     1       9.530  35.961  82.195  1.00  0.00     0.014 A 
ATOM      4  C   UNL     1      11.373  36.033  80.098  1.00  0.00     0.047 A 
ATOM      5  C   UNL     1       9.085  35.992  80.872  1.00  0.00     0.001 A 
ATOM      6  C   UNL     1      10.004  36.018  79.824  1.00  0.00     0.004 A 
ENDROOT
BRANCH   1   7
ATOM      7  C   UNL     1      11.330  35.837  83.901  1.00  0.00     0.075 C 
ATOM      8  O   UNL     1      10.467  35.801  84.818  1.00  0.00    -0.545 OA
ATOM      9  O   UNL     1      12.671  35.697  84.233  1.00  0.00    -0.545 OA
ENDBRANCH   1   7
BRANCH   2  10
ATOM     10  O   UNL     1      13.214  36.120  81.626  1.00  0.00    -0.507 OA
ATOM     11  H   UNL     1      13.627  36.647  82.383  1.00  0.00     0.293 HD
ENDBRANCH   2  10
TORSDOF 2
ENDMDL
