MODEL 1
REMARK VINA RESULT:    -5.790      0.000      0.000
REMARK INTER + INTRA:          -6.298
REMARK INTER:                  -6.298
REMARK INTRA:                   0.000
REMARK UNBOUND:                 0.000
REMARK SMILES Cc1cc(O)c2c(c1)C(=O)c1cc(O)cc(O)c1C2=O
REMARK SMILES IDX 1 1 2 2 8 3 7 4 6 5 4 6 3 7 19 8 20 9 18 10 11 11 9 12 10 13
REMARK SMILES IDX 12 14 13 15 15 16 16 17 5 18 17 20 14 22
REMARK H PARENT 5 19 17 21 14 23
REMARK Flexibility Score: inf
ROOT
ATOM      1  C   UNL     1      15.190  -7.187 -31.736  1.00  0.00     0.044 C 
ATOM      2  C   UNL     1      16.604  -6.832 -32.091  1.00  0.00    -0.047 A 
ATOM      3  C   UNL     1      17.072  -7.024 -33.396  1.00  0.00     0.016 A 
ATOM      4  C   UNL     1      18.386  -6.669 -33.744  1.00  0.00     0.038 A 
ATOM      5  C   UNL     1      19.245  -6.111 -32.771  1.00  0.00     0.076 A 
ATOM      6  C   UNL     1      18.738  -5.841 -31.474  1.00  0.00     0.127 A 
ATOM      7  C   UNL     1      17.434  -6.222 -31.145  1.00  0.00     0.050 A 
ATOM      8  C   UNL     1      20.667  -5.886 -33.136  1.00  0.00     0.201 C 
ATOM      9  O   UNL     1      21.560  -5.953 -32.249  1.00  0.00    -0.288 OA
ATOM     10  C   UNL     1      21.053  -5.771 -34.566  1.00  0.00     0.076 A 
ATOM     11  C   UNL     1      20.189  -6.327 -35.537  1.00  0.00     0.041 A 
ATOM     12  C   UNL     1      18.872  -6.869 -35.130  1.00  0.00     0.194 C 
ATOM     13  O   UNL     1      18.153  -7.479 -35.969  1.00  0.00    -0.289 OA
ATOM     14  C   UNL     1      20.583  -6.360 -36.886  1.00  0.00     0.059 A 
ATOM     15  C   UNL     1      21.813  -5.835 -37.279  1.00  0.00     0.120 A 
ATOM     16  C   UNL     1      22.652  -5.247 -36.329  1.00  0.00     0.093 A 
ATOM     17  C   UNL     1      22.276  -5.183 -34.984  1.00  0.00     0.131 A 
ENDROOT
BRANCH   6  18
ATOM     18  O   UNL     1      19.478  -5.168 -30.499  1.00  0.00    -0.507 OA
ATOM     19  H   UNL     1      19.445  -5.398 -29.515  1.00  0.00     0.293 HD
ENDBRANCH   6  18
BRANCH  17  20
ATOM     20  O   UNL     1      23.123  -4.500 -34.109  1.00  0.00    -0.507 OA
ATOM     21  H   UNL     1      22.804  -3.798 -33.456  1.00  0.00     0.293 HD
ENDBRANCH  17  20
BRANCH  15  22
ATOM     22  O   UNL     1      22.188  -5.890 -38.620  1.00  0.00    -0.508 OA
ATOM     23  H   UNL     1      21.546  -6.205 -39.337  1.00  0.00     0.293 HD
ENDBRANCH  15  22
TORSDOF 3
ENDMDL
MODEL 2
REMARK VINA RESULT:    -5.339      2.256      4.733
REMARK INTER + INTRA:          -5.807
REMARK INTER:                  -5.807
REMARK INTRA:                   0.000
REMARK UNBOUND:                 0.000
REMARK SMILES Cc1cc(O)c2c(c1)C(=O)c1cc(O)cc(O)c1C2=O
REMARK SMILES IDX 1 1 2 2 8 3 7 4 6 5 4 6 3 7 19 8 20 9 18 10 11 11 9 12 10 13
REMARK SMILES IDX 12 14 13 15 15 16 16 17 5 18 17 20 14 22
REMARK H PARENT 5 19 17 21 14 23
REMARK Flexibility Score: inf
ROOT
ATOM      1  C   UNL     1      12.479  -5.847 -29.766  1.00  0.00     0.044 C 
ATOM      2  C   UNL     1      13.582  -6.092 -30.754  1.00  0.00    -0.047 A 
ATOM      3  C   UNL     1      14.883  -5.654 -30.481  1.00  0.00     0.016 A 
ATOM      4  C   UNL     1      15.927  -5.904 -31.388  1.00  0.00     0.038 A 
ATOM      5  C   UNL     1      15.665  -6.604 -32.586  1.00  0.00     0.076 A 
ATOM      6  C   UNL     1      14.363  -7.119 -32.817  1.00  0.00     0.127 A 
ATOM      7  C   UNL     1      13.336  -6.840 -31.911  1.00  0.00     0.050 A 
ATOM      8  C   UNL     1      16.758  -6.720 -33.586  1.00  0.00     0.201 C 
ATOM      9  O   UNL     1      16.481  -6.789 -34.813  1.00  0.00    -0.288 OA
ATOM     10  C   UNL     1      18.172  -6.563 -33.154  1.00  0.00     0.076 A 
ATOM     11  C   UNL     1      18.430  -5.865 -31.953  1.00  0.00     0.041 A 
ATOM     12  C   UNL     1      17.303  -5.442 -31.088  1.00  0.00     0.194 C 
ATOM     13  O   UNL     1      17.519  -4.711 -30.082  1.00  0.00    -0.289 OA
ATOM     14  C   UNL     1      19.754  -5.577 -31.582  1.00  0.00     0.059 A 
ATOM     15  C   UNL     1      20.820  -5.988 -32.382  1.00  0.00     0.120 A 
ATOM     16  C   UNL     1      20.572  -6.715 -33.549  1.00  0.00     0.093 A 
ATOM     17  C   UNL     1      19.264  -7.032 -33.931  1.00  0.00     0.131 A 
ENDROOT
BRANCH   6  18
ATOM     18  O   UNL     1      14.056  -7.937 -33.907  1.00  0.00    -0.507 OA
ATOM     19  H   UNL     1      14.385  -7.761 -34.846  1.00  0.00     0.293 HD
ENDBRANCH   6  18
BRANCH  17  20
ATOM     20  O   UNL     1      19.099  -7.838 -35.059  1.00  0.00    -0.507 OA
ATOM     21  H   UNL     1      19.756  -7.865 -35.827  1.00  0.00     0.293 HD
ENDBRANCH  17  20
BRANCH  15  22
ATOM     22  O   UNL     1      22.124  -5.681 -32.002  1.00  0.00    -0.508 OA
ATOM     23  H   UNL     1      22.445  -4.722 -31.934  1.00  0.00     0.293 HD
ENDBRANCH  15  22
TORSDOF 3
ENDMDL
MODEL 3
REMARK VINA RESULT:    -5.274      3.149      5.055
REMARK INTER + INTRA:          -5.737
REMARK INTER:                  -5.737
REMARK INTRA:                   0.000
REMARK UNBOUND:                 0.000
REMARK SMILES Cc1cc(O)c2c(c1)C(=O)c1cc(O)cc(O)c1C2=O
REMARK SMILES IDX 1 1 2 2 8 3 7 4 6 5 4 6 3 7 19 8 20 9 18 10 11 11 9 12 10 13
REMARK SMILES IDX 12 14 13 15 15 16 16 17 5 18 17 20 14 22
REMARK H PARENT 5 19 17 21 14 23
REMARK Flexibility Score: inf
ROOT
ATOM      1  C   UNL     1      11.407  -5.539 -29.512  1.00  0.00     0.044 C 
ATOM      2  C   UNL     1      12.836  -5.149 -29.758  1.00  0.00    -0.047 A 
ATOM      3  C   UNL     1      13.750  -6.094 -30.237  1.00  0.00     0.016 A 
ATOM      4  C   UNL     1      15.083  -5.731 -30.497  1.00  0.00     0.038 A 
ATOM      5  C   UNL     1      15.507  -4.403 -30.275  1.00  0.00     0.076 A 
ATOM      6  C   UNL     1      14.555  -3.432 -29.869  1.00  0.00     0.127 A 
ATOM      7  C   UNL     1      13.239  -3.820 -29.597  1.00  0.00     0.050 A 
ATOM      8  C   UNL     1      16.952  -4.093 -30.418  1.00  0.00     0.201 C 
ATOM      9  O   UNL     1      17.468  -3.176 -29.725  1.00  0.00    -0.288 OA
ATOM     10  C   UNL     1      17.820  -4.983 -31.232  1.00  0.00     0.076 A 
ATOM     11  C   UNL     1      17.391  -6.311 -31.456  1.00  0.00     0.041 A 
ATOM     12  C   UNL     1      16.043  -6.737 -31.012  1.00  0.00     0.194 C 
ATOM     13  O   UNL     1      15.704  -7.950 -31.095  1.00  0.00    -0.289 OA
ATOM     14  C   UNL     1      18.244  -7.222 -32.103  1.00  0.00     0.059 A 
ATOM     15  C   UNL     1      19.507  -6.823 -32.541  1.00  0.00     0.120 A 
ATOM     16  C   UNL     1      19.919  -5.500 -32.358  1.00  0.00     0.093 A 
ATOM     17  C   UNL     1      19.081  -4.569 -31.736  1.00  0.00     0.131 A 
ENDROOT
BRANCH   6  18
ATOM     18  O   UNL     1      14.861  -2.073 -29.760  1.00  0.00    -0.507 OA
ATOM     19  H   UNL     1      15.745  -1.676 -30.050  1.00  0.00     0.293 HD
ENDBRANCH   6  18
BRANCH  17  20
ATOM     20  O   UNL     1      19.524  -3.246 -31.671  1.00  0.00    -0.507 OA
ATOM     21  H   UNL     1      20.164  -2.906 -30.967  1.00  0.00     0.293 HD
ENDBRANCH  17  20
BRANCH  15  22
ATOM     22  O   UNL     1      20.341  -7.746 -33.168  1.00  0.00    -0.508 OA
ATOM     23  H   UNL     1      20.894  -8.408 -32.636  1.00  0.00     0.293 HD
ENDBRANCH  15  22
TORSDOF 3
ENDMDL
MODEL 4
REMARK VINA RESULT:    -5.104      2.163      4.622
REMARK INTER + INTRA:          -5.552
REMARK INTER:                  -5.552
REMARK INTRA:                   0.000
REMARK UNBOUND:                 0.000
REMARK SMILES Cc1cc(O)c2c(c1)C(=O)c1cc(O)cc(O)c1C2=O
REMARK SMILES IDX 1 1 2 2 8 3 7 4 6 5 4 6 3 7 19 8 20 9 18 10 11 11 9 12 10 13
REMARK SMILES IDX 12 14 13 15 15 16 16 17 5 18 17 20 14 22
REMARK H PARENT 5 19 17 21 14 23
REMARK Flexibility Score: inf
ROOT
ATOM      1  C   UNL     1      13.774  -8.665 -29.039  1.00  0.00     0.044 C 
ATOM      2  C   UNL     1      14.290  -8.184 -30.363  1.00  0.00    -0.047 A 
ATOM      3  C   UNL     1      15.645  -7.868 -30.518  1.00  0.00     0.016 A 
ATOM      4  C   UNL     1      16.142  -7.444 -31.762  1.00  0.00     0.038 A 
ATOM      5  C   UNL     1      15.271  -7.334 -32.868  1.00  0.00     0.076 A 
ATOM      6  C   UNL     1      13.917  -7.736 -32.725  1.00  0.00     0.127 A 
ATOM      7  C   UNL     1      13.441  -8.136 -31.473  1.00  0.00     0.050 A 
ATOM      8  C   UNL     1      15.799  -6.742 -34.123  1.00  0.00     0.201 C 
ATOM      9  O   UNL     1      15.027  -6.108 -34.891  1.00  0.00    -0.288 OA
ATOM     10  C   UNL     1      17.264  -6.735 -34.376  1.00  0.00     0.076 A 
ATOM     11  C   UNL     1      18.133  -6.849 -33.268  1.00  0.00     0.041 A 
ATOM     12  C   UNL     1      17.579  -7.118 -31.920  1.00  0.00     0.194 C 
ATOM     13  O   UNL     1      18.337  -7.095 -30.910  1.00  0.00    -0.289 OA
ATOM     14  C   UNL     1      19.520  -6.710 -33.450  1.00  0.00     0.059 A 
ATOM     15  C   UNL     1      20.048  -6.475 -34.719  1.00  0.00     0.120 A 
ATOM     16  C   UNL     1      19.197  -6.403 -35.823  1.00  0.00     0.093 A 
ATOM     17  C   UNL     1      17.815  -6.558 -35.673  1.00  0.00     0.131 A 
ENDROOT
BRANCH   6  18
ATOM     18  O   UNL     1      13.027  -7.788 -33.800  1.00  0.00    -0.507 OA
ATOM     19  H   UNL     1      12.708  -6.970 -34.300  1.00  0.00     0.293 HD
ENDBRANCH   6  18
BRANCH  17  20
ATOM     20  O   UNL     1      17.037  -6.565 -36.832  1.00  0.00    -0.507 OA
ATOM     21  H   UNL     1      16.798  -5.730 -37.350  1.00  0.00     0.293 HD
ENDBRANCH  17  20
BRANCH  15  22
ATOM     22  O   UNL     1      21.425  -6.327 -34.873  1.00  0.00    -0.508 OA
ATOM     23  H   UNL     1      21.954  -5.668 -34.314  1.00  0.00     0.293 HD
ENDBRANCH  15  22
TORSDOF 3
ENDMDL
MODEL 5
REMARK VINA RESULT:    -5.080      1.987      3.422
REMARK INTER + INTRA:          -5.526
REMARK INTER:                  -5.526
REMARK INTRA:                   0.000
REMARK UNBOUND:                 0.000
REMARK SMILES Cc1cc(O)c2c(c1)C(=O)c1cc(O)cc(O)c1C2=O
REMARK SMILES IDX 1 1 2 2 8 3 7 4 6 5 4 6 3 7 19 8 20 9 18 10 11 11 9 12 10 13
REMARK SMILES IDX 12 14 13 15 15 16 16 17 5 18 17 20 14 22
REMARK H PARENT 5 19 17 21 14 23
REMARK Flexibility Score: inf
ROOT
ATOM      1  C   UNL     1      12.180  -6.845 -34.407  1.00  0.00     0.044 C 
ATOM      2  C   UNL     1      13.536  -6.826 -33.763  1.00  0.00    -0.047 A 
ATOM      3  C   UNL     1      14.689  -6.777 -34.553  1.00  0.00     0.016 A 
ATOM      4  C   UNL     1      15.962  -6.731 -33.958  1.00  0.00     0.038 A 
ATOM      5  C   UNL     1      16.081  -6.733 -32.552  1.00  0.00     0.076 A 
ATOM      6  C   UNL     1      14.906  -6.697 -31.757  1.00  0.00     0.127 A 
ATOM      7  C   UNL     1      13.651  -6.764 -32.371  1.00  0.00     0.050 A 
ATOM      8  C   UNL     1      17.441  -6.833 -31.962  1.00  0.00     0.201 C 
ATOM      9  O   UNL     1      17.600  -7.394 -30.845  1.00  0.00    -0.288 OA
ATOM     10  C   UNL     1      18.626  -6.443 -32.769  1.00  0.00     0.076 A 
ATOM     11  C   UNL     1      18.502  -6.439 -34.177  1.00  0.00     0.041 A 
ATOM     12  C   UNL     1      17.179  -6.672 -34.803  1.00  0.00     0.194 C 
ATOM     13  O   UNL     1      17.086  -6.794 -36.055  1.00  0.00    -0.289 OA
ATOM     14  C   UNL     1      19.634  -6.210 -34.978  1.00  0.00     0.059 A 
ATOM     15  C   UNL     1      20.878  -5.972 -34.395  1.00  0.00     0.120 A 
ATOM     16  C   UNL     1      20.998  -5.934 -33.004  1.00  0.00     0.093 A 
ATOM     17  C   UNL     1      19.883  -6.138 -32.184  1.00  0.00     0.131 A 
ENDROOT
BRANCH   6  18
ATOM     18  O   UNL     1      14.937  -6.559 -30.368  1.00  0.00    -0.507 OA
ATOM     19  H   UNL     1      14.110  -6.576 -29.787  1.00  0.00     0.293 HD
ENDBRANCH   6  18
BRANCH  17  20
ATOM     20  O   UNL     1      20.061  -5.995 -30.807  1.00  0.00    -0.507 OA
ATOM     21  H   UNL     1      20.960  -6.064 -30.350  1.00  0.00     0.293 HD
ENDBRANCH  17  20
BRANCH  15  22
ATOM     22  O   UNL     1      21.990  -5.761 -35.209  1.00  0.00    -0.508 OA
ATOM     23  H   UNL     1      22.041  -4.971 -35.842  1.00  0.00     0.293 HD
ENDBRANCH  15  22
TORSDOF 3
ENDMDL
MODEL 6
REMARK VINA RESULT:    -5.068      1.400      6.403
REMARK INTER + INTRA:          -5.512
REMARK INTER:                  -5.512
REMARK INTRA:                   0.000
REMARK UNBOUND:                 0.000
REMARK SMILES Cc1cc(O)c2c(c1)C(=O)c1cc(O)cc(O)c1C2=O
REMARK SMILES IDX 1 1 2 2 8 3 7 4 6 5 4 6 3 7 19 8 20 9 18 10 11 11 9 12 10 13
REMARK SMILES IDX 12 14 13 15 15 16 16 17 5 18 17 20 14 22
REMARK H PARENT 5 19 17 21 14 23
REMARK Flexibility Score: inf
ROOT
ATOM      1  C   UNL     1      24.067  -5.322 -39.125  1.00  0.00     0.044 C 
ATOM      2  C   UNL     1      22.857  -5.702 -38.323  1.00  0.00    -0.047 A 
ATOM      3  C   UNL     1      22.835  -5.492 -36.939  1.00  0.00     0.016 A 
ATOM      4  C   UNL     1      21.695  -5.819 -36.185  1.00  0.00     0.038 A 
ATOM      5  C   UNL     1      20.560  -6.364 -36.824  1.00  0.00     0.076 A 
ATOM      6  C   UNL     1      20.559  -6.495 -38.237  1.00  0.00     0.127 A 
ATOM      7  C   UNL     1      21.710  -6.182 -38.965  1.00  0.00     0.050 A 
ATOM      8  C   UNL     1      19.434  -6.834 -35.977  1.00  0.00     0.201 C 
ATOM      9  O   UNL     1      18.711  -7.788 -36.369  1.00  0.00    -0.288 OA
ATOM     10  C   UNL     1      19.281  -6.308 -34.596  1.00  0.00     0.076 A 
ATOM     11  C   UNL     1      20.418  -5.760 -33.960  1.00  0.00     0.041 A 
ATOM     12  C   UNL     1      21.678  -5.587 -34.721  1.00  0.00     0.194 C 
ATOM     13  O   UNL     1      22.728  -5.218 -34.126  1.00  0.00    -0.289 OA
ATOM     14  C   UNL     1      20.348  -5.379 -32.609  1.00  0.00     0.059 A 
ATOM     15  C   UNL     1      19.159  -5.521 -31.893  1.00  0.00     0.120 A 
ATOM     16  C   UNL     1      18.022  -6.024 -32.528  1.00  0.00     0.093 A 
ATOM     17  C   UNL     1      18.059  -6.392 -33.877  1.00  0.00     0.131 A 
ENDROOT
BRANCH   6  18
ATOM     18  O   UNL     1      19.430  -6.894 -38.957  1.00  0.00    -0.507 OA
ATOM     19  H   UNL     1      19.420  -7.688 -39.583  1.00  0.00     0.293 HD
ENDBRANCH   6  18
BRANCH  17  20
ATOM     20  O   UNL     1      16.861  -6.799 -34.467  1.00  0.00    -0.507 OA
ATOM     21  H   UNL     1      15.969  -6.360 -34.282  1.00  0.00     0.293 HD
ENDBRANCH  17  20
BRANCH  15  22
ATOM     22  O   UNL     1      19.117  -5.149 -30.551  1.00  0.00    -0.508 OA
ATOM     23  H   UNL     1      18.410  -4.513 -30.199  1.00  0.00     0.293 HD
ENDBRANCH  15  22
TORSDOF 3
ENDMDL
MODEL 7
REMARK VINA RESULT:    -5.037      3.052      5.970
REMARK INTER + INTRA:          -5.479
REMARK INTER:                  -5.479
REMARK INTRA:                   0.000
REMARK UNBOUND:                 0.000
REMARK SMILES Cc1cc(O)c2c(c1)C(=O)c1cc(O)cc(O)c1C2=O
REMARK SMILES IDX 1 1 2 2 8 3 7 4 6 5 4 6 3 7 19 8 20 9 18 10 11 11 9 12 10 13
REMARK SMILES IDX 12 14 13 15 15 16 16 17 5 18 17 20 14 22
REMARK H PARENT 5 19 17 21 14 23
REMARK Flexibility Score: inf
ROOT
ATOM      1  C   UNL     1      11.155 -10.408 -32.747  1.00  0.00     0.044 C 
ATOM      2  C   UNL     1      12.229  -9.431 -33.128  1.00  0.00    -0.047 A 
ATOM      3  C   UNL     1      13.254  -9.125 -32.226  1.00  0.00     0.016 A 
ATOM      4  C   UNL     1      14.278  -8.232 -32.585  1.00  0.00     0.038 A 
ATOM      5  C   UNL     1      14.277  -7.637 -33.866  1.00  0.00     0.076 A 
ATOM      6  C   UNL     1      13.282  -8.017 -34.803  1.00  0.00     0.127 A 
ATOM      7  C   UNL     1      12.262  -8.891 -34.418  1.00  0.00     0.050 A 
ATOM      8  C   UNL     1      15.289  -6.590 -34.155  1.00  0.00     0.201 C 
ATOM      9  O   UNL     1      15.020  -5.666 -34.969  1.00  0.00    -0.288 OA
ATOM     10  C   UNL     1      16.536  -6.526 -33.349  1.00  0.00     0.076 A 
ATOM     11  C   UNL     1      16.535  -7.125 -32.069  1.00  0.00     0.041 A 
ATOM     12  C   UNL     1      15.365  -7.918 -31.626  1.00  0.00     0.194 C 
ATOM     13  O   UNL     1      15.306  -8.348 -30.441  1.00  0.00    -0.289 OA
ATOM     14  C   UNL     1      17.646  -6.968 -31.223  1.00  0.00     0.059 A 
ATOM     15  C   UNL     1      18.759  -6.238 -31.642  1.00  0.00     0.120 A 
ATOM     16  C   UNL     1      18.781  -5.679 -32.921  1.00  0.00     0.093 A 
ATOM     17  C   UNL     1      17.697  -5.838 -33.791  1.00  0.00     0.131 A 
ENDROOT
BRANCH   6  18
ATOM     18  O   UNL     1      13.290  -7.582 -36.131  1.00  0.00    -0.507 OA
ATOM     19  H   UNL     1      13.318  -6.607 -36.398  1.00  0.00     0.293 HD
ENDBRANCH   6  18
BRANCH  17  20
ATOM     20  O   UNL     1      17.829  -5.330 -35.085  1.00  0.00    -0.507 OA
ATOM     21  H   UNL     1      17.192  -4.656 -35.487  1.00  0.00     0.293 HD
ENDBRANCH  17  20
BRANCH  15  22
ATOM     22  O   UNL     1      19.844  -6.085 -30.781  1.00  0.00    -0.508 OA
ATOM     23  H   UNL     1      19.760  -5.579 -29.907  1.00  0.00     0.293 HD
ENDBRANCH  15  22
TORSDOF 3
ENDMDL
MODEL 8
REMARK VINA RESULT:    -5.002      2.757      6.651
REMARK INTER + INTRA:          -5.440
REMARK INTER:                  -5.440
REMARK INTRA:                   0.000
REMARK UNBOUND:                 0.000
REMARK SMILES Cc1cc(O)c2c(c1)C(=O)c1cc(O)cc(O)c1C2=O
REMARK SMILES IDX 1 1 2 2 8 3 7 4 6 5 4 6 3 7 19 8 20 9 18 10 11 11 9 12 10 13
REMARK SMILES IDX 12 14 13 15 15 16 16 17 5 18 17 20 14 22
REMARK H PARENT 5 19 17 21 14 23
REMARK Flexibility Score: inf
ROOT
ATOM      1  C   UNL     1      19.721  -5.397 -36.798  1.00  0.00     0.044 C 
ATOM      2  C   UNL     1      19.029  -5.898 -35.564  1.00  0.00    -0.047 A 
ATOM      3  C   UNL     1      17.631  -5.904 -35.494  1.00  0.00     0.016 A 
ATOM      4  C   UNL     1      16.975  -6.397 -34.353  1.00  0.00     0.038 A 
ATOM      5  C   UNL     1      17.729  -6.893 -33.267  1.00  0.00     0.076 A 
ATOM      6  C   UNL     1      19.142  -6.962 -33.379  1.00  0.00     0.127 A 
ATOM      7  C   UNL     1      19.774  -6.447 -34.515  1.00  0.00     0.050 A 
ATOM      8  C   UNL     1      17.008  -7.267 -32.023  1.00  0.00     0.201 C 
ATOM      9  O   UNL     1      17.583  -7.158 -30.908  1.00  0.00    -0.288 OA
ATOM     10  C   UNL     1      15.557  -7.586 -32.079  1.00  0.00     0.076 A 
ATOM     11  C   UNL     1      14.806  -7.091 -33.169  1.00  0.00     0.041 A 
ATOM     12  C   UNL     1      15.494  -6.406 -34.289  1.00  0.00     0.194 C 
ATOM     13  O   UNL     1      14.819  -5.853 -35.201  1.00  0.00    -0.289 OA
ATOM     14  C   UNL     1      13.411  -7.255 -33.189  1.00  0.00     0.059 A 
ATOM     15  C   UNL     1      12.760  -7.915 -32.147  1.00  0.00     0.120 A 
ATOM     16  C   UNL     1      13.502  -8.442 -31.088  1.00  0.00     0.093 A 
ATOM     17  C   UNL     1      14.894  -8.312 -31.055  1.00  0.00     0.131 A 
ENDROOT
BRANCH   6  18
ATOM     18  O   UNL     1      19.948  -7.564 -32.410  1.00  0.00    -0.507 OA
ATOM     19  H   UNL     1      20.320  -7.071 -31.610  1.00  0.00     0.293 HD
ENDBRANCH   6  18
BRANCH  17  20
ATOM     20  O   UNL     1      15.576  -8.942 -30.012  1.00  0.00    -0.507 OA
ATOM     21  H   UNL     1      15.118  -9.329 -29.198  1.00  0.00     0.293 HD
ENDBRANCH  17  20
BRANCH  15  22
ATOM     22  O   UNL     1      11.374  -8.054 -32.181  1.00  0.00    -0.508 OA
ATOM     23  H   UNL     1      10.858  -8.013 -33.052  1.00  0.00     0.293 HD
ENDBRANCH  15  22
TORSDOF 3
ENDMDL
MODEL 9
REMARK VINA RESULT:    -4.901      1.511      5.529
REMARK INTER + INTRA:          -5.331
REMARK INTER:                  -5.331
REMARK INTRA:                   0.000
REMARK UNBOUND:                 0.000
REMARK SMILES Cc1cc(O)c2c(c1)C(=O)c1cc(O)cc(O)c1C2=O
REMARK SMILES IDX 1 1 2 2 8 3 7 4 6 5 4 6 3 7 19 8 20 9 18 10 11 11 9 12 10 13
REMARK SMILES IDX 12 14 13 15 15 16 16 17 5 18 17 20 14 22
REMARK H PARENT 5 19 17 21 14 23
REMARK Flexibility Score: inf
ROOT
ATOM      1  C   UNL     1      21.660  -6.370 -38.734  1.00  0.00     0.044 C 
ATOM      2  C   UNL     1      21.198  -6.166 -37.321  1.00  0.00    -0.047 A 
ATOM      3  C   UNL     1      19.880  -6.467 -36.960  1.00  0.00     0.016 A 
ATOM      4  C   UNL     1      19.447  -6.305 -35.633  1.00  0.00     0.038 A 
ATOM      5  C   UNL     1      20.347  -5.834 -34.652  1.00  0.00     0.076 A 
ATOM      6  C   UNL     1      21.703  -5.610 -35.007  1.00  0.00     0.127 A 
ATOM      7  C   UNL     1      22.106  -5.759 -36.337  1.00  0.00     0.050 A 
ATOM      8  C   UNL     1      19.816  -5.534 -33.297  1.00  0.00     0.201 C 
ATOM      9  O   UNL     1      20.352  -4.632 -32.600  1.00  0.00    -0.288 OA
ATOM     10  C   UNL     1      18.547  -6.162 -32.847  1.00  0.00     0.076 A 
ATOM     11  C   UNL     1      17.650  -6.636 -33.831  1.00  0.00     0.041 A 
ATOM     12  C   UNL     1      18.051  -6.633 -35.258  1.00  0.00     0.194 C 
ATOM     13  O   UNL     1      17.211  -6.935 -36.150  1.00  0.00    -0.289 OA
ATOM     14  C   UNL     1      16.383  -7.110 -33.452  1.00  0.00     0.059 A 
ATOM     15  C   UNL     1      16.007  -7.133 -32.109  1.00  0.00     0.120 A 
ATOM     16  C   UNL     1      16.905  -6.705 -31.129  1.00  0.00     0.093 A 
ATOM     17  C   UNL     1      18.180  -6.247 -31.478  1.00  0.00     0.131 A 
ENDROOT
BRANCH   6  18
ATOM     18  O   UNL     1      22.684  -5.278 -34.070  1.00  0.00    -0.507 OA
ATOM     19  H   UNL     1      22.482  -4.832 -33.185  1.00  0.00     0.293 HD
ENDBRANCH   6  18
BRANCH  17  20
ATOM     20  O   UNL     1      19.055  -5.922 -30.439  1.00  0.00    -0.507 OA
ATOM     21  H   UNL     1      18.833  -6.052 -29.461  1.00  0.00     0.293 HD
ENDBRANCH  17  20
BRANCH  15  22
ATOM     22  O   UNL     1      14.741  -7.596 -31.758  1.00  0.00    -0.508 OA
ATOM     23  H   UNL     1      14.555  -8.583 -31.625  1.00  0.00     0.293 HD
ENDBRANCH  15  22
TORSDOF 3
ENDMDL
