MODEL 1
REMARK VINA RESULT:    -3.671      0.000      0.000
REMARK INTER + INTRA:          -5.191
REMARK INTER:                  -4.744
REMARK INTRA:                  -0.447
REMARK UNBOUND:                -0.447
REMARK SMILES C=CC(=O)CCCCC
REMARK SMILES IDX 6 1 7 2 8 3 9 4 5 5 3 6 4 7 2 8 1 9
REMARK H PARENT
REMARK Flexibility Score: inf
ROOT
ATOM      1  C   UNL     1      -6.732 -28.537 -18.581  1.00  0.00     0.008 C 
ENDROOT
BRANCH   1   2
ATOM      2  C   UNL     1      -6.135 -27.865 -19.826  1.00  0.00     0.000 C 
BRANCH   2   3
ATOM      3  C   UNL     1      -5.633 -28.882 -20.862  1.00  0.00    -0.003 C 
ATOM      4  C   UNL     1      -6.659 -29.167 -21.957  1.00  0.00     0.004 C 
ENDBRANCH   2   3
ENDBRANCH   1   2
BRANCH   1   5
ATOM      5  C   UNL     1      -8.267 -28.532 -18.635  1.00  0.00     0.080 C 
BRANCH   5   6
ATOM      6  C   UNL     1      -8.858 -29.913 -18.811  1.00  0.00     0.155 C 
ATOM      7  O   UNL     1      -8.735 -30.774 -17.898  1.00  0.00    -0.295 OA
BRANCH   6   8
ATOM      8  C   UNL     1      -9.583 -30.300 -20.038  1.00  0.00     0.039 C 
ATOM      9  C   UNL     1     -10.495 -29.528 -20.629  1.00  0.00     0.012 C 
ENDBRANCH   6   8
ENDBRANCH   5   6
ENDBRANCH   1   5
TORSDOF 5
ENDMDL
MODEL 2
REMARK VINA RESULT:    -3.578      2.068      3.399
REMARK INTER + INTRA:          -5.072
REMARK INTER:                  -4.898
REMARK INTRA:                  -0.174
REMARK UNBOUND:                -0.447
REMARK SMILES C=CC(=O)CCCCC
REMARK SMILES IDX 6 1 7 2 8 3 9 4 5 5 3 6 4 7 2 8 1 9
REMARK H PARENT
REMARK Flexibility Score: inf
ROOT
ATOM      1  C   UNL     1      -8.909 -27.382 -18.321  1.00  0.00     0.008 C 
ENDROOT
BRANCH   1   2
ATOM      2  C   UNL     1      -8.006 -26.145 -18.205  1.00  0.00     0.000 C 
BRANCH   2   3
ATOM      3  C   UNL     1      -8.695 -24.977 -17.484  1.00  0.00    -0.003 C 
ATOM      4  C   UNL     1      -9.936 -25.411 -16.705  1.00  0.00     0.004 C 
ENDBRANCH   2   3
ENDBRANCH   1   2
BRANCH   1   5
ATOM      5  C   UNL     1      -8.082 -28.639 -18.630  1.00  0.00     0.080 C 
BRANCH   5   6
ATOM      6  C   UNL     1      -8.932 -29.876 -18.815  1.00  0.00     0.155 C 
ATOM      7  O   UNL     1      -9.169 -30.632 -17.835  1.00  0.00    -0.295 OA
BRANCH   6   8
ATOM      8  C   UNL     1      -9.502 -30.240 -20.129  1.00  0.00     0.039 C 
ATOM      9  C   UNL     1     -10.577 -29.652 -20.654  1.00  0.00     0.012 C 
ENDBRANCH   6   8
ENDBRANCH   5   6
ENDBRANCH   1   5
TORSDOF 5
ENDMDL
MODEL 3
REMARK VINA RESULT:    -3.510      2.587      4.041
REMARK INTER + INTRA:          -4.983
REMARK INTER:                  -4.747
REMARK INTRA:                  -0.236
REMARK UNBOUND:                -0.447
REMARK SMILES C=CC(=O)CCCCC
REMARK SMILES IDX 6 1 7 2 8 3 9 4 5 5 3 6 4 7 2 8 1 9
REMARK H PARENT
REMARK Flexibility Score: inf
ROOT
ATOM      1  C   UNL     1      -8.217 -28.824 -18.534  1.00  0.00     0.008 C 
ENDROOT
BRANCH   1   2
ATOM      2  C   UNL     1      -8.315 -29.270 -20.000  1.00  0.00     0.000 C 
BRANCH   2   3
ATOM      3  C   UNL     1      -9.473 -30.249 -20.243  1.00  0.00    -0.003 C 
ATOM      4  C   UNL     1     -10.759 -29.549 -20.683  1.00  0.00     0.004 C 
ENDBRANCH   2   3
ENDBRANCH   1   2
BRANCH   1   5
ATOM      5  C   UNL     1      -8.022 -27.303 -18.433  1.00  0.00     0.080 C 
BRANCH   5   6
ATOM      6  C   UNL     1      -9.286 -26.567 -18.049  1.00  0.00     0.155 C 
ATOM      7  O   UNL     1     -10.399 -27.159 -18.090  1.00  0.00    -0.295 OA
BRANCH   6   8
ATOM      8  C   UNL     1      -9.265 -25.153 -17.622  1.00  0.00     0.039 C 
ATOM      9  C   UNL     1      -9.885 -24.703 -16.532  1.00  0.00     0.012 C 
ENDBRANCH   6   8
ENDBRANCH   5   6
ENDBRANCH   1   5
TORSDOF 5
ENDMDL
MODEL 4
REMARK VINA RESULT:    -3.503      1.361      2.297
REMARK INTER + INTRA:          -4.974
REMARK INTER:                  -4.751
REMARK INTRA:                  -0.223
REMARK UNBOUND:                -0.447
REMARK SMILES C=CC(=O)CCCCC
REMARK SMILES IDX 6 1 7 2 8 3 9 4 5 5 3 6 4 7 2 8 1 9
REMARK H PARENT
REMARK Flexibility Score: inf
ROOT
ATOM      1  C   UNL     1      -6.904 -28.524 -19.426  1.00  0.00     0.008 C 
ENDROOT
BRANCH   1   2
ATOM      2  C   UNL     1      -5.637 -28.209 -18.618  1.00  0.00     0.000 C 
BRANCH   2   3
ATOM      3  C   UNL     1      -5.229 -29.362 -17.688  1.00  0.00    -0.003 C 
ATOM      4  C   UNL     1      -4.127 -28.968 -16.705  1.00  0.00     0.004 C 
ENDBRANCH   2   3
ENDBRANCH   1   2
BRANCH   1   5
ATOM      5  C   UNL     1      -8.135 -28.602 -18.510  1.00  0.00     0.080 C 
BRANCH   5   6
ATOM      6  C   UNL     1      -8.970 -29.841 -18.744  1.00  0.00     0.155 C 
ATOM      7  O   UNL     1      -9.245 -30.608 -17.783  1.00  0.00    -0.295 OA
BRANCH   6   8
ATOM      8  C   UNL     1      -9.482 -30.193 -20.085  1.00  0.00     0.039 C 
ATOM      9  C   UNL     1     -10.562 -29.636 -20.631  1.00  0.00     0.012 C 
ENDBRANCH   6   8
ENDBRANCH   5   6
ENDBRANCH   1   5
TORSDOF 5
ENDMDL
MODEL 5
REMARK VINA RESULT:    -3.491      1.207      3.502
REMARK INTER + INTRA:          -4.958
REMARK INTER:                  -4.441
REMARK INTRA:                  -0.517
REMARK UNBOUND:                -0.447
REMARK SMILES C=CC(=O)CCCCC
REMARK SMILES IDX 6 1 7 2 8 3 9 4 5 5 3 6 4 7 2 8 1 9
REMARK H PARENT
REMARK Flexibility Score: inf
ROOT
ATOM      1  C   UNL     1      -9.341 -28.783 -18.422  1.00  0.00     0.008 C 
ENDROOT
BRANCH   1   2
ATOM      2  C   UNL     1     -10.390 -28.514 -19.511  1.00  0.00     0.000 C 
BRANCH   2   3
ATOM      3  C   UNL     1     -10.406 -29.601 -20.596  1.00  0.00    -0.003 C 
ATOM      4  C   UNL     1      -9.552 -30.814 -20.231  1.00  0.00     0.004 C 
ENDBRANCH   2   3
ENDBRANCH   1   2
BRANCH   1   5
ATOM      5  C   UNL     1      -8.145 -27.829 -18.563  1.00  0.00     0.080 C 
BRANCH   5   6
ATOM      6  C   UNL     1      -6.863 -28.538 -18.939  1.00  0.00     0.155 C 
ATOM      7  O   UNL     1      -6.345 -29.369 -18.146  1.00  0.00    -0.295 OA
BRANCH   6   8
ATOM      8  C   UNL     1      -6.182 -28.286 -20.226  1.00  0.00     0.039 C 
ATOM      9  C   UNL     1      -6.391 -29.010 -21.325  1.00  0.00     0.012 C 
ENDBRANCH   6   8
ENDBRANCH   5   6
ENDBRANCH   1   5
TORSDOF 5
ENDMDL
MODEL 6
REMARK VINA RESULT:    -3.444      5.594      6.609
REMARK INTER + INTRA:          -4.898
REMARK INTER:                  -4.299
REMARK INTRA:                  -0.599
REMARK UNBOUND:                -0.447
REMARK SMILES C=CC(=O)CCCCC
REMARK SMILES IDX 6 1 7 2 8 3 9 4 5 5 3 6 4 7 2 8 1 9
REMARK H PARENT
REMARK Flexibility Score: inf
ROOT
ATOM      1  C   UNL     1      -7.694 -22.155 -16.538  1.00  0.00     0.008 C 
ENDROOT
BRANCH   1   2
ATOM      2  C   UNL     1      -6.407 -22.362 -15.725  1.00  0.00     0.000 C 
BRANCH   2   3
ATOM      3  C   UNL     1      -5.420 -23.315 -16.416  1.00  0.00    -0.003 C 
ATOM      4  C   UNL     1      -5.128 -24.566 -15.589  1.00  0.00     0.004 C 
ENDBRANCH   2   3
ENDBRANCH   1   2
BRANCH   1   5
ATOM      5  C   UNL     1      -8.898 -22.800 -15.835  1.00  0.00     0.080 C 
BRANCH   5   6
ATOM      6  C   UNL     1      -9.101 -24.249 -16.217  1.00  0.00     0.155 C 
ATOM      7  O   UNL     1      -9.519 -25.076 -15.363  1.00  0.00    -0.295 OA
BRANCH   6   8
ATOM      8  C   UNL     1      -8.817 -24.741 -17.581  1.00  0.00     0.039 C 
ATOM      9  C   UNL     1      -7.996 -25.758 -17.842  1.00  0.00     0.012 C 
ENDBRANCH   6   8
ENDBRANCH   5   6
ENDBRANCH   1   5
TORSDOF 5
ENDMDL
MODEL 7
REMARK VINA RESULT:    -3.441      3.617      5.172
REMARK INTER + INTRA:          -4.894
REMARK INTER:                  -4.767
REMARK INTRA:                  -0.126
REMARK UNBOUND:                -0.447
REMARK SMILES C=CC(=O)CCCCC
REMARK SMILES IDX 6 1 7 2 8 3 9 4 5 5 3 6 4 7 2 8 1 9
REMARK H PARENT
REMARK Flexibility Score: inf
ROOT
ATOM      1  C   UNL     1     -10.136 -27.150 -18.657  1.00  0.00     0.008 C 
ENDROOT
BRANCH   1   2
ATOM      2  C   UNL     1      -9.998 -28.671 -18.499  1.00  0.00     0.000 C 
BRANCH   2   3
ATOM      3  C   UNL     1      -9.620 -29.369 -19.814  1.00  0.00    -0.003 C 
ATOM      4  C   UNL     1     -10.812 -29.543 -20.755  1.00  0.00     0.004 C 
ENDBRANCH   2   3
ENDBRANCH   1   2
BRANCH   1   5
ATOM      5  C   UNL     1      -8.944 -26.420 -18.018  1.00  0.00     0.080 C 
BRANCH   5   6
ATOM      6  C   UNL     1      -9.352 -25.480 -16.906  1.00  0.00     0.155 C 
ATOM      7  O   UNL     1     -10.503 -25.562 -16.400  1.00  0.00    -0.295 OA
BRANCH   6   8
ATOM      8  C   UNL     1      -8.433 -24.448 -16.382  1.00  0.00     0.039 C 
ATOM      9  C   UNL     1      -8.820 -23.215 -16.056  1.00  0.00     0.012 C 
ENDBRANCH   6   8
ENDBRANCH   5   6
ENDBRANCH   1   5
TORSDOF 5
ENDMDL
MODEL 8
REMARK VINA RESULT:    -3.392      7.379      8.470
REMARK INTER + INTRA:          -4.831
REMARK INTER:                  -4.323
REMARK INTRA:                  -0.508
REMARK UNBOUND:                -0.447
REMARK SMILES C=CC(=O)CCCCC
REMARK SMILES IDX 6 1 7 2 8 3 9 4 5 5 3 6 4 7 2 8 1 9
REMARK H PARENT
REMARK Flexibility Score: inf
ROOT
ATOM      1  C   UNL     1      -7.980 -21.182 -18.711  1.00  0.00     0.008 C 
ENDROOT
BRANCH   1   2
ATOM      2  C   UNL     1      -6.926 -20.077 -18.549  1.00  0.00     0.000 C 
BRANCH   2   3
ATOM      3  C   UNL     1      -5.565 -20.469 -19.144  1.00  0.00    -0.003 C 
ATOM      4  C   UNL     1      -4.408 -20.256 -18.168  1.00  0.00     0.004 C 
ENDBRANCH   2   3
ENDBRANCH   1   2
BRANCH   1   5
ATOM      5  C   UNL     1      -7.528 -22.479 -18.022  1.00  0.00     0.080 C 
BRANCH   5   6
ATOM      6  C   UNL     1      -7.511 -22.373 -16.513  1.00  0.00     0.155 C 
ATOM      7  O   UNL     1      -8.584 -22.183 -15.881  1.00  0.00    -0.295 OA
BRANCH   6   8
ATOM      8  C   UNL     1      -6.257 -22.483 -15.740  1.00  0.00     0.039 C 
ATOM      9  C   UNL     1      -5.492 -23.574 -15.726  1.00  0.00     0.012 C 
ENDBRANCH   6   8
ENDBRANCH   5   6
ENDBRANCH   1   5
TORSDOF 5
ENDMDL
MODEL 9
REMARK VINA RESULT:    -3.344      6.195      7.109
REMARK INTER + INTRA:          -4.768
REMARK INTER:                  -4.322
REMARK INTRA:                  -0.446
REMARK UNBOUND:                -0.447
REMARK SMILES C=CC(=O)CCCCC
REMARK SMILES IDX 6 1 7 2 8 3 9 4 5 5 3 6 4 7 2 8 1 9
REMARK H PARENT
REMARK Flexibility Score: inf
ROOT
ATOM      1  C   UNL     1      -6.999 -22.476 -15.769  1.00  0.00     0.008 C 
ENDROOT
BRANCH   1   2
ATOM      2  C   UNL     1      -6.103 -22.135 -16.969  1.00  0.00     0.000 C 
BRANCH   2   3
ATOM      3  C   UNL     1      -6.778 -21.168 -17.953  1.00  0.00    -0.003 C 
ATOM      4  C   UNL     1      -5.809 -20.133 -18.525  1.00  0.00     0.004 C 
ENDBRANCH   2   3
ENDBRANCH   1   2
BRANCH   1   5
ATOM      5  C   UNL     1      -8.485 -22.412 -16.157  1.00  0.00     0.080 C 
BRANCH   5   6
ATOM      6  C   UNL     1      -9.080 -23.771 -16.447  1.00  0.00     0.155 C 
ATOM      7  O   UNL     1      -9.615 -24.438 -15.520  1.00  0.00    -0.295 OA
BRANCH   6   8
ATOM      8  C   UNL     1      -9.056 -24.358 -17.802  1.00  0.00     0.039 C 
ATOM      9  C   UNL     1      -8.027 -25.054 -18.285  1.00  0.00     0.012 C 
ENDBRANCH   6   8
ENDBRANCH   5   6
ENDBRANCH   1   5
TORSDOF 5
ENDMDL
