MODEL 1
REMARK VINA RESULT:    -5.340      0.000      0.000
REMARK INTER + INTRA:          -6.283
REMARK INTER:                  -6.120
REMARK INTRA:                  -0.163
REMARK UNBOUND:                -0.163
REMARK SMILES CC=Cc1ccc(O)c(OC)c1
REMARK SMILES IDX 4 1 12 2 9 3 7 4 6 5 5 6 3 7 1 8 2 9 10 10 11 11 8 12
REMARK H PARENT 8 13
REMARK Flexibility Score: inf
ROOT
ATOM      1  C   UNL     1      13.785  45.342   4.737  1.00  0.00    -0.022 A 
ATOM      2  C   UNL     1      14.732  45.515   5.760  1.00  0.00     0.058 A 
ATOM      3  C   UNL     1      15.976  44.852   5.715  1.00  0.00     0.161 A 
ATOM      4  C   UNL     1      16.262  44.003   4.638  1.00  0.00     0.157 A 
ATOM      5  C   UNL     1      15.317  43.813   3.623  1.00  0.00     0.051 A 
ATOM      6  C   UNL     1      14.087  44.472   3.670  1.00  0.00     0.012 A 
ENDROOT
BRANCH   1   7
ATOM      7  C   UNL     1      12.489  46.056   4.839  1.00  0.00     0.003 C 
ATOM      8  C   UNL     1      10.824  47.538   5.890  1.00  0.00     0.035 C 
ATOM      9  C   UNL     1      12.159  46.865   5.853  1.00  0.00    -0.030 C 
ENDBRANCH   1   7
BRANCH   3  10
ATOM     10  O   UNL     1      16.946  45.013   6.716  1.00  0.00    -0.493 OA
ATOM     11  C   UNL     1      16.688  44.914   8.113  1.00  0.00     0.278 C 
ENDBRANCH   3  10
BRANCH   4  12
ATOM     12  O   UNL     1      17.489  43.345   4.587  1.00  0.00    -0.504 OA
ATOM     13  H   UNL     1      17.989  43.088   5.430  1.00  0.00     0.293 HD
ENDBRANCH   4  12
TORSDOF 3
ENDMDL
MODEL 2
REMARK VINA RESULT:    -5.277      3.328      5.671
REMARK INTER + INTRA:          -6.211
REMARK INTER:                  -6.040
REMARK INTRA:                  -0.171
REMARK UNBOUND:                -0.163
REMARK SMILES CC=Cc1ccc(O)c(OC)c1
REMARK SMILES IDX 4 1 12 2 9 3 7 4 6 5 5 6 3 7 1 8 2 9 10 10 11 11 8 12
REMARK H PARENT 8 13
REMARK Flexibility Score: inf
ROOT
ATOM      1  C   UNL     1      16.155  41.898   8.407  1.00  0.00    -0.022 A 
ATOM      2  C   UNL     1      15.190  42.395   7.514  1.00  0.00     0.058 A 
ATOM      3  C   UNL     1      15.367  43.640   6.878  1.00  0.00     0.161 A 
ATOM      4  C   UNL     1      16.517  44.393   7.150  1.00  0.00     0.157 A 
ATOM      5  C   UNL     1      17.474  43.911   8.050  1.00  0.00     0.051 A 
ATOM      6  C   UNL     1      17.296  42.676   8.678  1.00  0.00     0.012 A 
ENDROOT
BRANCH   1   7
ATOM      7  C   UNL     1      15.913  40.585   9.056  1.00  0.00     0.003 C 
ATOM      8  C   UNL     1      14.611  38.911  10.310  1.00  0.00     0.035 C 
ATOM      9  C   UNL     1      14.770  40.251   9.667  1.00  0.00    -0.030 C 
ENDBRANCH   1   7
BRANCH   3  10
ATOM     10  O   UNL     1      14.427  44.158   5.974  1.00  0.00    -0.493 OA
ATOM     11  C   UNL     1      14.307  43.756   4.614  1.00  0.00     0.278 C 
ENDBRANCH   3  10
BRANCH   4  12
ATOM     12  O   UNL     1      16.698  45.624   6.524  1.00  0.00    -0.504 OA
ATOM     13  H   UNL     1      17.622  45.981   6.314  1.00  0.00     0.293 HD
ENDBRANCH   4  12
TORSDOF 3
ENDMDL
MODEL 3
REMARK VINA RESULT:    -5.271     11.434     13.467
REMARK INTER + INTRA:          -6.205
REMARK INTER:                  -6.033
REMARK INTRA:                  -0.171
REMARK UNBOUND:                -0.163
REMARK SMILES CC=Cc1ccc(O)c(OC)c1
REMARK SMILES IDX 4 1 12 2 9 3 7 4 6 5 5 6 3 7 1 8 2 9 10 10 11 11 8 12
REMARK H PARENT 8 13
REMARK Flexibility Score: inf
ROOT
ATOM      1  C   UNL     1      16.254  34.105   0.624  1.00  0.00    -0.022 A 
ATOM      2  C   UNL     1      16.736  32.795   0.465  1.00  0.00     0.058 A 
ATOM      3  C   UNL     1      16.276  31.978  -0.587  1.00  0.00     0.161 A 
ATOM      4  C   UNL     1      15.318  32.479  -1.478  1.00  0.00     0.157 A 
ATOM      5  C   UNL     1      14.822  33.778  -1.317  1.00  0.00     0.051 A 
ATOM      6  C   UNL     1      15.280  34.586  -0.274  1.00  0.00     0.012 A 
ENDROOT
BRANCH   1   7
ATOM      7  C   UNL     1      16.766  34.919   1.754  1.00  0.00     0.003 C 
ATOM      8  C   UNL     1      17.366  37.003   2.923  1.00  0.00     0.035 C 
ATOM      9  C   UNL     1      16.822  36.256   1.748  1.00  0.00    -0.030 C 
ENDBRANCH   1   7
BRANCH   3  10
ATOM     10  O   UNL     1      16.745  30.669  -0.777  1.00  0.00    -0.493 OA
ATOM     11  C   UNL     1      18.120  30.302  -0.818  1.00  0.00     0.278 C 
ENDBRANCH   3  10
BRANCH   4  12
ATOM     12  O   UNL     1      14.859  31.676  -2.520  1.00  0.00    -0.504 OA
ATOM     13  H   UNL     1      14.580  30.715  -2.366  1.00  0.00     0.293 HD
ENDBRANCH   4  12
TORSDOF 3
ENDMDL
MODEL 4
REMARK VINA RESULT:    -5.262      2.366      3.725
REMARK INTER + INTRA:          -6.194
REMARK INTER:                  -6.033
REMARK INTRA:                  -0.161
REMARK UNBOUND:                -0.163
REMARK SMILES CC=Cc1ccc(O)c(OC)c1
REMARK SMILES IDX 4 1 12 2 9 3 7 4 6 5 5 6 3 7 1 8 2 9 10 10 11 11 8 12
REMARK H PARENT 8 13
REMARK Flexibility Score: inf
ROOT
ATOM      1  C   UNL     1      14.463  43.901   5.064  1.00  0.00    -0.022 A 
ATOM      2  C   UNL     1      14.916  43.023   6.062  1.00  0.00     0.058 A 
ATOM      3  C   UNL     1      15.368  43.511   7.305  1.00  0.00     0.161 A 
ATOM      4  C   UNL     1      15.374  44.892   7.539  1.00  0.00     0.157 A 
ATOM      5  C   UNL     1      14.939  45.774   6.543  1.00  0.00     0.051 A 
ATOM      6  C   UNL     1      14.490  45.287   5.313  1.00  0.00     0.012 A 
ENDROOT
BRANCH   1   7
ATOM      7  C   UNL     1      14.006  43.334   3.771  1.00  0.00     0.003 C 
ATOM      8  C   UNL     1      12.465  42.130   2.272  1.00  0.00     0.035 C 
ATOM      9  C   UNL     1      12.847  42.686   3.606  1.00  0.00    -0.030 C 
ENDBRANCH   1   7
BRANCH   3  10
ATOM     10  O   UNL     1      15.817  42.658   8.325  1.00  0.00    -0.493 OA
ATOM     11  C   UNL     1      15.027  41.642   8.935  1.00  0.00     0.278 C 
ENDBRANCH   3  10
BRANCH   4  12
ATOM     12  O   UNL     1      15.819  45.381   8.765  1.00  0.00    -0.504 OA
ATOM     13  H   UNL     1      16.799  45.360   9.020  1.00  0.00     0.293 HD
ENDBRANCH   4  12
TORSDOF 3
ENDMDL
MODEL 5
REMARK VINA RESULT:    -5.237      2.407      3.750
REMARK INTER + INTRA:          -6.165
REMARK INTER:                  -5.989
REMARK INTRA:                  -0.176
REMARK UNBOUND:                -0.163
REMARK SMILES CC=Cc1ccc(O)c(OC)c1
REMARK SMILES IDX 4 1 12 2 9 3 7 4 6 5 5 6 3 7 1 8 2 9 10 10 11 11 8 12
REMARK H PARENT 8 13
REMARK Flexibility Score: inf
ROOT
ATOM      1  C   UNL     1      15.438  44.300   6.399  1.00  0.00    -0.022 A 
ATOM      2  C   UNL     1      15.436  42.979   6.876  1.00  0.00     0.058 A 
ATOM      3  C   UNL     1      16.238  42.605   7.973  1.00  0.00     0.161 A 
ATOM      4  C   UNL     1      17.054  43.564   8.586  1.00  0.00     0.157 A 
ATOM      5  C   UNL     1      17.073  44.879   8.106  1.00  0.00     0.051 A 
ATOM      6  C   UNL     1      16.276  45.247   7.019  1.00  0.00     0.012 A 
ENDROOT
BRANCH   1   7
ATOM      7  C   UNL     1      14.581  44.637   5.235  1.00  0.00     0.003 C 
ATOM      8  C   UNL     1      12.969  45.994   3.958  1.00  0.00     0.035 C 
ATOM      9  C   UNL     1      13.816  45.733   5.161  1.00  0.00    -0.030 C 
ENDBRANCH   1   7
BRANCH   3  10
ATOM     10  O   UNL     1      16.250  41.295   8.479  1.00  0.00    -0.493 OA
ATOM     11  C   UNL     1      15.168  40.690   9.178  1.00  0.00     0.278 C 
ENDBRANCH   3  10
BRANCH   4  12
ATOM     12  O   UNL     1      17.849  43.201   9.671  1.00  0.00    -0.504 OA
ATOM     13  H   UNL     1      17.443  42.928  10.558  1.00  0.00     0.293 HD
ENDBRANCH   4  12
TORSDOF 3
ENDMDL
MODEL 6
REMARK VINA RESULT:    -5.201     11.231     13.396
REMARK INTER + INTRA:          -6.124
REMARK INTER:                  -5.958
REMARK INTRA:                  -0.166
REMARK UNBOUND:                -0.163
REMARK SMILES CC=Cc1ccc(O)c(OC)c1
REMARK SMILES IDX 4 1 12 2 9 3 7 4 6 5 5 6 3 7 1 8 2 9 10 10 11 11 8 12
REMARK H PARENT 8 13
REMARK Flexibility Score: inf
ROOT
ATOM      1  C   UNL     1      16.256  33.816   0.356  1.00  0.00    -0.022 A 
ATOM      2  C   UNL     1      15.272  34.324  -0.510  1.00  0.00     0.058 A 
ATOM      3  C   UNL     1      14.902  33.622  -1.675  1.00  0.00     0.161 A 
ATOM      4  C   UNL     1      15.533  32.408  -1.974  1.00  0.00     0.157 A 
ATOM      5  C   UNL     1      16.525  31.904  -1.125  1.00  0.00     0.051 A 
ATOM      6  C   UNL     1      16.889  32.601   0.029  1.00  0.00     0.012 A 
ENDROOT
BRANCH   1   7
ATOM      7  C   UNL     1      16.613  34.601   1.564  1.00  0.00     0.003 C 
ATOM      8  C   UNL     1      17.174  36.641   2.826  1.00  0.00     0.035 C 
ATOM      9  C   UNL     1      16.801  35.926   1.567  1.00  0.00    -0.030 C 
ENDBRANCH   1   7
BRANCH   3  10
ATOM     10  O   UNL     1      13.917  34.098  -2.553  1.00  0.00    -0.493 OA
ATOM     11  C   UNL     1      14.148  35.052  -3.585  1.00  0.00     0.278 C 
ENDBRANCH   3  10
BRANCH   4  12
ATOM     12  O   UNL     1      15.172  31.709  -3.124  1.00  0.00    -0.504 OA
ATOM     13  H   UNL     1      14.307  31.185  -3.176  1.00  0.00     0.293 HD
ENDBRANCH   4  12
TORSDOF 3
ENDMDL
MODEL 7
REMARK VINA RESULT:    -5.194      1.682      2.426
REMARK INTER + INTRA:          -6.116
REMARK INTER:                  -5.946
REMARK INTRA:                  -0.170
REMARK UNBOUND:                -0.163
REMARK SMILES CC=Cc1ccc(O)c(OC)c1
REMARK SMILES IDX 4 1 12 2 9 3 7 4 6 5 5 6 3 7 1 8 2 9 10 10 11 11 8 12
REMARK H PARENT 8 13
REMARK Flexibility Score: inf
ROOT
ATOM      1  C   UNL     1      12.005  46.488   6.078  1.00  0.00    -0.022 A 
ATOM      2  C   UNL     1      13.166  46.245   6.831  1.00  0.00     0.058 A 
ATOM      3  C   UNL     1      14.377  45.896   6.200  1.00  0.00     0.161 A 
ATOM      4  C   UNL     1      14.416  45.779   4.805  1.00  0.00     0.157 A 
ATOM      5  C   UNL     1      13.259  46.004   4.049  1.00  0.00     0.051 A 
ATOM      6  C   UNL     1      12.061  46.352   4.677  1.00  0.00     0.012 A 
ENDROOT
BRANCH   1   7
ATOM      7  C   UNL     1      10.755  46.845   6.794  1.00  0.00     0.003 C 
ATOM      8  C   UNL     1       8.626  48.040   7.127  1.00  0.00     0.035 C 
ATOM      9  C   UNL     1       9.856  47.724   6.338  1.00  0.00    -0.030 C 
ENDBRANCH   1   7
BRANCH   3  10
ATOM     10  O   UNL     1      15.556  45.657   6.924  1.00  0.00    -0.493 OA
ATOM     11  C   UNL     1      15.661  44.756   8.021  1.00  0.00     0.278 C 
ENDBRANCH   3  10
BRANCH   4  12
ATOM     12  O   UNL     1      15.609  45.434   4.175  1.00  0.00    -0.504 OA
ATOM     13  H   UNL     1      15.836  44.471   3.959  1.00  0.00     0.293 HD
ENDBRANCH   4  12
TORSDOF 3
ENDMDL
MODEL 8
REMARK VINA RESULT:    -5.011      3.097      5.114
REMARK INTER + INTRA:          -5.907
REMARK INTER:                  -5.739
REMARK INTRA:                  -0.168
REMARK UNBOUND:                -0.163
REMARK SMILES CC=Cc1ccc(O)c(OC)c1
REMARK SMILES IDX 4 1 12 2 9 3 7 4 6 5 5 6 3 7 1 8 2 9 10 10 11 11 8 12
REMARK H PARENT 8 13
REMARK Flexibility Score: inf
ROOT
ATOM      1  C   UNL     1      15.698  42.732   7.586  1.00  0.00    -0.022 A 
ATOM      2  C   UNL     1      14.767  43.611   8.163  1.00  0.00     0.058 A 
ATOM      3  C   UNL     1      14.463  44.845   7.553  1.00  0.00     0.161 A 
ATOM      4  C   UNL     1      15.107  45.199   6.361  1.00  0.00     0.157 A 
ATOM      5  C   UNL     1      16.048  44.334   5.788  1.00  0.00     0.051 A 
ATOM      6  C   UNL     1      16.346  43.112   6.394  1.00  0.00     0.012 A 
ENDROOT
BRANCH   1   7
ATOM      7  C   UNL     1      15.987  41.450   8.275  1.00  0.00     0.003 C 
ATOM      8  C   UNL     1      15.484  39.521   9.723  1.00  0.00     0.035 C 
ATOM      9  C   UNL     1      15.110  40.803   9.051  1.00  0.00    -0.030 C 
ENDBRANCH   1   7
BRANCH   3  10
ATOM     10  O   UNL     1      13.531  45.740   8.101  1.00  0.00    -0.493 OA
ATOM     11  C   UNL     1      12.152  45.448   8.302  1.00  0.00     0.278 C 
ENDBRANCH   3  10
BRANCH   4  12
ATOM     12  O   UNL     1      14.811  46.417   5.753  1.00  0.00    -0.504 OA
ATOM     13  H   UNL     1      14.029  46.515   5.116  1.00  0.00     0.293 HD
ENDBRANCH   4  12
TORSDOF 3
ENDMDL
MODEL 9
REMARK VINA RESULT:    -5.001      2.243      3.184
REMARK INTER + INTRA:          -5.894
REMARK INTER:                  -5.737
REMARK INTRA:                  -0.157
REMARK UNBOUND:                -0.163
REMARK SMILES CC=Cc1ccc(O)c(OC)c1
REMARK SMILES IDX 4 1 12 2 9 3 7 4 6 5 5 6 3 7 1 8 2 9 10 10 11 11 8 12
REMARK H PARENT 8 13
REMARK Flexibility Score: inf
ROOT
ATOM      1  C   UNL     1      13.448  44.656   6.117  1.00  0.00    -0.022 A 
ATOM      2  C   UNL     1      14.774  44.192   6.150  1.00  0.00     0.058 A 
ATOM      3  C   UNL     1      15.352  43.735   7.352  1.00  0.00     0.161 A 
ATOM      4  C   UNL     1      14.593  43.757   8.529  1.00  0.00     0.157 A 
ATOM      5  C   UNL     1      13.277  44.233   8.508  1.00  0.00     0.051 A 
ATOM      6  C   UNL     1      12.707  44.683   7.315  1.00  0.00     0.012 A 
ENDROOT
BRANCH   1   7
ATOM      7  C   UNL     1      12.893  45.133   4.826  1.00  0.00     0.003 C 
ATOM      8  C   UNL     1      11.897  46.779   3.287  1.00  0.00     0.035 C 
ATOM      9  C   UNL     1      12.456  46.380   4.615  1.00  0.00    -0.030 C 
ENDBRANCH   1   7
BRANCH   3  10
ATOM     10  O   UNL     1      16.670  43.257   7.414  1.00  0.00    -0.493 OA
ATOM     11  C   UNL     1      17.743  43.742   6.615  1.00  0.00     0.278 C 
ENDBRANCH   3  10
BRANCH   4  12
ATOM     12  O   UNL     1      15.158  43.307   9.721  1.00  0.00    -0.504 OA
ATOM     13  H   UNL     1      16.036  43.678  10.065  1.00  0.00     0.293 HD
ENDBRANCH   4  12
TORSDOF 3
ENDMDL
