MODEL 1
REMARK VINA RESULT:    -4.213      0.000      0.000
REMARK INTER + INTRA:          -4.582
REMARK INTER:                  -4.582
REMARK INTRA:                   0.000
REMARK UNBOUND:                 0.000
REMARK SMILES Oc1cccc(O)c1O
REMARK SMILES IDX 4 1 5 2 6 3 8 4 2 5 3 6 7 7 1 9 9 11
REMARK H PARENT 7 8 1 10 9 12
REMARK Flexibility Score: inf
ROOT
ATOM      1  C   UNL     1       7.973  24.653  -5.651  1.00  0.00     0.008 A 
ATOM      2  C   UNL     1       8.523  23.449  -6.092  1.00  0.00     0.050 A 
ATOM      3  C   UNL     1       9.368  22.702  -5.262  1.00  0.00     0.161 A 
ATOM      4  C   UNL     1       9.666  23.179  -3.960  1.00  0.00     0.200 A 
ATOM      5  C   UNL     1       9.105  24.397  -3.525  1.00  0.00     0.161 A 
ATOM      6  C   UNL     1       8.264  25.125  -4.371  1.00  0.00     0.050 A 
ENDROOT
BRANCH   3   7
ATOM      7  O   UNL     1       9.884  21.507  -5.766  1.00  0.00    -0.504 OA
ATOM      8  H   UNL     1       9.413  20.931  -6.448  1.00  0.00     0.293 HD
ENDBRANCH   3   7
BRANCH   5   9
ATOM      9  O   UNL     1       9.374  24.900  -2.252  1.00  0.00    -0.504 OA
ATOM     10  H   UNL     1       8.756  24.739  -1.465  1.00  0.00     0.293 HD
ENDBRANCH   5   9
BRANCH   4  11
ATOM     11  O   UNL     1      10.502  22.482  -3.084  1.00  0.00    -0.502 OA
ATOM     12  H   UNL     1      10.318  22.364  -2.099  1.00  0.00     0.293 HD
ENDBRANCH   4  11
TORSDOF 3
ENDMDL
MODEL 2
REMARK VINA RESULT:    -4.192      0.090      2.825
REMARK INTER + INTRA:          -4.560
REMARK INTER:                  -4.560
REMARK INTRA:                   0.000
REMARK UNBOUND:                 0.000
REMARK SMILES Oc1cccc(O)c1O
REMARK SMILES IDX 4 1 5 2 6 3 8 4 2 5 3 6 7 7 1 9 9 11
REMARK H PARENT 7 8 1 10 9 12
REMARK Flexibility Score: inf
ROOT
ATOM      1  C   UNL     1       7.898  24.605  -5.699  1.00  0.00     0.008 A 
ATOM      2  C   UNL     1       8.195  25.125  -4.440  1.00  0.00     0.050 A 
ATOM      3  C   UNL     1       9.063  24.448  -3.574  1.00  0.00     0.161 A 
ATOM      4  C   UNL     1       9.643  23.222  -3.985  1.00  0.00     0.200 A 
ATOM      5  C   UNL     1       9.336  22.705  -5.260  1.00  0.00     0.161 A 
ATOM      6  C   UNL     1       8.467  23.399  -6.108  1.00  0.00     0.050 A 
ENDROOT
BRANCH   3   7
ATOM      7  O   UNL     1       9.317  25.025  -2.328  1.00  0.00    -0.504 OA
ATOM      8  H   UNL     1       9.993  24.669  -1.667  1.00  0.00     0.293 HD
ENDBRANCH   3   7
BRANCH   5   9
ATOM      9  O   UNL     1       9.886  21.502  -5.702  1.00  0.00    -0.504 OA
ATOM     10  H   UNL     1      10.510  20.948  -5.127  1.00  0.00     0.293 HD
ENDBRANCH   5   9
BRANCH   4  11
ATOM     11  O   UNL     1      10.516  22.499  -3.168  1.00  0.00    -0.502 OA
ATOM     12  H   UNL     1      10.220  21.912  -2.402  1.00  0.00     0.293 HD
ENDBRANCH   4  11
TORSDOF 3
ENDMDL
MODEL 3
REMARK VINA RESULT:    -3.576      1.805      2.900
REMARK INTER + INTRA:          -3.890
REMARK INTER:                  -3.890
REMARK INTRA:                   0.000
REMARK UNBOUND:                 0.000
REMARK SMILES Oc1cccc(O)c1O
REMARK SMILES IDX 4 1 5 2 6 3 8 4 2 5 3 6 7 7 1 9 9 11
REMARK H PARENT 7 8 1 10 9 12
REMARK Flexibility Score: inf
ROOT
ATOM      1  C   UNL     1       9.578  25.125  -2.821  1.00  0.00     0.008 A 
ATOM      2  C   UNL     1      10.827  24.504  -2.804  1.00  0.00     0.050 A 
ATOM      3  C   UNL     1      11.201  23.625  -3.828  1.00  0.00     0.161 A 
ATOM      4  C   UNL     1      10.298  23.365  -4.890  1.00  0.00     0.200 A 
ATOM      5  C   UNL     1       9.039  23.998  -4.897  1.00  0.00     0.161 A 
ATOM      6  C   UNL     1       8.688  24.873  -3.865  1.00  0.00     0.050 A 
ENDROOT
BRANCH   3   7
ATOM      7  O   UNL     1      12.465  23.037  -3.750  1.00  0.00    -0.504 OA
ATOM      8  H   UNL     1      13.045  22.832  -4.551  1.00  0.00     0.293 HD
ENDBRANCH   3   7
BRANCH   5   9
ATOM      9  O   UNL     1       8.123  23.770  -5.924  1.00  0.00    -0.504 OA
ATOM     10  H   UNL     1       7.420  23.042  -5.870  1.00  0.00     0.293 HD
ENDBRANCH   5   9
BRANCH   4  11
ATOM     11  O   UNL     1      10.612  22.499  -5.940  1.00  0.00    -0.502 OA
ATOM     12  H   UNL     1      11.552  22.234  -6.195  1.00  0.00     0.293 HD
ENDBRANCH   4  11
TORSDOF 3
ENDMDL
MODEL 4
REMARK VINA RESULT:    -3.524      2.047      3.825
REMARK INTER + INTRA:          -3.833
REMARK INTER:                  -3.833
REMARK INTRA:                   0.000
REMARK UNBOUND:                 0.000
REMARK SMILES Oc1cccc(O)c1O
REMARK SMILES IDX 4 1 5 2 6 3 8 4 2 5 3 6 7 7 1 9 9 11
REMARK H PARENT 7 8 1 10 9 12
REMARK Flexibility Score: inf
ROOT
ATOM      1  C   UNL     1      12.347  24.907  -3.382  1.00  0.00     0.008 A 
ATOM      2  C   UNL     1      11.146  25.090  -2.695  1.00  0.00     0.050 A 
ATOM      3  C   UNL     1       9.967  24.485  -3.146  1.00  0.00     0.161 A 
ATOM      4  C   UNL     1       9.997  23.681  -4.313  1.00  0.00     0.200 A 
ATOM      5  C   UNL     1      11.215  23.503  -4.999  1.00  0.00     0.161 A 
ATOM      6  C   UNL     1      12.380  24.116  -4.530  1.00  0.00     0.050 A 
ENDROOT
BRANCH   3   7
ATOM      7  O   UNL     1       8.800  24.709  -2.412  1.00  0.00    -0.504 OA
ATOM      8  H   UNL     1       8.729  25.369  -1.651  1.00  0.00     0.293 HD
ENDBRANCH   3   7
BRANCH   5   9
ATOM      9  O   UNL     1      11.286  22.719  -6.151  1.00  0.00    -0.504 OA
ATOM     10  H   UNL     1      12.136  22.245  -6.431  1.00  0.00     0.293 HD
ENDBRANCH   5   9
BRANCH   4  11
ATOM     11  O   UNL     1       8.854  23.050  -4.813  1.00  0.00    -0.502 OA
ATOM     12  H   UNL     1       8.750  22.050  -4.897  1.00  0.00     0.293 HD
ENDBRANCH   4  11
TORSDOF 3
ENDMDL
MODEL 5
REMARK VINA RESULT:    -3.448      2.061      2.766
REMARK INTER + INTRA:          -3.750
REMARK INTER:                  -3.750
REMARK INTRA:                   0.000
REMARK UNBOUND:                 0.000
REMARK SMILES Oc1cccc(O)c1O
REMARK SMILES IDX 4 1 5 2 6 3 8 4 2 5 3 6 7 7 1 9 9 11
REMARK H PARENT 7 8 1 10 9 12
REMARK Flexibility Score: inf
ROOT
ATOM      1  C   UNL     1      12.358  24.859  -3.378  1.00  0.00     0.008 A 
ATOM      2  C   UNL     1      12.359  24.083  -4.537  1.00  0.00     0.050 A 
ATOM      3  C   UNL     1      11.173  23.510  -5.013  1.00  0.00     0.161 A 
ATOM      4  C   UNL     1       9.963  23.722  -4.306  1.00  0.00     0.200 A 
ATOM      5  C   UNL     1       9.974  24.508  -3.136  1.00  0.00     0.161 A 
ATOM      6  C   UNL     1      11.169  25.071  -2.680  1.00  0.00     0.050 A 
ENDROOT
BRANCH   3   7
ATOM      7  O   UNL     1      11.244  22.744  -6.178  1.00  0.00    -0.504 OA
ATOM      8  H   UNL     1      11.692  23.050  -7.030  1.00  0.00     0.293 HD
ENDBRANCH   3   7
BRANCH   5   9
ATOM      9  O   UNL     1       8.804  24.740  -2.413  1.00  0.00    -0.504 OA
ATOM     10  H   UNL     1       8.812  24.957  -1.424  1.00  0.00     0.293 HD
ENDBRANCH   5   9
BRANCH   4  11
ATOM     11  O   UNL     1       8.747  23.177  -4.729  1.00  0.00    -0.502 OA
ATOM     12  H   UNL     1       8.483  22.212  -4.599  1.00  0.00     0.293 HD
ENDBRANCH   4  11
TORSDOF 3
ENDMDL
MODEL 6
REMARK VINA RESULT:    -3.430      3.075      3.423
REMARK INTER + INTRA:          -3.731
REMARK INTER:                  -3.731
REMARK INTRA:                   0.000
REMARK UNBOUND:                 0.000
REMARK SMILES Oc1cccc(O)c1O
REMARK SMILES IDX 4 1 5 2 6 3 8 4 2 5 3 6 7 7 1 9 9 11
REMARK H PARENT 7 8 1 10 9 12
REMARK Flexibility Score: inf
ROOT
ATOM      1  C   UNL     1       9.030  24.398  -6.939  1.00  0.00     0.008 A 
ATOM      2  C   UNL     1       7.934  23.537  -6.886  1.00  0.00     0.050 A 
ATOM      3  C   UNL     1       8.117  22.156  -6.745  1.00  0.00     0.161 A 
ATOM      4  C   UNL     1       9.431  21.632  -6.657  1.00  0.00     0.200 A 
ATOM      5  C   UNL     1      10.531  22.512  -6.712  1.00  0.00     0.161 A 
ATOM      6  C   UNL     1      10.324  23.887  -6.851  1.00  0.00     0.050 A 
ENDROOT
BRANCH   3   7
ATOM      7  O   UNL     1       6.977  21.350  -6.700  1.00  0.00    -0.504 OA
ATOM      8  H   UNL     1       6.964  20.409  -6.334  1.00  0.00     0.293 HD
ENDBRANCH   3   7
BRANCH   5   9
ATOM      9  O   UNL     1      11.840  22.035  -6.628  1.00  0.00    -0.504 OA
ATOM     10  H   UNL     1      12.130  21.170  -7.067  1.00  0.00     0.293 HD
ENDBRANCH   5   9
BRANCH   4  11
ATOM     11  O   UNL     1       9.680  20.264  -6.516  1.00  0.00    -0.502 OA
ATOM     12  H   UNL     1       9.716  19.612  -7.286  1.00  0.00     0.293 HD
ENDBRANCH   4  11
TORSDOF 3
ENDMDL
MODEL 7
REMARK VINA RESULT:    -3.397      2.143      3.077
REMARK INTER + INTRA:          -3.695
REMARK INTER:                  -3.695
REMARK INTRA:                   0.000
REMARK UNBOUND:                 0.000
REMARK SMILES Oc1cccc(O)c1O
REMARK SMILES IDX 4 1 5 2 6 3 8 4 2 5 3 6 7 7 1 9 9 11
REMARK H PARENT 7 8 1 10 9 12
REMARK Flexibility Score: inf
ROOT
ATOM      1  C   UNL     1      10.908  24.992  -6.417  1.00  0.00     0.008 A 
ATOM      2  C   UNL     1       9.762  25.105  -5.630  1.00  0.00     0.050 A 
ATOM      3  C   UNL     1       9.687  24.470  -4.384  1.00  0.00     0.161 A 
ATOM      4  C   UNL     1      10.788  23.705  -3.923  1.00  0.00     0.200 A 
ATOM      5  C   UNL     1      11.941  23.598  -4.727  1.00  0.00     0.161 A 
ATOM      6  C   UNL     1      11.994  24.241  -5.966  1.00  0.00     0.050 A 
ENDROOT
BRANCH   3   7
ATOM      7  O   UNL     1       8.511  24.623  -3.647  1.00  0.00    -0.504 OA
ATOM      8  H   UNL     1       8.346  24.193  -2.748  1.00  0.00     0.293 HD
ENDBRANCH   3   7
BRANCH   5   9
ATOM      9  O   UNL     1      13.045  22.855  -4.308  1.00  0.00    -0.504 OA
ATOM     10  H   UNL     1      12.950  21.975  -3.816  1.00  0.00     0.293 HD
ENDBRANCH   5   9
BRANCH   4  11
ATOM     11  O   UNL     1      10.774  23.048  -2.690  1.00  0.00    -0.502 OA
ATOM     12  H   UNL     1      10.063  22.390  -2.406  1.00  0.00     0.293 HD
ENDBRANCH   4  11
TORSDOF 3
ENDMDL
MODEL 8
REMARK VINA RESULT:    -3.225      2.023      2.834
REMARK INTER + INTRA:          -3.508
REMARK INTER:                  -3.508
REMARK INTRA:                   0.000
REMARK UNBOUND:                 0.000
REMARK SMILES Oc1cccc(O)c1O
REMARK SMILES IDX 4 1 5 2 6 3 8 4 2 5 3 6 7 7 1 9 9 11
REMARK H PARENT 7 8 1 10 9 12
REMARK Flexibility Score: inf
ROOT
ATOM      1  C   UNL     1      12.293  23.784  -4.644  1.00  0.00     0.008 A 
ATOM      2  C   UNL     1      11.085  23.562  -5.303  1.00  0.00     0.050 A 
ATOM      3  C   UNL     1       9.866  23.858  -4.680  1.00  0.00     0.161 A 
ATOM      4  C   UNL     1       9.866  24.386  -3.364  1.00  0.00     0.200 A 
ATOM      5  C   UNL     1      11.093  24.606  -2.707  1.00  0.00     0.161 A 
ATOM      6  C   UNL     1      12.297  24.305  -3.350  1.00  0.00     0.050 A 
ENDROOT
BRANCH   3   7
ATOM      7  O   UNL     1       8.693  23.612  -5.397  1.00  0.00    -0.504 OA
ATOM      8  H   UNL     1       8.045  24.331  -5.684  1.00  0.00     0.293 HD
ENDBRANCH   3   7
BRANCH   5   9
ATOM      9  O   UNL     1      11.134  25.125  -1.413  1.00  0.00    -0.504 OA
ATOM     10  H   UNL     1      10.684  25.998  -1.165  1.00  0.00     0.293 HD
ENDBRANCH   5   9
BRANCH   4  11
ATOM     11  O   UNL     1       8.684  24.701  -2.688  1.00  0.00    -0.502 OA
ATOM     12  H   UNL     1       7.923  25.229  -3.092  1.00  0.00     0.293 HD
ENDBRANCH   4  11
TORSDOF 3
ENDMDL
