MODEL 1
REMARK VINA RESULT:    -5.272      0.000      0.000
REMARK INTER + INTRA:          -6.834
REMARK INTER:                  -6.505
REMARK INTRA:                  -0.330
REMARK UNBOUND:                -0.330
REMARK SMILES O=c1c(O)c(-c2cc(O)c(O)c(O)c2)oc2cc(O)cc(O)c12
REMARK SMILES IDX 5 1 3 2 2 3 1 4 23 5 21 6 20 7 18 8 17 9 16 10 15 11 6 12
REMARK SMILES IDX 7 13 8 14 14 15 10 16 12 17 9 18 11 20 13 22 4 24 22 26
REMARK SMILES IDX 19 28
REMARK H PARENT 9 19 11 21 13 23 4 25 22 27 19 29
REMARK Flexibility Score: inf
ROOT
ATOM      1  C   UNL     1      40.862  18.041 211.048  1.00  0.00     0.180 A 
ATOM      2  C   UNL     1      39.977  18.968 210.471  1.00  0.00     0.208 A 
ATOM      3  C   UNL     1      38.722  19.175 211.068  1.00  0.00     0.238 A 
ATOM      4  O   UNL     1      37.957  20.045 210.577  1.00  0.00    -0.285 OA
ATOM      5  C   UNL     1      38.363  18.442 212.224  1.00  0.00     0.111 A 
ATOM      6  C   UNL     1      37.104  18.543 212.888  1.00  0.00     0.134 A 
ATOM      7  C   UNL     1      36.906  17.868 214.099  1.00  0.00     0.093 A 
ATOM      8  C   UNL     1      37.896  17.046 214.636  1.00  0.00     0.123 A 
ATOM      9  C   UNL     1      39.110  16.894 213.964  1.00  0.00     0.094 A 
ATOM     10  C   UNL     1      39.350  17.582 212.773  1.00  0.00     0.146 A 
ATOM     11  O   UNL     1      40.522  17.418 212.171  1.00  0.00    -0.452 OA
ENDROOT
BRANCH   1  12
ATOM     12  C   UNL     1      42.190  17.751 210.463  1.00  0.00     0.029 A 
ATOM     13  C   UNL     1      43.267  18.609 210.733  1.00  0.00     0.062 A 
ATOM     14  C   UNL     1      44.538  18.348 210.210  1.00  0.00     0.162 A 
ATOM     15  C   UNL     1      42.412  16.600 209.687  1.00  0.00     0.062 A 
ATOM     16  C   UNL     1      44.749  17.207 209.418  1.00  0.00     0.200 A 
ATOM     17  C   UNL     1      43.682  16.329 209.161  1.00  0.00     0.162 A 
BRANCH  14  18
ATOM     18  O   UNL     1      45.578  19.233 210.490  1.00  0.00    -0.504 OA
ATOM     19  H   UNL     1      46.422  19.267 209.931  1.00  0.00     0.293 HD
ENDBRANCH  14  18
BRANCH  16  20
ATOM     20  O   UNL     1      46.020  16.954 208.897  1.00  0.00    -0.502 OA
ATOM     21  H   UNL     1      46.399  17.479 208.119  1.00  0.00     0.293 HD
ENDBRANCH  16  20
BRANCH  17  22
ATOM     22  O   UNL     1      43.888  15.187 208.387  1.00  0.00    -0.504 OA
ATOM     23  H   UNL     1      44.014  14.274 208.810  1.00  0.00     0.293 HD
ENDBRANCH  17  22
ENDBRANCH   1  12
BRANCH   2  24
ATOM     24  O   UNL     1      40.360  19.697 209.341  1.00  0.00    -0.502 OA
ATOM     25  H   UNL     1      40.106  19.417 208.402  1.00  0.00     0.293 HD
ENDBRANCH   2  24
BRANCH   6  26
ATOM     26  O   UNL     1      36.015  19.264 212.391  1.00  0.00    -0.507 OA
ATOM     27  H   UNL     1      35.602  20.066 212.841  1.00  0.00     0.293 HD
ENDBRANCH   6  26
BRANCH   8  28
ATOM     28  O   UNL     1      37.659  16.377 215.834  1.00  0.00    -0.508 OA
ATOM     29  H   UNL     1      36.739  16.357 216.259  1.00  0.00     0.293 HD
ENDBRANCH   8  28
TORSDOF 7
ENDMDL
MODEL 2
REMARK VINA RESULT:    -5.200      1.248      2.819
REMARK INTER + INTRA:          -6.745
REMARK INTER:                  -6.493
REMARK INTRA:                  -0.252
REMARK UNBOUND:                -0.330
REMARK SMILES O=c1c(O)c(-c2cc(O)c(O)c(O)c2)oc2cc(O)cc(O)c12
REMARK SMILES IDX 5 1 3 2 2 3 1 4 23 5 21 6 20 7 18 8 17 9 16 10 15 11 6 12
REMARK SMILES IDX 7 13 8 14 14 15 10 16 12 17 9 18 11 20 13 22 4 24 22 26
REMARK SMILES IDX 19 28
REMARK H PARENT 9 19 11 21 13 23 4 25 22 27 19 29
REMARK Flexibility Score: inf
ROOT
ATOM      1  C   UNL     1      40.761  17.518 211.209  1.00  0.00     0.180 A 
ATOM      2  C   UNL     1      40.302  16.624 212.192  1.00  0.00     0.208 A 
ATOM      3  C   UNL     1      39.045  16.842 212.778  1.00  0.00     0.238 A 
ATOM      4  O   UNL     1      38.617  16.008 213.617  1.00  0.00    -0.285 OA
ATOM      5  C   UNL     1      38.269  17.960 212.385  1.00  0.00     0.111 A 
ATOM      6  C   UNL     1      37.000  18.300 212.941  1.00  0.00     0.134 A 
ATOM      7  C   UNL     1      36.262  19.353 212.386  1.00  0.00     0.093 A 
ATOM      8  C   UNL     1      36.776  20.118 211.340  1.00  0.00     0.123 A 
ATOM      9  C   UNL     1      38.042  19.832 210.828  1.00  0.00     0.094 A 
ATOM     10  C   UNL     1      38.786  18.765 211.337  1.00  0.00     0.146 A 
ATOM     11  O   UNL     1      39.982  18.519 210.815  1.00  0.00    -0.452 OA
ENDROOT
BRANCH   1  12
ATOM     12  C   UNL     1      42.085  17.368 210.564  1.00  0.00     0.029 A 
ATOM     13  C   UNL     1      43.119  18.257 210.895  1.00  0.00     0.062 A 
ATOM     14  C   UNL     1      44.386  18.127 210.317  1.00  0.00     0.162 A 
ATOM     15  C   UNL     1      42.348  16.318 209.668  1.00  0.00     0.062 A 
ATOM     16  C   UNL     1      44.638  17.087 209.406  1.00  0.00     0.200 A 
ATOM     17  C   UNL     1      43.615  16.178 209.086  1.00  0.00     0.162 A 
BRANCH  14  18
ATOM     18  O   UNL     1      45.382  19.040 210.661  1.00  0.00    -0.504 OA
ATOM     19  H   UNL     1      45.178  19.896 211.164  1.00  0.00     0.293 HD
ENDBRANCH  14  18
BRANCH  16  20
ATOM     20  O   UNL     1      45.904  16.965 208.831  1.00  0.00    -0.502 OA
ATOM     21  H   UNL     1      46.162  17.454 207.983  1.00  0.00     0.293 HD
ENDBRANCH  16  20
BRANCH  17  22
ATOM     22  O   UNL     1      43.862  15.135 208.194  1.00  0.00    -0.504 OA
ATOM     23  H   UNL     1      44.775  14.699 208.126  1.00  0.00     0.293 HD
ENDBRANCH  17  22
ENDBRANCH   1  12
BRANCH   2  24
ATOM     24  O   UNL     1      41.074  15.515 212.549  1.00  0.00    -0.502 OA
ATOM     25  H   UNL     1      42.087  15.525 212.521  1.00  0.00     0.293 HD
ENDBRANCH   2  24
BRANCH   6  26
ATOM     26  O   UNL     1      36.435  17.658 214.047  1.00  0.00    -0.507 OA
ATOM     27  H   UNL     1      35.551  17.174 214.041  1.00  0.00     0.293 HD
ENDBRANCH   6  26
BRANCH   8  28
ATOM     28  O   UNL     1      36.022  21.169 210.821  1.00  0.00    -0.508 OA
ATOM     29  H   UNL     1      35.360  21.680 211.394  1.00  0.00     0.293 HD
ENDBRANCH   8  28
TORSDOF 7
ENDMDL
MODEL 3
REMARK VINA RESULT:    -5.125      4.578      7.746
REMARK INTER + INTRA:          -6.653
REMARK INTER:                  -6.650
REMARK INTRA:                  -0.003
REMARK UNBOUND:                -0.330
REMARK SMILES O=c1c(O)c(-c2cc(O)c(O)c(O)c2)oc2cc(O)cc(O)c12
REMARK SMILES IDX 5 1 3 2 2 3 1 4 23 5 21 6 20 7 18 8 17 9 16 10 15 11 6 12
REMARK SMILES IDX 7 13 8 14 14 15 10 16 12 17 9 18 11 20 13 22 4 24 22 26
REMARK SMILES IDX 19 28
REMARK H PARENT 9 19 11 21 13 23 4 25 22 27 19 29
REMARK Flexibility Score: inf
ROOT
ATOM      1  C   UNL     1      41.638  18.184 215.389  1.00  0.00     0.180 A 
ATOM      2  C   UNL     1      42.693  18.187 214.460  1.00  0.00     0.208 A 
ATOM      3  C   UNL     1      44.013  18.298 214.927  1.00  0.00     0.238 A 
ATOM      4  O   UNL     1      44.954  18.245 214.094  1.00  0.00    -0.285 OA
ATOM      5  C   UNL     1      44.261  18.420 216.315  1.00  0.00     0.111 A 
ATOM      6  C   UNL     1      45.554  18.578 216.896  1.00  0.00     0.134 A 
ATOM      7  C   UNL     1      45.693  18.558 218.289  1.00  0.00     0.093 A 
ATOM      8  C   UNL     1      44.580  18.451 219.122  1.00  0.00     0.123 A 
ATOM      9  C   UNL     1      43.304  18.356 218.565  1.00  0.00     0.094 A 
ATOM     10  C   UNL     1      43.137  18.337 217.179  1.00  0.00     0.146 A 
ATOM     11  O   UNL     1      41.908  18.234 216.689  1.00  0.00    -0.452 OA
ENDROOT
BRANCH   1  12
ATOM     12  C   UNL     1      40.221  18.096 214.972  1.00  0.00     0.029 A 
ATOM     13  C   UNL     1      39.347  17.250 215.671  1.00  0.00     0.062 A 
ATOM     14  C   UNL     1      37.998  17.163 215.312  1.00  0.00     0.162 A 
ATOM     15  C   UNL     1      39.716  18.886 213.925  1.00  0.00     0.062 A 
ATOM     16  C   UNL     1      37.502  17.939 214.251  1.00  0.00     0.200 A 
ATOM     17  C   UNL     1      38.366  18.807 213.560  1.00  0.00     0.162 A 
BRANCH  14  18
ATOM     18  O   UNL     1      37.165  16.299 216.022  1.00  0.00    -0.504 OA
ATOM     19  H   UNL     1      37.345  15.303 216.082  1.00  0.00     0.293 HD
ENDBRANCH  14  18
BRANCH  16  20
ATOM     20  O   UNL     1      36.155  17.845 213.897  1.00  0.00    -0.502 OA
ATOM     21  H   UNL     1      35.513  18.620 214.002  1.00  0.00     0.293 HD
ENDBRANCH  16  20
BRANCH  17  22
ATOM     22  O   UNL     1      37.877  19.592 212.516  1.00  0.00    -0.504 OA
ATOM     23  H   UNL     1      38.023  19.336 211.546  1.00  0.00     0.293 HD
ENDBRANCH  17  22
ENDBRANCH   1  12
BRANCH   2  24
ATOM     24  O   UNL     1      42.427  18.044 213.095  1.00  0.00    -0.502 OA
ATOM     25  H   UNL     1      41.723  17.408 212.742  1.00  0.00     0.293 HD
ENDBRANCH   2  24
BRANCH   6  26
ATOM     26  O   UNL     1      46.723  18.784 216.156  1.00  0.00    -0.507 OA
ATOM     27  H   UNL     1      47.013  19.672 215.777  1.00  0.00     0.293 HD
ENDBRANCH   6  26
BRANCH   8  28
ATOM     28  O   UNL     1      44.753  18.451 220.505  1.00  0.00    -0.508 OA
ATOM     29  H   UNL     1      45.480  19.000 220.949  1.00  0.00     0.293 HD
ENDBRANCH   8  28
TORSDOF 7
ENDMDL
MODEL 4
REMARK VINA RESULT:    -5.109     10.844     12.145
REMARK INTER + INTRA:          -6.633
REMARK INTER:                  -6.628
REMARK INTRA:                  -0.005
REMARK UNBOUND:                -0.330
REMARK SMILES O=c1c(O)c(-c2cc(O)c(O)c(O)c2)oc2cc(O)cc(O)c12
REMARK SMILES IDX 5 1 3 2 2 3 1 4 23 5 21 6 20 7 18 8 17 9 16 10 15 11 6 12
REMARK SMILES IDX 7 13 8 14 14 15 10 16 12 17 9 18 11 20 13 22 4 24 22 26
REMARK SMILES IDX 19 28
REMARK H PARENT 9 19 11 21 13 23 4 25 22 27 19 29
REMARK Flexibility Score: inf
ROOT
ATOM      1  C   UNL     1      47.413  17.881 221.185  1.00  0.00     0.180 A 
ATOM      2  C   UNL     1      46.607  18.522 222.143  1.00  0.00     0.208 A 
ATOM      3  C   UNL     1      45.295  18.882 221.797  1.00  0.00     0.238 A 
ATOM      4  O   UNL     1      44.562  19.406 222.676  1.00  0.00    -0.285 OA
ATOM      5  C   UNL     1      44.809  18.611 220.495  1.00  0.00     0.111 A 
ATOM      6  C   UNL     1      43.510  18.967 220.025  1.00  0.00     0.134 A 
ATOM      7  C   UNL     1      43.090  18.533 218.762  1.00  0.00     0.093 A 
ATOM      8  C   UNL     1      43.943  17.814 217.927  1.00  0.00     0.123 A 
ATOM      9  C   UNL     1      45.237  17.511 218.354  1.00  0.00     0.094 A 
ATOM     10  C   UNL     1      45.673  17.899 219.622  1.00  0.00     0.146 A 
ATOM     11  O   UNL     1      46.907  17.581 219.994  1.00  0.00    -0.452 OA
ENDROOT
BRANCH   1  12
ATOM     12  C   UNL     1      48.814  17.494 221.467  1.00  0.00     0.029 A 
ATOM     13  C   UNL     1      49.830  17.893 220.586  1.00  0.00     0.062 A 
ATOM     14  C   UNL     1      51.166  17.560 220.837  1.00  0.00     0.162 A 
ATOM     15  C   UNL     1      49.158  16.783 222.629  1.00  0.00     0.062 A 
ATOM     16  C   UNL     1      51.501  16.831 221.990  1.00  0.00     0.200 A 
ATOM     17  C   UNL     1      50.492  16.447 222.890  1.00  0.00     0.162 A 
BRANCH  14  18
ATOM     18  O   UNL     1      52.144  17.963 219.930  1.00  0.00    -0.504 OA
ATOM     19  H   UNL     1      53.122  18.034 220.187  1.00  0.00     0.293 HD
ENDBRANCH  14  18
BRANCH  16  20
ATOM     20  O   UNL     1      52.835  16.499 222.233  1.00  0.00    -0.502 OA
ATOM     21  H   UNL     1      53.117  15.939 223.028  1.00  0.00     0.293 HD
ENDBRANCH  16  20
BRANCH  17  22
ATOM     22  O   UNL     1      50.820  15.735 224.044  1.00  0.00    -0.504 OA
ATOM     23  H   UNL     1      50.199  15.034 224.431  1.00  0.00     0.293 HD
ENDBRANCH  17  22
ENDBRANCH   1  12
BRANCH   2  24
ATOM     24  O   UNL     1      47.099  18.761 223.429  1.00  0.00    -0.502 OA
ATOM     25  H   UNL     1      46.679  19.436 224.056  1.00  0.00     0.293 HD
ENDBRANCH   2  24
BRANCH   6  26
ATOM     26  O   UNL     1      42.611  19.763 220.742  1.00  0.00    -0.507 OA
ATOM     27  H   UNL     1      41.965  20.417 220.328  1.00  0.00     0.293 HD
ENDBRANCH   6  26
BRANCH   8  28
ATOM     28  O   UNL     1      43.498  17.411 216.669  1.00  0.00    -0.508 OA
ATOM     29  H   UNL     1      42.537  17.132 216.511  1.00  0.00     0.293 HD
ENDBRANCH   8  28
TORSDOF 7
ENDMDL
MODEL 5
REMARK VINA RESULT:    -5.048     11.653     14.389
REMARK INTER + INTRA:          -6.559
REMARK INTER:                  -6.470
REMARK INTRA:                  -0.089
REMARK UNBOUND:                -0.330
REMARK SMILES O=c1c(O)c(-c2cc(O)c(O)c(O)c2)oc2cc(O)cc(O)c12
REMARK SMILES IDX 5 1 3 2 2 3 1 4 23 5 21 6 20 7 18 8 17 9 16 10 15 11 6 12
REMARK SMILES IDX 7 13 8 14 14 15 10 16 12 17 9 18 11 20 13 22 4 24 22 26
REMARK SMILES IDX 19 28
REMARK H PARENT 9 19 11 21 13 23 4 25 22 27 19 29
REMARK Flexibility Score: inf
ROOT
ATOM      1  C   UNL     1      46.914  19.075 222.336  1.00  0.00     0.180 A 
ATOM      2  C   UNL     1      47.437  20.136 223.097  1.00  0.00     0.208 A 
ATOM      3  C   UNL     1      48.830  20.298 223.173  1.00  0.00     0.238 A 
ATOM      4  O   UNL     1      49.289  21.280 223.811  1.00  0.00    -0.285 OA
ATOM      5  C   UNL     1      49.682  19.390 222.499  1.00  0.00     0.111 A 
ATOM      6  C   UNL     1      51.108  19.436 222.539  1.00  0.00     0.134 A 
ATOM      7  C   UNL     1      51.850  18.568 221.729  1.00  0.00     0.093 A 
ATOM      8  C   UNL     1      51.221  17.612 220.932  1.00  0.00     0.123 A 
ATOM      9  C   UNL     1      49.828  17.519 220.931  1.00  0.00     0.094 A 
ATOM     10  C   UNL     1      49.060  18.395 221.700  1.00  0.00     0.146 A 
ATOM     11  O   UNL     1      47.738  18.280 221.662  1.00  0.00    -0.452 OA
ENDROOT
BRANCH   1  12
ATOM     12  C   UNL     1      45.459  18.825 222.230  1.00  0.00     0.029 A 
ATOM     13  C   UNL     1      44.700  18.655 223.398  1.00  0.00     0.062 A 
ATOM     14  C   UNL     1      43.320  18.438 223.329  1.00  0.00     0.162 A 
ATOM     15  C   UNL     1      44.808  18.810 220.985  1.00  0.00     0.062 A 
ATOM     16  C   UNL     1      42.677  18.403 222.080  1.00  0.00     0.200 A 
ATOM     17  C   UNL     1      43.426  18.595 220.906  1.00  0.00     0.162 A 
BRANCH  14  18
ATOM     18  O   UNL     1      42.605  18.259 224.513  1.00  0.00    -0.504 OA
ATOM     19  H   UNL     1      42.956  17.691 225.274  1.00  0.00     0.293 HD
ENDBRANCH  14  18
BRANCH  16  20
ATOM     20  O   UNL     1      41.300  18.183 222.019  1.00  0.00    -0.502 OA
ATOM     21  H   UNL     1      40.908  17.291 221.744  1.00  0.00     0.293 HD
ENDBRANCH  16  20
BRANCH  17  22
ATOM     22  O   UNL     1      42.792  18.576 219.664  1.00  0.00    -0.504 OA
ATOM     23  H   UNL     1      41.907  19.047 219.511  1.00  0.00     0.293 HD
ENDBRANCH  17  22
ENDBRANCH   1  12
BRANCH   2  24
ATOM     24  O   UNL     1      46.577  21.033 223.737  1.00  0.00    -0.502 OA
ATOM     25  H   UNL     1      46.036  20.779 224.554  1.00  0.00     0.293 HD
ENDBRANCH   2  24
BRANCH   6  26
ATOM     26  O   UNL     1      51.838  20.291 223.370  1.00  0.00    -0.507 OA
ATOM     27  H   UNL     1      51.433  20.993 223.969  1.00  0.00     0.293 HD
ENDBRANCH   6  26
BRANCH   8  28
ATOM     28  O   UNL     1      51.990  16.753 220.151  1.00  0.00    -0.508 OA
ATOM     29  H   UNL     1      51.907  15.746 220.231  1.00  0.00     0.293 HD
ENDBRANCH   8  28
TORSDOF 7
ENDMDL
MODEL 6
REMARK VINA RESULT:    -5.035      3.453      5.129
REMARK INTER + INTRA:          -6.542
REMARK INTER:                  -6.204
REMARK INTRA:                  -0.338
REMARK UNBOUND:                -0.330
REMARK SMILES O=c1c(O)c(-c2cc(O)c(O)c(O)c2)oc2cc(O)cc(O)c12
REMARK SMILES IDX 5 1 3 2 2 3 1 4 23 5 21 6 20 7 18 8 17 9 16 10 15 11 6 12
REMARK SMILES IDX 7 13 8 14 14 15 10 16 12 17 9 18 11 20 13 22 4 24 22 26
REMARK SMILES IDX 19 28
REMARK H PARENT 9 19 11 21 13 23 4 25 22 27 19 29
REMARK Flexibility Score: inf
ROOT
ATOM      1  C   UNL     1      43.912  18.765 213.719  1.00  0.00     0.180 A 
ATOM      2  C   UNL     1      43.655  18.410 215.054  1.00  0.00     0.208 A 
ATOM      3  C   UNL     1      42.444  17.771 215.368  1.00  0.00     0.238 A 
ATOM      4  O   UNL     1      42.245  17.407 216.556  1.00  0.00    -0.285 OA
ATOM      5  C   UNL     1      41.500  17.509 214.347  1.00  0.00     0.111 A 
ATOM      6  C   UNL     1      40.225  16.903 214.558  1.00  0.00     0.134 A 
ATOM      7  C   UNL     1      39.427  16.573 213.457  1.00  0.00     0.093 A 
ATOM      8  C   UNL     1      39.826  16.885 212.158  1.00  0.00     0.123 A 
ATOM      9  C   UNL     1      41.045  17.532 211.944  1.00  0.00     0.094 A 
ATOM     10  C   UNL     1      41.879  17.841 213.020  1.00  0.00     0.146 A 
ATOM     11  O   UNL     1      43.035  18.447 212.773  1.00  0.00    -0.452 OA
ENDROOT
BRANCH   1  12
ATOM     12  C   UNL     1      45.153  19.463 213.314  1.00  0.00     0.029 A 
ATOM     13  C   UNL     1      45.153  20.861 213.201  1.00  0.00     0.062 A 
ATOM     14  C   UNL     1      46.316  21.550 212.840  1.00  0.00     0.162 A 
ATOM     15  C   UNL     1      46.350  18.761 213.096  1.00  0.00     0.062 A 
ATOM     16  C   UNL     1      47.505  20.840 212.603  1.00  0.00     0.200 A 
ATOM     17  C   UNL     1      47.521  19.441 212.737  1.00  0.00     0.162 A 
BRANCH  14  18
ATOM     18  O   UNL     1      46.270  22.939 212.724  1.00  0.00    -0.504 OA
ATOM     19  H   UNL     1      46.545  23.418 211.875  1.00  0.00     0.293 HD
ENDBRANCH  14  18
BRANCH  16  20
ATOM     20  O   UNL     1      48.661  21.533 212.241  1.00  0.00    -0.502 OA
ATOM     21  H   UNL     1      48.947  22.387 212.704  1.00  0.00     0.293 HD
ENDBRANCH  16  20
BRANCH  17  22
ATOM     22  O   UNL     1      48.701  18.732 212.517  1.00  0.00    -0.504 OA
ATOM     23  H   UNL     1      49.424  18.671 213.224  1.00  0.00     0.293 HD
ENDBRANCH  17  22
ENDBRANCH   1  12
BRANCH   2  24
ATOM     24  O   UNL     1      44.610  18.658 216.044  1.00  0.00    -0.502 OA
ATOM     25  H   UNL     1      44.395  18.610 217.032  1.00  0.00     0.293 HD
ENDBRANCH   2  24
BRANCH   6  26
ATOM     26  O   UNL     1      39.690  16.631 215.821  1.00  0.00    -0.507 OA
ATOM     27  H   UNL     1      40.204  16.682 216.686  1.00  0.00     0.293 HD
ENDBRANCH   6  26
BRANCH   8  28
ATOM     28  O   UNL     1      39.000  16.557 211.086  1.00  0.00    -0.508 OA
ATOM     29  H   UNL     1      38.335  15.794 211.142  1.00  0.00     0.293 HD
ENDBRANCH   8  28
TORSDOF 7
ENDMDL
MODEL 7
REMARK VINA RESULT:    -4.965     11.420     12.564
REMARK INTER + INTRA:          -6.456
REMARK INTER:                  -6.090
REMARK INTRA:                  -0.367
REMARK UNBOUND:                -0.330
REMARK SMILES O=c1c(O)c(-c2cc(O)c(O)c(O)c2)oc2cc(O)cc(O)c12
REMARK SMILES IDX 5 1 3 2 2 3 1 4 23 5 21 6 20 7 18 8 17 9 16 10 15 11 6 12
REMARK SMILES IDX 7 13 8 14 14 15 10 16 12 17 9 18 11 20 13 22 4 24 22 26
REMARK SMILES IDX 19 28
REMARK H PARENT 9 19 11 21 13 23 4 25 22 27 19 29
REMARK Flexibility Score: inf
ROOT
ATOM      1  C   UNL     1      47.334  18.625 221.691  1.00  0.00     0.180 A 
ATOM      2  C   UNL     1      46.793  18.735 220.398  1.00  0.00     0.208 A 
ATOM      3  C   UNL     1      45.398  18.773 220.244  1.00  0.00     0.238 A 
ATOM      4  O   UNL     1      44.923  18.925 219.089  1.00  0.00    -0.285 OA
ATOM      5  C   UNL     1      44.561  18.685 221.382  1.00  0.00     0.111 A 
ATOM      6  C   UNL     1      43.135  18.674 221.340  1.00  0.00     0.134 A 
ATOM      7  C   UNL     1      42.408  18.716 222.536  1.00  0.00     0.093 A 
ATOM      8  C   UNL     1      43.053  18.703 223.772  1.00  0.00     0.123 A 
ATOM      9  C   UNL     1      44.447  18.653 223.825  1.00  0.00     0.094 A 
ATOM     10  C   UNL     1      45.200  18.647 222.649  1.00  0.00     0.146 A 
ATOM     11  O   UNL     1      46.524  18.611 222.744  1.00  0.00    -0.452 OA
ENDROOT
BRANCH   1  12
ATOM     12  C   UNL     1      48.793  18.553 221.931  1.00  0.00     0.029 A 
ATOM     13  C   UNL     1      49.497  19.722 222.257  1.00  0.00     0.062 A 
ATOM     14  C   UNL     1      50.873  19.682 222.509  1.00  0.00     0.162 A 
ATOM     15  C   UNL     1      49.481  17.329 221.897  1.00  0.00     0.062 A 
ATOM     16  C   UNL     1      51.560  18.457 222.453  1.00  0.00     0.200 A 
ATOM     17  C   UNL     1      50.858  17.277 222.150  1.00  0.00     0.162 A 
BRANCH  14  18
ATOM     18  O   UNL     1      51.539  20.868 222.815  1.00  0.00    -0.504 OA
ATOM     19  H   UNL     1      51.820  21.100 223.761  1.00  0.00     0.293 HD
ENDBRANCH  14  18
BRANCH  16  20
ATOM     20  O   UNL     1      52.933  18.424 222.703  1.00  0.00    -0.502 OA
ATOM     21  H   UNL     1      53.616  18.358 221.959  1.00  0.00     0.293 HD
ENDBRANCH  16  20
BRANCH  17  22
ATOM     22  O   UNL     1      51.531  16.057 222.107  1.00  0.00    -0.504 OA
ATOM     23  H   UNL     1      52.023  15.750 221.276  1.00  0.00     0.293 HD
ENDBRANCH  17  22
ENDBRANCH   1  12
BRANCH   2  24
ATOM     24  O   UNL     1      47.638  18.841 219.290  1.00  0.00    -0.502 OA
ATOM     25  H   UNL     1      47.526  19.562 218.587  1.00  0.00     0.293 HD
ENDBRANCH   2  24
BRANCH   6  26
ATOM     26  O   UNL     1      42.390  18.595 220.160  1.00  0.00    -0.507 OA
ATOM     27  H   UNL     1      41.885  19.364 219.747  1.00  0.00     0.293 HD
ENDBRANCH   6  26
BRANCH   8  28
ATOM     28  O   UNL     1      42.299  18.729 224.943  1.00  0.00    -0.508 OA
ATOM     29  H   UNL     1      42.726  18.900 225.846  1.00  0.00     0.293 HD
ENDBRANCH   8  28
TORSDOF 7
ENDMDL
MODEL 8
REMARK VINA RESULT:    -4.960      3.787      8.220
REMARK INTER + INTRA:          -6.449
REMARK INTER:                  -6.633
REMARK INTRA:                   0.184
REMARK UNBOUND:                -0.330
REMARK SMILES O=c1c(O)c(-c2cc(O)c(O)c(O)c2)oc2cc(O)cc(O)c12
REMARK SMILES IDX 5 1 3 2 2 3 1 4 23 5 21 6 20 7 18 8 17 9 16 10 15 11 6 12
REMARK SMILES IDX 7 13 8 14 14 15 10 16 12 17 9 18 11 20 13 22 4 24 22 26
REMARK SMILES IDX 19 28
REMARK H PARENT 9 19 11 21 13 23 4 25 22 27 19 29
REMARK Flexibility Score: inf
ROOT
ATOM      1  C   UNL     1      42.627  18.145 215.014  1.00  0.00     0.180 A 
ATOM      2  C   UNL     1      43.288  18.268 216.248  1.00  0.00     0.208 A 
ATOM      3  C   UNL     1      44.662  18.555 216.259  1.00  0.00     0.238 A 
ATOM      4  O   UNL     1      45.236  18.717 217.368  1.00  0.00    -0.285 OA
ATOM      5  C   UNL     1      45.362  18.700 215.037  1.00  0.00     0.111 A 
ATOM      6  C   UNL     1      46.762  18.952 214.930  1.00  0.00     0.134 A 
ATOM      7  C   UNL     1      47.324  19.208 213.674  1.00  0.00     0.093 A 
ATOM      8  C   UNL     1      46.551  19.156 212.515  1.00  0.00     0.123 A 
ATOM      9  C   UNL     1      45.191  18.852 212.602  1.00  0.00     0.094 A 
ATOM     10  C   UNL     1      44.595  18.628 213.845  1.00  0.00     0.146 A 
ATOM     11  O   UNL     1      43.297  18.352 213.885  1.00  0.00    -0.452 OA
ENDROOT
BRANCH   1  12
ATOM     12  C   UNL     1      41.186  17.819 214.921  1.00  0.00     0.029 A 
ATOM     13  C   UNL     1      40.735  16.967 213.902  1.00  0.00     0.062 A 
ATOM     14  C   UNL     1      39.383  16.624 213.802  1.00  0.00     0.162 A 
ATOM     15  C   UNL     1      40.264  18.301 215.866  1.00  0.00     0.062 A 
ATOM     16  C   UNL     1      38.462  17.125 214.738  1.00  0.00     0.200 A 
ATOM     17  C   UNL     1      38.908  17.962 215.776  1.00  0.00     0.162 A 
BRANCH  14  18
ATOM     18  O   UNL     1      38.973  15.785 212.767  1.00  0.00    -0.504 OA
ATOM     19  H   UNL     1      39.363  15.850 211.834  1.00  0.00     0.293 HD
ENDBRANCH  14  18
BRANCH  16  20
ATOM     20  O   UNL     1      37.113  16.782 214.631  1.00  0.00    -0.502 OA
ATOM     21  H   UNL     1      36.763  15.872 214.904  1.00  0.00     0.293 HD
ENDBRANCH  16  20
BRANCH  17  22
ATOM     22  O   UNL     1      38.002  18.451 216.717  1.00  0.00    -0.504 OA
ATOM     23  H   UNL     1      38.190  18.402 217.711  1.00  0.00     0.293 HD
ENDBRANCH  17  22
ENDBRANCH   1  12
BRANCH   2  24
ATOM     24  O   UNL     1      42.574  18.142 217.443  1.00  0.00    -0.502 OA
ATOM     25  H   UNL     1      42.507  18.893 218.119  1.00  0.00     0.293 HD
ENDBRANCH   2  24
BRANCH   6  26
ATOM     26  O   UNL     1      47.644  18.935 216.016  1.00  0.00    -0.507 OA
ATOM     27  H   UNL     1      47.735  18.173 216.669  1.00  0.00     0.293 HD
ENDBRANCH   6  26
BRANCH   8  28
ATOM     28  O   UNL     1      47.145  19.399 211.279  1.00  0.00    -0.508 OA
ATOM     29  H   UNL     1      47.270  20.341 210.926  1.00  0.00     0.293 HD
ENDBRANCH   8  28
TORSDOF 7
ENDMDL
MODEL 9
REMARK VINA RESULT:    -4.951      3.930      8.401
REMARK INTER + INTRA:          -6.438
REMARK INTER:                  -6.238
REMARK INTRA:                  -0.200
REMARK UNBOUND:                -0.330
REMARK SMILES O=c1c(O)c(-c2cc(O)c(O)c(O)c2)oc2cc(O)cc(O)c12
REMARK SMILES IDX 5 1 3 2 2 3 1 4 23 5 21 6 20 7 18 8 17 9 16 10 15 11 6 12
REMARK SMILES IDX 7 13 8 14 14 15 10 16 12 17 9 18 11 20 13 22 4 24 22 26
REMARK SMILES IDX 19 28
REMARK H PARENT 9 19 11 21 13 23 4 25 22 27 19 29
REMARK Flexibility Score: inf
ROOT
ATOM      1  C   UNL     1      42.733  18.583 215.379  1.00  0.00     0.180 A 
ATOM      2  C   UNL     1      43.691  18.567 216.408  1.00  0.00     0.208 A 
ATOM      3  C   UNL     1      45.053  18.591 216.070  1.00  0.00     0.238 A 
ATOM      4  O   UNL     1      45.904  18.630 216.997  1.00  0.00    -0.285 OA
ATOM      5  C   UNL     1      45.442  18.615 214.709  1.00  0.00     0.111 A 
ATOM      6  C   UNL     1      46.793  18.601 214.252  1.00  0.00     0.134 A 
ATOM      7  C   UNL     1      47.063  18.760 212.888  1.00  0.00     0.093 A 
ATOM      8  C   UNL     1      46.030  18.866 211.957  1.00  0.00     0.123 A 
ATOM      9  C   UNL     1      44.702  18.821 212.387  1.00  0.00     0.094 A 
ATOM     10  C   UNL     1      44.403  18.700 213.745  1.00  0.00     0.146 A 
ATOM     11  O   UNL     1      43.128  18.673 214.114  1.00  0.00    -0.452 OA
ENDROOT
BRANCH   1  12
ATOM     12  C   UNL     1      41.279  18.534 215.655  1.00  0.00     0.029 A 
ATOM     13  C   UNL     1      40.659  19.623 216.286  1.00  0.00     0.062 A 
ATOM     14  C   UNL     1      39.284  19.614 216.541  1.00  0.00     0.162 A 
ATOM     15  C   UNL     1      40.493  17.443 215.248  1.00  0.00     0.062 A 
ATOM     16  C   UNL     1      38.506  18.511 216.150  1.00  0.00     0.200 A 
ATOM     17  C   UNL     1      39.115  17.425 215.497  1.00  0.00     0.162 A 
BRANCH  14  18
ATOM     18  O   UNL     1      38.708  20.710 217.183  1.00  0.00    -0.504 OA
ATOM     19  H   UNL     1      38.460  21.557 216.685  1.00  0.00     0.293 HD
ENDBRANCH  14  18
BRANCH  16  20
ATOM     20  O   UNL     1      37.135  18.507 216.410  1.00  0.00    -0.502 OA
ATOM     21  H   UNL     1      36.557  19.329 216.281  1.00  0.00     0.293 HD
ENDBRANCH  16  20
BRANCH  17  22
ATOM     22  O   UNL     1      38.346  16.334 215.094  1.00  0.00    -0.504 OA
ATOM     23  H   UNL     1      38.182  16.133 214.114  1.00  0.00     0.293 HD
ENDBRANCH  17  22
ENDBRANCH   1  12
BRANCH   2  24
ATOM     24  O   UNL     1      43.285  18.564 217.746  1.00  0.00    -0.502 OA
ATOM     25  H   UNL     1      42.525  19.141 218.085  1.00  0.00     0.293 HD
ENDBRANCH   2  24
BRANCH   6  26
ATOM     26  O   UNL     1      47.898  18.408 215.087  1.00  0.00    -0.507 OA
ATOM     27  H   UNL     1      48.715  18.998 215.105  1.00  0.00     0.293 HD
ENDBRANCH   6  26
BRANCH   8  28
ATOM     28  O   UNL     1      46.333  19.007 210.605  1.00  0.00    -0.508 OA
ATOM     29  H   UNL     1      45.704  18.675 209.883  1.00  0.00     0.293 HD
ENDBRANCH   8  28
TORSDOF 7
ENDMDL
