MODEL 1
REMARK VINA RESULT:    19.931      0.000      0.000
REMARK INTER + INTRA:          19.931
REMARK INTER:                  19.931
REMARK INTRA:                   0.000
REMARK UNBOUND:                 0.000
REMARK SMILES C=C1CCC[C@]2(C)C=C3OC(=O)C(C)=C3C[C@H]12
REMARK SMILES IDX 14 1 13 2 15 3 16 4 17 5 2 6 1 7 3 8 4 9 5 10 6 11 8 12 9 13
REMARK SMILES IDX 10 14 11 15 12 16 7 17
REMARK H PARENT
REMARK Flexibility Score: inf
ROOT
ATOM      1  C   UNL     1      14.677 -11.177   3.654  1.00  0.00     0.053 C 
ATOM      2  C   UNL     1      13.509 -10.374   4.132  1.00  0.00     0.041 C 
ATOM      3  C   UNL     1      12.225 -10.652   3.936  1.00  0.00     0.005 C 
ATOM      4  C   UNL     1      11.599 -11.843   3.271  1.00  0.00     0.049 C 
ATOM      5  C   UNL     1      10.161 -11.473   2.797  1.00  0.00     0.029 C 
ATOM      6  C   UNL     1      10.118 -10.622   1.518  1.00  0.00    -0.073 C 
ATOM      7  C   UNL     1      11.205 -10.183   0.852  1.00  0.00     0.008 C 
ATOM      8  C   UNL     1       8.748 -10.222   1.031  1.00  0.00     0.031 C 
ATOM      9  C   UNL     1       8.019  -9.469   2.141  1.00  0.00     0.005 C 
ATOM     10  C   UNL     1       7.941 -10.318   3.417  1.00  0.00     0.012 C 
ATOM     11  C   UNL     1       9.338 -10.756   3.942  1.00  0.00    -0.004 C 
ATOM     12  C   UNL     1      10.103  -9.547   4.476  1.00  0.00     0.027 C 
ATOM     13  C   UNL     1      11.435  -9.567   4.493  1.00  0.00     0.131 C 
ATOM     14  O   UNL     1      12.267  -8.585   5.010  1.00  0.00    -0.423 OA
ATOM     15  C   UNL     1      13.554  -9.065   4.790  1.00  0.00     0.339 C 
ATOM     16  O   UNL     1      14.599  -8.442   5.113  1.00  0.00    -0.246 OA
ATOM     17  C   UNL     1       9.106 -11.725   5.124  1.00  0.00     0.016 C 
ENDROOT
TORSDOF 0
ENDMDL
MODEL 2
REMARK VINA RESULT:    22.552      1.907      3.217
REMARK INTER + INTRA:          22.552
REMARK INTER:                  22.552
REMARK INTRA:                   0.000
REMARK UNBOUND:                 0.000
REMARK SMILES C=C1CCC[C@]2(C)C=C3OC(=O)C(C)=C3C[C@H]12
REMARK SMILES IDX 14 1 13 2 15 3 16 4 17 5 2 6 1 7 3 8 4 9 5 10 6 11 8 12 9 13
REMARK SMILES IDX 10 14 11 15 12 16 7 17
REMARK H PARENT
REMARK Flexibility Score: inf
ROOT
ATOM      1  C   UNL     1      15.194  -7.895   5.122  1.00  0.00     0.053 C 
ATOM      2  C   UNL     1      14.374  -8.296   3.937  1.00  0.00     0.041 C 
ATOM      3  C   UNL     1      13.134  -8.774   3.959  1.00  0.00     0.005 C 
ATOM      4  C   UNL     1      12.210  -8.972   5.125  1.00  0.00     0.049 C 
ATOM      5  C   UNL     1      11.132 -10.034   4.754  1.00  0.00     0.029 C 
ATOM      6  C   UNL     1      11.635 -11.485   4.792  1.00  0.00    -0.073 C 
ATOM      7  C   UNL     1      12.901 -11.849   5.082  1.00  0.00     0.008 C 
ATOM      8  C   UNL     1      10.633 -12.548   4.422  1.00  0.00     0.031 C 
ATOM      9  C   UNL     1      10.086 -12.260   3.025  1.00  0.00     0.005 C 
ATOM     10  C   UNL     1       9.473 -10.855   2.958  1.00  0.00     0.012 C 
ATOM     11  C   UNL     1      10.480  -9.733   3.344  1.00  0.00    -0.004 C 
ATOM     12  C   UNL     1      11.558  -9.602   2.272  1.00  0.00     0.027 C 
ATOM     13  C   UNL     1      12.753  -9.112   2.597  1.00  0.00     0.131 C 
ATOM     14  O   UNL     1      13.807  -8.863   1.730  1.00  0.00    -0.423 OA
ATOM     15  C   UNL     1      14.819  -8.364   2.543  1.00  0.00     0.339 C 
ATOM     16  O   UNL     1      15.957  -8.029   2.120  1.00  0.00    -0.246 OA
ATOM     17  C   UNL     1       9.695  -8.402   3.388  1.00  0.00     0.016 C 
ENDROOT
TORSDOF 0
ENDMDL
