MODEL 1
REMARK VINA RESULT:    -3.954      0.000      0.000
REMARK INTER + INTRA:          -7.370
REMARK INTER:                  -6.034
REMARK INTRA:                  -1.336
REMARK UNBOUND:                -1.336
REMARK SMILES CCCCCCCCCCC(=O)[O-]
REMARK SMILES IDX 7 1 8 2 9 3 10 4 11 5 12 6 13 7 6 8 5 9 4 10 3 11 2 12 1 13
REMARK H PARENT
REMARK Flexibility Score: inf
ROOT
ATOM      1  C   UNL     1      -1.432  44.183  21.327  1.00  0.00     0.000 C 
ENDROOT
BRANCH   1   2
ATOM      2  C   UNL     1      -1.882  43.204  22.427  1.00  0.00     0.000 C 
BRANCH   2   3
ATOM      3  C   UNL     1      -2.875  43.834  23.419  1.00  0.00     0.006 C 
BRANCH   3   4
ATOM      4  C   UNL     1      -2.796  45.366  23.422  1.00  0.00     0.053 C 
BRANCH   4   5
ATOM      5  C   UNL     1      -4.156  45.991  23.463  1.00  0.00     0.041 C 
ATOM      6  O   UNL     1      -5.171  45.285  23.701  1.00  0.00    -0.550 OA
ATOM      7  O   UNL     1      -4.307  47.348  23.202  1.00  0.00    -0.550 OA
ENDBRANCH   4   5
ENDBRANCH   3   4
ENDBRANCH   2   3
ENDBRANCH   1   2
BRANCH   1   8
ATOM      8  C   UNL     1      -1.311  43.568  19.921  1.00  0.00     0.000 C 
BRANCH   8   9
ATOM      9  C   UNL     1      -2.194  44.270  18.879  1.00  0.00    -0.000 C 
BRANCH   9  10
ATOM     10  C   UNL     1      -3.363  45.003  19.554  1.00  0.00    -0.000 C 
BRANCH  10  11
ATOM     11  C   UNL     1      -4.722  44.332  19.292  1.00  0.00    -0.000 C 
BRANCH  11  12
ATOM     12  C   UNL     1      -5.390  43.718  20.536  1.00  0.00    -0.003 C 
ATOM     13  C   UNL     1      -5.065  42.237  20.720  1.00  0.00     0.004 C 
ENDBRANCH  11  12
ENDBRANCH  10  11
ENDBRANCH   9  10
ENDBRANCH   8   9
ENDBRANCH   1   8
TORSDOF 9
ENDMDL
MODEL 2
REMARK VINA RESULT:    -3.935      2.386      3.023
REMARK INTER + INTRA:          -7.341
REMARK INTER:                  -6.624
REMARK INTRA:                  -0.716
REMARK UNBOUND:                -1.336
REMARK SMILES CCCCCCCCCCC(=O)[O-]
REMARK SMILES IDX 7 1 8 2 9 3 10 4 11 5 12 6 13 7 6 8 5 9 4 10 3 11 2 12 1 13
REMARK H PARENT
REMARK Flexibility Score: inf
ROOT
ATOM      1  C   UNL     1      -1.521  44.251  21.669  1.00  0.00     0.000 C 
ENDROOT
BRANCH   1   2
ATOM      2  C   UNL     1      -0.412  43.653  22.553  1.00  0.00     0.000 C 
BRANCH   2   3
ATOM      3  C   UNL     1      -0.578  44.004  24.041  1.00  0.00     0.006 C 
BRANCH   3   4
ATOM      4  C   UNL     1      -0.630  42.752  24.928  1.00  0.00     0.053 C 
BRANCH   4   5
ATOM      5  C   UNL     1      -1.771  42.807  25.897  1.00  0.00     0.041 C 
ATOM      6  O   UNL     1      -1.848  41.969  26.833  1.00  0.00    -0.550 OA
ATOM      7  O   UNL     1      -2.768  43.763  25.745  1.00  0.00    -0.550 OA
ENDBRANCH   4   5
ENDBRANCH   3   4
ENDBRANCH   2   3
ENDBRANCH   1   2
BRANCH   1   8
ATOM      8  C   UNL     1      -2.666  44.934  22.438  1.00  0.00     0.000 C 
BRANCH   8   9
ATOM      9  C   UNL     1      -3.787  45.444  21.520  1.00  0.00    -0.000 C 
BRANCH   9  10
ATOM     10  C   UNL     1      -3.483  45.119  20.050  1.00  0.00    -0.000 C 
BRANCH  10  11
ATOM     11  C   UNL     1      -4.587  44.282  19.381  1.00  0.00    -0.000 C 
BRANCH  11  12
ATOM     12  C   UNL     1      -5.541  43.571  20.358  1.00  0.00    -0.003 C 
ATOM     13  C   UNL     1      -5.359  42.055  20.376  1.00  0.00     0.004 C 
ENDBRANCH  11  12
ENDBRANCH  10  11
ENDBRANCH   9  10
ENDBRANCH   8   9
ENDBRANCH   1   8
TORSDOF 9
ENDMDL
MODEL 3
REMARK VINA RESULT:    -3.833      2.398      3.001
REMARK INTER + INTRA:          -7.186
REMARK INTER:                  -6.143
REMARK INTRA:                  -1.043
REMARK UNBOUND:                -1.336
REMARK SMILES CCCCCCCCCCC(=O)[O-]
REMARK SMILES IDX 7 1 8 2 9 3 10 4 11 5 12 6 13 7 6 8 5 9 4 10 3 11 2 12 1 13
REMARK H PARENT
REMARK Flexibility Score: inf
ROOT
ATOM      1  C   UNL     1      -1.860  44.207  21.333  1.00  0.00     0.000 C 
ENDROOT
BRANCH   1   2
ATOM      2  C   UNL     1      -2.711  45.058  22.294  1.00  0.00     0.000 C 
BRANCH   2   3
ATOM      3  C   UNL     1      -2.448  44.733  23.774  1.00  0.00     0.006 C 
BRANCH   3   4
ATOM      4  C   UNL     1      -1.020  44.220  24.008  1.00  0.00     0.053 C 
BRANCH   4   5
ATOM      5  C   UNL     1      -1.014  42.930  24.769  1.00  0.00     0.041 C 
ATOM      6  O   UNL     1      -1.353  42.907  25.981  1.00  0.00    -0.550 OA
ATOM      7  O   UNL     1      -0.598  41.758  24.148  1.00  0.00    -0.550 OA
ENDBRANCH   4   5
ENDBRANCH   3   4
ENDBRANCH   2   3
ENDBRANCH   1   2
BRANCH   1   8
ATOM      8  C   UNL     1      -2.272  44.293  19.852  1.00  0.00     0.000 C 
BRANCH   8   9
ATOM      9  C   UNL     1      -3.569  45.086  19.634  1.00  0.00    -0.000 C 
BRANCH   9  10
ATOM     10  C   UNL     1      -4.718  44.156  19.218  1.00  0.00    -0.000 C 
BRANCH  10  11
ATOM     11  C   UNL     1      -5.532  43.636  20.416  1.00  0.00    -0.000 C 
BRANCH  11  12
ATOM     12  C   UNL     1      -5.273  42.163  20.783  1.00  0.00    -0.003 C 
ATOM     13  C   UNL     1      -4.790  41.980  22.221  1.00  0.00     0.004 C 
ENDBRANCH  11  12
ENDBRANCH  10  11
ENDBRANCH   9  10
ENDBRANCH   8   9
ENDBRANCH   1   8
TORSDOF 9
ENDMDL
MODEL 4
REMARK VINA RESULT:    -3.809      2.138      3.224
REMARK INTER + INTRA:          -7.149
REMARK INTER:                  -6.189
REMARK INTRA:                  -0.960
REMARK UNBOUND:                -1.336
REMARK SMILES CCCCCCCCCCC(=O)[O-]
REMARK SMILES IDX 7 1 8 2 9 3 10 4 11 5 12 6 13 7 6 8 5 9 4 10 3 11 2 12 1 13
REMARK H PARENT
REMARK Flexibility Score: inf
ROOT
ATOM      1  C   UNL     1      -1.416  43.129  21.565  1.00  0.00     0.000 C 
ENDROOT
BRANCH   1   2
ATOM      2  C   UNL     1      -0.341  43.710  22.502  1.00  0.00     0.000 C 
BRANCH   2   3
ATOM      3  C   UNL     1      -0.937  44.381  23.752  1.00  0.00     0.006 C 
BRANCH   3   4
ATOM      4  C   UNL     1      -1.071  43.400  24.926  1.00  0.00     0.053 C 
BRANCH   4   5
ATOM      5  C   UNL     1      -2.504  43.163  25.288  1.00  0.00     0.041 C 
ATOM      6  O   UNL     1      -3.200  44.096  25.766  1.00  0.00    -0.550 OA
ATOM      7  O   UNL     1      -3.062  41.900  25.130  1.00  0.00    -0.550 OA
ENDBRANCH   4   5
ENDBRANCH   3   4
ENDBRANCH   2   3
ENDBRANCH   1   2
BRANCH   1   8
ATOM      8  C   UNL     1      -1.642  43.922  20.265  1.00  0.00     0.000 C 
BRANCH   8   9
ATOM      9  C   UNL     1      -3.084  44.428  20.113  1.00  0.00    -0.000 C 
BRANCH   9  10
ATOM     10  C   UNL     1      -3.431  45.439  21.215  1.00  0.00    -0.000 C 
BRANCH  10  11
ATOM     11  C   UNL     1      -4.434  44.886  22.242  1.00  0.00    -0.000 C 
BRANCH  11  12
ATOM     12  C   UNL     1      -4.919  45.908  23.286  1.00  0.00    -0.003 C 
ATOM     13  C   UNL     1      -3.848  46.929  23.667  1.00  0.00     0.004 C 
ENDBRANCH  11  12
ENDBRANCH  10  11
ENDBRANCH   9  10
ENDBRANCH   8   9
ENDBRANCH   1   8
TORSDOF 9
ENDMDL
MODEL 5
REMARK VINA RESULT:    -3.805      2.705      4.564
REMARK INTER + INTRA:          -7.143
REMARK INTER:                  -5.935
REMARK INTRA:                  -1.208
REMARK UNBOUND:                -1.336
REMARK SMILES CCCCCCCCCCC(=O)[O-]
REMARK SMILES IDX 7 1 8 2 9 3 10 4 11 5 12 6 13 7 6 8 5 9 4 10 3 11 2 12 1 13
REMARK H PARENT
REMARK Flexibility Score: inf
ROOT
ATOM      1  C   UNL     1      -1.833  43.452  21.673  1.00  0.00     0.000 C 
ENDROOT
BRANCH   1   2
ATOM      2  C   UNL     1      -1.953  44.201  20.334  1.00  0.00     0.000 C 
BRANCH   2   3
ATOM      3  C   UNL     1      -3.245  45.029  20.224  1.00  0.00     0.006 C 
BRANCH   3   4
ATOM      4  C   UNL     1      -4.470  44.152  19.931  1.00  0.00     0.053 C 
BRANCH   4   5
ATOM      5  C   UNL     1      -4.382  43.511  18.581  1.00  0.00     0.041 C 
ATOM      6  O   UNL     1      -4.332  42.257  18.476  1.00  0.00    -0.550 OA
ATOM      7  O   UNL     1      -4.318  44.299  17.438  1.00  0.00    -0.550 OA
ENDBRANCH   4   5
ENDBRANCH   3   4
ENDBRANCH   2   3
ENDBRANCH   1   2
BRANCH   1   8
ATOM      8  C   UNL     1      -1.208  44.269  22.820  1.00  0.00     0.000 C 
BRANCH   8   9
ATOM      9  C   UNL     1      -1.988  44.147  24.137  1.00  0.00    -0.000 C 
BRANCH   9  10
ATOM     10  C   UNL     1      -3.448  43.749  23.878  1.00  0.00    -0.000 C 
BRANCH  10  11
ATOM     11  C   UNL     1      -4.453  44.810  24.356  1.00  0.00    -0.000 C 
BRANCH  11  12
ATOM     12  C   UNL     1      -4.884  45.823  23.280  1.00  0.00    -0.003 C 
ATOM     13  C   UNL     1      -4.077  47.119  23.319  1.00  0.00     0.004 C 
ENDBRANCH  11  12
ENDBRANCH  10  11
ENDBRANCH   9  10
ENDBRANCH   8   9
ENDBRANCH   1   8
TORSDOF 9
ENDMDL
MODEL 6
REMARK VINA RESULT:    -3.797      1.512      2.206
REMARK INTER + INTRA:          -7.131
REMARK INTER:                  -6.092
REMARK INTRA:                  -1.039
REMARK UNBOUND:                -1.336
REMARK SMILES CCCCCCCCCCC(=O)[O-]
REMARK SMILES IDX 7 1 8 2 9 3 10 4 11 5 12 6 13 7 6 8 5 9 4 10 3 11 2 12 1 13
REMARK H PARENT
REMARK Flexibility Score: inf
ROOT
ATOM      1  C   UNL     1      -2.484  44.495  20.442  1.00  0.00     0.000 C 
ENDROOT
BRANCH   1   2
ATOM      2  C   UNL     1      -2.553  44.729  21.962  1.00  0.00     0.000 C 
BRANCH   2   3
ATOM      3  C   UNL     1      -3.672  45.704  22.367  1.00  0.00     0.006 C 
BRANCH   3   4
ATOM      4  C   UNL     1      -3.613  46.064  23.858  1.00  0.00     0.053 C 
BRANCH   4   5
ATOM      5  C   UNL     1      -4.031  44.914  24.722  1.00  0.00     0.041 C 
ATOM      6  O   UNL     1      -5.244  44.586  24.797  1.00  0.00    -0.550 OA
ATOM      7  O   UNL     1      -3.085  44.228  25.474  1.00  0.00    -0.550 OA
ENDBRANCH   4   5
ENDBRANCH   3   4
ENDBRANCH   2   3
ENDBRANCH   1   2
BRANCH   1   8
ATOM      8  C   UNL     1      -3.485  45.319  19.612  1.00  0.00     0.000 C 
BRANCH   8   9
ATOM      9  C   UNL     1      -4.445  44.447  18.789  1.00  0.00    -0.000 C 
BRANCH   9  10
ATOM     10  C   UNL     1      -4.589  43.050  19.411  1.00  0.00    -0.000 C 
BRANCH  10  11
ATOM     11  C   UNL     1      -5.696  42.979  20.477  1.00  0.00    -0.000 C 
BRANCH  11  12
ATOM     12  C   UNL     1      -5.662  41.720  21.361  1.00  0.00    -0.003 C 
ATOM     13  C   UNL     1      -4.694  41.840  22.537  1.00  0.00     0.004 C 
ENDBRANCH  11  12
ENDBRANCH  10  11
ENDBRANCH   9  10
ENDBRANCH   8   9
ENDBRANCH   1   8
TORSDOF 9
ENDMDL
MODEL 7
REMARK VINA RESULT:    -3.669      1.851      3.215
REMARK INTER + INTRA:          -6.936
REMARK INTER:                  -5.726
REMARK INTRA:                  -1.209
REMARK UNBOUND:                -1.336
REMARK SMILES CCCCCCCCCCC(=O)[O-]
REMARK SMILES IDX 7 1 8 2 9 3 10 4 11 5 12 6 13 7 6 8 5 9 4 10 3 11 2 12 1 13
REMARK H PARENT
REMARK Flexibility Score: inf
ROOT
ATOM      1  C   UNL     1      -4.497  41.459  21.395  1.00  0.00     0.000 C 
ENDROOT
BRANCH   1   2
ATOM      2  C   UNL     1      -4.988  41.430  22.854  1.00  0.00     0.000 C 
BRANCH   2   3
ATOM      3  C   UNL     1      -4.045  42.171  23.818  1.00  0.00     0.006 C 
BRANCH   3   4
ATOM      4  C   UNL     1      -4.660  43.478  24.338  1.00  0.00     0.053 C 
BRANCH   4   5
ATOM      5  C   UNL     1      -3.724  44.203  25.255  1.00  0.00     0.041 C 
ATOM      6  O   UNL     1      -2.502  43.900  25.282  1.00  0.00    -0.550 OA
ATOM      7  O   UNL     1      -4.207  45.190  26.105  1.00  0.00    -0.550 OA
ENDBRANCH   4   5
ENDBRANCH   3   4
ENDBRANCH   2   3
ENDBRANCH   1   2
BRANCH   1   8
ATOM      8  C   UNL     1      -5.453  42.144  20.402  1.00  0.00     0.000 C 
BRANCH   8   9
ATOM      9  C   UNL     1      -5.434  43.676  20.508  1.00  0.00    -0.000 C 
BRANCH   9  10
ATOM     10  C   UNL     1      -4.621  44.296  19.362  1.00  0.00    -0.000 C 
BRANCH  10  11
ATOM     11  C   UNL     1      -3.382  45.065  19.854  1.00  0.00    -0.000 C 
BRANCH  11  12
ATOM     12  C   UNL     1      -3.163  45.031  21.377  1.00  0.00    -0.003 C 
ATOM     13  C   UNL     1      -1.841  44.379  21.778  1.00  0.00     0.004 C 
ENDBRANCH  11  12
ENDBRANCH  10  11
ENDBRANCH   9  10
ENDBRANCH   8   9
ENDBRANCH   1   8
TORSDOF 9
ENDMDL
MODEL 8
REMARK VINA RESULT:    -3.662      1.089      1.979
REMARK INTER + INTRA:          -6.925
REMARK INTER:                  -5.925
REMARK INTRA:                  -1.001
REMARK UNBOUND:                -1.336
REMARK SMILES CCCCCCCCCCC(=O)[O-]
REMARK SMILES IDX 7 1 8 2 9 3 10 4 11 5 12 6 13 7 6 8 5 9 4 10 3 11 2 12 1 13
REMARK H PARENT
REMARK Flexibility Score: inf
ROOT
ATOM      1  C   UNL     1      -2.379  44.249  20.252  1.00  0.00     0.000 C 
ENDROOT
BRANCH   1   2
ATOM      2  C   UNL     1      -1.912  44.615  21.673  1.00  0.00     0.000 C 
BRANCH   2   3
ATOM      3  C   UNL     1      -2.750  43.938  22.771  1.00  0.00     0.006 C 
BRANCH   3   4
ATOM      4  C   UNL     1      -3.059  44.892  23.933  1.00  0.00     0.053 C 
BRANCH   4   5
ATOM      5  C   UNL     1      -4.010  45.974  23.522  1.00  0.00     0.041 C 
ATOM      6  O   UNL     1      -5.170  45.684  23.131  1.00  0.00    -0.550 OA
ATOM      7  O   UNL     1      -3.601  47.302  23.537  1.00  0.00    -0.550 OA
ENDBRANCH   4   5
ENDBRANCH   3   4
ENDBRANCH   2   3
ENDBRANCH   1   2
BRANCH   1   8
ATOM      8  C   UNL     1      -3.586  45.054  19.738  1.00  0.00     0.000 C 
BRANCH   8   9
ATOM      9  C   UNL     1      -4.742  44.164  19.258  1.00  0.00    -0.000 C 
BRANCH   9  10
ATOM     10  C   UNL     1      -5.519  43.583  20.448  1.00  0.00    -0.000 C 
BRANCH  10  11
ATOM     11  C   UNL     1      -5.531  42.045  20.462  1.00  0.00    -0.000 C 
BRANCH  11  12
ATOM     12  C   UNL     1      -4.492  41.382  19.539  1.00  0.00    -0.003 C 
ATOM     13  C   UNL     1      -5.123  40.500  18.463  1.00  0.00     0.004 C 
ENDBRANCH  11  12
ENDBRANCH  10  11
ENDBRANCH   9  10
ENDBRANCH   8   9
ENDBRANCH   1   8
TORSDOF 9
ENDMDL
MODEL 9
REMARK VINA RESULT:    -3.658      1.709      3.182
REMARK INTER + INTRA:          -6.919
REMARK INTER:                  -5.664
REMARK INTRA:                  -1.255
REMARK UNBOUND:                -1.336
REMARK SMILES CCCCCCCCCCC(=O)[O-]
REMARK SMILES IDX 7 1 8 2 9 3 10 4 11 5 12 6 13 7 6 8 5 9 4 10 3 11 2 12 1 13
REMARK H PARENT
REMARK Flexibility Score: inf
ROOT
ATOM      1  C   UNL     1      -5.092  43.853  19.968  1.00  0.00     0.000 C 
ENDROOT
BRANCH   1   2
ATOM      2  C   UNL     1      -4.744  44.234  21.418  1.00  0.00     0.000 C 
BRANCH   2   3
ATOM      3  C   UNL     1      -3.658  45.320  21.508  1.00  0.00     0.006 C 
BRANCH   3   4
ATOM      4  C   UNL     1      -3.429  45.791  22.951  1.00  0.00     0.053 C 
BRANCH   4   5
ATOM      5  C   UNL     1      -2.560  44.839  23.713  1.00  0.00     0.041 C 
ATOM      6  O   UNL     1      -1.389  44.597  23.320  1.00  0.00    -0.550 OA
ATOM      7  O   UNL     1      -3.057  44.190  24.836  1.00  0.00    -0.550 OA
ENDBRANCH   4   5
ENDBRANCH   3   4
ENDBRANCH   2   3
ENDBRANCH   1   2
BRANCH   1   8
ATOM      8  C   UNL     1      -4.412  44.716  18.889  1.00  0.00     0.000 C 
BRANCH   8   9
ATOM      9  C   UNL     1      -4.041  43.921  17.629  1.00  0.00    -0.000 C 
BRANCH   9  10
ATOM     10  C   UNL     1      -2.658  43.269  17.777  1.00  0.00    -0.000 C 
BRANCH  10  11
ATOM     11  C   UNL     1      -1.651  44.164  18.520  1.00  0.00    -0.000 C 
BRANCH  11  12
ATOM     12  C   UNL     1      -0.948  43.492  19.713  1.00  0.00    -0.003 C 
ATOM     13  C   UNL     1      -1.720  42.297  20.268  1.00  0.00     0.004 C 
ENDBRANCH  11  12
ENDBRANCH  10  11
ENDBRANCH   9  10
ENDBRANCH   8   9
ENDBRANCH   1   8
TORSDOF 9
ENDMDL
