MODEL 1
REMARK VINA RESULT:    -4.431      0.000      0.000
REMARK INTER + INTRA:          -6.728
REMARK INTER:                  -6.245
REMARK INTRA:                  -0.484
REMARK UNBOUND:                -0.484
REMARK SMILES CCCCCCCCC(=O)[O-]
REMARK SMILES IDX 6 1 7 2 8 3 9 4 10 5 11 6 5 7 4 8 3 9 2 10 1 11
REMARK H PARENT
REMARK Flexibility Score: inf
ROOT
ATOM      1  C   UNL     1      -4.481  -1.073  27.890  1.00  0.00     0.000 C 
ENDROOT
BRANCH   1   2
ATOM      2  C   UNL     1      -3.175  -0.589  28.537  1.00  0.00     0.006 C 
BRANCH   2   3
ATOM      3  C   UNL     1      -2.053  -0.492  27.498  1.00  0.00     0.053 C 
BRANCH   3   4
ATOM      4  C   UNL     1      -0.932  -1.417  27.849  1.00  0.00     0.041 C 
ATOM      5  O   UNL     1      -1.159  -2.471  28.498  1.00  0.00    -0.550 OA
ATOM      6  O   UNL     1       0.374  -1.090  27.503  1.00  0.00    -0.550 OA
ENDBRANCH   3   4
ENDBRANCH   2   3
ENDBRANCH   1   2
BRANCH   1   7
ATOM      7  C   UNL     1      -5.355  -1.883  28.861  1.00  0.00     0.000 C 
BRANCH   7   8
ATOM      8  C   UNL     1      -4.535  -2.877  29.705  1.00  0.00    -0.000 C 
BRANCH   8   9
ATOM      9  C   UNL     1      -4.359  -4.235  28.993  1.00  0.00    -0.000 C 
BRANCH   9  10
ATOM     10  C   UNL     1      -5.611  -4.696  28.227  1.00  0.00    -0.003 C 
ATOM     11  C   UNL     1      -5.781  -6.213  28.217  1.00  0.00     0.004 C 
ENDBRANCH   9  10
ENDBRANCH   8   9
ENDBRANCH   7   8
ENDBRANCH   1   7
TORSDOF 7
ENDMDL
MODEL 2
REMARK VINA RESULT:    -4.386      0.728      1.185
REMARK INTER + INTRA:          -6.664
REMARK INTER:                  -6.261
REMARK INTRA:                  -0.403
REMARK UNBOUND:                -0.484
REMARK SMILES CCCCCCCCC(=O)[O-]
REMARK SMILES IDX 6 1 7 2 8 3 9 4 10 5 11 6 5 7 4 8 3 9 2 10 1 11
REMARK H PARENT
REMARK Flexibility Score: inf
ROOT
ATOM      1  C   UNL     1      -4.319  -1.007  27.927  1.00  0.00     0.000 C 
ENDROOT
BRANCH   1   2
ATOM      2  C   UNL     1      -3.012  -0.597  28.621  1.00  0.00     0.006 C 
BRANCH   2   3
ATOM      3  C   UNL     1      -1.801  -0.915  27.739  1.00  0.00     0.053 C 
BRANCH   3   4
ATOM      4  C   UNL     1      -0.964  -1.986  28.364  1.00  0.00     0.041 C 
ATOM      5  O   UNL     1       0.261  -1.789  28.577  1.00  0.00    -0.550 OA
ATOM      6  O   UNL     1      -1.525  -3.220  28.665  1.00  0.00    -0.550 OA
ENDBRANCH   3   4
ENDBRANCH   2   3
ENDBRANCH   1   2
BRANCH   1   7
ATOM      7  C   UNL     1      -5.375  -1.523  28.916  1.00  0.00     0.000 C 
BRANCH   7   8
ATOM      8  C   UNL     1      -4.873  -2.720  29.746  1.00  0.00    -0.000 C 
BRANCH   8   9
ATOM      9  C   UNL     1      -5.702  -3.996  29.485  1.00  0.00    -0.000 C 
BRANCH   9  10
ATOM     10  C   UNL     1      -5.244  -4.785  28.247  1.00  0.00    -0.003 C 
ATOM     11  C   UNL     1      -5.802  -6.205  28.202  1.00  0.00     0.004 C 
ENDBRANCH   9  10
ENDBRANCH   8   9
ENDBRANCH   7   8
ENDBRANCH   1   7
TORSDOF 7
ENDMDL
MODEL 3
REMARK VINA RESULT:    -4.375      0.848      1.544
REMARK INTER + INTRA:          -6.649
REMARK INTER:                  -6.082
REMARK INTRA:                  -0.567
REMARK UNBOUND:                -0.484
REMARK SMILES CCCCCCCCC(=O)[O-]
REMARK SMILES IDX 6 1 7 2 8 3 9 4 10 5 11 6 5 7 4 8 3 9 2 10 1 11
REMARK H PARENT
REMARK Flexibility Score: inf
ROOT
ATOM      1  C   UNL     1      -4.188  -0.912  27.801  1.00  0.00     0.000 C 
ENDROOT
BRANCH   1   2
ATOM      2  C   UNL     1      -2.779  -0.755  28.391  1.00  0.00     0.006 C 
BRANCH   2   3
ATOM      3  C   UNL     1      -1.741  -0.550  27.283  1.00  0.00     0.053 C 
BRANCH   3   4
ATOM      4  C   UNL     1      -0.473  -1.271  27.612  1.00  0.00     0.041 C 
ATOM      5  O   UNL     1       0.619  -0.894  27.112  1.00  0.00    -0.550 OA
ATOM      6  O   UNL     1      -0.503  -2.393  28.432  1.00  0.00    -0.550 OA
ENDBRANCH   3   4
ENDBRANCH   2   3
ENDBRANCH   1   2
BRANCH   1   7
ATOM      7  C   UNL     1      -5.271  -1.032  28.885  1.00  0.00     0.000 C 
BRANCH   7   8
ATOM      8  C   UNL     1      -5.366  -2.453  29.471  1.00  0.00    -0.000 C 
BRANCH   8   9
ATOM      9  C   UNL     1      -5.755  -3.497  28.402  1.00  0.00    -0.000 C 
BRANCH   9  10
ATOM     10  C   UNL     1      -4.787  -4.690  28.326  1.00  0.00    -0.003 C 
ATOM     11  C   UNL     1      -3.426  -4.397  28.953  1.00  0.00     0.004 C 
ENDBRANCH   9  10
ENDBRANCH   8   9
ENDBRANCH   7   8
ENDBRANCH   1   7
TORSDOF 7
ENDMDL
MODEL 4
REMARK VINA RESULT:    -4.328      1.095      1.288
REMARK INTER + INTRA:          -6.582
REMARK INTER:                  -6.269
REMARK INTRA:                  -0.314
REMARK UNBOUND:                -0.484
REMARK SMILES CCCCCCCCC(=O)[O-]
REMARK SMILES IDX 6 1 7 2 8 3 9 4 10 5 11 6 5 7 4 8 3 9 2 10 1 11
REMARK H PARENT
REMARK Flexibility Score: inf
ROOT
ATOM      1  C   UNL     1      -3.211  -1.668  28.504  1.00  0.00     0.000 C 
ENDROOT
BRANCH   1   2
ATOM      2  C   UNL     1      -2.409  -0.363  28.392  1.00  0.00     0.006 C 
BRANCH   2   3
ATOM      3  C   UNL     1      -1.681  -0.281  27.047  1.00  0.00     0.053 C 
BRANCH   3   4
ATOM      4  C   UNL     1      -0.267  -0.748  27.187  1.00  0.00     0.041 C 
ATOM      5  O   UNL     1       0.010  -1.970  27.075  1.00  0.00    -0.550 OA
ATOM      6  O   UNL     1       0.738   0.161  27.490  1.00  0.00    -0.550 OA
ENDBRANCH   3   4
ENDBRANCH   2   3
ENDBRANCH   1   2
BRANCH   1   7
ATOM      7  C   UNL     1      -4.723  -1.447  28.333  1.00  0.00     0.000 C 
BRANCH   7   8
ATOM      8  C   UNL     1      -5.505  -2.769  28.228  1.00  0.00    -0.000 C 
BRANCH   8   9
ATOM      9  C   UNL     1      -5.495  -3.557  29.556  1.00  0.00    -0.000 C 
BRANCH   9  10
ATOM     10  C   UNL     1      -5.436  -5.082  29.365  1.00  0.00    -0.003 C 
ATOM     11  C   UNL     1      -5.565  -5.508  27.904  1.00  0.00     0.004 C 
ENDBRANCH   9  10
ENDBRANCH   8   9
ENDBRANCH   7   8
ENDBRANCH   1   7
TORSDOF 7
ENDMDL
MODEL 5
REMARK VINA RESULT:    -4.262      2.243      5.036
REMARK INTER + INTRA:          -6.489
REMARK INTER:                  -6.126
REMARK INTRA:                  -0.363
REMARK UNBOUND:                -0.484
REMARK SMILES CCCCCCCCC(=O)[O-]
REMARK SMILES IDX 6 1 7 2 8 3 9 4 10 5 11 6 5 7 4 8 3 9 2 10 1 11
REMARK H PARENT
REMARK Flexibility Score: inf
ROOT
ATOM      1  C   UNL     1      -5.339  -1.347  28.961  1.00  0.00     0.000 C 
ENDROOT
BRANCH   1   2
ATOM      2  C   UNL     1      -5.097  -2.728  29.590  1.00  0.00     0.006 C 
BRANCH   2   3
ATOM      3  C   UNL     1      -6.004  -3.786  28.954  1.00  0.00     0.053 C 
BRANCH   3   4
ATOM      4  C   UNL     1      -5.193  -4.932  28.440  1.00  0.00     0.041 C 
ATOM      5  O   UNL     1      -3.949  -4.812  28.291  1.00  0.00    -0.550 OA
ATOM      6  O   UNL     1      -5.817  -6.119  28.076  1.00  0.00    -0.550 OA
ENDBRANCH   3   4
ENDBRANCH   2   3
ENDBRANCH   1   2
BRANCH   1   7
ATOM      7  C   UNL     1      -4.259  -0.969  27.936  1.00  0.00     0.000 C 
BRANCH   7   8
ATOM      8  C   UNL     1      -2.837  -1.303  28.424  1.00  0.00    -0.000 C 
BRANCH   8   9
ATOM      9  C   UNL     1      -1.823  -0.197  28.061  1.00  0.00    -0.000 C 
BRANCH   9  10
ATOM     10  C   UNL     1      -1.033  -0.486  26.773  1.00  0.00    -0.003 C 
ATOM     11  C   UNL     1       0.015  -1.583  26.949  1.00  0.00     0.004 C 
ENDBRANCH   9  10
ENDBRANCH   8   9
ENDBRANCH   7   8
ENDBRANCH   1   7
TORSDOF 7
ENDMDL
MODEL 6
REMARK VINA RESULT:    -4.048      2.939      5.142
REMARK INTER + INTRA:          -6.188
REMARK INTER:                  -5.887
REMARK INTRA:                  -0.301
REMARK UNBOUND:                -0.484
REMARK SMILES CCCCCCCCC(=O)[O-]
REMARK SMILES IDX 6 1 7 2 8 3 9 4 10 5 11 6 5 7 4 8 3 9 2 10 1 11
REMARK H PARENT
REMARK Flexibility Score: inf
ROOT
ATOM      1  C   UNL     1      -2.820  -2.268  28.631  1.00  0.00     0.000 C 
ENDROOT
BRANCH   1   2
ATOM      2  C   UNL     1      -3.775  -3.153  29.445  1.00  0.00     0.006 C 
BRANCH   2   3
ATOM      3  C   UNL     1      -3.931  -4.532  28.796  1.00  0.00     0.053 C 
BRANCH   3   4
ATOM      4  C   UNL     1      -5.323  -4.715  28.280  1.00  0.00     0.041 C 
ATOM      5  O   UNL     1      -6.059  -3.715  28.074  1.00  0.00    -0.550 OA
ATOM      6  O   UNL     1      -5.826  -5.994  28.075  1.00  0.00    -0.550 OA
ENDBRANCH   3   4
ENDBRANCH   2   3
ENDBRANCH   1   2
BRANCH   1   7
ATOM      7  C   UNL     1      -3.247  -0.792  28.623  1.00  0.00     0.000 C 
BRANCH   7   8
ATOM      8  C   UNL     1      -4.697  -0.598  28.141  1.00  0.00    -0.000 C 
BRANCH   8   9
ATOM      9  C   UNL     1      -5.652  -0.239  29.300  1.00  0.00    -0.000 C 
BRANCH   9  10
ATOM     10  C   UNL     1      -5.642   1.256  29.662  1.00  0.00    -0.003 C 
ATOM     11  C   UNL     1      -6.993   1.933  29.443  1.00  0.00     0.004 C 
ENDBRANCH   9  10
ENDBRANCH   8   9
ENDBRANCH   7   8
ENDBRANCH   1   7
TORSDOF 7
ENDMDL
MODEL 7
REMARK VINA RESULT:    -3.749      2.247      4.769
REMARK INTER + INTRA:          -5.766
REMARK INTER:                  -5.427
REMARK INTRA:                  -0.340
REMARK UNBOUND:                -0.484
REMARK SMILES CCCCCCCCC(=O)[O-]
REMARK SMILES IDX 6 1 7 2 8 3 9 4 10 5 11 6 5 7 4 8 3 9 2 10 1 11
REMARK H PARENT
REMARK Flexibility Score: inf
ROOT
ATOM      1  C   UNL     1      -3.715  -4.292  28.981  1.00  0.00     0.000 C 
ENDROOT
BRANCH   1   2
ATOM      2  C   UNL     1      -4.458  -3.143  29.678  1.00  0.00     0.006 C 
BRANCH   2   3
ATOM      3  C   UNL     1      -5.363  -2.398  28.693  1.00  0.00     0.053 C 
BRANCH   3   4
ATOM      4  C   UNL     1      -4.839  -1.020  28.437  1.00  0.00     0.041 C 
ATOM      5  O   UNL     1      -5.376  -0.025  28.990  1.00  0.00    -0.550 OA
ATOM      6  O   UNL     1      -3.788  -0.830  27.549  1.00  0.00    -0.550 OA
ENDBRANCH   3   4
ENDBRANCH   2   3
ENDBRANCH   1   2
BRANCH   1   7
ATOM      7  C   UNL     1      -2.213  -4.308  29.310  1.00  0.00     0.000 C 
BRANCH   7   8
ATOM      8  C   UNL     1      -1.443  -3.173  28.610  1.00  0.00    -0.000 C 
BRANCH   8   9
ATOM      9  C   UNL     1       0.032  -3.108  29.062  1.00  0.00    -0.000 C 
BRANCH   9  10
ATOM     10  C   UNL     1       0.844  -2.011  28.354  1.00  0.00    -0.003 C 
ATOM     11  C   UNL     1       0.258  -1.610  27.002  1.00  0.00     0.004 C 
ENDBRANCH   9  10
ENDBRANCH   8   9
ENDBRANCH   7   8
ENDBRANCH   1   7
TORSDOF 7
ENDMDL
MODEL 8
REMARK VINA RESULT:    -3.641      2.328      2.819
REMARK INTER + INTRA:          -5.614
REMARK INTER:                  -5.195
REMARK INTRA:                  -0.420
REMARK UNBOUND:                -0.484
REMARK SMILES CCCCCCCCC(=O)[O-]
REMARK SMILES IDX 6 1 7 2 8 3 9 4 10 5 11 6 5 7 4 8 3 9 2 10 1 11
REMARK H PARENT
REMARK Flexibility Score: inf
ROOT
ATOM      1  C   UNL     1      -2.886  -1.206  28.029  1.00  0.00     0.000 C 
ENDROOT
BRANCH   1   2
ATOM      2  C   UNL     1      -1.974  -0.303  28.873  1.00  0.00     0.006 C 
BRANCH   2   3
ATOM      3  C   UNL     1      -2.725   0.947  29.343  1.00  0.00     0.053 C 
BRANCH   3   4
ATOM      4  C   UNL     1      -1.903   2.173  29.102  1.00  0.00     0.041 C 
ATOM      5  O   UNL     1      -1.345   2.354  27.989  1.00  0.00    -0.550 OA
ATOM      6  O   UNL     1      -1.712   3.094  30.125  1.00  0.00    -0.550 OA
ENDBRANCH   3   4
ENDBRANCH   2   3
ENDBRANCH   1   2
BRANCH   1   7
ATOM      7  C   UNL     1      -4.374  -0.856  28.189  1.00  0.00     0.000 C 
BRANCH   7   8
ATOM      8  C   UNL     1      -5.214  -2.052  28.673  1.00  0.00    -0.000 C 
BRANCH   8   9
ATOM      9  C   UNL     1      -4.350  -3.121  29.377  1.00  0.00    -0.000 C 
BRANCH   9  10
ATOM     10  C   UNL     1      -4.305  -4.465  28.630  1.00  0.00    -0.003 C 
ATOM     11  C   UNL     1      -5.686  -4.957  28.200  1.00  0.00     0.004 C 
ENDBRANCH   9  10
ENDBRANCH   8   9
ENDBRANCH   7   8
ENDBRANCH   1   7
TORSDOF 7
ENDMDL
MODEL 9
REMARK VINA RESULT:    -3.540      2.612      5.883
REMARK INTER + INTRA:          -5.473
REMARK INTER:                  -4.938
REMARK INTRA:                  -0.535
REMARK UNBOUND:                -0.484
REMARK SMILES CCCCCCCCC(=O)[O-]
REMARK SMILES IDX 6 1 7 2 8 3 9 4 10 5 11 6 5 7 4 8 3 9 2 10 1 11
REMARK H PARENT
REMARK Flexibility Score: inf
ROOT
ATOM      1  C   UNL     1      -2.008  -0.456  27.136  1.00  0.00     0.000 C 
ENDROOT
BRANCH   1   2
ATOM      2  C   UNL     1      -2.804  -0.858  28.386  1.00  0.00     0.006 C 
BRANCH   2   3
ATOM      3  C   UNL     1      -4.269  -1.136  28.036  1.00  0.00     0.053 C 
BRANCH   3   4
ATOM      4  C   UNL     1      -4.700  -2.455  28.594  1.00  0.00     0.041 C 
ATOM      5  O   UNL     1      -4.104  -2.949  29.586  1.00  0.00    -0.550 OA
ATOM      6  O   UNL     1      -5.729  -3.164  27.987  1.00  0.00    -0.550 OA
ENDBRANCH   3   4
ENDBRANCH   2   3
ENDBRANCH   1   2
BRANCH   1   7
ATOM      7  C   UNL     1      -0.491  -0.609  27.329  1.00  0.00     0.000 C 
BRANCH   7   8
ATOM      8  C   UNL     1       0.210   0.737  27.594  1.00  0.00    -0.000 C 
BRANCH   8   9
ATOM      9  C   UNL     1      -0.646   1.937  27.135  1.00  0.00    -0.000 C 
BRANCH   9  10
ATOM     10  C   UNL     1      -0.829   3.012  28.220  1.00  0.00    -0.003 C 
ATOM     11  C   UNL     1      -1.955   2.687  29.199  1.00  0.00     0.004 C 
ENDBRANCH   9  10
ENDBRANCH   8   9
ENDBRANCH   7   8
ENDBRANCH   1   7
TORSDOF 7
ENDMDL
