MODEL 1
REMARK VINA RESULT:    -2.448      0.000      0.000
REMARK INTER + INTRA:          -2.448
REMARK INTER:                  -2.448
REMARK INTRA:                   0.000
REMARK UNBOUND:                 0.000
REMARK SMILES CC(=O)[O-]
REMARK SMILES IDX 1 1 2 2 3 3 4 4
REMARK H PARENT
REMARK Flexibility Score: inf
ROOT
ATOM      1  C   UNL     1     132.660 125.689 135.017  1.00  0.00     0.063 C 
ATOM      2  C   UNL     1     133.443 124.420 135.000  1.00  0.00     0.038 C 
ATOM      3  O   UNL     1     133.769 123.864 136.081  1.00  0.00    -0.550 OA
ATOM      4  O   UNL     1     133.767 123.818 133.791  1.00  0.00    -0.550 OA
ENDROOT
TORSDOF 0
ENDMDL
MODEL 2
REMARK VINA RESULT:    -2.425      0.085      1.620
REMARK INTER + INTRA:          -2.425
REMARK INTER:                  -2.425
REMARK INTRA:                   0.000
REMARK UNBOUND:                 0.000
REMARK SMILES CC(=O)[O-]
REMARK SMILES IDX 1 1 2 2 3 3 4 4
REMARK H PARENT
REMARK Flexibility Score: inf
ROOT
ATOM      1  C   UNL     1     132.651 125.675 134.950  1.00  0.00     0.063 C 
ATOM      2  C   UNL     1     133.435 124.406 134.929  1.00  0.00     0.038 C 
ATOM      3  O   UNL     1     133.804 123.909 133.834  1.00  0.00    -0.550 OA
ATOM      4  O   UNL     1     133.806 123.798 136.122  1.00  0.00    -0.550 OA
ENDROOT
TORSDOF 0
ENDMDL
MODEL 3
REMARK VINA RESULT:    -2.346      1.428      1.757
REMARK INTER + INTRA:          -2.346
REMARK INTER:                  -2.346
REMARK INTRA:                   0.000
REMARK UNBOUND:                 0.000
REMARK SMILES CC(=O)[O-]
REMARK SMILES IDX 1 1 2 2 3 3 4 4
REMARK H PARENT
REMARK Flexibility Score: inf
ROOT
ATOM      1  C   UNL     1     133.095 123.444 133.764  1.00  0.00     0.063 C 
ATOM      2  C   UNL     1     133.262 124.353 134.935  1.00  0.00     0.038 C 
ATOM      3  O   UNL     1     133.856 123.950 135.968  1.00  0.00    -0.550 OA
ATOM      4  O   UNL     1     132.809 125.664 134.867  1.00  0.00    -0.550 OA
ENDROOT
TORSDOF 0
ENDMDL
MODEL 4
REMARK VINA RESULT:    -2.093      2.079      2.374
REMARK INTER + INTRA:          -2.093
REMARK INTER:                  -2.093
REMARK INTRA:                   0.000
REMARK UNBOUND:                 0.000
REMARK SMILES CC(=O)[O-]
REMARK SMILES IDX 1 1 2 2 3 3 4 4
REMARK H PARENT
REMARK Flexibility Score: inf
ROOT
ATOM      1  C   UNL     1     131.342 123.665 134.203  1.00  0.00     0.063 C 
ATOM      2  C   UNL     1     132.578 122.835 134.110  1.00  0.00     0.038 C 
ATOM      3  O   UNL     1     133.702 123.387 133.988  1.00  0.00    -0.550 OA
ATOM      4  O   UNL     1     132.496 121.453 134.212  1.00  0.00    -0.550 OA
ENDROOT
TORSDOF 0
ENDMDL
MODEL 5
REMARK VINA RESULT:    -1.968     14.684     15.221
REMARK INTER + INTRA:          -1.968
REMARK INTER:                  -1.968
REMARK INTRA:                   0.000
REMARK UNBOUND:                 0.000
REMARK SMILES CC(=O)[O-]
REMARK SMILES IDX 1 1 2 2 3 3 4 4
REMARK H PARENT
REMARK Flexibility Score: inf
ROOT
ATOM      1  C   UNL     1     131.670 123.020 120.780  1.00  0.00     0.063 C 
ATOM      2  C   UNL     1     130.512 122.240 120.256  1.00  0.00     0.038 C 
ATOM      3  O   UNL     1     129.387 122.327 120.814  1.00  0.00    -0.550 OA
ATOM      4  O   UNL     1     130.657 121.459 119.117  1.00  0.00    -0.550 OA
ENDROOT
TORSDOF 0
ENDMDL
MODEL 6
REMARK VINA RESULT:    -1.958     18.814     19.421
REMARK INTER + INTRA:          -1.958
REMARK INTER:                  -1.958
REMARK INTRA:                   0.000
REMARK UNBOUND:                 0.000
REMARK SMILES CC(=O)[O-]
REMARK SMILES IDX 1 1 2 2 3 3 4 4
REMARK H PARENT
REMARK Flexibility Score: inf
ROOT
ATOM      1  C   UNL     1     126.864 129.993 118.962  1.00  0.00     0.063 C 
ATOM      2  C   UNL     1     125.700 129.860 118.039  1.00  0.00     0.038 C 
ATOM      3  O   UNL     1     124.617 129.373 118.455  1.00  0.00    -0.550 OA
ATOM      4  O   UNL     1     125.791 130.323 116.733  1.00  0.00    -0.550 OA
ENDROOT
TORSDOF 0
ENDMDL
MODEL 7
REMARK VINA RESULT:    -1.869     14.674     15.077
REMARK INTER + INTRA:          -1.869
REMARK INTER:                  -1.869
REMARK INTRA:                   0.000
REMARK UNBOUND:                 0.000
REMARK SMILES CC(=O)[O-]
REMARK SMILES IDX 1 1 2 2 3 3 4 4
REMARK H PARENT
REMARK Flexibility Score: inf
ROOT
ATOM      1  C   UNL     1     132.473 121.200 120.778  1.00  0.00     0.063 C 
ATOM      2  C   UNL     1     131.444 122.186 120.337  1.00  0.00     0.038 C 
ATOM      3  O   UNL     1     131.599 123.411 120.576  1.00  0.00    -0.550 OA
ATOM      4  O   UNL     1     130.338 121.759 119.612  1.00  0.00    -0.550 OA
ENDROOT
TORSDOF 0
ENDMDL
MODEL 8
REMARK VINA RESULT:    -1.850     14.596     14.881
REMARK INTER + INTRA:          -1.850
REMARK INTER:                  -1.850
REMARK INTRA:                   0.000
REMARK UNBOUND:                 0.000
REMARK SMILES CC(=O)[O-]
REMARK SMILES IDX 1 1 2 2 3 3 4 4
REMARK H PARENT
REMARK Flexibility Score: inf
ROOT
ATOM      1  C   UNL     1     130.740 121.564 119.611  1.00  0.00     0.063 C 
ATOM      2  C   UNL     1     131.870 121.937 120.511  1.00  0.00     0.038 C 
ATOM      3  O   UNL     1     132.595 121.042 121.018  1.00  0.00    -0.550 OA
ATOM      4  O   UNL     1     132.157 123.275 120.749  1.00  0.00    -0.550 OA
ENDROOT
TORSDOF 0
ENDMDL
MODEL 9
REMARK VINA RESULT:    -1.799     19.305     19.791
REMARK INTER + INTRA:          -1.799
REMARK INTER:                  -1.799
REMARK INTRA:                   0.000
REMARK UNBOUND:                 0.000
REMARK SMILES CC(=O)[O-]
REMARK SMILES IDX 1 1 2 2 3 3 4 4
REMARK H PARENT
REMARK Flexibility Score: inf
ROOT
ATOM      1  C   UNL     1     126.712 130.167 118.923  1.00  0.00     0.063 C 
ATOM      2  C   UNL     1     126.532 130.885 117.628  1.00  0.00     0.038 C 
ATOM      3  O   UNL     1     125.701 130.462 116.782  1.00  0.00    -0.550 OA
ATOM      4  O   UNL     1     127.240 132.052 117.374  1.00  0.00    -0.550 OA
ENDROOT
TORSDOF 0
ENDMDL
