MODEL 1
REMARK VINA RESULT:    -4.461      0.000      0.000
REMARK INTER + INTRA:          -5.856
REMARK INTER:                  -5.374
REMARK INTRA:                  -0.483
REMARK UNBOUND:                -0.483
REMARK SMILES NC(=O)C[C@@H]([NH3+])C(=O)[O-]
REMARK SMILES IDX 4 1 5 2 6 3 7 7 8 8 9 9 2 10 3 11 1 12
REMARK H PARENT 6 4 6 5 6 6 1 13 1 14
REMARK Flexibility Score: inf
ROOT
ATOM      1  C   UNL     1     -20.794  68.781  -1.075  1.00  0.00     0.171 C 
ENDROOT
BRANCH   1   2
ATOM      2  C   UNL     1     -19.330  68.390  -1.363  1.00  0.00     0.237 C 
BRANCH   2   3
ATOM      3  N   UNL     1     -18.389  69.341  -0.754  1.00  0.00    -0.350 N 
ATOM      4  H   UNL     1     -17.505  69.396  -1.311  1.00  0.00     0.345 HD
ATOM      5  H   UNL     1     -18.163  69.045   0.222  1.00  0.00     0.345 HD
ATOM      6  H   UNL     1     -18.825  70.291  -0.708  1.00  0.00     0.345 HD
ENDBRANCH   2   3
BRANCH   2   7
ATOM      7  C   UNL     1     -19.064  66.998  -0.854  1.00  0.00     0.100 C 
ATOM      8  O   UNL     1     -18.691  66.812   0.334  1.00  0.00    -0.544 OA
ATOM      9  O   UNL     1     -19.249  65.906  -1.693  1.00  0.00    -0.544 OA
ENDBRANCH   2   7
ENDBRANCH   1   2
BRANCH   1  10
ATOM     10  C   UNL     1     -20.933  69.476   0.248  1.00  0.00     0.223 C 
ATOM     11  O   UNL     1     -20.865  70.733   0.304  1.00  0.00    -0.275 OA
ATOM     12  N   UNL     1     -21.108  68.723   1.449  1.00  0.00    -0.369 N 
ATOM     13  H   UNL     1     -21.193  69.211   2.368  1.00  0.00     0.159 HD
ATOM     14  H   UNL     1     -21.143  67.681   1.423  1.00  0.00     0.159 HD
ENDBRANCH   1  10
TORSDOF 4
ENDMDL
MODEL 2
REMARK VINA RESULT:    -4.428      2.165      3.508
REMARK INTER + INTRA:          -5.817
REMARK INTER:                  -5.533
REMARK INTRA:                  -0.284
REMARK UNBOUND:                -0.483
REMARK SMILES NC(=O)C[C@@H]([NH3+])C(=O)[O-]
REMARK SMILES IDX 4 1 5 2 6 3 7 7 8 8 9 9 2 10 3 11 1 12
REMARK H PARENT 6 4 6 5 6 6 1 13 1 14
REMARK Flexibility Score: inf
ROOT
ATOM      1  C   UNL     1     -19.837  68.960   0.021  1.00  0.00     0.171 C 
ENDROOT
BRANCH   1   2
ATOM      2  C   UNL     1     -20.949  68.492  -0.940  1.00  0.00     0.237 C 
BRANCH   2   3
ATOM      3  N   UNL     1     -20.583  67.242  -1.621  1.00  0.00    -0.350 N 
ATOM      4  H   UNL     1     -20.787  66.415  -1.013  1.00  0.00     0.345 HD
ATOM      5  H   UNL     1     -19.565  67.250  -1.859  1.00  0.00     0.345 HD
ATOM      6  H   UNL     1     -21.121  67.154  -2.514  1.00  0.00     0.345 HD
ENDBRANCH   2   3
BRANCH   2   7
ATOM      7  C   UNL     1     -22.238  68.313  -0.181  1.00  0.00     0.100 C 
ATOM      8  O   UNL     1     -22.369  68.791   0.976  1.00  0.00    -0.544 OA
ATOM      9  O   UNL     1     -23.299  67.632  -0.766  1.00  0.00    -0.544 OA
ENDBRANCH   2   7
ENDBRANCH   1   2
BRANCH   1  10
ATOM     10  C   UNL     1     -18.472  68.767  -0.574  1.00  0.00     0.223 C 
ATOM     11  O   UNL     1     -17.889  67.656  -0.454  1.00  0.00    -0.275 OA
ATOM     12  N   UNL     1     -17.815  69.843  -1.244  1.00  0.00    -0.369 N 
ATOM     13  H   UNL     1     -16.861  69.707  -1.648  1.00  0.00     0.159 HD
ATOM     14  H   UNL     1     -18.274  70.776  -1.331  1.00  0.00     0.159 HD
ENDBRANCH   1  10
TORSDOF 4
ENDMDL
MODEL 3
REMARK VINA RESULT:    -4.346      1.556      3.734
REMARK INTER + INTRA:          -5.719
REMARK INTER:                  -5.223
REMARK INTRA:                  -0.495
REMARK UNBOUND:                -0.483
REMARK SMILES NC(=O)C[C@@H]([NH3+])C(=O)[O-]
REMARK SMILES IDX 4 1 5 2 6 3 7 7 8 8 9 9 2 10 3 11 1 12
REMARK H PARENT 6 4 6 5 6 6 1 13 1 14
REMARK Flexibility Score: inf
ROOT
ATOM      1  C   UNL     1     -19.628  68.820  -0.948  1.00  0.00     0.171 C 
ENDROOT
BRANCH   1   2
ATOM      2  C   UNL     1     -21.104  69.098  -0.598  1.00  0.00     0.237 C 
BRANCH   2   3
ATOM      3  N   UNL     1     -21.923  67.883  -0.709  1.00  0.00    -0.350 N 
ATOM      4  H   UNL     1     -22.218  67.547   0.237  1.00  0.00     0.345 HD
ATOM      5  H   UNL     1     -21.380  67.129  -1.188  1.00  0.00     0.345 HD
ATOM      6  H   UNL     1     -22.774  68.080  -1.284  1.00  0.00     0.345 HD
ENDBRANCH   2   3
BRANCH   2   7
ATOM      7  C   UNL     1     -21.200  69.665   0.794  1.00  0.00     0.100 C 
ATOM      8  O   UNL     1     -21.157  68.905   1.797  1.00  0.00    -0.544 OA
ATOM      9  O   UNL     1     -21.318  71.038   0.978  1.00  0.00    -0.544 OA
ENDBRANCH   2   7
ENDBRANCH   1   2
BRANCH   1  10
ATOM     10  C   UNL     1     -19.250  67.395  -0.666  1.00  0.00     0.223 C 
ATOM     11  O   UNL     1     -19.397  66.520  -1.561  1.00  0.00    -0.275 OA
ATOM     12  N   UNL     1     -18.758  67.016   0.619  1.00  0.00    -0.369 N 
ATOM     13  H   UNL     1     -18.507  66.021   0.814  1.00  0.00     0.159 HD
ATOM     14  H   UNL     1     -18.653  67.723   1.379  1.00  0.00     0.159 HD
ENDBRANCH   1  10
TORSDOF 4
ENDMDL
MODEL 4
REMARK VINA RESULT:    -4.323      2.071      2.313
REMARK INTER + INTRA:          -5.691
REMARK INTER:                  -5.192
REMARK INTRA:                  -0.499
REMARK UNBOUND:                -0.483
REMARK SMILES NC(=O)C[C@@H]([NH3+])C(=O)[O-]
REMARK SMILES IDX 4 1 5 2 6 3 7 7 8 8 9 9 2 10 3 11 1 12
REMARK H PARENT 6 4 6 5 6 6 1 13 1 14
REMARK Flexibility Score: inf
ROOT
ATOM      1  C   UNL     1     -20.504  68.308   1.033  1.00  0.00     0.171 C 
ENDROOT
BRANCH   1   2
ATOM      2  C   UNL     1     -19.773  67.748  -0.205  1.00  0.00     0.237 C 
BRANCH   2   3
ATOM      3  N   UNL     1     -20.586  67.892  -1.421  1.00  0.00    -0.350 N 
ATOM      4  H   UNL     1     -20.124  67.421  -2.233  1.00  0.00     0.345 HD
ATOM      5  H   UNL     1     -20.723  68.904  -1.642  1.00  0.00     0.345 HD
ATOM      6  H   UNL     1     -21.530  67.466  -1.269  1.00  0.00     0.345 HD
ENDBRANCH   2   3
BRANCH   2   7
ATOM      7  C   UNL     1     -18.451  68.448  -0.378  1.00  0.00     0.100 C 
ATOM      8  O   UNL     1     -18.402  69.614  -0.850  1.00  0.00    -0.544 OA
ATOM      9  O   UNL     1     -17.275  67.813   0.004  1.00  0.00    -0.544 OA
ENDBRANCH   2   7
ENDBRANCH   1   2
BRANCH   1  10
ATOM     10  C   UNL     1     -21.504  69.363   0.657  1.00  0.00     0.223 C 
ATOM     11  O   UNL     1     -22.697  69.036   0.416  1.00  0.00    -0.275 OA
ATOM     12  N   UNL     1     -21.107  70.729   0.537  1.00  0.00    -0.369 N 
ATOM     13  H   UNL     1     -21.804  71.457   0.265  1.00  0.00     0.159 HD
ATOM     14  H   UNL     1     -20.118  71.014   0.709  1.00  0.00     0.159 HD
ENDBRANCH   1  10
TORSDOF 4
ENDMDL
MODEL 5
REMARK VINA RESULT:    -4.304      2.048      2.211
REMARK INTER + INTRA:          -5.667
REMARK INTER:                  -5.578
REMARK INTRA:                  -0.090
REMARK UNBOUND:                -0.483
REMARK SMILES NC(=O)C[C@@H]([NH3+])C(=O)[O-]
REMARK SMILES IDX 4 1 5 2 6 3 7 7 8 8 9 9 2 10 3 11 1 12
REMARK H PARENT 6 4 6 5 6 6 1 13 1 14
REMARK Flexibility Score: inf
ROOT
ATOM      1  C   UNL     1     -20.941  68.702  -0.607  1.00  0.00     0.171 C 
ENDROOT
BRANCH   1   2
ATOM      2  C   UNL     1     -19.843  67.622  -0.701  1.00  0.00     0.237 C 
BRANCH   2   3
ATOM      3  N   UNL     1     -19.932  66.871  -1.961  1.00  0.00    -0.350 N 
ATOM      4  H   UNL     1     -20.769  67.171  -2.513  1.00  0.00     0.345 HD
ATOM      5  H   UNL     1     -19.999  65.847  -1.763  1.00  0.00     0.345 HD
ATOM      6  H   UNL     1     -19.070  67.032  -2.532  1.00  0.00     0.345 HD
ENDBRANCH   2   3
BRANCH   2   7
ATOM      7  C   UNL     1     -18.485  68.261  -0.571  1.00  0.00     0.100 C 
ATOM      8  O   UNL     1     -17.515  67.609  -0.103  1.00  0.00    -0.544 OA
ATOM      9  O   UNL     1     -18.293  69.573  -0.987  1.00  0.00    -0.544 OA
ENDBRANCH   2   7
ENDBRANCH   1   2
BRANCH   1  10
ATOM     10  C   UNL     1     -21.795  68.520   0.613  1.00  0.00     0.223 C 
ATOM     11  O   UNL     1     -21.318  68.766   1.753  1.00  0.00    -0.275 OA
ATOM     12  N   UNL     1     -23.134  68.038   0.496  1.00  0.00    -0.369 N 
ATOM     13  H   UNL     1     -23.722  67.903   1.349  1.00  0.00     0.159 HD
ATOM     14  H   UNL     1     -23.537  67.807  -0.438  1.00  0.00     0.159 HD
ENDBRANCH   1  10
TORSDOF 4
ENDMDL
MODEL 6
REMARK VINA RESULT:    -4.280      1.200      3.796
REMARK INTER + INTRA:          -5.638
REMARK INTER:                  -5.162
REMARK INTRA:                  -0.477
REMARK UNBOUND:                -0.483
REMARK SMILES NC(=O)C[C@@H]([NH3+])C(=O)[O-]
REMARK SMILES IDX 4 1 5 2 6 3 7 7 8 8 9 9 2 10 3 11 1 12
REMARK H PARENT 6 4 6 5 6 6 1 13 1 14
REMARK Flexibility Score: inf
ROOT
ATOM      1  C   UNL     1     -20.183  68.614  -1.314  1.00  0.00     0.171 C 
ENDROOT
BRANCH   1   2
ATOM      2  C   UNL     1     -20.891  68.578   0.056  1.00  0.00     0.237 C 
BRANCH   2   3
ATOM      3  N   UNL     1     -20.071  67.898   1.069  1.00  0.00    -0.350 N 
ATOM      4  H   UNL     1     -19.206  67.497   0.637  1.00  0.00     0.345 HD
ATOM      5  H   UNL     1     -20.620  67.130   1.517  1.00  0.00     0.345 HD
ATOM      6  H   UNL     1     -19.798  68.576   1.817  1.00  0.00     0.345 HD
ENDBRANCH   2   3
BRANCH   2   7
ATOM      7  C   UNL     1     -21.212  69.980   0.502  1.00  0.00     0.100 C 
ATOM      8  O   UNL     1     -22.064  70.183   1.407  1.00  0.00    -0.544 OA
ATOM      9  O   UNL     1     -20.551  71.059  -0.073  1.00  0.00    -0.544 OA
ENDBRANCH   2   7
ENDBRANCH   1   2
BRANCH   1  10
ATOM     10  C   UNL     1     -18.692  68.514  -1.171  1.00  0.00     0.223 C 
ATOM     11  O   UNL     1     -18.151  67.383  -1.044  1.00  0.00    -0.275 OA
ATOM     12  N   UNL     1     -17.886  69.692  -1.143  1.00  0.00    -0.369 N 
ATOM     13  H   UNL     1     -16.850  69.618  -1.033  1.00  0.00     0.159 HD
ATOM     14  H   UNL     1     -18.320  70.637  -1.223  1.00  0.00     0.159 HD
ENDBRANCH   1  10
TORSDOF 4
ENDMDL
MODEL 7
REMARK VINA RESULT:    -4.207      1.963      3.610
REMARK INTER + INTRA:          -5.550
REMARK INTER:                  -5.467
REMARK INTRA:                  -0.083
REMARK UNBOUND:                -0.483
REMARK SMILES NC(=O)C[C@@H]([NH3+])C(=O)[O-]
REMARK SMILES IDX 4 1 5 2 6 3 7 7 8 8 9 9 2 10 3 11 1 12
REMARK H PARENT 6 4 6 5 6 6 1 13 1 14
REMARK Flexibility Score: inf
ROOT
ATOM      1  C   UNL     1     -19.900  68.752  -1.098  1.00  0.00     0.171 C 
ENDROOT
BRANCH   1   2
ATOM      2  C   UNL     1     -20.680  69.155   0.171  1.00  0.00     0.237 C 
BRANCH   2   3
ATOM      3  N   UNL     1     -20.897  70.607   0.231  1.00  0.00    -0.350 N 
ATOM      4  H   UNL     1     -20.464  71.081  -0.594  1.00  0.00     0.345 HD
ATOM      5  H   UNL     1     -20.481  70.994   1.108  1.00  0.00     0.345 HD
ATOM      6  H   UNL     1     -21.923  70.812   0.246  1.00  0.00     0.345 HD
ENDBRANCH   2   3
BRANCH   2   7
ATOM      7  C   UNL     1     -22.000  68.429   0.210  1.00  0.00     0.100 C 
ATOM      8  O   UNL     1     -22.422  67.817  -0.806  1.00  0.00    -0.544 OA
ATOM      9  O   UNL     1     -22.750  68.417   1.379  1.00  0.00    -0.544 OA
ENDBRANCH   2   7
ENDBRANCH   1   2
BRANCH   1  10
ATOM     10  C   UNL     1     -18.417  68.777  -0.868  1.00  0.00     0.223 C 
ATOM     11  O   UNL     1     -17.851  67.789  -0.329  1.00  0.00    -0.275 OA
ATOM     12  N   UNL     1     -17.647  69.926  -1.224  1.00  0.00    -0.369 N 
ATOM     13  H   UNL     1     -16.617  69.943  -1.053  1.00  0.00     0.159 HD
ATOM     14  H   UNL     1     -18.103  70.762  -1.649  1.00  0.00     0.159 HD
ENDBRANCH   1  10
TORSDOF 4
ENDMDL
MODEL 8
REMARK VINA RESULT:    -4.137      2.069      2.651
REMARK INTER + INTRA:          -5.466
REMARK INTER:                  -5.350
REMARK INTRA:                  -0.116
REMARK UNBOUND:                -0.483
REMARK SMILES NC(=O)C[C@@H]([NH3+])C(=O)[O-]
REMARK SMILES IDX 4 1 5 2 6 3 7 7 8 8 9 9 2 10 3 11 1 12
REMARK H PARENT 6 4 6 5 6 6 1 13 1 14
REMARK Flexibility Score: inf
ROOT
ATOM      1  C   UNL     1     -21.451  69.477   1.321  1.00  0.00     0.171 C 
ENDROOT
BRANCH   1   2
ATOM      2  C   UNL     1     -20.600  68.667   0.320  1.00  0.00     0.237 C 
BRANCH   2   3
ATOM      3  N   UNL     1     -19.730  67.704   1.008  1.00  0.00    -0.350 N 
ATOM      4  H   UNL     1     -20.104  67.480   1.959  1.00  0.00     0.345 HD
ATOM      5  H   UNL     1     -18.766  68.096   1.101  1.00  0.00     0.345 HD
ATOM      6  H   UNL     1     -19.665  66.822   0.449  1.00  0.00     0.345 HD
ENDBRANCH   2   3
BRANCH   2   7
ATOM      7  C   UNL     1     -21.500  67.953  -0.654  1.00  0.00     0.100 C 
ATOM      8  O   UNL     1     -22.752  68.016  -0.531  1.00  0.00    -0.544 OA
ATOM      9  O   UNL     1     -20.950  67.234  -1.708  1.00  0.00    -0.544 OA
ENDBRANCH   2   7
ENDBRANCH   1   2
BRANCH   1  10
ATOM     10  C   UNL     1     -21.279  70.955   1.126  1.00  0.00     0.223 C 
ATOM     11  O   UNL     1     -20.816  71.393   0.039  1.00  0.00    -0.275 OA
ATOM     12  N   UNL     1     -21.603  71.867   2.176  1.00  0.00    -0.369 N 
ATOM     13  H   UNL     1     -21.471  72.894   2.040  1.00  0.00     0.159 HD
ATOM     14  H   UNL     1     -21.964  71.520   3.091  1.00  0.00     0.159 HD
ENDBRANCH   1  10
TORSDOF 4
ENDMDL
MODEL 9
REMARK VINA RESULT:    -4.106      1.919      2.294
REMARK INTER + INTRA:          -5.429
REMARK INTER:                  -5.042
REMARK INTRA:                  -0.387
REMARK UNBOUND:                -0.483
REMARK SMILES NC(=O)C[C@@H]([NH3+])C(=O)[O-]
REMARK SMILES IDX 4 1 5 2 6 3 7 7 8 8 9 9 2 10 3 11 1 12
REMARK H PARENT 6 4 6 5 6 6 1 13 1 14
REMARK Flexibility Score: inf
ROOT
ATOM      1  C   UNL     1     -21.258  69.328  -0.259  1.00  0.00     0.171 C 
ENDROOT
BRANCH   1   2
ATOM      2  C   UNL     1     -19.943  68.594   0.076  1.00  0.00     0.237 C 
BRANCH   2   3
ATOM      3  N   UNL     1     -20.062  67.816   1.318  1.00  0.00    -0.350 N 
ATOM      4  H   UNL     1     -21.009  67.943   1.745  1.00  0.00     0.345 HD
ATOM      5  H   UNL     1     -19.332  68.119   2.001  1.00  0.00     0.345 HD
ATOM      6  H   UNL     1     -19.910  66.801   1.116  1.00  0.00     0.345 HD
ENDBRANCH   2   3
BRANCH   2   7
ATOM      7  C   UNL     1     -19.556  67.693  -1.067  1.00  0.00     0.100 C 
ATOM      8  O   UNL     1     -20.428  67.272  -1.872  1.00  0.00    -0.544 OA
ATOM      9  O   UNL     1     -18.225  67.337  -1.250  1.00  0.00    -0.544 OA
ENDBRANCH   2   7
ENDBRANCH   1   2
BRANCH   1  10
ATOM     10  C   UNL     1     -22.455  68.591   0.267  1.00  0.00     0.223 C 
ATOM     11  O   UNL     1     -22.728  68.639   1.496  1.00  0.00    -0.275 OA
ATOM     12  N   UNL     1     -23.267  67.808  -0.608  1.00  0.00    -0.369 N 
ATOM     13  H   UNL     1     -24.093  67.288  -0.235  1.00  0.00     0.159 HD
ATOM     14  H   UNL     1     -23.041  67.737  -1.624  1.00  0.00     0.159 HD
ENDBRANCH   1  10
TORSDOF 4
ENDMDL
