MODEL 1
REMARK VINA RESULT:    -4.769      0.000      0.000
REMARK INTER + INTRA:         -17.616
REMARK INTER:                 -12.018
REMARK INTRA:                  -5.599
REMARK UNBOUND:                -5.599
REMARK SMILES CCCCCCCCCCCCCCCCCCCCCCCCCCCC(=O)[O-]
REMARK SMILES IDX 15 1 16 2 17 3 18 4 19 5 20 6 21 7 22 8 23 9 24 10 25 11
REMARK SMILES IDX 26 12 27 13 28 14 29 15 30 16 14 17 13 18 12 19 11 20 10 21
REMARK SMILES IDX 9 22 8 23 7 24 6 25 5 26 4 27 3 28 2 29 1 30
REMARK H PARENT
REMARK Flexibility Score: inf
ROOT
ATOM      1  C   UNL     1     -16.130  -6.626  17.892  1.00  0.00     0.000 C 
ENDROOT
BRANCH   1   2
ATOM      2  C   UNL     1     -15.109  -6.874  19.021  1.00  0.00     0.000 C 
BRANCH   2   3
ATOM      3  C   UNL     1     -15.209  -5.878  20.190  1.00  0.00     0.000 C 
BRANCH   3   4
ATOM      4  C   UNL     1     -14.986  -6.534  21.563  1.00  0.00     0.000 C 
BRANCH   4   5
ATOM      5  C   UNL     1     -16.012  -6.080  22.613  1.00  0.00     0.000 C 
BRANCH   5   6
ATOM      6  C   UNL     1     -16.637  -4.717  22.280  1.00  0.00     0.000 C 
BRANCH   6   7
ATOM      7  C   UNL     1     -18.168  -4.808  22.264  1.00  0.00     0.000 C 
BRANCH   7   8
ATOM      8  C   UNL     1     -18.797  -3.451  21.911  1.00  0.00     0.000 C 
BRANCH   8   9
ATOM      9  C   UNL     1     -19.606  -3.506  20.598  1.00  0.00     0.000 C 
BRANCH   9  10
ATOM     10  C   UNL     1     -19.230  -4.693  19.692  1.00  0.00     0.000 C 
BRANCH  10  11
ATOM     11  C   UNL     1     -18.466  -4.261  18.430  1.00  0.00     0.000 C 
BRANCH  11  12
ATOM     12  C   UNL     1     -19.271  -4.501  17.142  1.00  0.00     0.006 C 
BRANCH  12  13
ATOM     13  C   UNL     1     -19.699  -3.190  16.469  1.00  0.00     0.053 C 
BRANCH  13  14
ATOM     14  C   UNL     1     -21.073  -3.313  15.887  1.00  0.00     0.041 C 
ATOM     15  O   UNL     1     -21.695  -4.408  15.954  1.00  0.00    -0.550 OA
ATOM     16  O   UNL     1     -21.669  -2.221  15.267  1.00  0.00    -0.550 OA
ENDBRANCH  13  14
ENDBRANCH  12  13
ENDBRANCH  11  12
ENDBRANCH  10  11
ENDBRANCH   9  10
ENDBRANCH   8   9
ENDBRANCH   7   8
ENDBRANCH   6   7
ENDBRANCH   5   6
ENDBRANCH   4   5
ENDBRANCH   3   4
ENDBRANCH   2   3
ENDBRANCH   1   2
BRANCH   1  17
ATOM     17  C   UNL     1     -15.476  -6.611  16.501  1.00  0.00     0.000 C 
BRANCH  17  18
ATOM     18  C   UNL     1     -13.969  -6.295  16.554  1.00  0.00     0.000 C 
BRANCH  18  19
ATOM     19  C   UNL     1     -13.621  -4.796  16.475  1.00  0.00     0.000 C 
BRANCH  19  20
ATOM     20  C   UNL     1     -14.811  -3.929  16.035  1.00  0.00     0.000 C 
BRANCH  20  21
ATOM     21  C   UNL     1     -15.234  -2.957  17.148  1.00  0.00     0.000 C 
BRANCH  21  22
ATOM     22  C   UNL     1     -14.035  -2.413  17.944  1.00  0.00    -0.000 C 
BRANCH  22  23
ATOM     23  C   UNL     1     -14.369  -2.169  19.426  1.00  0.00    -0.000 C 
BRANCH  23  24
ATOM     24  C   UNL     1     -15.880  -2.220  19.706  1.00  0.00    -0.000 C 
BRANCH  24  25
ATOM     25  C   UNL     1     -16.360  -1.049  20.583  1.00  0.00    -0.000 C 
BRANCH  25  26
ATOM     26  C   UNL     1     -17.159  -0.001  19.788  1.00  0.00    -0.000 C 
BRANCH  26  27
ATOM     27  C   UNL     1     -17.918  -0.550  18.563  1.00  0.00    -0.000 C 
BRANCH  27  28
ATOM     28  C   UNL     1     -17.446   0.007  17.207  1.00  0.00    -0.000 C 
BRANCH  28  29
ATOM     29  C   UNL     1     -16.085   0.734  17.279  1.00  0.00    -0.003 C 
ATOM     30  C   UNL     1     -15.238   0.516  16.027  1.00  0.00     0.004 C 
ENDBRANCH  28  29
ENDBRANCH  27  28
ENDBRANCH  26  27
ENDBRANCH  25  26
ENDBRANCH  24  25
ENDBRANCH  23  24
ENDBRANCH  22  23
ENDBRANCH  21  22
ENDBRANCH  20  21
ENDBRANCH  19  20
ENDBRANCH  18  19
ENDBRANCH  17  18
ENDBRANCH   1  17
TORSDOF 26
ENDMDL
MODEL 2
REMARK VINA RESULT:    -4.763     10.464     13.074
REMARK INTER + INTRA:         -17.601
REMARK INTER:                 -13.514
REMARK INTRA:                  -4.087
REMARK UNBOUND:                -5.599
REMARK SMILES CCCCCCCCCCCCCCCCCCCCCCCCCCCC(=O)[O-]
REMARK SMILES IDX 15 1 16 2 17 3 18 4 19 5 20 6 21 7 22 8 23 9 24 10 25 11
REMARK SMILES IDX 26 12 27 13 28 14 29 15 30 16 14 17 13 18 12 19 11 20 10 21
REMARK SMILES IDX 9 22 8 23 7 24 6 25 5 26 4 27 3 28 2 29 1 30
REMARK H PARENT
REMARK Flexibility Score: inf
ROOT
ATOM      1  C   UNL     1     -15.833   2.988  31.442  1.00  0.00     0.000 C 
ENDROOT
BRANCH   1   2
ATOM      2  C   UNL     1     -17.347   2.963  31.145  1.00  0.00     0.000 C 
BRANCH   2   3
ATOM      3  C   UNL     1     -18.234   2.936  32.403  1.00  0.00     0.000 C 
BRANCH   3   4
ATOM      4  C   UNL     1     -18.814   1.544  32.702  1.00  0.00     0.000 C 
BRANCH   4   5
ATOM      5  C   UNL     1     -19.279   0.808  31.435  1.00  0.00     0.000 C 
BRANCH   5   6
ATOM      6  C   UNL     1     -18.524  -0.508  31.203  1.00  0.00     0.000 C 
BRANCH   6   7
ATOM      7  C   UNL     1     -18.467  -0.849  29.709  1.00  0.00     0.000 C 
BRANCH   7   8
ATOM      8  C   UNL     1     -18.798   0.382  28.850  1.00  0.00     0.000 C 
BRANCH   8   9
ATOM      9  C   UNL     1     -17.617   0.801  27.949  1.00  0.00     0.000 C 
BRANCH   9  10
ATOM     10  C   UNL     1     -17.173  -0.297  26.965  1.00  0.00     0.000 C 
BRANCH  10  11
ATOM     11  C   UNL     1     -15.822   0.008  26.299  1.00  0.00     0.000 C 
BRANCH  11  12
ATOM     12  C   UNL     1     -15.898   1.200  25.331  1.00  0.00     0.006 C 
BRANCH  12  13
ATOM     13  C   UNL     1     -15.397   0.842  23.925  1.00  0.00     0.053 C 
BRANCH  13  14
ATOM     14  C   UNL     1     -15.125   2.079  23.125  1.00  0.00     0.041 C 
ATOM     15  O   UNL     1     -15.624   3.182  23.473  1.00  0.00    -0.550 OA
ATOM     16  O   UNL     1     -14.322   2.014  21.992  1.00  0.00    -0.550 OA
ENDBRANCH  13  14
ENDBRANCH  12  13
ENDBRANCH  11  12
ENDBRANCH  10  11
ENDBRANCH   9  10
ENDBRANCH   8   9
ENDBRANCH   7   8
ENDBRANCH   6   7
ENDBRANCH   5   6
ENDBRANCH   4   5
ENDBRANCH   3   4
ENDBRANCH   2   3
ENDBRANCH   1   2
BRANCH   1  17
ATOM     17  C   UNL     1     -15.279   1.596  31.784  1.00  0.00     0.000 C 
BRANCH  17  18
ATOM     18  C   UNL     1     -15.072   0.714  30.540  1.00  0.00     0.000 C 
BRANCH  18  19
ATOM     19  C   UNL     1     -13.635   0.190  30.352  1.00  0.00     0.000 C 
BRANCH  19  20
ATOM     20  C   UNL     1     -12.961   0.736  29.084  1.00  0.00     0.000 C 
BRANCH  20  21
ATOM     21  C   UNL     1     -13.825   1.815  28.413  1.00  0.00     0.000 C 
BRANCH  21  22
ATOM     22  C   UNL     1     -13.197   3.216  28.505  1.00  0.00    -0.000 C 
BRANCH  22  23
ATOM     23  C   UNL     1     -14.241   4.341  28.396  1.00  0.00    -0.000 C 
BRANCH  23  24
ATOM     24  C   UNL     1     -13.602   5.712  28.117  1.00  0.00    -0.000 C 
BRANCH  24  25
ATOM     25  C   UNL     1     -14.301   6.856  28.874  1.00  0.00    -0.000 C 
BRANCH  25  26
ATOM     26  C   UNL     1     -15.268   6.346  29.957  1.00  0.00    -0.000 C 
BRANCH  26  27
ATOM     27  C   UNL     1     -14.910   6.758  31.399  1.00  0.00    -0.000 C 
BRANCH  27  28
ATOM     28  C   UNL     1     -14.072   8.046  31.514  1.00  0.00    -0.000 C 
BRANCH  28  29
ATOM     29  C   UNL     1     -14.556   8.999  32.628  1.00  0.00    -0.003 C 
ATOM     30  C   UNL     1     -16.076   9.153  32.647  1.00  0.00     0.004 C 
ENDBRANCH  28  29
ENDBRANCH  27  28
ENDBRANCH  26  27
ENDBRANCH  25  26
ENDBRANCH  24  25
ENDBRANCH  23  24
ENDBRANCH  22  23
ENDBRANCH  21  22
ENDBRANCH  20  21
ENDBRANCH  19  20
ENDBRANCH  18  19
ENDBRANCH  17  18
ENDBRANCH   1  17
TORSDOF 26
ENDMDL
MODEL 3
REMARK VINA RESULT:    -4.626      3.211      7.195
REMARK INTER + INTRA:         -17.257
REMARK INTER:                 -11.785
REMARK INTRA:                  -5.472
REMARK UNBOUND:                -5.599
REMARK SMILES CCCCCCCCCCCCCCCCCCCCCCCCCCCC(=O)[O-]
REMARK SMILES IDX 15 1 16 2 17 3 18 4 19 5 20 6 21 7 22 8 23 9 24 10 25 11
REMARK SMILES IDX 26 12 27 13 28 14 29 15 30 16 14 17 13 18 12 19 11 20 10 21
REMARK SMILES IDX 9 22 8 23 7 24 6 25 5 26 4 27 3 28 2 29 1 30
REMARK H PARENT
REMARK Flexibility Score: inf
ROOT
ATOM      1  C   UNL     1     -18.627   0.613  18.161  1.00  0.00     0.000 C 
ENDROOT
BRANCH   1   2
ATOM      2  C   UNL     1     -17.767   1.645  17.402  1.00  0.00     0.000 C 
BRANCH   2   3
ATOM      3  C   UNL     1     -16.939   1.049  16.250  1.00  0.00     0.000 C 
BRANCH   3   4
ATOM      4  C   UNL     1     -15.423   1.102  16.505  1.00  0.00     0.000 C 
BRANCH   4   5
ATOM      5  C   UNL     1     -14.760  -0.282  16.440  1.00  0.00     0.000 C 
BRANCH   5   6
ATOM      6  C   UNL     1     -15.569  -1.362  17.173  1.00  0.00     0.000 C 
BRANCH   6   7
ATOM      7  C   UNL     1     -14.673  -2.542  17.568  1.00  0.00     0.000 C 
BRANCH   7   8
ATOM      8  C   UNL     1     -14.649  -2.730  19.093  1.00  0.00     0.000 C 
BRANCH   8   9
ATOM      9  C   UNL     1     -16.006  -2.391  19.746  1.00  0.00     0.000 C 
BRANCH   9  10
ATOM     10  C   UNL     1     -15.882  -1.522  21.011  1.00  0.00     0.000 C 
BRANCH  10  11
ATOM     11  C   UNL     1     -14.763  -0.474  20.907  1.00  0.00     0.000 C 
BRANCH  11  12
ATOM     12  C   UNL     1     -15.236   0.829  20.243  1.00  0.00     0.006 C 
BRANCH  12  13
ATOM     13  C   UNL     1     -16.186   1.631  21.142  1.00  0.00     0.053 C 
BRANCH  13  14
ATOM     14  C   UNL     1     -15.456   2.187  22.326  1.00  0.00     0.041 C 
ATOM     15  O   UNL     1     -14.767   3.236  22.212  1.00  0.00    -0.550 OA
ATOM     16  O   UNL     1     -15.534   1.546  23.557  1.00  0.00    -0.550 OA
ENDBRANCH  13  14
ENDBRANCH  12  13
ENDBRANCH  11  12
ENDBRANCH  10  11
ENDBRANCH   9  10
ENDBRANCH   8   9
ENDBRANCH   7   8
ENDBRANCH   6   7
ENDBRANCH   5   6
ENDBRANCH   4   5
ENDBRANCH   3   4
ENDBRANCH   2   3
ENDBRANCH   1   2
BRANCH   1  17
ATOM     17  C   UNL     1     -19.153  -0.502  17.241  1.00  0.00     0.000 C 
BRANCH  17  18
ATOM     18  C   UNL     1     -19.152  -1.884  17.920  1.00  0.00     0.000 C 
BRANCH  18  19
ATOM     19  C   UNL     1     -19.082  -3.079  16.949  1.00  0.00     0.000 C 
BRANCH  19  20
ATOM     20  C   UNL     1     -18.307  -4.273  17.528  1.00  0.00     0.000 C 
BRANCH  20  21
ATOM     21  C   UNL     1     -17.339  -4.865  16.491  1.00  0.00     0.000 C 
BRANCH  21  22
ATOM     22  C   UNL     1     -16.367  -5.885  17.107  1.00  0.00    -0.000 C 
BRANCH  22  23
ATOM     23  C   UNL     1     -16.465  -5.947  18.641  1.00  0.00    -0.000 C 
BRANCH  23  24
ATOM     24  C   UNL     1     -15.196  -6.522  19.291  1.00  0.00    -0.000 C 
BRANCH  24  25
ATOM     25  C   UNL     1     -15.083  -6.168  20.785  1.00  0.00    -0.000 C 
BRANCH  25  26
ATOM     26  C   UNL     1     -16.455  -5.944  21.446  1.00  0.00    -0.000 C 
BRANCH  26  27
ATOM     27  C   UNL     1     -16.514  -4.772  22.446  1.00  0.00    -0.000 C 
BRANCH  27  28
ATOM     28  C   UNL     1     -17.916  -4.171  22.655  1.00  0.00    -0.000 C 
BRANCH  28  29
ATOM     29  C   UNL     1     -19.035  -4.949  21.929  1.00  0.00    -0.003 C 
ATOM     30  C   UNL     1     -19.954  -5.692  22.896  1.00  0.00     0.004 C 
ENDBRANCH  28  29
ENDBRANCH  27  28
ENDBRANCH  26  27
ENDBRANCH  25  26
ENDBRANCH  24  25
ENDBRANCH  23  24
ENDBRANCH  22  23
ENDBRANCH  21  22
ENDBRANCH  20  21
ENDBRANCH  19  20
ENDBRANCH  18  19
ENDBRANCH  17  18
ENDBRANCH   1  17
TORSDOF 26
ENDMDL
MODEL 4
REMARK VINA RESULT:    -4.538     12.112     14.827
REMARK INTER + INTRA:         -17.033
REMARK INTER:                 -12.739
REMARK INTRA:                  -4.294
REMARK UNBOUND:                -5.599
REMARK SMILES CCCCCCCCCCCCCCCCCCCCCCCCCCCC(=O)[O-]
REMARK SMILES IDX 15 1 16 2 17 3 18 4 19 5 20 6 21 7 22 8 23 9 24 10 25 11
REMARK SMILES IDX 26 12 27 13 28 14 29 15 30 16 14 17 13 18 12 19 11 20 10 21
REMARK SMILES IDX 9 22 8 23 7 24 6 25 5 26 4 27 3 28 2 29 1 30
REMARK H PARENT
REMARK Flexibility Score: inf
ROOT
ATOM      1  C   UNL     1     -13.945   4.169  28.647  1.00  0.00     0.000 C 
ENDROOT
BRANCH   1   2
ATOM      2  C   UNL     1     -15.002   4.286  29.765  1.00  0.00     0.000 C 
BRANCH   2   3
ATOM      3  C   UNL     1     -15.366   2.946  30.430  1.00  0.00     0.000 C 
BRANCH   3   4
ATOM      4  C   UNL     1     -16.393   3.094  31.564  1.00  0.00     0.000 C 
BRANCH   4   5
ATOM      5  C   UNL     1     -17.617   3.928  31.153  1.00  0.00     0.000 C 
BRANCH   5   6
ATOM      6  C   UNL     1     -18.887   3.534  31.920  1.00  0.00     0.000 C 
BRANCH   6   7
ATOM      7  C   UNL     1     -18.709   2.175  32.609  1.00  0.00     0.000 C 
BRANCH   7   8
ATOM      8  C   UNL     1     -19.386   1.055  31.803  1.00  0.00     0.000 C 
BRANCH   8   9
ATOM      9  C   UNL     1     -18.418  -0.105  31.487  1.00  0.00     0.000 C 
BRANCH   9  10
ATOM     10  C   UNL     1     -18.090  -0.243  29.989  1.00  0.00     0.000 C 
BRANCH  10  11
ATOM     11  C   UNL     1     -16.586  -0.407  29.720  1.00  0.00     0.000 C 
BRANCH  11  12
ATOM     12  C   UNL     1     -16.272  -0.631  28.232  1.00  0.00     0.006 C 
BRANCH  12  13
ATOM     13  C   UNL     1     -15.196   0.331  27.711  1.00  0.00     0.053 C 
BRANCH  13  14
ATOM     14  C   UNL     1     -15.801   1.379  26.829  1.00  0.00     0.041 C 
ATOM     15  O   UNL     1     -16.634   2.200  27.298  1.00  0.00    -0.550 OA
ATOM     16  O   UNL     1     -15.447   1.450  25.487  1.00  0.00    -0.550 OA
ENDBRANCH  13  14
ENDBRANCH  12  13
ENDBRANCH  11  12
ENDBRANCH  10  11
ENDBRANCH   9  10
ENDBRANCH   8   9
ENDBRANCH   7   8
ENDBRANCH   6   7
ENDBRANCH   5   6
ENDBRANCH   4   5
ENDBRANCH   3   4
ENDBRANCH   2   3
ENDBRANCH   1   2
BRANCH   1  17
ATOM     17  C   UNL     1     -13.639   5.522  27.985  1.00  0.00     0.000 C 
BRANCH  17  18
ATOM     18  C   UNL     1     -14.355   6.698  28.673  1.00  0.00     0.000 C 
BRANCH  18  19
ATOM     19  C   UNL     1     -13.431   7.855  29.102  1.00  0.00     0.000 C 
BRANCH  19  20
ATOM     20  C   UNL     1     -13.091   8.807  27.945  1.00  0.00     0.000 C 
BRANCH  20  21
ATOM     21  C   UNL     1     -13.847  10.139  28.079  1.00  0.00     0.000 C 
BRANCH  21  22
ATOM     22  C   UNL     1     -14.349  10.392  29.510  1.00  0.00    -0.000 C 
BRANCH  22  23
ATOM     23  C   UNL     1     -15.835  10.789  29.557  1.00  0.00    -0.000 C 
BRANCH  23  24
ATOM     24  C   UNL     1     -16.703   9.932  28.621  1.00  0.00    -0.000 C 
BRANCH  24  25
ATOM     25  C   UNL     1     -17.872   9.251  29.355  1.00  0.00    -0.000 C 
BRANCH  25  26
ATOM     26  C   UNL     1     -17.581   9.022  30.849  1.00  0.00    -0.000 C 
BRANCH  26  27
ATOM     27  C   UNL     1     -16.973   7.648  31.192  1.00  0.00    -0.000 C 
BRANCH  27  28
ATOM     28  C   UNL     1     -15.607   7.705  31.902  1.00  0.00    -0.000 C 
BRANCH  28  29
ATOM     29  C   UNL     1     -15.441   8.932  32.823  1.00  0.00    -0.003 C 
ATOM     30  C   UNL     1     -13.976   9.280  33.078  1.00  0.00     0.004 C 
ENDBRANCH  28  29
ENDBRANCH  27  28
ENDBRANCH  26  27
ENDBRANCH  25  26
ENDBRANCH  24  25
ENDBRANCH  23  24
ENDBRANCH  22  23
ENDBRANCH  21  22
ENDBRANCH  20  21
ENDBRANCH  19  20
ENDBRANCH  18  19
ENDBRANCH  17  18
ENDBRANCH   1  17
TORSDOF 26
ENDMDL
MODEL 5
REMARK VINA RESULT:    -4.528     11.950     15.070
REMARK INTER + INTRA:         -17.008
REMARK INTER:                 -12.748
REMARK INTRA:                  -4.260
REMARK UNBOUND:                -5.599
REMARK SMILES CCCCCCCCCCCCCCCCCCCCCCCCCCCC(=O)[O-]
REMARK SMILES IDX 15 1 16 2 17 3 18 4 19 5 20 6 21 7 22 8 23 9 24 10 25 11
REMARK SMILES IDX 26 12 27 13 28 14 29 15 30 16 14 17 13 18 12 19 11 20 10 21
REMARK SMILES IDX 9 22 8 23 7 24 6 25 5 26 4 27 3 28 2 29 1 30
REMARK H PARENT
REMARK Flexibility Score: inf
ROOT
ATOM      1  C   UNL     1     -14.771   0.957  26.715  1.00  0.00     0.000 C 
ENDROOT
BRANCH   1   2
ATOM      2  C   UNL     1     -15.539   2.216  26.263  1.00  0.00     0.000 C 
BRANCH   2   3
ATOM      3  C   UNL     1     -15.542   3.357  27.297  1.00  0.00     0.000 C 
BRANCH   3   4
ATOM      4  C   UNL     1     -14.248   3.424  28.125  1.00  0.00     0.000 C 
BRANCH   4   5
ATOM      5  C   UNL     1     -13.645   4.836  28.172  1.00  0.00     0.000 C 
BRANCH   5   6
ATOM      6  C   UNL     1     -14.328   5.738  29.210  1.00  0.00     0.000 C 
BRANCH   6   7
ATOM      7  C   UNL     1     -15.542   6.449  28.600  1.00  0.00     0.000 C 
BRANCH   7   8
ATOM      8  C   UNL     1     -16.743   6.409  29.558  1.00  0.00     0.000 C 
BRANCH   8   9
ATOM      9  C   UNL     1     -16.344   6.747  31.010  1.00  0.00     0.000 C 
BRANCH   9  10
ATOM     10  C   UNL     1     -16.754   8.166  31.447  1.00  0.00     0.000 C 
BRANCH  10  11
ATOM     11  C   UNL     1     -15.769   8.790  32.448  1.00  0.00     0.000 C 
BRANCH  11  12
ATOM     12  C   UNL     1     -14.602   9.512  31.755  1.00  0.00     0.006 C 
BRANCH  12  13
ATOM     13  C   UNL     1     -15.027  10.853  31.141  1.00  0.00     0.053 C 
BRANCH  13  14
ATOM     14  C   UNL     1     -14.774  10.866  29.665  1.00  0.00     0.041 C 
ATOM     15  O   UNL     1     -14.319  11.901  29.108  1.00  0.00    -0.550 OA
ATOM     16  O   UNL     1     -15.043   9.736  28.901  1.00  0.00    -0.550 OA
ENDBRANCH  13  14
ENDBRANCH  12  13
ENDBRANCH  11  12
ENDBRANCH  10  11
ENDBRANCH   9  10
ENDBRANCH   8   9
ENDBRANCH   7   8
ENDBRANCH   6   7
ENDBRANCH   5   6
ENDBRANCH   4   5
ENDBRANCH   3   4
ENDBRANCH   2   3
ENDBRANCH   1   2
BRANCH   1  17
ATOM     17  C   UNL     1     -15.700  -0.119  27.298  1.00  0.00     0.000 C 
BRANCH  17  18
ATOM     18  C   UNL     1     -15.114  -0.797  28.551  1.00  0.00     0.000 C 
BRANCH  18  19
ATOM     19  C   UNL     1     -13.730  -0.273  28.980  1.00  0.00     0.000 C 
BRANCH  19  20
ATOM     20  C   UNL     1     -13.730   0.319  30.398  1.00  0.00     0.000 C 
BRANCH  20  21
ATOM     21  C   UNL     1     -15.160   0.586  30.892  1.00  0.00     0.000 C 
BRANCH  21  22
ATOM     22  C   UNL     1     -15.511   2.083  30.904  1.00  0.00    -0.000 C 
BRANCH  22  23
ATOM     23  C   UNL     1     -16.522   2.447  32.005  1.00  0.00    -0.000 C 
BRANCH  23  24
ATOM     24  C   UNL     1     -17.620   3.401  31.506  1.00  0.00    -0.000 C 
BRANCH  24  25
ATOM     25  C   UNL     1     -18.937   3.248  32.288  1.00  0.00    -0.000 C 
BRANCH  25  26
ATOM     26  C   UNL     1     -19.183   1.803  32.758  1.00  0.00    -0.000 C 
BRANCH  26  27
ATOM     27  C   UNL     1     -19.761   0.858  31.686  1.00  0.00    -0.000 C 
BRANCH  27  28
ATOM     28  C   UNL     1     -18.792  -0.238  31.202  1.00  0.00    -0.000 C 
BRANCH  28  29
ATOM     29  C   UNL     1     -18.753  -0.391  29.666  1.00  0.00    -0.003 C 
ATOM     30  C   UNL     1     -18.550   0.942  28.950  1.00  0.00     0.004 C 
ENDBRANCH  28  29
ENDBRANCH  27  28
ENDBRANCH  26  27
ENDBRANCH  25  26
ENDBRANCH  24  25
ENDBRANCH  23  24
ENDBRANCH  22  23
ENDBRANCH  21  22
ENDBRANCH  20  21
ENDBRANCH  19  20
ENDBRANCH  18  19
ENDBRANCH  17  18
ENDBRANCH   1  17
TORSDOF 26
ENDMDL
MODEL 6
REMARK VINA RESULT:    -4.523      2.711      5.284
REMARK INTER + INTRA:         -16.995
REMARK INTER:                 -12.095
REMARK INTRA:                  -4.901
REMARK UNBOUND:                -5.599
REMARK SMILES CCCCCCCCCCCCCCCCCCCCCCCCCCCC(=O)[O-]
REMARK SMILES IDX 15 1 16 2 17 3 18 4 19 5 20 6 21 7 22 8 23 9 24 10 25 11
REMARK SMILES IDX 26 12 27 13 28 14 29 15 30 16 14 17 13 18 12 19 11 20 10 21
REMARK SMILES IDX 9 22 8 23 7 24 6 25 5 26 4 27 3 28 2 29 1 30
REMARK H PARENT
REMARK Flexibility Score: inf
ROOT
ATOM      1  C   UNL     1     -18.848  -2.378  18.772  1.00  0.00     0.000 C 
ENDROOT
BRANCH   1   2
ATOM      2  C   UNL     1     -18.271  -3.807  18.694  1.00  0.00     0.000 C 
BRANCH   2   3
ATOM      3  C   UNL     1     -18.133  -4.352  17.261  1.00  0.00     0.000 C 
BRANCH   3   4
ATOM      4  C   UNL     1     -17.159  -5.537  17.157  1.00  0.00     0.000 C 
BRANCH   4   5
ATOM      5  C   UNL     1     -16.874  -6.194  18.517  1.00  0.00     0.000 C 
BRANCH   5   6
ATOM      6  C   UNL     1     -15.375  -6.254  18.844  1.00  0.00     0.000 C 
BRANCH   6   7
ATOM      7  C   UNL     1     -15.097  -5.678  20.238  1.00  0.00     0.000 C 
BRANCH   7   8
ATOM      8  C   UNL     1     -15.396  -6.716  21.332  1.00  0.00     0.000 C 
BRANCH   8   9
ATOM      9  C   UNL     1     -16.216  -6.118  22.496  1.00  0.00     0.000 C 
BRANCH   9  10
ATOM     10  C   UNL     1     -16.401  -4.592  22.398  1.00  0.00     0.000 C 
BRANCH  10  11
ATOM     11  C   UNL     1     -17.876  -4.165  22.474  1.00  0.00     0.000 C 
BRANCH  11  12
ATOM     12  C   UNL     1     -18.837  -5.363  22.523  1.00  0.00     0.006 C 
BRANCH  12  13
ATOM     13  C   UNL     1     -20.308  -4.934  22.453  1.00  0.00     0.053 C 
BRANCH  13  14
ATOM     14  C   UNL     1     -21.040  -5.337  23.697  1.00  0.00     0.041 C 
ATOM     15  O   UNL     1     -21.655  -4.474  24.379  1.00  0.00    -0.550 OA
ATOM     16  O   UNL     1     -21.041  -6.666  24.106  1.00  0.00    -0.550 OA
ENDBRANCH  13  14
ENDBRANCH  12  13
ENDBRANCH  11  12
ENDBRANCH  10  11
ENDBRANCH   9  10
ENDBRANCH   8   9
ENDBRANCH   7   8
ENDBRANCH   6   7
ENDBRANCH   5   6
ENDBRANCH   4   5
ENDBRANCH   3   4
ENDBRANCH   2   3
ENDBRANCH   1   2
BRANCH   1  17
ATOM     17  C   UNL     1     -18.969  -1.718  17.390  1.00  0.00     0.000 C 
BRANCH  17  18
ATOM     18  C   UNL     1     -19.412  -0.245  17.469  1.00  0.00     0.000 C 
BRANCH  18  19
ATOM     19  C   UNL     1     -18.417   0.761  16.859  1.00  0.00     0.000 C 
BRANCH  19  20
ATOM     20  C   UNL     1     -17.004   0.637  17.450  1.00  0.00     0.000 C 
BRANCH  20  21
ATOM     21  C   UNL     1     -15.930   0.746  16.357  1.00  0.00     0.000 C 
BRANCH  21  22
ATOM     22  C   UNL     1     -14.860  -0.353  16.468  1.00  0.00    -0.000 C 
BRANCH  22  23
ATOM     23  C   UNL     1     -15.447  -1.711  16.891  1.00  0.00    -0.000 C 
BRANCH  23  24
ATOM     24  C   UNL     1     -14.417  -2.603  17.602  1.00  0.00    -0.000 C 
BRANCH  24  25
ATOM     25  C   UNL     1     -14.150  -2.161  19.052  1.00  0.00    -0.000 C 
BRANCH  25  26
ATOM     26  C   UNL     1     -15.438  -2.071  19.890  1.00  0.00    -0.000 C 
BRANCH  26  27
ATOM     27  C   UNL     1     -15.576  -0.792  20.741  1.00  0.00    -0.000 C 
BRANCH  27  28
ATOM     28  C   UNL     1     -15.005   0.481  20.089  1.00  0.00    -0.000 C 
BRANCH  28  29
ATOM     29  C   UNL     1     -14.661   1.592  21.104  1.00  0.00    -0.003 C 
ATOM     30  C   UNL     1     -13.558   1.177  22.075  1.00  0.00     0.004 C 
ENDBRANCH  28  29
ENDBRANCH  27  28
ENDBRANCH  26  27
ENDBRANCH  25  26
ENDBRANCH  24  25
ENDBRANCH  23  24
ENDBRANCH  22  23
ENDBRANCH  21  22
ENDBRANCH  20  21
ENDBRANCH  19  20
ENDBRANCH  18  19
ENDBRANCH  17  18
ENDBRANCH   1  17
TORSDOF 26
ENDMDL
MODEL 7
REMARK VINA RESULT:    -4.517     12.216     15.728
REMARK INTER + INTRA:         -16.982
REMARK INTER:                 -12.604
REMARK INTRA:                  -4.378
REMARK UNBOUND:                -5.599
REMARK SMILES CCCCCCCCCCCCCCCCCCCCCCCCCCCC(=O)[O-]
REMARK SMILES IDX 15 1 16 2 17 3 18 4 19 5 20 6 21 7 22 8 23 9 24 10 25 11
REMARK SMILES IDX 26 12 27 13 28 14 29 15 30 16 14 17 13 18 12 19 11 20 10 21
REMARK SMILES IDX 9 22 8 23 7 24 6 25 5 26 4 27 3 28 2 29 1 30
REMARK H PARENT
REMARK Flexibility Score: inf
ROOT
ATOM      1  C   UNL     1     -19.869   3.739  30.919  1.00  0.00     0.000 C 
ENDROOT
BRANCH   1   2
ATOM      2  C   UNL     1     -19.354   3.800  29.466  1.00  0.00     0.000 C 
BRANCH   2   3
ATOM      3  C   UNL     1     -18.494   5.038  29.155  1.00  0.00     0.000 C 
BRANCH   3   4
ATOM      4  C   UNL     1     -18.114   5.840  30.411  1.00  0.00     0.000 C 
BRANCH   4   5
ATOM      5  C   UNL     1     -16.913   6.771  30.182  1.00  0.00     0.000 C 
BRANCH   5   6
ATOM      6  C   UNL     1     -15.721   6.434  31.089  1.00  0.00     0.000 C 
BRANCH   6   7
ATOM      7  C   UNL     1     -14.466   7.196  30.646  1.00  0.00     0.000 C 
BRANCH   7   8
ATOM      8  C   UNL     1     -13.980   8.148  31.751  1.00  0.00     0.000 C 
BRANCH   8   9
ATOM      9  C   UNL     1     -15.077   9.140  32.192  1.00  0.00     0.000 C 
BRANCH   9  10
ATOM     10  C   UNL     1     -14.950  10.529  31.540  1.00  0.00     0.000 C 
BRANCH  10  11
ATOM     11  C   UNL     1     -15.466  10.558  30.093  1.00  0.00     0.000 C 
BRANCH  11  12
ATOM     12  C   UNL     1     -14.419  11.094  29.103  1.00  0.00     0.006 C 
BRANCH  12  13
ATOM     13  C   UNL     1     -13.667   9.966  28.383  1.00  0.00     0.053 C 
BRANCH  13  14
ATOM     14  C   UNL     1     -13.999   9.953  26.922  1.00  0.00     0.041 C 
ATOM     15  O   UNL     1     -15.168  10.217  26.534  1.00  0.00    -0.550 OA
ATOM     16  O   UNL     1     -13.017   9.647  25.987  1.00  0.00    -0.550 OA
ENDBRANCH  13  14
ENDBRANCH  12  13
ENDBRANCH  11  12
ENDBRANCH  10  11
ENDBRANCH   9  10
ENDBRANCH   8   9
ENDBRANCH   7   8
ENDBRANCH   6   7
ENDBRANCH   5   6
ENDBRANCH   4   5
ENDBRANCH   3   4
ENDBRANCH   2   3
ENDBRANCH   1   2
BRANCH   1  17
ATOM     17  C   UNL     1     -20.161   2.301  31.379  1.00  0.00     0.000 C 
BRANCH  17  18
ATOM     18  C   UNL     1     -19.266   1.856  32.550  1.00  0.00     0.000 C 
BRANCH  18  19
ATOM     19  C   UNL     1     -17.900   2.565  32.624  1.00  0.00     0.000 C 
BRANCH  19  20
ATOM     20  C   UNL     1     -16.836   1.905  31.733  1.00  0.00     0.000 C 
BRANCH  20  21
ATOM     21  C   UNL     1     -15.872   2.949  31.147  1.00  0.00     0.000 C 
BRANCH  21  22
ATOM     22  C   UNL     1     -15.729   2.829  29.620  1.00  0.00    -0.000 C 
BRANCH  22  23
ATOM     23  C   UNL     1     -14.469   3.532  29.086  1.00  0.00    -0.000 C 
BRANCH  23  24
ATOM     24  C   UNL     1     -13.457   2.547  28.478  1.00  0.00    -0.000 C 
BRANCH  24  25
ATOM     25  C   UNL     1     -14.136   1.349  27.790  1.00  0.00    -0.000 C 
BRANCH  25  26
ATOM     26  C   UNL     1     -13.696  -0.002  28.382  1.00  0.00    -0.000 C 
BRANCH  26  27
ATOM     27  C   UNL     1     -14.815  -0.810  29.067  1.00  0.00    -0.000 C 
BRANCH  27  28
ATOM     28  C   UNL     1     -16.220  -0.605  28.468  1.00  0.00    -0.000 C 
BRANCH  28  29
ATOM     29  C   UNL     1     -17.357  -0.740  29.504  1.00  0.00    -0.003 C 
ATOM     30  C   UNL     1     -18.698  -0.243  28.969  1.00  0.00     0.004 C 
ENDBRANCH  28  29
ENDBRANCH  27  28
ENDBRANCH  26  27
ENDBRANCH  25  26
ENDBRANCH  24  25
ENDBRANCH  23  24
ENDBRANCH  22  23
ENDBRANCH  21  22
ENDBRANCH  20  21
ENDBRANCH  19  20
ENDBRANCH  18  19
ENDBRANCH  17  18
ENDBRANCH   1  17
TORSDOF 26
ENDMDL
MODEL 8
REMARK VINA RESULT:    -4.501      2.986      5.008
REMARK INTER + INTRA:         -16.941
REMARK INTER:                 -11.772
REMARK INTRA:                  -5.168
REMARK UNBOUND:                -5.599
REMARK SMILES CCCCCCCCCCCCCCCCCCCCCCCCCCCC(=O)[O-]
REMARK SMILES IDX 15 1 16 2 17 3 18 4 19 5 20 6 21 7 22 8 23 9 24 10 25 11
REMARK SMILES IDX 26 12 27 13 28 14 29 15 30 16 14 17 13 18 12 19 11 20 10 21
REMARK SMILES IDX 9 22 8 23 7 24 6 25 5 26 4 27 3 28 2 29 1 30
REMARK H PARENT
REMARK Flexibility Score: inf
ROOT
ATOM      1  C   UNL     1     -15.933   0.248  21.202  1.00  0.00     0.000 C 
ENDROOT
BRANCH   1   2
ATOM      2  C   UNL     1     -15.729  -0.647  22.442  1.00  0.00     0.000 C 
BRANCH   2   3
ATOM      3  C   UNL     1     -17.026  -1.275  22.985  1.00  0.00     0.000 C 
BRANCH   3   4
ATOM      4  C   UNL     1     -17.436  -2.554  22.238  1.00  0.00     0.000 C 
BRANCH   4   5
ATOM      5  C   UNL     1     -16.722  -3.807  22.768  1.00  0.00     0.000 C 
BRANCH   5   6
ATOM      6  C   UNL     1     -16.085  -4.644  21.649  1.00  0.00     0.000 C 
BRANCH   6   7
ATOM      7  C   UNL     1     -16.664  -6.064  21.633  1.00  0.00     0.000 C 
BRANCH   7   8
ATOM      8  C   UNL     1     -17.279  -6.392  20.263  1.00  0.00     0.000 C 
BRANCH   8   9
ATOM      9  C   UNL     1     -18.823  -6.393  20.300  1.00  0.00     0.000 C 
BRANCH   9  10
ATOM     10  C   UNL     1     -19.440  -4.983  20.248  1.00  0.00     0.000 C 
BRANCH  10  11
ATOM     11  C   UNL     1     -20.470  -4.742  21.362  1.00  0.00     0.000 C 
BRANCH  11  12
ATOM     12  C   UNL     1     -20.019  -5.311  22.717  1.00  0.00     0.006 C 
BRANCH  12  13
ATOM     13  C   UNL     1     -20.303  -4.348  23.878  1.00  0.00     0.053 C 
BRANCH  13  14
ATOM     14  C   UNL     1     -21.657  -4.605  24.464  1.00  0.00     0.041 C 
ATOM     15  O   UNL     1     -22.117  -5.777  24.511  1.00  0.00    -0.550 OA
ATOM     16  O   UNL     1     -22.415  -3.548  24.957  1.00  0.00    -0.550 OA
ENDBRANCH  13  14
ENDBRANCH  12  13
ENDBRANCH  11  12
ENDBRANCH  10  11
ENDBRANCH   9  10
ENDBRANCH   8   9
ENDBRANCH   7   8
ENDBRANCH   6   7
ENDBRANCH   5   6
ENDBRANCH   4   5
ENDBRANCH   3   4
ENDBRANCH   2   3
ENDBRANCH   1   2
BRANCH   1  17
ATOM     17  C   UNL     1     -14.996  -0.132  20.044  1.00  0.00     0.000 C 
BRANCH  17  18
ATOM     18  C   UNL     1     -14.744  -1.648  19.953  1.00  0.00     0.000 C 
BRANCH  18  19
ATOM     19  C   UNL     1     -14.375  -2.157  18.546  1.00  0.00     0.000 C 
BRANCH  19  20
ATOM     20  C   UNL     1     -15.160  -3.414  18.141  1.00  0.00     0.000 C 
BRANCH  20  21
ATOM     21  C   UNL     1     -16.664  -3.243  18.408  1.00  0.00     0.000 C 
BRANCH  21  22
ATOM     22  C   UNL     1     -17.531  -3.727  17.233  1.00  0.00    -0.000 C 
BRANCH  22  23
ATOM     23  C   UNL     1     -18.840  -2.931  17.095  1.00  0.00    -0.000 C 
BRANCH  23  24
ATOM     24  C   UNL     1     -18.829  -1.630  17.914  1.00  0.00    -0.000 C 
BRANCH  24  25
ATOM     25  C   UNL     1     -19.560  -0.476  17.205  1.00  0.00    -0.000 C 
BRANCH  25  26
ATOM     26  C   UNL     1     -18.729   0.818  17.166  1.00  0.00    -0.000 C 
BRANCH  26  27
ATOM     27  C   UNL     1     -17.206   0.620  17.298  1.00  0.00    -0.000 C 
BRANCH  27  28
ATOM     28  C   UNL     1     -16.390   1.036  16.060  1.00  0.00    -0.000 C 
BRANCH  28  29
ATOM     29  C   UNL     1     -15.026   0.320  15.951  1.00  0.00    -0.003 C 
ATOM     30  C   UNL     1     -13.920   1.049  16.710  1.00  0.00     0.004 C 
ENDBRANCH  28  29
ENDBRANCH  27  28
ENDBRANCH  26  27
ENDBRANCH  25  26
ENDBRANCH  24  25
ENDBRANCH  23  24
ENDBRANCH  22  23
ENDBRANCH  21  22
ENDBRANCH  20  21
ENDBRANCH  19  20
ENDBRANCH  18  19
ENDBRANCH  17  18
ENDBRANCH   1  17
TORSDOF 26
ENDMDL
MODEL 9
REMARK VINA RESULT:    -4.427     12.402     15.945
REMARK INTER + INTRA:         -16.755
REMARK INTER:                 -12.283
REMARK INTRA:                  -4.471
REMARK UNBOUND:                -5.599
REMARK SMILES CCCCCCCCCCCCCCCCCCCCCCCCCCCC(=O)[O-]
REMARK SMILES IDX 15 1 16 2 17 3 18 4 19 5 20 6 21 7 22 8 23 9 24 10 25 11
REMARK SMILES IDX 26 12 27 13 28 14 29 15 30 16 14 17 13 18 12 19 11 20 10 21
REMARK SMILES IDX 9 22 8 23 7 24 6 25 5 26 4 27 3 28 2 29 1 30
REMARK H PARENT
REMARK Flexibility Score: inf
ROOT
ATOM      1  C   UNL     1     -17.538   4.847  30.617  1.00  0.00     0.000 C 
ENDROOT
BRANCH   1   2
ATOM      2  C   UNL     1     -17.300   6.316  31.025  1.00  0.00     0.000 C 
BRANCH   2   3
ATOM      3  C   UNL     1     -18.041   7.341  30.147  1.00  0.00     0.000 C 
BRANCH   3   4
ATOM      4  C   UNL     1     -17.754   8.797  30.547  1.00  0.00     0.000 C 
BRANCH   4   5
ATOM      5  C   UNL     1     -17.044   8.912  31.905  1.00  0.00     0.000 C 
BRANCH   5   6
ATOM      6  C   UNL     1     -15.743   9.724  31.827  1.00  0.00     0.000 C 
BRANCH   6   7
ATOM      7  C   UNL     1     -14.606   9.003  32.562  1.00  0.00     0.000 C 
BRANCH   7   8
ATOM      8  C   UNL     1     -13.975   7.920  31.673  1.00  0.00     0.000 C 
BRANCH   8   9
ATOM      9  C   UNL     1     -14.035   8.284  30.174  1.00  0.00     0.000 C 
BRANCH   9  10
ATOM     10  C   UNL     1     -14.179   7.062  29.249  1.00  0.00     0.000 C 
BRANCH  10  11
ATOM     11  C   UNL     1     -14.951   7.378  27.958  1.00  0.00     0.000 C 
BRANCH  11  12
ATOM     12  C   UNL     1     -15.163   8.886  27.751  1.00  0.00     0.006 C 
BRANCH  12  13
ATOM     13  C   UNL     1     -14.302   9.446  26.611  1.00  0.00     0.053 C 
BRANCH  13  14
ATOM     14  C   UNL     1     -13.801  10.817  26.946  1.00  0.00     0.041 C 
ATOM     15  O   UNL     1     -14.094  11.797  26.210  1.00  0.00    -0.550 OA
ATOM     16  O   UNL     1     -13.006  11.014  28.070  1.00  0.00    -0.550 OA
ENDBRANCH  13  14
ENDBRANCH  12  13
ENDBRANCH  11  12
ENDBRANCH  10  11
ENDBRANCH   9  10
ENDBRANCH   8   9
ENDBRANCH   7   8
ENDBRANCH   6   7
ENDBRANCH   5   6
ENDBRANCH   4   5
ENDBRANCH   3   4
ENDBRANCH   2   3
ENDBRANCH   1   2
BRANCH   1  17
ATOM     17  C   UNL     1     -16.406   3.918  31.083  1.00  0.00     0.000 C 
BRANCH  17  18
ATOM     18  C   UNL     1     -16.922   2.695  31.864  1.00  0.00     0.000 C 
BRANCH  18  19
ATOM     19  C   UNL     1     -18.352   2.841  32.420  1.00  0.00     0.000 C 
BRANCH  19  20
ATOM     20  C   UNL     1     -19.212   1.589  32.191  1.00  0.00     0.000 C 
BRANCH  20  21
ATOM     21  C   UNL     1     -18.346   0.380  31.801  1.00  0.00     0.000 C 
BRANCH  21  22
ATOM     22  C   UNL     1     -18.754  -0.227  30.448  1.00  0.00    -0.000 C 
BRANCH  22  23
ATOM     23  C   UNL     1     -17.552  -0.762  29.652  1.00  0.00    -0.000 C 
BRANCH  23  24
ATOM     24  C   UNL     1     -17.401  -0.079  28.282  1.00  0.00    -0.000 C 
BRANCH  24  25
ATOM     25  C   UNL     1     -17.261   1.450  28.395  1.00  0.00    -0.000 C 
BRANCH  25  26
ATOM     26  C   UNL     1     -15.991   1.982  27.709  1.00  0.00    -0.000 C 
BRANCH  26  27
ATOM     27  C   UNL     1     -14.700   1.202  28.030  1.00  0.00    -0.000 C 
BRANCH  27  28
ATOM     28  C   UNL     1     -14.153   1.417  29.454  1.00  0.00    -0.000 C 
BRANCH  28  29
ATOM     29  C   UNL     1     -13.724   0.110  30.154  1.00  0.00    -0.003 C 
ATOM     30  C   UNL     1     -13.870  -1.113  29.251  1.00  0.00     0.004 C 
ENDBRANCH  28  29
ENDBRANCH  27  28
ENDBRANCH  26  27
ENDBRANCH  25  26
ENDBRANCH  24  25
ENDBRANCH  23  24
ENDBRANCH  22  23
ENDBRANCH  21  22
ENDBRANCH  20  21
ENDBRANCH  19  20
ENDBRANCH  18  19
ENDBRANCH  17  18
ENDBRANCH   1  17
TORSDOF 26
ENDMDL
