MODEL 1
REMARK VINA RESULT:    -4.381      0.000      0.000
REMARK INTER + INTRA:         -10.092
REMARK INTER:                  -7.967
REMARK INTRA:                  -2.126
REMARK UNBOUND:                -2.126
REMARK SMILES CCCCCCCCCCCCCCCC(=O)[O-]
REMARK SMILES IDX 9 1 10 2 11 3 12 4 13 5 14 6 15 7 16 8 17 9 18 10 8 11 7 12
REMARK SMILES IDX 6 13 5 14 4 15 3 16 2 17 1 18
REMARK H PARENT
REMARK Flexibility Score: inf
ROOT
ATOM      1  C   UNL     1     -34.223  21.618 -26.383  1.00  0.00     0.000 C 
ENDROOT
BRANCH   1   2
ATOM      2  C   UNL     1     -34.247  20.236 -27.051  1.00  0.00     0.000 C 
BRANCH   2   3
ATOM      3  C   UNL     1     -35.329  19.313 -26.468  1.00  0.00     0.000 C 
BRANCH   3   4
ATOM      4  C   UNL     1     -36.060  18.503 -27.554  1.00  0.00     0.000 C 
BRANCH   4   5
ATOM      5  C   UNL     1     -35.344  18.547 -28.918  1.00  0.00     0.000 C 
BRANCH   5   6
ATOM      6  C   UNL     1     -36.101  17.868 -30.078  1.00  0.00     0.006 C 
BRANCH   6   7
ATOM      7  C   UNL     1     -37.510  17.372 -29.719  1.00  0.00     0.053 C 
BRANCH   7   8
ATOM      8  C   UNL     1     -38.503  17.683 -30.795  1.00  0.00     0.041 C 
ATOM      9  O   UNL     1     -38.472  18.795 -31.385  1.00  0.00    -0.550 OA
ATOM     10  O   UNL     1     -39.443  16.731 -31.169  1.00  0.00    -0.550 OA
ENDBRANCH   7   8
ENDBRANCH   6   7
ENDBRANCH   5   6
ENDBRANCH   4   5
ENDBRANCH   3   4
ENDBRANCH   2   3
ENDBRANCH   1   2
BRANCH   1  11
ATOM     11  C   UNL     1     -34.022  22.727 -27.423  1.00  0.00     0.000 C 
BRANCH  11  12
ATOM     12  C   UNL     1     -35.200  23.713 -27.412  1.00  0.00    -0.000 C 
BRANCH  12  13
ATOM     13  C   UNL     1     -36.486  23.121 -28.018  1.00  0.00    -0.000 C 
BRANCH  13  14
ATOM     14  C   UNL     1     -36.374  22.653 -29.485  1.00  0.00    -0.000 C 
BRANCH  14  15
ATOM     15  C   UNL     1     -37.381  21.563 -29.903  1.00  0.00    -0.000 C 
BRANCH  15  16
ATOM     16  C   UNL     1     -38.143  20.931 -28.716  1.00  0.00    -0.000 C 
BRANCH  16  17
ATOM     17  C   UNL     1     -39.671  20.973 -28.878  1.00  0.00    -0.003 C 
ATOM     18  C   UNL     1     -40.362  19.735 -28.309  1.00  0.00     0.004 C 
ENDBRANCH  16  17
ENDBRANCH  15  16
ENDBRANCH  14  15
ENDBRANCH  13  14
ENDBRANCH  12  13
ENDBRANCH  11  12
ENDBRANCH   1  11
TORSDOF 14
ENDMDL
MODEL 2
REMARK VINA RESULT:    -4.361      2.761      6.101
REMARK INTER + INTRA:         -10.056
REMARK INTER:                  -8.176
REMARK INTRA:                  -1.880
REMARK UNBOUND:                -2.126
REMARK SMILES CCCCCCCCCCCCCCCC(=O)[O-]
REMARK SMILES IDX 9 1 10 2 11 3 12 4 13 5 14 6 15 7 16 8 17 9 18 10 8 11 7 12
REMARK SMILES IDX 6 13 5 14 4 15 3 16 2 17 1 18
REMARK H PARENT
REMARK Flexibility Score: inf
ROOT
ATOM      1  C   UNL     1     -38.171  19.791 -31.268  1.00  0.00     0.000 C 
ENDROOT
BRANCH   1   2
ATOM      2  C   UNL     1     -37.126  20.700 -30.604  1.00  0.00     0.000 C 
BRANCH   2   3
ATOM      3  C   UNL     1     -37.438  20.983 -29.126  1.00  0.00     0.000 C 
BRANCH   3   4
ATOM      4  C   UNL     1     -37.669  22.478 -28.848  1.00  0.00     0.000 C 
BRANCH   4   5
ATOM      5  C   UNL     1     -39.130  22.800 -28.478  1.00  0.00     0.000 C 
BRANCH   5   6
ATOM      6  C   UNL     1     -40.194  21.981 -29.238  1.00  0.00     0.006 C 
BRANCH   6   7
ATOM      7  C   UNL     1     -41.065  22.801 -30.202  1.00  0.00     0.053 C 
BRANCH   7   8
ATOM      8  C   UNL     1     -42.294  23.333 -29.532  1.00  0.00     0.041 C 
ATOM      9  O   UNL     1     -43.395  22.735 -29.660  1.00  0.00    -0.550 OA
ATOM     10  O   UNL     1     -42.216  24.471 -28.740  1.00  0.00    -0.550 OA
ENDBRANCH   7   8
ENDBRANCH   6   7
ENDBRANCH   5   6
ENDBRANCH   4   5
ENDBRANCH   3   4
ENDBRANCH   2   3
ENDBRANCH   1   2
BRANCH   1  11
ATOM     11  C   UNL     1     -38.738  18.781 -30.263  1.00  0.00     0.000 C 
BRANCH  11  12
ATOM     12  C   UNL     1     -38.625  17.347 -30.801  1.00  0.00    -0.000 C 
BRANCH  12  13
ATOM     13  C   UNL     1     -37.614  16.488 -30.020  1.00  0.00    -0.000 C 
BRANCH  13  14
ATOM     14  C   UNL     1     -36.605  17.274 -29.155  1.00  0.00    -0.000 C 
BRANCH  14  15
ATOM     15  C   UNL     1     -35.213  17.469 -29.788  1.00  0.00    -0.000 C 
BRANCH  15  16
ATOM     16  C   UNL     1     -34.349  18.538 -29.080  1.00  0.00    -0.000 C 
BRANCH  16  17
ATOM     17  C   UNL     1     -34.872  18.922 -27.686  1.00  0.00    -0.003 C 
ATOM     18  C   UNL     1     -34.181  20.159 -27.114  1.00  0.00     0.004 C 
ENDBRANCH  16  17
ENDBRANCH  15  16
ENDBRANCH  14  15
ENDBRANCH  13  14
ENDBRANCH  12  13
ENDBRANCH  11  12
ENDBRANCH   1  11
TORSDOF 14
ENDMDL
MODEL 3
REMARK VINA RESULT:    -4.286      2.130      3.976
REMARK INTER + INTRA:          -9.920
REMARK INTER:                  -7.915
REMARK INTRA:                  -2.005
REMARK UNBOUND:                -2.126
REMARK SMILES CCCCCCCCCCCCCCCC(=O)[O-]
REMARK SMILES IDX 9 1 10 2 11 3 12 4 13 5 14 6 15 7 16 8 17 9 18 10 8 11 7 12
REMARK SMILES IDX 6 13 5 14 4 15 3 16 2 17 1 18
REMARK H PARENT
REMARK Flexibility Score: inf
ROOT
ATOM      1  C   UNL     1     -36.358  21.168 -31.448  1.00  0.00     0.000 C 
ENDROOT
BRANCH   1   2
ATOM      2  C   UNL     1     -36.112  22.314 -30.455  1.00  0.00     0.000 C 
BRANCH   2   3
ATOM      3  C   UNL     1     -35.040  21.974 -29.408  1.00  0.00     0.000 C 
BRANCH   3   4
ATOM      4  C   UNL     1     -35.492  20.865 -28.441  1.00  0.00     0.000 C 
BRANCH   4   5
ATOM      5  C   UNL     1     -34.575  19.628 -28.478  1.00  0.00     0.000 C 
BRANCH   5   6
ATOM      6  C   UNL     1     -35.298  18.282 -28.691  1.00  0.00     0.006 C 
BRANCH   6   7
ATOM      7  C   UNL     1     -34.896  17.536 -29.973  1.00  0.00     0.053 C 
BRANCH   7   8
ATOM      8  C   UNL     1     -35.722  16.306 -30.187  1.00  0.00     0.041 C 
ATOM      9  O   UNL     1     -36.812  16.158 -29.573  1.00  0.00    -0.550 OA
ATOM     10  O   UNL     1     -35.304  15.336 -31.090  1.00  0.00    -0.550 OA
ENDBRANCH   7   8
ENDBRANCH   6   7
ENDBRANCH   5   6
ENDBRANCH   4   5
ENDBRANCH   3   4
ENDBRANCH   2   3
ENDBRANCH   1   2
BRANCH   1  11
ATOM     11  C   UNL     1     -37.834  20.751 -31.449  1.00  0.00     0.000 C 
BRANCH  11  12
ATOM     12  C   UNL     1     -37.986  19.261 -31.110  1.00  0.00    -0.000 C 
BRANCH  12  13
ATOM     13  C   UNL     1     -38.754  19.017 -29.798  1.00  0.00    -0.000 C 
BRANCH  13  14
ATOM     14  C   UNL     1     -38.868  20.237 -28.859  1.00  0.00    -0.000 C 
BRANCH  14  15
ATOM     15  C   UNL     1     -40.250  20.919 -28.836  1.00  0.00    -0.000 C 
BRANCH  15  16
ATOM     16  C   UNL     1     -40.223  22.398 -29.282  1.00  0.00    -0.000 C 
BRANCH  16  17
ATOM     17  C   UNL     1     -41.322  22.752 -30.297  1.00  0.00    -0.003 C 
ATOM     18  C   UNL     1     -42.489  23.511 -29.668  1.00  0.00     0.004 C 
ENDBRANCH  16  17
ENDBRANCH  15  16
ENDBRANCH  14  15
ENDBRANCH  13  14
ENDBRANCH  12  13
ENDBRANCH  11  12
ENDBRANCH   1  11
TORSDOF 14
ENDMDL
MODEL 4
REMARK VINA RESULT:    -4.156      1.486      2.318
REMARK INTER + INTRA:          -9.684
REMARK INTER:                  -7.304
REMARK INTRA:                  -2.379
REMARK UNBOUND:                -2.126
REMARK SMILES CCCCCCCCCCCCCCCC(=O)[O-]
REMARK SMILES IDX 9 1 10 2 11 3 12 4 13 5 14 6 15 7 16 8 17 9 18 10 8 11 7 12
REMARK SMILES IDX 6 13 5 14 4 15 3 16 2 17 1 18
REMARK H PARENT
REMARK Flexibility Score: inf
ROOT
ATOM      1  C   UNL     1     -35.616  22.523 -28.377  1.00  0.00     0.000 C 
ENDROOT
BRANCH   1   2
ATOM      2  C   UNL     1     -34.327  22.254 -27.586  1.00  0.00     0.000 C 
BRANCH   2   3
ATOM      3  C   UNL     1     -34.304  20.856 -26.946  1.00  0.00     0.000 C 
BRANCH   3   4
ATOM      4  C   UNL     1     -35.179  19.845 -27.707  1.00  0.00     0.000 C 
BRANCH   4   5
ATOM      5  C   UNL     1     -34.364  18.941 -28.653  1.00  0.00     0.000 C 
BRANCH   5   6
ATOM      6  C   UNL     1     -35.164  17.805 -29.324  1.00  0.00     0.006 C 
BRANCH   6   7
ATOM      7  C   UNL     1     -36.615  17.671 -28.838  1.00  0.00     0.053 C 
BRANCH   7   8
ATOM      8  C   UNL     1     -37.391  16.687 -29.658  1.00  0.00     0.041 C 
ATOM      9  O   UNL     1     -37.191  15.452 -29.524  1.00  0.00    -0.550 OA
ATOM     10  O   UNL     1     -38.358  17.135 -30.549  1.00  0.00    -0.550 OA
ENDBRANCH   7   8
ENDBRANCH   6   7
ENDBRANCH   5   6
ENDBRANCH   4   5
ENDBRANCH   3   4
ENDBRANCH   2   3
ENDBRANCH   1   2
BRANCH   1  11
ATOM     11  C   UNL     1     -35.298  23.094 -29.765  1.00  0.00     0.000 C 
BRANCH  11  12
ATOM     12  C   UNL     1     -34.775  21.998 -30.704  1.00  0.00    -0.000 C 
BRANCH  12  13
ATOM     13  C   UNL     1     -35.845  21.482 -31.683  1.00  0.00    -0.000 C 
BRANCH  13  14
ATOM     14  C   UNL     1     -36.857  20.477 -31.089  1.00  0.00    -0.000 C 
BRANCH  14  15
ATOM     15  C   UNL     1     -38.337  20.777 -31.402  1.00  0.00    -0.000 C 
BRANCH  15  16
ATOM     16  C   UNL     1     -39.126  21.342 -30.200  1.00  0.00    -0.000 C 
BRANCH  16  17
ATOM     17  C   UNL     1     -38.799  20.644 -28.870  1.00  0.00    -0.003 C 
ATOM     18  C   UNL     1     -39.863  19.628 -28.456  1.00  0.00     0.004 C 
ENDBRANCH  16  17
ENDBRANCH  15  16
ENDBRANCH  14  15
ENDBRANCH  13  14
ENDBRANCH  12  13
ENDBRANCH  11  12
ENDBRANCH   1  11
TORSDOF 14
ENDMDL
MODEL 5
REMARK VINA RESULT:    -4.120      2.024      4.543
REMARK INTER + INTRA:          -9.617
REMARK INTER:                  -7.172
REMARK INTRA:                  -2.446
REMARK UNBOUND:                -2.126
REMARK SMILES CCCCCCCCCCCCCCCC(=O)[O-]
REMARK SMILES IDX 9 1 10 2 11 3 12 4 13 5 14 6 15 7 16 8 17 9 18 10 8 11 7 12
REMARK SMILES IDX 6 13 5 14 4 15 3 16 2 17 1 18
REMARK H PARENT
REMARK Flexibility Score: inf
ROOT
ATOM      1  C   UNL     1     -33.902  20.432 -30.228  1.00  0.00     0.000 C 
ENDROOT
BRANCH   1   2
ATOM      2  C   UNL     1     -34.832  21.223 -31.160  1.00  0.00     0.000 C 
BRANCH   2   3
ATOM      3  C   UNL     1     -35.218  22.597 -30.590  1.00  0.00     0.000 C 
BRANCH   3   4
ATOM      4  C   UNL     1     -35.089  22.656 -29.058  1.00  0.00     0.000 C 
BRANCH   4   5
ATOM      5  C   UNL     1     -36.449  22.805 -28.348  1.00  0.00     0.000 C 
BRANCH   5   6
ATOM      6  C   UNL     1     -37.676  22.396 -29.189  1.00  0.00     0.006 C 
BRANCH   6   7
ATOM      7  C   UNL     1     -39.030  22.647 -28.508  1.00  0.00     0.053 C 
BRANCH   7   8
ATOM      8  C   UNL     1     -40.129  21.850 -29.139  1.00  0.00     0.041 C 
ATOM      9  O   UNL     1     -40.285  20.637 -28.841  1.00  0.00    -0.550 OA
ATOM     10  O   UNL     1     -41.004  22.457 -30.032  1.00  0.00    -0.550 OA
ENDBRANCH   7   8
ENDBRANCH   6   7
ENDBRANCH   5   6
ENDBRANCH   4   5
ENDBRANCH   3   4
ENDBRANCH   2   3
ENDBRANCH   1   2
BRANCH   1  11
ATOM     11  C   UNL     1     -34.146  18.924 -30.360  1.00  0.00     0.000 C 
BRANCH  11  12
ATOM     12  C   UNL     1     -34.107  18.238 -28.986  1.00  0.00    -0.000 C 
BRANCH  12  13
ATOM     13  C   UNL     1     -34.619  19.139 -27.848  1.00  0.00    -0.000 C 
BRANCH  13  14
ATOM     14  C   UNL     1     -36.049  18.834 -27.352  1.00  0.00    -0.000 C 
BRANCH  14  15
ATOM     15  C   UNL     1     -37.170  19.122 -28.370  1.00  0.00    -0.000 C 
BRANCH  15  16
ATOM     16  C   UNL     1     -37.828  17.850 -28.951  1.00  0.00    -0.000 C 
BRANCH  16  17
ATOM     17  C   UNL     1     -38.038  17.909 -30.473  1.00  0.00    -0.003 C 
ATOM     18  C   UNL     1     -37.962  19.331 -31.027  1.00  0.00     0.004 C 
ENDBRANCH  16  17
ENDBRANCH  15  16
ENDBRANCH  14  15
ENDBRANCH  13  14
ENDBRANCH  12  13
ENDBRANCH  11  12
ENDBRANCH   1  11
TORSDOF 14
ENDMDL
MODEL 6
REMARK VINA RESULT:    -4.113      2.139      4.577
REMARK INTER + INTRA:          -9.606
REMARK INTER:                  -7.814
REMARK INTRA:                  -1.791
REMARK UNBOUND:                -2.126
REMARK SMILES CCCCCCCCCCCCCCCC(=O)[O-]
REMARK SMILES IDX 9 1 10 2 11 3 12 4 13 5 14 6 15 7 16 8 17 9 18 10 8 11 7 12
REMARK SMILES IDX 6 13 5 14 4 15 3 16 2 17 1 18
REMARK H PARENT
REMARK Flexibility Score: inf
ROOT
ATOM      1  C   UNL     1     -34.735  21.329 -28.433  1.00  0.00     0.000 C 
ENDROOT
BRANCH   1   2
ATOM      2  C   UNL     1     -35.743  22.395 -28.891  1.00  0.00     0.000 C 
BRANCH   2   3
ATOM      3  C   UNL     1     -35.811  22.530 -30.420  1.00  0.00     0.000 C 
BRANCH   3   4
ATOM      4  C   UNL     1     -35.926  21.168 -31.128  1.00  0.00     0.000 C 
BRANCH   4   5
ATOM      5  C   UNL     1     -37.380  20.791 -31.469  1.00  0.00     0.000 C 
BRANCH   5   6
ATOM      6  C   UNL     1     -38.079  19.877 -30.440  1.00  0.00     0.006 C 
BRANCH   6   7
ATOM      7  C   UNL     1     -39.055  20.600 -29.500  1.00  0.00     0.053 C 
BRANCH   7   8
ATOM      8  C   UNL     1     -39.570  19.696 -28.425  1.00  0.00     0.041 C 
ATOM      9  O   UNL     1     -40.805  19.633 -28.186  1.00  0.00    -0.550 OA
ATOM     10  O   UNL     1     -38.688  18.897 -27.707  1.00  0.00    -0.550 OA
ENDBRANCH   7   8
ENDBRANCH   6   7
ENDBRANCH   5   6
ENDBRANCH   4   5
ENDBRANCH   3   4
ENDBRANCH   2   3
ENDBRANCH   1   2
BRANCH   1  11
ATOM     11  C   UNL     1     -35.454  20.128 -27.806  1.00  0.00     0.000 C 
BRANCH  11  12
ATOM     12  C   UNL     1     -34.576  18.869 -27.866  1.00  0.00    -0.000 C 
BRANCH  12  13
ATOM     13  C   UNL     1     -33.967  18.625 -29.259  1.00  0.00    -0.000 C 
BRANCH  13  14
ATOM     14  C   UNL     1     -34.756  17.656 -30.167  1.00  0.00    -0.000 C 
BRANCH  14  15
ATOM     15  C   UNL     1     -36.074  17.127 -29.570  1.00  0.00    -0.000 C 
BRANCH  15  16
ATOM     16  C   UNL     1     -36.434  15.694 -30.026  1.00  0.00    -0.000 C 
BRANCH  16  17
ATOM     17  C   UNL     1     -37.284  14.922 -29.003  1.00  0.00    -0.003 C 
ATOM     18  C   UNL     1     -37.330  13.421 -29.284  1.00  0.00     0.004 C 
ENDBRANCH  16  17
ENDBRANCH  15  16
ENDBRANCH  14  15
ENDBRANCH  13  14
ENDBRANCH  12  13
ENDBRANCH  11  12
ENDBRANCH   1  11
TORSDOF 14
ENDMDL
MODEL 7
REMARK VINA RESULT:    -4.105     15.025     17.553
REMARK INTER + INTRA:          -9.591
REMARK INTER:                  -7.360
REMARK INTRA:                  -2.231
REMARK UNBOUND:                -2.126
REMARK SMILES CCCCCCCCCCCCCCCC(=O)[O-]
REMARK SMILES IDX 9 1 10 2 11 3 12 4 13 5 14 6 15 7 16 8 17 9 18 10 8 11 7 12
REMARK SMILES IDX 6 13 5 14 4 15 3 16 2 17 1 18
REMARK H PARENT
REMARK Flexibility Score: inf
ROOT
ATOM      1  C   UNL     1     -48.100   8.293 -33.229  1.00  0.00     0.000 C 
ENDROOT
BRANCH   1   2
ATOM      2  C   UNL     1     -49.263   9.246 -32.916  1.00  0.00     0.000 C 
BRANCH   2   3
ATOM      3  C   UNL     1     -50.527   8.508 -32.445  1.00  0.00     0.000 C 
BRANCH   3   4
ATOM      4  C   UNL     1     -51.606   9.466 -31.912  1.00  0.00     0.000 C 
BRANCH   4   5
ATOM      5  C   UNL     1     -51.109  10.920 -31.793  1.00  0.00     0.000 C 
BRANCH   5   6
ATOM      6  C   UNL     1     -52.162  11.934 -31.297  1.00  0.00     0.006 C 
BRANCH   6   7
ATOM      7  C   UNL     1     -51.920  12.463 -29.875  1.00  0.00     0.053 C 
BRANCH   7   8
ATOM      8  C   UNL     1     -51.597  13.925 -29.870  1.00  0.00     0.041 C 
ATOM      9  O   UNL     1     -52.061  14.674 -28.970  1.00  0.00    -0.550 OA
ATOM     10  O   UNL     1     -50.757  14.454 -30.841  1.00  0.00    -0.550 OA
ENDBRANCH   7   8
ENDBRANCH   6   7
ENDBRANCH   5   6
ENDBRANCH   4   5
ENDBRANCH   3   4
ENDBRANCH   2   3
ENDBRANCH   1   2
BRANCH   1  11
ATOM     11  C   UNL     1     -48.528   6.830 -33.059  1.00  0.00     0.000 C 
BRANCH  11  12
ATOM     12  C   UNL     1     -47.740   6.155 -31.926  1.00  0.00    -0.000 C 
BRANCH  12  13
ATOM     13  C   UNL     1     -48.568   5.975 -30.641  1.00  0.00    -0.000 C 
BRANCH  13  14
ATOM     14  C   UNL     1     -48.505   7.149 -29.640  1.00  0.00    -0.000 C 
BRANCH  14  15
ATOM     15  C   UNL     1     -47.158   7.899 -29.596  1.00  0.00    -0.000 C 
BRANCH  15  16
ATOM     16  C   UNL     1     -47.295   9.434 -29.711  1.00  0.00    -0.000 C 
BRANCH  16  17
ATOM     17  C   UNL     1     -48.663   9.963 -29.250  1.00  0.00    -0.003 C 
ATOM     18  C   UNL     1     -48.619  11.430 -28.828  1.00  0.00     0.004 C 
ENDBRANCH  16  17
ENDBRANCH  15  16
ENDBRANCH  14  15
ENDBRANCH  13  14
ENDBRANCH  12  13
ENDBRANCH  11  12
ENDBRANCH   1  11
TORSDOF 14
ENDMDL
MODEL 8
REMARK VINA RESULT:    -4.073      2.110      4.163
REMARK INTER + INTRA:          -9.532
REMARK INTER:                  -7.225
REMARK INTRA:                  -2.307
REMARK UNBOUND:                -2.126
REMARK SMILES CCCCCCCCCCCCCCCC(=O)[O-]
REMARK SMILES IDX 9 1 10 2 11 3 12 4 13 5 14 6 15 7 16 8 17 9 18 10 8 11 7 12
REMARK SMILES IDX 6 13 5 14 4 15 3 16 2 17 1 18
REMARK H PARENT
REMARK Flexibility Score: inf
ROOT
ATOM      1  C   UNL     1     -35.128  23.058 -28.820  1.00  0.00     0.000 C 
ENDROOT
BRANCH   1   2
ATOM      2  C   UNL     1     -34.042  22.483 -29.740  1.00  0.00     0.000 C 
BRANCH   2   3
ATOM      3  C   UNL     1     -34.623  21.698 -30.927  1.00  0.00     0.000 C 
BRANCH   3   4
ATOM      4  C   UNL     1     -36.132  21.937 -31.110  1.00  0.00     0.000 C 
BRANCH   4   5
ATOM      5  C   UNL     1     -36.902  20.654 -31.475  1.00  0.00     0.000 C 
BRANCH   5   6
ATOM      6  C   UNL     1     -38.412  20.683 -31.158  1.00  0.00     0.006 C 
BRANCH   6   7
ATOM      7  C   UNL     1     -38.751  20.672 -29.659  1.00  0.00     0.053 C 
BRANCH   7   8
ATOM      8  C   UNL     1     -39.408  21.945 -29.225  1.00  0.00     0.041 C 
ATOM      9  O   UNL     1     -38.804  22.740 -28.458  1.00  0.00    -0.550 OA
ATOM     10  O   UNL     1     -40.675  22.268 -29.694  1.00  0.00    -0.550 OA
ENDBRANCH   7   8
ENDBRANCH   6   7
ENDBRANCH   5   6
ENDBRANCH   4   5
ENDBRANCH   3   4
ENDBRANCH   2   3
ENDBRANCH   1   2
BRANCH   1  11
ATOM     11  C   UNL     1     -34.981  22.519 -27.392  1.00  0.00     0.000 C 
BRANCH  11  12
ATOM     12  C   UNL     1     -34.639  21.021 -27.402  1.00  0.00    -0.000 C 
BRANCH  12  13
ATOM     13  C   UNL     1     -35.841  20.131 -27.764  1.00  0.00    -0.000 C 
BRANCH  13  14
ATOM     14  C   UNL     1     -35.516  18.640 -27.998  1.00  0.00    -0.000 C 
BRANCH  14  15
ATOM     15  C   UNL     1     -34.925  18.309 -29.383  1.00  0.00    -0.000 C 
BRANCH  15  16
ATOM     16  C   UNL     1     -35.547  17.058 -30.045  1.00  0.00    -0.000 C 
BRANCH  16  17
ATOM     17  C   UNL     1     -36.924  16.684 -29.472  1.00  0.00    -0.003 C 
ATOM     18  C   UNL     1     -38.079  17.127 -30.369  1.00  0.00     0.004 C 
ENDBRANCH  16  17
ENDBRANCH  15  16
ENDBRANCH  14  15
ENDBRANCH  13  14
ENDBRANCH  12  13
ENDBRANCH  11  12
ENDBRANCH   1  11
TORSDOF 14
ENDMDL
MODEL 9
REMARK VINA RESULT:    -4.061     15.111     16.974
REMARK INTER + INTRA:          -9.511
REMARK INTER:                  -7.381
REMARK INTRA:                  -2.130
REMARK UNBOUND:                -2.126
REMARK SMILES CCCCCCCCCCCCCCCC(=O)[O-]
REMARK SMILES IDX 9 1 10 2 11 3 12 4 13 5 14 6 15 7 16 8 17 9 18 10 8 11 7 12
REMARK SMILES IDX 6 13 5 14 4 15 3 16 2 17 1 18
REMARK H PARENT
REMARK Flexibility Score: inf
ROOT
ATOM      1  C   UNL     1     -47.030   8.190 -29.396  1.00  0.00     0.000 C 
ENDROOT
BRANCH   1   2
ATOM      2  C   UNL     1     -47.494   9.605 -29.769  1.00  0.00     0.000 C 
BRANCH   2   3
ATOM      3  C   UNL     1     -48.822   9.991 -29.098  1.00  0.00     0.000 C 
BRANCH   3   4
ATOM      4  C   UNL     1     -49.216  11.454 -29.369  1.00  0.00     0.000 C 
BRANCH   4   5
ATOM      5  C   UNL     1     -50.705  11.735 -29.090  1.00  0.00     0.000 C 
BRANCH   5   6
ATOM      6  C   UNL     1     -51.251  13.042 -29.701  1.00  0.00     0.006 C 
BRANCH   6   7
ATOM      7  C   UNL     1     -50.345  13.678 -30.766  1.00  0.00     0.053 C 
BRANCH   7   8
ATOM      8  C   UNL     1     -50.952  14.915 -31.351  1.00  0.00     0.041 C 
ATOM      9  O   UNL     1     -50.266  15.673 -32.086  1.00  0.00    -0.550 OA
ATOM     10  O   UNL     1     -52.287  15.214 -31.110  1.00  0.00    -0.550 OA
ENDBRANCH   7   8
ENDBRANCH   6   7
ENDBRANCH   5   6
ENDBRANCH   4   5
ENDBRANCH   3   4
ENDBRANCH   2   3
ENDBRANCH   1   2
BRANCH   1  11
ATOM     11  C   UNL     1     -48.153   7.169 -29.613  1.00  0.00     0.000 C 
BRANCH  11  12
ATOM     12  C   UNL     1     -47.758   6.131 -30.673  1.00  0.00    -0.000 C 
BRANCH  12  13
ATOM     13  C   UNL     1     -47.759   6.701 -32.104  1.00  0.00    -0.000 C 
BRANCH  13  14
ATOM     14  C   UNL     1     -49.033   7.472 -32.510  1.00  0.00    -0.000 C 
BRANCH  14  15
ATOM     15  C   UNL     1     -48.790   8.882 -33.084  1.00  0.00    -0.000 C 
BRANCH  15  16
ATOM     16  C   UNL     1     -49.904   9.897 -32.739  1.00  0.00    -0.000 C 
BRANCH  16  17
ATOM     17  C   UNL     1     -51.122   9.259 -32.051  1.00  0.00    -0.003 C 
ATOM     18  C   UNL     1     -52.327  10.195 -31.992  1.00  0.00     0.004 C 
ENDBRANCH  16  17
ENDBRANCH  15  16
ENDBRANCH  14  15
ENDBRANCH  13  14
ENDBRANCH  12  13
ENDBRANCH  11  12
ENDBRANCH   1  11
TORSDOF 14
ENDMDL
