MODEL 1
REMARK VINA RESULT:    -3.358      0.000      0.000
REMARK INTER + INTRA:          -5.480
REMARK INTER:                  -5.125
REMARK INTRA:                  -0.355
REMARK UNBOUND:                -0.355
REMARK SMILES CC1=CCC[C@@H](C)C(=O)C[C@H](C(C)C)C(=O)C1
REMARK SMILES IDX 8 1 9 2 6 3 7 4 5 5 4 6 3 7 2 8 1 9 10 11 11 12 15 13 16 14
REMARK SMILES IDX 17 15 12 17 13 18 14 19
REMARK H PARENT
REMARK Flexibility Score: 70.00
ROOT
ATOM      1  C   UNL     1      -0.365   9.517  19.941  1.00  0.00     0.136 C 
ATOM      2  O   UNL     1      -1.216   9.296  20.791  1.00  0.00    -0.299 OA
ENDROOT
BRANCH   1   3
ATOM      3  C   UNL     1       0.361   8.364  19.287  1.00  0.00     0.053 C 
ATOM      4  C   UNL     1       1.450   7.801  20.206  1.00  0.00     0.016 C 
BRANCH   3   5
ATOM      5  C   UNL     1       0.946   8.837  17.934  1.00  0.00     0.015 C 
BRANCH   5   6
ATOM      6  C   UNL     1       2.484   8.816  17.823  1.00  0.00     0.028 C 
BRANCH   6   7
ATOM      7  C   UNL     1       3.145  10.037  17.218  1.00  0.00    -0.028 C 
ATOM      8  C   UNL     1       3.653  11.102  17.885  1.00  0.00    -0.070 CG0
ATOM      9  C   UNL     1       4.362  12.160  17.077  1.00  0.00     0.039 C 
ATOM     10  G   UNL     1       3.492  11.330  19.377  1.00  0.00     0.000 G0
ENDBRANCH   6   7
ENDBRANCH   5   6
ENDBRANCH   3   5
ENDBRANCH   1   3
BRANCH   1  11
ATOM     11  C   UNL     1       0.007  10.946  19.619  1.00  0.00     0.087 C 
BRANCH  11  12
ATOM     12  C   UNL     1       1.134  11.486  20.554  1.00  0.00     0.066 C 
BRANCH  12  13
ATOM     13  C   UNL     1       2.239  12.102  19.703  1.00  0.00     0.140 C 
ATOM     14  O   UNL     1       2.112  13.256  19.318  1.00  0.00    -0.299 OA
BRANCH  13  15
ATOM     15  C   UNL     1       3.522  11.360  19.385  1.00  0.00     0.106 CG0
ATOM     16  G   UNL     1       3.638  11.093  17.895  1.00  0.00     0.000 G0
ENDBRANCH  13  15
ENDBRANCH  12  13
BRANCH  12  17
ATOM     17  C   UNL     1       0.590  12.517  21.598  1.00  0.00    -0.006 C 
ATOM     18  C   UNL     1       0.468  11.902  23.009  1.00  0.00     0.008 C 
ATOM     19  C   UNL     1      -0.794  13.063  21.192  1.00  0.00     0.008 C 
ENDBRANCH  12  17
ENDBRANCH  11  12
ENDBRANCH   1  11
TORSDOF 1
ENDMDL
MODEL 2
REMARK VINA RESULT:    -3.284      2.033      2.539
REMARK INTER + INTRA:          -5.367
REMARK INTER:                  -5.048
REMARK INTRA:                  -0.320
REMARK UNBOUND:                -0.355
REMARK SMILES CC1=CCC[C@@H](C)C(=O)C[C@H](C(C)C)C(=O)C1
REMARK SMILES IDX 8 1 9 2 6 3 7 4 5 5 4 6 3 7 2 8 1 9 10 11 11 12 15 13 16 14
REMARK SMILES IDX 17 15 12 17 13 18 14 19
REMARK H PARENT
REMARK Flexibility Score: 70.00
ROOT
ATOM      1  C   UNL     1       1.123  10.571  19.469  1.00  0.00     0.136 C 
ATOM      2  O   UNL     1       1.509  10.221  20.575  1.00  0.00    -0.299 OA
ENDROOT
BRANCH   1   3
ATOM      3  C   UNL     1       0.884   9.536  18.394  1.00  0.00     0.053 C 
ATOM      4  C   UNL     1      -0.001   8.396  18.909  1.00  0.00     0.016 C 
BRANCH   3   5
ATOM      5  C   UNL     1       2.248   9.012  17.883  1.00  0.00     0.015 C 
BRANCH   5   6
ATOM      6  C   UNL     1       2.695   9.533  16.503  1.00  0.00     0.028 C 
BRANCH   6   7
ATOM      7  C   UNL     1       1.805  10.560  15.835  1.00  0.00    -0.028 C 
ATOM      8  C   UNL     1       2.007  11.899  15.777  1.00  0.00    -0.070 CG0
ATOM      9  C   UNL     1       1.036  12.719  14.966  1.00  0.00     0.039 C 
ATOM     10  G   UNL     1       3.103  12.629  16.533  1.00  0.00     0.000 G0
ENDBRANCH   6   7
ENDBRANCH   5   6
ENDBRANCH   3   5
ENDBRANCH   1   3
BRANCH   1  11
ATOM     11  C   UNL     1       0.974  12.044  19.169  1.00  0.00     0.087 C 
BRANCH  11  12
ATOM     12  C   UNL     1       2.353  12.772  19.093  1.00  0.00     0.066 C 
BRANCH  12  13
ATOM     13  C   UNL     1       2.513  13.401  17.714  1.00  0.00     0.140 C 
ATOM     14  O   UNL     1       2.215  14.578  17.565  1.00  0.00    -0.299 OA
BRANCH  13  15
ATOM     15  C   UNL     1       3.102  12.641  16.543  1.00  0.00     0.106 CG0
ATOM     16  G   UNL     1       2.020  11.895  15.782  1.00  0.00     0.000 G0
ENDBRANCH  13  15
ENDBRANCH  12  13
BRANCH  12  17
ATOM     17  C   UNL     1       2.515  13.845  20.221  1.00  0.00    -0.006 C 
ATOM     18  C   UNL     1       3.488  13.382  21.326  1.00  0.00     0.008 C 
ATOM     19  C   UNL     1       1.164  14.184  20.883  1.00  0.00     0.008 C 
ENDBRANCH  12  17
ENDBRANCH  11  12
ENDBRANCH   1  11
TORSDOF 1
ENDMDL
MODEL 3
REMARK VINA RESULT:    -3.161      3.304      4.989
REMARK INTER + INTRA:          -5.179
REMARK INTER:                  -4.779
REMARK INTRA:                  -0.400
REMARK UNBOUND:                -0.355
REMARK SMILES CC1=CCC[C@@H](C)C(=O)C[C@H](C(C)C)C(=O)C1
REMARK SMILES IDX 8 1 9 2 6 3 7 4 5 5 4 6 3 7 2 8 1 9 10 11 11 12 15 13 16 14
REMARK SMILES IDX 17 15 12 17 13 18 14 19
REMARK H PARENT
REMARK Flexibility Score: 70.00
ROOT
ATOM      1  C   UNL     1       2.687  12.437  23.851  1.00  0.00     0.136 C 
ATOM      2  O   UNL     1       2.324  12.442  25.019  1.00  0.00    -0.299 OA
ENDROOT
BRANCH   1   3
ATOM      3  C   UNL     1       3.852  13.301  23.424  1.00  0.00     0.053 C 
ATOM      4  C   UNL     1       5.134  12.912  24.169  1.00  0.00     0.016 C 
BRANCH   3   5
ATOM      5  C   UNL     1       3.490  14.788  23.653  1.00  0.00     0.015 C 
BRANCH   5   6
ATOM      6  C   UNL     1       3.016  15.564  22.407  1.00  0.00     0.028 C 
BRANCH   6   7
ATOM      7  C   UNL     1       3.600  15.146  21.074  1.00  0.00    -0.028 C 
ATOM      8  C   UNL     1       2.934  14.591  20.032  1.00  0.00    -0.070 CG0
ATOM      9  C   UNL     1       3.705  14.350  18.759  1.00  0.00     0.039 C 
ATOM     10  G   UNL     1       1.488  14.134  20.090  1.00  0.00     0.000 G0
ENDBRANCH   6   7
ENDBRANCH   5   6
ENDBRANCH   3   5
ENDBRANCH   1   3
BRANCH   1  11
ATOM     11  C   UNL     1       1.910  11.631  22.837  1.00  0.00     0.087 C 
BRANCH  11  12
ATOM     12  C   UNL     1       0.858  12.498  22.077  1.00  0.00     0.066 C 
BRANCH  12  13
ATOM     13  C   UNL     1       1.341  12.739  20.652  1.00  0.00     0.140 C 
ATOM     14  O   UNL     1       1.565  11.773  19.934  1.00  0.00    -0.299 OA
BRANCH  13  15
ATOM     15  C   UNL     1       1.479  14.131  20.069  1.00  0.00     0.106 CG0
ATOM     16  G   UNL     1       2.933  14.565  20.038  1.00  0.00     0.000 G0
ENDBRANCH  13  15
ENDBRANCH  12  13
BRANCH  12  17
ATOM     17  C   UNL     1      -0.562  11.841  22.084  1.00  0.00    -0.006 C 
ATOM     18  C   UNL     1      -1.670  12.850  21.717  1.00  0.00     0.008 C 
ATOM     19  C   UNL     1      -0.903  11.236  23.461  1.00  0.00     0.008 C 
ENDBRANCH  12  17
ENDBRANCH  11  12
ENDBRANCH   1  11
TORSDOF 1
ENDMDL
MODEL 4
REMARK VINA RESULT:    -3.139      2.254      3.698
REMARK INTER + INTRA:          -5.146
REMARK INTER:                  -4.884
REMARK INTRA:                  -0.262
REMARK UNBOUND:                -0.355
REMARK SMILES CC1=CCC[C@@H](C)C(=O)C[C@H](C(C)C)C(=O)C1
REMARK SMILES IDX 8 1 9 2 6 3 7 4 5 5 4 6 3 7 2 8 1 9 10 11 11 12 15 13 16 14
REMARK SMILES IDX 17 15 12 17 13 18 14 19
REMARK H PARENT
REMARK Flexibility Score: 70.00
ROOT
ATOM      1  C   UNL     1      -0.432  13.076  18.328  1.00  0.00     0.136 C 
ATOM      2  O   UNL     1      -1.626  13.251  18.132  1.00  0.00    -0.299 OA
ENDROOT
BRANCH   1   3
ATOM      3  C   UNL     1       0.582  13.706  17.401  1.00  0.00     0.053 C 
ATOM      4  C   UNL     1       0.364  15.219  17.287  1.00  0.00     0.016 C 
BRANCH   3   5
ATOM      5  C   UNL     1       0.502  13.014  16.018  1.00  0.00     0.015 C 
BRANCH   5   6
ATOM      6  C   UNL     1       1.799  12.337  15.530  1.00  0.00     0.028 C 
BRANCH   6   7
ATOM      7  C   UNL     1       3.053  12.589  16.341  1.00  0.00    -0.028 C 
ATOM      8  C   UNL     1       3.604  11.764  17.263  1.00  0.00    -0.070 CG0
ATOM      9  C   UNL     1       4.919  12.179  17.875  1.00  0.00     0.039 C 
ATOM     10  G   UNL     1       2.950  10.492  17.770  1.00  0.00     0.000 G0
ENDBRANCH   6   7
ENDBRANCH   5   6
ENDBRANCH   3   5
ENDBRANCH   1   3
BRANCH   1  11
ATOM     11  C   UNL     1       0.009  12.160  19.446  1.00  0.00     0.087 C 
BRANCH  11  12
ATOM     12  C   UNL     1       0.544  10.795  18.913  1.00  0.00     0.066 C 
BRANCH  12  13
ATOM     13  C   UNL     1       2.066  10.786  18.996  1.00  0.00     0.140 C 
ATOM     14  O   UNL     1       2.599  10.960  20.084  1.00  0.00    -0.299 OA
BRANCH  13  15
ATOM     15  C   UNL     1       2.940  10.493  17.793  1.00  0.00     0.106 CG0
ATOM     16  G   UNL     1       3.579  11.764  17.263  1.00  0.00     0.000 G0
ENDBRANCH  13  15
ENDBRANCH  12  13
BRANCH  12  17
ATOM     17  C   UNL     1      -0.066   9.580  19.688  1.00  0.00    -0.006 C 
ATOM     18  C   UNL     1      -0.209   8.333  18.790  1.00  0.00     0.008 C 
ATOM     19  C   UNL     1      -1.455   9.914  20.269  1.00  0.00     0.008 C 
ENDBRANCH  12  17
ENDBRANCH  11  12
ENDBRANCH   1  11
TORSDOF 1
ENDMDL
MODEL 5
REMARK VINA RESULT:    -3.111      2.027      4.222
REMARK INTER + INTRA:          -5.103
REMARK INTER:                  -4.898
REMARK INTRA:                  -0.206
REMARK UNBOUND:                -0.355
REMARK SMILES CC1=CCC[C@@H](C)C(=O)C[C@H](C(C)C)C(=O)C1
REMARK SMILES IDX 8 1 9 2 6 3 7 4 5 5 4 6 3 7 2 8 1 9 10 11 11 12 15 13 16 14
REMARK SMILES IDX 17 15 12 17 13 18 14 19
REMARK H PARENT
REMARK Flexibility Score: 70.00
ROOT
ATOM      1  C   UNL     1       0.317   9.210  19.116  1.00  0.00     0.136 C 
ATOM      2  O   UNL     1      -0.314   8.282  18.631  1.00  0.00    -0.299 OA
ENDROOT
BRANCH   1   3
ATOM      3  C   UNL     1      -0.155   9.848  20.402  1.00  0.00     0.053 C 
ATOM      4  C   UNL     1      -0.317   8.804  21.513  1.00  0.00     0.016 C 
BRANCH   3   5
ATOM      5  C   UNL     1      -1.478  10.606  20.136  1.00  0.00     0.015 C 
BRANCH   5   6
ATOM      6  C   UNL     1      -1.383  12.145  20.136  1.00  0.00     0.028 C 
BRANCH   6   7
ATOM      7  C   UNL     1      -0.355  12.770  21.056  1.00  0.00    -0.028 C 
ATOM      8  C   UNL     1       0.780  13.414  20.690  1.00  0.00    -0.070 CG0
ATOM      9  C   UNL     1       1.606  14.049  21.780  1.00  0.00     0.039 C 
ATOM     10  G   UNL     1       1.306  13.473  19.267  1.00  0.00     0.000 G0
ENDBRANCH   6   7
ENDBRANCH   5   6
ENDBRANCH   3   5
ENDBRANCH   1   3
BRANCH   1  11
ATOM     11  C   UNL     1       1.512   9.761  18.374  1.00  0.00     0.087 C 
BRANCH  11  12
ATOM     12  C   UNL     1       1.276  11.222  17.878  1.00  0.00     0.066 C 
BRANCH  12  13
ATOM     13  C   UNL     1       1.959  12.193  18.834  1.00  0.00     0.140 C 
ATOM     14  O   UNL     1       3.093  11.942  19.219  1.00  0.00    -0.299 OA
BRANCH  13  15
ATOM     15  C   UNL     1       1.312  13.495  19.263  1.00  0.00     0.106 CG0
ATOM     16  G   UNL     1       0.809  13.406  20.693  1.00  0.00     0.000 G0
ENDBRANCH  13  15
ENDBRANCH  12  13
BRANCH  12  17
ATOM     17  C   UNL     1       1.778  11.434  16.411  1.00  0.00    -0.006 C 
ATOM     18  C   UNL     1       0.881  12.416  15.629  1.00  0.00     0.008 C 
ATOM     19  C   UNL     1       1.830  10.106  15.629  1.00  0.00     0.008 C 
ENDBRANCH  12  17
ENDBRANCH  11  12
ENDBRANCH   1  11
TORSDOF 1
ENDMDL
MODEL 6
REMARK VINA RESULT:    -3.089      4.073      5.384
REMARK INTER + INTRA:          -5.069
REMARK INTER:                  -4.652
REMARK INTRA:                  -0.416
REMARK UNBOUND:                -0.355
REMARK SMILES CC1=CCC[C@@H](C)C(=O)C[C@H](C(C)C)C(=O)C1
REMARK SMILES IDX 8 1 9 2 6 3 7 4 5 5 4 6 3 7 2 8 1 9 10 11 11 12 15 13 16 14
REMARK SMILES IDX 17 15 12 17 13 18 14 19
REMARK H PARENT
REMARK Flexibility Score: 70.00
ROOT
ATOM      1  C   UNL     1       0.433  11.917  22.516  1.00  0.00     0.136 C 
ATOM      2  O   UNL     1      -0.681  12.404  22.385  1.00  0.00    -0.299 OA
ENDROOT
BRANCH   1   3
ATOM      3  C   UNL     1       0.645  10.777  23.485  1.00  0.00     0.053 C 
ATOM      4  C   UNL     1      -0.285   9.600  23.170  1.00  0.00     0.016 C 
BRANCH   3   5
ATOM      5  C   UNL     1       0.437  11.295  24.929  1.00  0.00     0.015 C 
BRANCH   5   6
ATOM      6  C   UNL     1       1.723  11.560  25.739  1.00  0.00     0.028 C 
BRANCH   6   7
ATOM      7  C   UNL     1       2.989  10.881  25.261  1.00  0.00    -0.028 C 
ATOM      8  C   UNL     1       4.087  11.480  24.740  1.00  0.00    -0.070 CG0
ATOM      9  C   UNL     1       5.277  10.608  24.426  1.00  0.00     0.039 C 
ATOM     10  G   UNL     1       4.168  12.955  24.389  1.00  0.00     0.000 G0
ENDBRANCH   6   7
ENDBRANCH   5   6
ENDBRANCH   3   5
ENDBRANCH   1   3
BRANCH   1  11
ATOM     11  C   UNL     1       1.598  12.521  21.767  1.00  0.00     0.087 C 
BRANCH  11  12
ATOM     12  C   UNL     1       2.309  13.641  22.588  1.00  0.00     0.066 C 
BRANCH  12  13
ATOM     13  C   UNL     1       3.723  13.189  22.934  1.00  0.00     0.140 C 
ATOM     14  O   UNL     1       4.541  13.068  22.031  1.00  0.00    -0.299 OA
BRANCH  13  15
ATOM     15  C   UNL     1       4.172  12.960  24.363  1.00  0.00     0.106 CG0
ATOM     16  G   UNL     1       4.078  11.491  24.733  1.00  0.00     0.000 G0
ENDBRANCH  13  15
ENDBRANCH  12  13
BRANCH  12  17
ATOM     17  C   UNL     1       2.328  15.008  21.826  1.00  0.00    -0.006 C 
ATOM     18  C   UNL     1       2.678  16.186  22.759  1.00  0.00     0.008 C 
ATOM     19  C   UNL     1       0.968  15.310  21.164  1.00  0.00     0.008 C 
ENDBRANCH  12  17
ENDBRANCH  11  12
ENDBRANCH   1  11
TORSDOF 1
ENDMDL
MODEL 7
REMARK VINA RESULT:    -3.076      2.973      5.038
REMARK INTER + INTRA:          -5.049
REMARK INTER:                  -4.720
REMARK INTRA:                  -0.329
REMARK UNBOUND:                -0.355
REMARK SMILES CC1=CCC[C@@H](C)C(=O)C[C@H](C(C)C)C(=O)C1
REMARK SMILES IDX 8 1 9 2 6 3 7 4 5 5 4 6 3 7 2 8 1 9 10 11 11 12 15 13 16 14
REMARK SMILES IDX 17 15 12 17 13 18 14 19
REMARK H PARENT
REMARK Flexibility Score: 70.00
ROOT
ATOM      1  C   UNL     1       2.784  15.626  18.965  1.00  0.00     0.136 C 
ATOM      2  O   UNL     1       3.252  16.751  19.071  1.00  0.00    -0.299 OA
ENDROOT
BRANCH   1   3
ATOM      3  C   UNL     1       2.185  15.183  17.649  1.00  0.00     0.053 C 
ATOM      4  C   UNL     1       0.698  15.545  17.567  1.00  0.00     0.016 C 
BRANCH   3   5
ATOM      5  C   UNL     1       2.411  13.661  17.477  1.00  0.00     0.015 C 
BRANCH   5   6
ATOM      6  C   UNL     1       1.148  12.781  17.559  1.00  0.00     0.028 C 
BRANCH   6   7
ATOM      7  C   UNL     1       1.243  11.520  18.392  1.00  0.00    -0.028 C 
ATOM      8  C   UNL     1       0.696  11.308  19.613  1.00  0.00    -0.070 CG0
ATOM      9  C   UNL     1       0.833   9.931  20.212  1.00  0.00     0.039 C 
ATOM     10  G   UNL     1       0.019  12.385  20.443  1.00  0.00     0.000 G0
ENDBRANCH   6   7
ENDBRANCH   5   6
ENDBRANCH   3   5
ENDBRANCH   1   3
BRANCH   1  11
ATOM     11  C   UNL     1       2.736  14.727  20.177  1.00  0.00     0.087 C 
BRANCH  11  12
ATOM     12  C   UNL     1       1.310  14.666  20.809  1.00  0.00     0.066 C 
BRANCH  12  13
ATOM     13  C   UNL     1       1.002  13.229  21.214  1.00  0.00     0.140 C 
ATOM     14  O   UNL     1       1.535  12.771  22.216  1.00  0.00    -0.299 OA
BRANCH  13  15
ATOM     15  C   UNL     1      -0.000  12.375  20.463  1.00  0.00     0.106 CG0
ATOM     16  G   UNL     1       0.703  11.316  19.633  1.00  0.00     0.000 G0
ENDBRANCH  13  15
ENDBRANCH  12  13
BRANCH  12  17
ATOM     17  C   UNL     1       1.165  15.636  22.029  1.00  0.00    -0.006 C 
ATOM     18  C   UNL     1       0.418  16.932  21.652  1.00  0.00     0.008 C 
ATOM     19  C   UNL     1       2.538  16.026  22.613  1.00  0.00     0.008 C 
ENDBRANCH  12  17
ENDBRANCH  11  12
ENDBRANCH   1  11
TORSDOF 1
ENDMDL
MODEL 8
REMARK VINA RESULT:    -3.037      2.279      3.703
REMARK INTER + INTRA:          -4.990
REMARK INTER:                  -4.706
REMARK INTRA:                  -0.284
REMARK UNBOUND:                -0.355
REMARK SMILES CC1=CCC[C@@H](C)C(=O)C[C@H](C(C)C)C(=O)C1
REMARK SMILES IDX 8 1 9 2 6 3 7 4 5 5 4 6 3 7 2 8 1 9 10 11 11 12 15 13 16 14
REMARK SMILES IDX 17 15 12 17 13 18 14 19
REMARK H PARENT
REMARK Flexibility Score: 70.00
ROOT
ATOM      1  C   UNL     1       1.568  10.669  17.225  1.00  0.00     0.136 C 
ATOM      2  O   UNL     1       1.317  10.561  16.033  1.00  0.00    -0.299 OA
ENDROOT
BRANCH   1   3
ATOM      3  C   UNL     1       1.879   9.436  18.042  1.00  0.00     0.053 C 
ATOM      4  C   UNL     1       2.870   8.523  17.311  1.00  0.00     0.016 C 
BRANCH   3   5
ATOM      5  C   UNL     1       0.558   8.698  18.368  1.00  0.00     0.015 C 
BRANCH   5   6
ATOM      6  C   UNL     1       0.193   8.605  19.864  1.00  0.00     0.028 C 
BRANCH   6   7
ATOM      7  C   UNL     1       1.269   8.984  20.859  1.00  0.00    -0.028 C 
ATOM      8  C   UNL     1       1.330  10.118  21.599  1.00  0.00    -0.070 CG0
ATOM      9  C   UNL     1       2.445  10.236  22.607  1.00  0.00     0.039 C 
ATOM     10  G   UNL     1       0.392  11.300  21.427  1.00  0.00     0.000 G0
ENDBRANCH   6   7
ENDBRANCH   5   6
ENDBRANCH   3   5
ENDBRANCH   1   3
BRANCH   1  11
ATOM     11  C   UNL     1       1.477  12.027  17.881  1.00  0.00     0.087 C 
BRANCH  11  12
ATOM     12  C   UNL     1       0.297  12.113  18.899  1.00  0.00     0.066 C 
BRANCH  12  13
ATOM     13  C   UNL     1       0.860  12.217  20.311  1.00  0.00     0.140 C 
ATOM     14  O   UNL     1       1.670  13.099  20.560  1.00  0.00    -0.299 OA
BRANCH  13  15
ATOM     15  C   UNL     1       0.392  11.314  21.436  1.00  0.00     0.106 CG0
ATOM     16  G   UNL     1       1.313  10.117  21.589  1.00  0.00     0.000 G0
ENDBRANCH  13  15
ENDBRANCH  12  13
BRANCH  12  17
ATOM     17  C   UNL     1      -0.663  13.309  18.588  1.00  0.00    -0.006 C 
ATOM     18  C   UNL     1      -2.141  12.948  18.844  1.00  0.00     0.008 C 
ATOM     19  C   UNL     1      -0.531  13.781  17.126  1.00  0.00     0.008 C 
ENDBRANCH  12  17
ENDBRANCH  11  12
ENDBRANCH   1  11
TORSDOF 1
ENDMDL
MODEL 9
REMARK VINA RESULT:    -2.897      2.892      5.709
REMARK INTER + INTRA:          -4.776
REMARK INTER:                  -4.370
REMARK INTRA:                  -0.406
REMARK UNBOUND:                -0.355
REMARK SMILES CC1=CCC[C@@H](C)C(=O)C[C@H](C(C)C)C(=O)C1
REMARK SMILES IDX 8 1 9 2 6 3 7 4 5 5 4 6 3 7 2 8 1 9 10 11 11 12 15 13 16 14
REMARK SMILES IDX 17 15 12 17 13 18 14 19
REMARK H PARENT
REMARK Flexibility Score: 70.00
ROOT
ATOM      1  C   UNL     1       1.198  13.734  21.474  1.00  0.00     0.136 C 
ATOM      2  O   UNL     1       1.193  13.985  20.277  1.00  0.00    -0.299 OA
ENDROOT
BRANCH   1   3
ATOM      3  C   UNL     1       2.125  14.492  22.397  1.00  0.00     0.053 C 
ATOM      4  C   UNL     1       1.870  16.001  22.321  1.00  0.00     0.016 C 
BRANCH   3   5
ATOM      5  C   UNL     1       3.590  14.143  22.040  1.00  0.00     0.015 C 
BRANCH   5   6
ATOM      6  C   UNL     1       4.212  12.970  22.825  1.00  0.00     0.028 C 
BRANCH   6   7
ATOM      7  C   UNL     1       3.594  12.637  24.167  1.00  0.00    -0.028 C 
ATOM      8  C   UNL     1       2.980  11.481  24.515  1.00  0.00    -0.070 CG0
ATOM      9  C   UNL     1       2.529  11.332  25.947  1.00  0.00     0.039 C 
ATOM     10  G   UNL     1       2.654  10.361  23.543  1.00  0.00     0.000 G0
ENDBRANCH   6   7
ENDBRANCH   5   6
ENDBRANCH   3   5
ENDBRANCH   1   3
BRANCH   1  11
ATOM     11  C   UNL     1       0.336  12.609  21.998  1.00  0.00     0.087 C 
BRANCH  11  12
ATOM     12  C   UNL     1       0.948  11.206  21.691  1.00  0.00     0.066 C 
BRANCH  12  13
ATOM     13  C   UNL     1       1.243  10.489  23.004  1.00  0.00     0.140 C 
ATOM     14  O   UNL     1       0.321   9.955  23.604  1.00  0.00    -0.299 OA
BRANCH  13  15
ATOM     15  C   UNL     1       2.650  10.349  23.549  1.00  0.00     0.106 CG0
ATOM     16  G   UNL     1       2.968  11.469  24.524  1.00  0.00     0.000 G0
ENDBRANCH  13  15
ENDBRANCH  12  13
BRANCH  12  17
ATOM     17  C   UNL     1       0.014  10.343  20.779  1.00  0.00    -0.006 C 
ATOM     18  C   UNL     1       0.583  10.185  19.353  1.00  0.00     0.008 C 
ATOM     19  C   UNL     1      -1.397  10.956  20.667  1.00  0.00     0.008 C 
ENDBRANCH  12  17
ENDBRANCH  11  12
ENDBRANCH   1  11
TORSDOF 1
ENDMDL
