MODEL 1
REMARK VINA RESULT:    -3.999      0.000      0.000
REMARK INTER + INTRA:          -5.091
REMARK INTER:                  -4.934
REMARK INTRA:                  -0.157
REMARK UNBOUND:                -0.157
REMARK SMILES CCCCCC(=O)[O-]
REMARK SMILES IDX 4 1 5 2 6 3 7 4 8 5 3 6 2 7 1 8
REMARK H PARENT
REMARK Flexibility Score: inf
ROOT
ATOM      1  C   UNL     1      15.288  17.056  38.403  1.00  0.00     0.006 C 
ENDROOT
BRANCH   1   2
ATOM      2  C   UNL     1      15.840  15.638  38.234  1.00  0.00     0.053 C 
BRANCH   2   3
ATOM      3  C   UNL     1      14.756  14.702  37.799  1.00  0.00     0.041 C 
ATOM      4  O   UNL     1      14.627  13.580  38.355  1.00  0.00    -0.550 OA
ATOM      5  O   UNL     1      13.920  15.049  36.746  1.00  0.00    -0.550 OA
ENDBRANCH   2   3
ENDBRANCH   1   2
BRANCH   1   6
ATOM      6  C   UNL     1      16.117  18.068  37.597  1.00  0.00     0.000 C 
BRANCH   6   7
ATOM      7  C   UNL     1      17.103  17.391  36.634  1.00  0.00    -0.003 C 
ATOM      8  C   UNL     1      17.541  18.311  35.494  1.00  0.00     0.004 C 
ENDBRANCH   6   7
ENDBRANCH   1   6
TORSDOF 4
ENDMDL
MODEL 2
REMARK VINA RESULT:    -3.930      0.179      1.159
REMARK INTER + INTRA:          -5.006
REMARK INTER:                  -4.850
REMARK INTRA:                  -0.156
REMARK UNBOUND:                -0.157
REMARK SMILES CCCCCC(=O)[O-]
REMARK SMILES IDX 4 1 5 2 6 3 7 4 8 5 3 6 2 7 1 8
REMARK H PARENT
REMARK Flexibility Score: inf
ROOT
ATOM      1  C   UNL     1      15.184  17.043  38.300  1.00  0.00     0.006 C 
ENDROOT
BRANCH   1   2
ATOM      2  C   UNL     1      15.804  15.646  38.380  1.00  0.00     0.053 C 
BRANCH   2   3
ATOM      3  C   UNL     1      14.839  14.615  37.887  1.00  0.00     0.041 C 
ATOM      4  O   UNL     1      14.106  14.857  36.893  1.00  0.00    -0.550 OA
ATOM      5  O   UNL     1      14.713  13.404  38.556  1.00  0.00    -0.550 OA
ENDBRANCH   2   3
ENDBRANCH   1   2
BRANCH   1   6
ATOM      6  C   UNL     1      16.131  18.026  37.595  1.00  0.00     0.000 C 
BRANCH   6   7
ATOM      7  C   UNL     1      17.028  17.339  36.554  1.00  0.00    -0.003 C 
ATOM      8  C   UNL     1      17.580  18.314  35.514  1.00  0.00     0.004 C 
ENDBRANCH   6   7
ENDBRANCH   1   6
TORSDOF 4
ENDMDL
MODEL 3
REMARK VINA RESULT:    -3.814      1.168      1.649
REMARK INTER + INTRA:          -4.863
REMARK INTER:                  -4.724
REMARK INTRA:                  -0.139
REMARK UNBOUND:                -0.157
REMARK SMILES CCCCCC(=O)[O-]
REMARK SMILES IDX 4 1 5 2 6 3 7 4 8 5 3 6 2 7 1 8
REMARK H PARENT
REMARK Flexibility Score: inf
ROOT
ATOM      1  C   UNL     1      16.634  16.260  36.884  1.00  0.00     0.006 C 
ENDROOT
BRANCH   1   2
ATOM      2  C   UNL     1      15.832  15.683  38.053  1.00  0.00     0.053 C 
BRANCH   2   3
ATOM      3  C   UNL     1      14.365  15.758  37.770  1.00  0.00     0.041 C 
ATOM      4  O   UNL     1      13.875  15.131  36.794  1.00  0.00    -0.550 OA
ATOM      5  O   UNL     1      13.545  16.558  38.555  1.00  0.00    -0.550 OA
ENDBRANCH   2   3
ENDBRANCH   1   2
BRANCH   1   6
ATOM      6  C   UNL     1      16.657  17.795  36.937  1.00  0.00     0.000 C 
BRANCH   6   7
ATOM      7  C   UNL     1      17.190  18.424  35.641  1.00  0.00    -0.003 C 
ATOM      8  C   UNL     1      17.478  17.385  34.556  1.00  0.00     0.004 C 
ENDBRANCH   6   7
ENDBRANCH   1   6
TORSDOF 4
ENDMDL
MODEL 4
REMARK VINA RESULT:    -3.741      8.059      8.388
REMARK INTER + INTRA:          -4.772
REMARK INTER:                  -4.698
REMARK INTRA:                  -0.074
REMARK UNBOUND:                -0.157
REMARK SMILES CCCCCC(=O)[O-]
REMARK SMILES IDX 4 1 5 2 6 3 7 4 8 5 3 6 2 7 1 8
REMARK H PARENT
REMARK Flexibility Score: inf
ROOT
ATOM      1  C   UNL     1       8.253  18.208  33.593  1.00  0.00     0.006 C 
ENDROOT
BRANCH   1   2
ATOM      2  C   UNL     1       8.034  18.960  34.909  1.00  0.00     0.053 C 
BRANCH   2   3
ATOM      3  C   UNL     1       8.328  18.070  36.076  1.00  0.00     0.041 C 
ATOM      4  O   UNL     1       8.755  16.900  35.889  1.00  0.00    -0.550 OA
ATOM      5  O   UNL     1       8.083  18.515  37.368  1.00  0.00    -0.550 OA
ENDBRANCH   2   3
ENDBRANCH   1   2
BRANCH   1   6
ATOM      6  C   UNL     1       9.329  18.896  32.739  1.00  0.00     0.000 C 
BRANCH   6   7
ATOM      7  C   UNL     1       9.015  18.841  31.237  1.00  0.00    -0.003 C 
ATOM      8  C   UNL     1       9.788  17.738  30.512  1.00  0.00     0.004 C 
ENDBRANCH   6   7
ENDBRANCH   1   6
TORSDOF 4
ENDMDL
MODEL 5
REMARK VINA RESULT:    -3.711      2.780      4.221
REMARK INTER + INTRA:          -4.736
REMARK INTER:                  -4.613
REMARK INTRA:                  -0.122
REMARK UNBOUND:                -0.157
REMARK SMILES CCCCCC(=O)[O-]
REMARK SMILES IDX 4 1 5 2 6 3 7 4 8 5 3 6 2 7 1 8
REMARK H PARENT
REMARK Flexibility Score: inf
ROOT
ATOM      1  C   UNL     1      17.198  17.576  36.729  1.00  0.00     0.006 C 
ENDROOT
BRANCH   1   2
ATOM      2  C   UNL     1      17.103  18.204  35.336  1.00  0.00     0.053 C 
BRANCH   2   3
ATOM      3  C   UNL     1      17.661  17.275  34.304  1.00  0.00     0.041 C 
ATOM      4  O   UNL     1      17.709  16.037  34.525  1.00  0.00    -0.550 OA
ATOM      5  O   UNL     1      18.173  17.783  33.116  1.00  0.00    -0.550 OA
ENDBRANCH   2   3
ENDBRANCH   1   2
BRANCH   1   6
ATOM      6  C   UNL     1      16.147  18.175  37.675  1.00  0.00     0.000 C 
BRANCH   6   7
ATOM      7  C   UNL     1      15.368  17.102  38.450  1.00  0.00    -0.003 C 
ATOM      8  C   UNL     1      15.784  15.680  38.069  1.00  0.00     0.004 C 
ENDBRANCH   6   7
ENDBRANCH   1   6
TORSDOF 4
ENDMDL
MODEL 6
REMARK VINA RESULT:    -3.677      3.288      4.651
REMARK INTER + INTRA:          -4.693
REMARK INTER:                  -4.584
REMARK INTRA:                  -0.109
REMARK UNBOUND:                -0.157
REMARK SMILES CCCCCC(=O)[O-]
REMARK SMILES IDX 4 1 5 2 6 3 7 4 8 5 3 6 2 7 1 8
REMARK H PARENT
REMARK Flexibility Score: inf
ROOT
ATOM      1  C   UNL     1      17.216  18.216  35.420  1.00  0.00     0.006 C 
ENDROOT
BRANCH   1   2
ATOM      2  C   UNL     1      17.668  17.325  34.259  1.00  0.00     0.053 C 
BRANCH   2   3
ATOM      3  C   UNL     1      18.971  16.665  34.581  1.00  0.00     0.041 C 
ATOM      4  O   UNL     1      19.074  15.411  34.538  1.00  0.00    -0.550 OA
ATOM      5  O   UNL     1      20.060  17.432  34.975  1.00  0.00    -0.550 OA
ENDBRANCH   2   3
ENDBRANCH   1   2
BRANCH   1   6
ATOM      6  C   UNL     1      16.897  17.375  36.665  1.00  0.00     0.000 C 
BRANCH   6   7
ATOM      7  C   UNL     1      16.086  18.154  37.712  1.00  0.00    -0.003 C 
ATOM      8  C   UNL     1      15.356  17.238  38.695  1.00  0.00     0.004 C 
ENDBRANCH   6   7
ENDBRANCH   1   6
TORSDOF 4
ENDMDL
MODEL 7
REMARK VINA RESULT:    -3.650      4.055      5.057
REMARK INTER + INTRA:          -4.660
REMARK INTER:                  -4.449
REMARK INTRA:                  -0.211
REMARK UNBOUND:                -0.157
REMARK SMILES CCCCCC(=O)[O-]
REMARK SMILES IDX 4 1 5 2 6 3 7 4 8 5 3 6 2 7 1 8
REMARK H PARENT
REMARK Flexibility Score: inf
ROOT
ATOM      1  C   UNL     1      17.484  16.450  34.986  1.00  0.00     0.006 C 
ENDROOT
BRANCH   1   2
ATOM      2  C   UNL     1      18.844  15.795  34.729  1.00  0.00     0.053 C 
BRANCH   2   3
ATOM      3  C   UNL     1      19.843  16.818  34.291  1.00  0.00     0.041 C 
ATOM      4  O   UNL     1      20.227  17.713  35.090  1.00  0.00    -0.550 OA
ATOM      5  O   UNL     1      20.315  16.814  32.984  1.00  0.00    -0.550 OA
ENDBRANCH   2   3
ENDBRANCH   1   2
BRANCH   1   6
ATOM      6  C   UNL     1      17.158  16.469  36.487  1.00  0.00     0.000 C 
BRANCH   6   7
ATOM      7  C   UNL     1      16.623  17.829  36.959  1.00  0.00    -0.003 C 
ATOM      8  C   UNL     1      16.880  18.947  35.948  1.00  0.00     0.004 C 
ENDBRANCH   6   7
ENDBRANCH   1   6
TORSDOF 4
ENDMDL
MODEL 8
REMARK VINA RESULT:    -3.561      3.702      5.280
REMARK INTER + INTRA:          -4.551
REMARK INTER:                  -4.330
REMARK INTRA:                  -0.221
REMARK UNBOUND:                -0.157
REMARK SMILES CCCCCC(=O)[O-]
REMARK SMILES IDX 4 1 5 2 6 3 7 4 8 5 3 6 2 7 1 8
REMARK H PARENT
REMARK Flexibility Score: inf
ROOT
ATOM      1  C   UNL     1      19.709  18.298  34.380  1.00  0.00     0.006 C 
ENDROOT
BRANCH   1   2
ATOM      2  C   UNL     1      18.331  17.987  34.971  1.00  0.00     0.053 C 
BRANCH   2   3
ATOM      3  C   UNL     1      18.190  16.520  35.230  1.00  0.00     0.041 C 
ATOM      4  O   UNL     1      18.828  15.689  34.530  1.00  0.00    -0.550 OA
ATOM      5  O   UNL     1      17.318  16.068  36.211  1.00  0.00    -0.550 OA
ENDBRANCH   2   3
ENDBRANCH   1   2
BRANCH   1   6
ATOM      6  C   UNL     1      19.586  18.811  32.938  1.00  0.00     0.000 C 
BRANCH   6   7
ATOM      7  C   UNL     1      20.227  17.860  31.916  1.00  0.00    -0.003 C 
ATOM      8  C   UNL     1      21.419  17.092  32.491  1.00  0.00     0.004 C 
ENDBRANCH   6   7
ENDBRANCH   1   6
TORSDOF 4
ENDMDL
MODEL 9
REMARK VINA RESULT:    -3.560      4.151      5.548
REMARK INTER + INTRA:          -4.549
REMARK INTER:                  -4.337
REMARK INTRA:                  -0.211
REMARK UNBOUND:                -0.157
REMARK SMILES CCCCCC(=O)[O-]
REMARK SMILES IDX 4 1 5 2 6 3 7 4 8 5 3 6 2 7 1 8
REMARK H PARENT
REMARK Flexibility Score: inf
ROOT
ATOM      1  C   UNL     1      18.411  18.064  34.364  1.00  0.00     0.006 C 
ENDROOT
BRANCH   1   2
ATOM      2  C   UNL     1      19.874  18.183  34.798  1.00  0.00     0.053 C 
BRANCH   2   3
ATOM      3  C   UNL     1      20.602  16.900  34.547  1.00  0.00     0.041 C 
ATOM      4  O   UNL     1      19.964  15.862  34.228  1.00  0.00    -0.550 OA
ATOM      5  O   UNL     1      21.980  16.838  34.711  1.00  0.00    -0.550 OA
ENDBRANCH   2   3
ENDBRANCH   1   2
BRANCH   1   6
ATOM      6  C   UNL     1      17.472  18.654  35.427  1.00  0.00     0.000 C 
BRANCH   6   7
ATOM      7  C   UNL     1      17.287  17.723  36.634  1.00  0.00    -0.003 C 
ATOM      8  C   UNL     1      17.023  16.273  36.227  1.00  0.00     0.004 C 
ENDBRANCH   6   7
ENDBRANCH   1   6
TORSDOF 4
ENDMDL
