MODEL 1
REMARK VINA RESULT:    -3.603      0.000      0.000
REMARK INTER + INTRA:          -6.337
REMARK INTER:                  -5.499
REMARK INTRA:                  -0.838
REMARK UNBOUND:                -0.838
REMARK SMILES O=C([O-])CCCCCCCCC(=O)[O-]
REMARK SMILES IDX 7 1 6 2 5 3 4 4 2 5 1 6 3 7 8 8 9 9 10 10 11 11 12 12 13 13
REMARK SMILES IDX 14 14
REMARK H PARENT
REMARK Flexibility Score: inf
ROOT
ATOM      1  C   UNL     1      18.657 131.728  66.424  1.00  0.00     0.000 C 
ENDROOT
BRANCH   1   2
ATOM      2  C   UNL     1      17.869 131.904  65.121  1.00  0.00     0.000 C 
BRANCH   2   3
ATOM      3  C   UNL     1      18.242 130.817  64.101  1.00  0.00     0.006 C 
BRANCH   3   4
ATOM      4  C   UNL     1      19.120 129.719  64.717  1.00  0.00     0.053 C 
BRANCH   4   5
ATOM      5  C   UNL     1      18.981 128.420  63.985  1.00  0.00     0.041 C 
ATOM      6  O   UNL     1      20.003 127.818  63.562  1.00  0.00    -0.550 OA
ATOM      7  O   UNL     1      17.725 127.856  63.800  1.00  0.00    -0.550 OA
ENDBRANCH   4   5
ENDBRANCH   3   4
ENDBRANCH   2   3
ENDBRANCH   1   2
BRANCH   1   8
ATOM      8  C   UNL     1      17.716 131.455  67.604  1.00  0.00     0.000 C 
BRANCH   8   9
ATOM      9  C   UNL     1      16.247 131.606  67.181  1.00  0.00     0.000 C 
BRANCH   9  10
ATOM     10  C   UNL     1      15.440 130.306  67.353  1.00  0.00     0.006 C 
BRANCH  10  11
ATOM     11  C   UNL     1      15.570 129.320  66.182  1.00  0.00     0.053 C 
BRANCH  11  12
ATOM     12  C   UNL     1      15.227 127.919  66.585  1.00  0.00     0.041 C 
ATOM     13  O   UNL     1      15.172 127.605  67.803  1.00  0.00    -0.550 OA
ATOM     14  O   UNL     1      15.003 126.951  65.614  1.00  0.00    -0.550 OA
ENDBRANCH  11  12
ENDBRANCH  10  11
ENDBRANCH   9  10
ENDBRANCH   8   9
ENDBRANCH   1   8
TORSDOF 9
ENDMDL
MODEL 2
REMARK VINA RESULT:    -3.429      4.723      6.148
REMARK INTER + INTRA:          -6.071
REMARK INTER:                  -5.631
REMARK INTRA:                  -0.440
REMARK UNBOUND:                -0.838
REMARK SMILES O=C([O-])CCCCCCCCC(=O)[O-]
REMARK SMILES IDX 7 1 6 2 5 3 4 4 2 5 1 6 3 7 8 8 9 9 10 10 11 11 12 12 13 13
REMARK SMILES IDX 14 14
REMARK H PARENT
REMARK Flexibility Score: inf
ROOT
ATOM      1  C   UNL     1      18.370 133.168  62.051  1.00  0.00     0.000 C 
ENDROOT
BRANCH   1   2
ATOM      2  C   UNL     1      17.846 133.116  60.611  1.00  0.00     0.000 C 
BRANCH   2   3
ATOM      3  C   UNL     1      18.947 133.497  59.610  1.00  0.00     0.006 C 
BRANCH   3   4
ATOM      4  C   UNL     1      18.598 133.077  58.175  1.00  0.00     0.053 C 
BRANCH   4   5
ATOM      5  C   UNL     1      19.794 133.127  57.276  1.00  0.00     0.041 C 
ATOM      6  O   UNL     1      19.977 134.118  56.519  1.00  0.00    -0.550 OA
ATOM      7  O   UNL     1      20.726 132.097  57.296  1.00  0.00    -0.550 OA
ENDBRANCH   4   5
ENDBRANCH   3   4
ENDBRANCH   2   3
ENDBRANCH   1   2
BRANCH   1   8
ATOM      8  C   UNL     1      19.819 132.670  62.127  1.00  0.00     0.000 C 
BRANCH   8   9
ATOM      9  C   UNL     1      19.990 131.650  63.263  1.00  0.00     0.000 C 
BRANCH   9  10
ATOM     10  C   UNL     1      18.651 131.055  63.738  1.00  0.00     0.006 C 
BRANCH  10  11
ATOM     11  C   UNL     1      18.792 129.896  64.737  1.00  0.00     0.053 C 
BRANCH  11  12
ATOM     12  C   UNL     1      18.919 128.572  64.048  1.00  0.00     0.041 C 
ATOM     13  O   UNL     1      17.896 127.873  63.827  1.00  0.00    -0.550 OA
ATOM     14  O   UNL     1      20.171 128.095  63.682  1.00  0.00    -0.550 OA
ENDBRANCH  11  12
ENDBRANCH  10  11
ENDBRANCH   9  10
ENDBRANCH   8   9
ENDBRANCH   1   8
TORSDOF 9
ENDMDL
MODEL 3
REMARK VINA RESULT:    -3.397      2.465      2.824
REMARK INTER + INTRA:          -6.022
REMARK INTER:                  -5.016
REMARK INTRA:                  -1.006
REMARK UNBOUND:                -0.838
REMARK SMILES O=C([O-])CCCCCCCCC(=O)[O-]
REMARK SMILES IDX 7 1 6 2 5 3 4 4 2 5 1 6 3 7 8 8 9 9 10 10 11 11 12 12 13 13
REMARK SMILES IDX 14 14
REMARK H PARENT
REMARK Flexibility Score: inf
ROOT
ATOM      1  C   UNL     1      18.469 131.293  66.989  1.00  0.00     0.000 C 
ENDROOT
BRANCH   1   2
ATOM      2  C   UNL     1      18.445 131.861  65.565  1.00  0.00     0.000 C 
BRANCH   2   3
ATOM      3  C   UNL     1      18.821 130.783  64.537  1.00  0.00     0.006 C 
BRANCH   3   4
ATOM      4  C   UNL     1      17.594 130.016  64.025  1.00  0.00     0.053 C 
BRANCH   4   5
ATOM      5  C   UNL     1      17.681 128.555  64.340  1.00  0.00     0.041 C 
ATOM      6  O   UNL     1      16.701 127.958  64.859  1.00  0.00    -0.550 OA
ATOM      7  O   UNL     1      18.832 127.842  64.029  1.00  0.00    -0.550 OA
ENDBRANCH   4   5
ENDBRANCH   3   4
ENDBRANCH   2   3
ENDBRANCH   1   2
BRANCH   1   8
ATOM      8  C   UNL     1      17.155 131.590  67.722  1.00  0.00     0.000 C 
BRANCH   8   9
ATOM      9  C   UNL     1      16.108 130.503  67.436  1.00  0.00     0.000 C 
BRANCH   9  10
ATOM     10  C   UNL     1      14.761 131.081  66.964  1.00  0.00     0.006 C 
BRANCH  10  11
ATOM     11  C   UNL     1      14.340 130.634  65.555  1.00  0.00     0.053 C 
BRANCH  11  12
ATOM     12  C   UNL     1      14.374 131.764  64.572  1.00  0.00     0.041 C 
ATOM     13  O   UNL     1      15.116 132.760  64.778  1.00  0.00    -0.550 OA
ATOM     14  O   UNL     1      13.559 131.731  63.448  1.00  0.00    -0.550 OA
ENDBRANCH  11  12
ENDBRANCH  10  11
ENDBRANCH   9  10
ENDBRANCH   8   9
ENDBRANCH   1   8
TORSDOF 9
ENDMDL
MODEL 4
REMARK VINA RESULT:    -3.360      6.680      8.662
REMARK INTER + INTRA:          -5.965
REMARK INTER:                  -5.524
REMARK INTRA:                  -0.441
REMARK UNBOUND:                -0.838
REMARK SMILES O=C([O-])CCCCCCCCC(=O)[O-]
REMARK SMILES IDX 7 1 6 2 5 3 4 4 2 5 1 6 3 7 8 8 9 9 10 10 11 11 12 12 13 13
REMARK SMILES IDX 14 14
REMARK H PARENT
REMARK Flexibility Score: inf
ROOT
ATOM      1  C   UNL     1      19.248 133.205  58.571  1.00  0.00     0.000 C 
ENDROOT
BRANCH   1   2
ATOM      2  C   UNL     1      18.529 133.541  59.883  1.00  0.00     0.000 C 
BRANCH   2   3
ATOM      3  C   UNL     1      19.446 133.300  61.091  1.00  0.00     0.006 C 
BRANCH   3   4
ATOM      4  C   UNL     1      18.679 132.756  62.304  1.00  0.00     0.053 C 
BRANCH   4   5
ATOM      5  C   UNL     1      19.558 131.934  63.195  1.00  0.00     0.041 C 
ATOM      6  O   UNL     1      20.711 131.600  62.814  1.00  0.00    -0.550 OA
ATOM      7  O   UNL     1      19.118 131.564  64.460  1.00  0.00    -0.550 OA
ENDBRANCH   4   5
ENDBRANCH   3   4
ENDBRANCH   2   3
ENDBRANCH   1   2
BRANCH   1   8
ATOM      8  C   UNL     1      18.349 132.372  57.649  1.00  0.00     0.000 C 
BRANCH   8   9
ATOM      9  C   UNL     1      17.070 131.933  58.378  1.00  0.00     0.000 C 
BRANCH   9  10
ATOM     10  C   UNL     1      16.013 131.343  57.425  1.00  0.00     0.006 C 
BRANCH  10  11
ATOM     11  C   UNL     1      16.589 130.756  56.127  1.00  0.00     0.053 C 
BRANCH  11  12
ATOM     12  C   UNL     1      15.970 131.371  54.909  1.00  0.00     0.041 C 
ATOM     13  O   UNL     1      14.778 131.774  54.939  1.00  0.00    -0.550 OA
ATOM     14  O   UNL     1      16.699 131.464  53.731  1.00  0.00    -0.550 OA
ENDBRANCH  11  12
ENDBRANCH  10  11
ENDBRANCH   9  10
ENDBRANCH   8   9
ENDBRANCH   1   8
TORSDOF 9
ENDMDL
MODEL 5
REMARK VINA RESULT:    -3.337      3.704      5.281
REMARK INTER + INTRA:          -5.930
REMARK INTER:                  -5.199
REMARK INTRA:                  -0.730
REMARK UNBOUND:                -0.838
REMARK SMILES O=C([O-])CCCCCCCCC(=O)[O-]
REMARK SMILES IDX 7 1 6 2 5 3 4 4 2 5 1 6 3 7 8 8 9 9 10 10 11 11 12 12 13 13
REMARK SMILES IDX 14 14
REMARK H PARENT
REMARK Flexibility Score: inf
ROOT
ATOM      1  C   UNL     1      18.880 133.240  61.269  1.00  0.00     0.000 C 
ENDROOT
BRANCH   1   2
ATOM      2  C   UNL     1      17.496 132.981  60.661  1.00  0.00     0.000 C 
BRANCH   2   3
ATOM      3  C   UNL     1      16.447 132.753  61.759  1.00  0.00     0.006 C 
BRANCH   3   4
ATOM      4  C   UNL     1      15.577 131.518  61.484  1.00  0.00     0.053 C 
BRANCH   4   5
ATOM      5  C   UNL     1      14.512 131.803  60.471  1.00  0.00     0.041 C 
ATOM      6  O   UNL     1      13.677 132.724  60.671  1.00  0.00    -0.550 OA
ATOM      7  O   UNL     1      14.460 131.073  59.290  1.00  0.00    -0.550 OA
ENDBRANCH   4   5
ENDBRANCH   3   4
ENDBRANCH   2   3
ENDBRANCH   1   2
BRANCH   1   8
ATOM      8  C   UNL     1      18.847 133.090  62.795  1.00  0.00     0.000 C 
BRANCH   8   9
ATOM      9  C   UNL     1      19.634 131.849  63.242  1.00  0.00     0.000 C 
BRANCH   9  10
ATOM     10  C   UNL     1      19.075 131.220  64.532  1.00  0.00     0.006 C 
BRANCH  10  11
ATOM     11  C   UNL     1      17.908 130.247  64.308  1.00  0.00     0.053 C 
BRANCH  11  12
ATOM     12  C   UNL     1      18.370 128.825  64.214  1.00  0.00     0.041 C 
ATOM     13  O   UNL     1      19.586 128.542  64.381  1.00  0.00    -0.550 OA
ATOM     14  O   UNL     1      17.464 127.818  63.907  1.00  0.00    -0.550 OA
ENDBRANCH  11  12
ENDBRANCH  10  11
ENDBRANCH   9  10
ENDBRANCH   8   9
ENDBRANCH   1   8
TORSDOF 9
ENDMDL
MODEL 6
REMARK VINA RESULT:    -3.330      2.747      3.169
REMARK INTER + INTRA:          -5.920
REMARK INTER:                  -5.438
REMARK INTRA:                  -0.482
REMARK UNBOUND:                -0.838
REMARK SMILES O=C([O-])CCCCCCCCC(=O)[O-]
REMARK SMILES IDX 7 1 6 2 5 3 4 4 2 5 1 6 3 7 8 8 9 9 10 10 11 11 12 12 13 13
REMARK SMILES IDX 14 14
REMARK H PARENT
REMARK Flexibility Score: inf
ROOT
ATOM      1  C   UNL     1      17.820 131.102  65.355  1.00  0.00     0.000 C 
ENDROOT
BRANCH   1   2
ATOM      2  C   UNL     1      18.824 130.351  64.474  1.00  0.00     0.000 C 
BRANCH   2   3
ATOM      3  C   UNL     1      19.636 131.327  63.609  1.00  0.00     0.006 C 
BRANCH   3   4
ATOM      4  C   UNL     1      18.742 132.347  62.889  1.00  0.00     0.053 C 
BRANCH   4   5
ATOM      5  C   UNL     1      19.502 133.122  61.858  1.00  0.00     0.041 C 
ATOM      6  O   UNL     1      20.632 132.724  61.471  1.00  0.00    -0.550 OA
ATOM      7  O   UNL     1      18.949 134.268  61.299  1.00  0.00    -0.550 OA
ENDBRANCH   4   5
ENDBRANCH   3   4
ENDBRANCH   2   3
ENDBRANCH   1   2
BRANCH   1   8
ATOM      8  C   UNL     1      18.494 131.641  66.623  1.00  0.00     0.000 C 
BRANCH   8   9
ATOM      9  C   UNL     1      17.658 131.314  67.870  1.00  0.00     0.000 C 
BRANCH   9  10
ATOM     10  C   UNL     1      16.166 131.105  67.551  1.00  0.00     0.006 C 
BRANCH  10  11
ATOM     11  C   UNL     1      15.571 129.809  68.125  1.00  0.00     0.053 C 
BRANCH  11  12
ATOM     12  C   UNL     1      15.064 128.898  67.050  1.00  0.00     0.041 C 
ATOM     13  O   UNL     1      15.054 127.652  67.229  1.00  0.00    -0.550 OA
ATOM     14  O   UNL     1      14.636 129.423  65.838  1.00  0.00    -0.550 OA
ENDBRANCH  11  12
ENDBRANCH  10  11
ENDBRANCH   9  10
ENDBRANCH   8   9
ENDBRANCH   1   8
TORSDOF 9
ENDMDL
MODEL 7
REMARK VINA RESULT:    -3.318      7.755      9.935
REMARK INTER + INTRA:          -5.901
REMARK INTER:                  -5.459
REMARK INTRA:                  -0.442
REMARK UNBOUND:                -0.838
REMARK SMILES O=C([O-])CCCCCCCCC(=O)[O-]
REMARK SMILES IDX 7 1 6 2 5 3 4 4 2 5 1 6 3 7 8 8 9 9 10 10 11 11 12 12 13 13
REMARK SMILES IDX 14 14
REMARK H PARENT
REMARK Flexibility Score: inf
ROOT
ATOM      1  C   UNL     1      18.314 132.319  57.476  1.00  0.00     0.000 C 
ENDROOT
BRANCH   1   2
ATOM      2  C   UNL     1      18.916 133.327  58.461  1.00  0.00     0.000 C 
BRANCH   2   3
ATOM      3  C   UNL     1      18.386 133.090  59.883  1.00  0.00     0.006 C 
BRANCH   3   4
ATOM      4  C   UNL     1      19.388 133.532  60.959  1.00  0.00     0.053 C 
BRANCH   4   5
ATOM      5  C   UNL     1      19.252 132.723  62.211  1.00  0.00     0.041 C 
ATOM      6  O   UNL     1      18.155 132.690  62.829  1.00  0.00    -0.550 OA
ATOM      7  O   UNL     1      20.327 131.977  62.679  1.00  0.00    -0.550 OA
ENDBRANCH   4   5
ENDBRANCH   3   4
ENDBRANCH   2   3
ENDBRANCH   1   2
BRANCH   1   8
ATOM      8  C   UNL     1      16.986 131.760  58.001  1.00  0.00     0.000 C 
BRANCH   8   9
ATOM      9  C   UNL     1      16.230 131.009  56.894  1.00  0.00     0.000 C 
BRANCH   9  10
ATOM     10  C   UNL     1      17.046 130.884  55.594  1.00  0.00     0.006 C 
BRANCH  10  11
ATOM     11  C   UNL     1      16.252 131.197  54.316  1.00  0.00     0.053 C 
BRANCH  11  12
ATOM     12  C   UNL     1      16.977 132.159  53.425  1.00  0.00     0.041 C 
ATOM     13  O   UNL     1      16.833 132.097  52.176  1.00  0.00    -0.550 OA
ATOM     14  O   UNL     1      17.838 133.100  53.973  1.00  0.00    -0.550 OA
ENDBRANCH  11  12
ENDBRANCH  10  11
ENDBRANCH   9  10
ENDBRANCH   8   9
ENDBRANCH   1   8
TORSDOF 9
ENDMDL
MODEL 8
REMARK VINA RESULT:    -3.280      4.356      6.747
REMARK INTER + INTRA:          -5.844
REMARK INTER:                  -5.346
REMARK INTRA:                  -0.498
REMARK UNBOUND:                -0.838
REMARK SMILES O=C([O-])CCCCCCCCC(=O)[O-]
REMARK SMILES IDX 7 1 6 2 5 3 4 4 2 5 1 6 3 7 8 8 9 9 10 10 11 11 12 12 13 13
REMARK SMILES IDX 14 14
REMARK H PARENT
REMARK Flexibility Score: inf
ROOT
ATOM      1  C   UNL     1      19.156 132.148  63.468  1.00  0.00     0.000 C 
ENDROOT
BRANCH   1   2
ATOM      2  C   UNL     1      17.711 131.646  63.554  1.00  0.00     0.000 C 
BRANCH   2   3
ATOM      3  C   UNL     1      17.598 130.454  64.515  1.00  0.00     0.006 C 
BRANCH   3   4
ATOM      4  C   UNL     1      18.938 129.728  64.701  1.00  0.00     0.053 C 
BRANCH   4   5
ATOM      5  C   UNL     1      18.960 128.412  63.988  1.00  0.00     0.041 C 
ATOM      6  O   UNL     1      17.882 127.824  63.709  1.00  0.00    -0.550 OA
ATOM      7  O   UNL     1      20.170 127.850  63.600  1.00  0.00    -0.550 OA
ENDBRANCH   4   5
ENDBRANCH   3   4
ENDBRANCH   2   3
ENDBRANCH   1   2
BRANCH   1   8
ATOM      8  C   UNL     1      19.442 132.773  62.096  1.00  0.00     0.000 C 
BRANCH   8   9
ATOM      9  C   UNL     1      18.253 133.621  61.620  1.00  0.00     0.000 C 
BRANCH   9  10
ATOM     10  C   UNL     1      18.001 133.499  60.106  1.00  0.00     0.006 C 
BRANCH  10  11
ATOM     11  C   UNL     1      19.254 133.163  59.281  1.00  0.00     0.053 C 
BRANCH  11  12
ATOM     12  C   UNL     1      18.951 133.050  57.819  1.00  0.00     0.041 C 
ATOM     13  O   UNL     1      19.441 133.877  57.005  1.00  0.00    -0.550 OA
ATOM     14  O   UNL     1      18.100 132.053  57.359  1.00  0.00    -0.550 OA
ENDBRANCH  11  12
ENDBRANCH  10  11
ENDBRANCH   9  10
ENDBRANCH   8   9
ENDBRANCH   1   8
TORSDOF 9
ENDMDL
MODEL 9
REMARK VINA RESULT:    -3.279      2.579      4.557
REMARK INTER + INTRA:          -5.842
REMARK INTER:                  -4.845
REMARK INTRA:                  -0.997
REMARK UNBOUND:                -0.838
REMARK SMILES O=C([O-])CCCCCCCCC(=O)[O-]
REMARK SMILES IDX 7 1 6 2 5 3 4 4 2 5 1 6 3 7 8 8 9 9 10 10 11 11 12 12 13 13
REMARK SMILES IDX 14 14
REMARK H PARENT
REMARK Flexibility Score: inf
ROOT
ATOM      1  C   UNL     1      17.266 131.573  67.803  1.00  0.00     0.000 C 
ENDROOT
BRANCH   1   2
ATOM      2  C   UNL     1      16.144 130.565  67.531  1.00  0.00     0.000 C 
BRANCH   2   3
ATOM      3  C   UNL     1      14.827 131.283  67.199  1.00  0.00     0.006 C 
BRANCH   3   4
ATOM      4  C   UNL     1      14.574 131.364  65.687  1.00  0.00     0.053 C 
BRANCH   4   5
ATOM      5  C   UNL     1      14.813 132.744  65.157  1.00  0.00     0.041 C 
ATOM      6  O   UNL     1      14.697 133.743  65.915  1.00  0.00    -0.550 OA
ATOM      7  O   UNL     1      15.197 132.926  63.834  1.00  0.00    -0.550 OA
ENDBRANCH   4   5
ENDBRANCH   3   4
ENDBRANCH   2   3
ENDBRANCH   1   2
BRANCH   1   8
ATOM      8  C   UNL     1      18.510 131.253  66.965  1.00  0.00     0.000 C 
BRANCH   8   9
ATOM      9  C   UNL     1      18.475 132.000  65.623  1.00  0.00     0.000 C 
BRANCH   9  10
ATOM     10  C   UNL     1      18.126 131.081  64.438  1.00  0.00     0.006 C 
BRANCH  10  11
ATOM     11  C   UNL     1      19.012 129.831  64.324  1.00  0.00     0.053 C 
BRANCH  11  12
ATOM     12  C   UNL     1      18.202 128.575  64.215  1.00  0.00     0.041 C 
ATOM     13  O   UNL     1      18.660 127.578  63.598  1.00  0.00    -0.550 OA
ATOM     14  O   UNL     1      16.928 128.520  64.764  1.00  0.00    -0.550 OA
ENDBRANCH  11  12
ENDBRANCH  10  11
ENDBRANCH   9  10
ENDBRANCH   8   9
ENDBRANCH   1   8
TORSDOF 9
ENDMDL
