MODEL 1
REMARK VINA RESULT:    -5.064      0.000      0.000
REMARK INTER + INTRA:          -6.572
REMARK INTER:                  -6.248
REMARK INTRA:                  -0.324
REMARK UNBOUND:                -0.324
REMARK SMILES CCOC(=O)c1ccc(O)c(O)c1
REMARK SMILES IDX 4 1 5 2 3 3 2 4 1 5 6 6 13 7 7 8 11 9 8 10 9 11 12 12 10 14
REMARK H PARENT 12 13 10 15
REMARK Flexibility Score: inf
ROOT
ATOM      1  C   UNL     1       9.735  -7.593  -9.005  1.00  0.00     0.338 C 
ATOM      2  O   UNL     1      10.437  -8.625  -8.815  1.00  0.00    -0.246 OA
ENDROOT
BRANCH   1   3
ATOM      3  O   UNL     1       9.383  -7.217 -10.305  1.00  0.00    -0.462 OA
BRANCH   3   4
ATOM      4  C   UNL     1       9.690  -5.936 -10.846  1.00  0.00     0.230 C 
ATOM      5  C   UNL     1      11.189  -5.697 -10.769  1.00  0.00     0.049 C 
ENDBRANCH   3   4
ENDBRANCH   1   3
BRANCH   1   6
ATOM      6  C   UNL     1       9.283  -6.780  -7.855  1.00  0.00     0.064 A 
ATOM      7  C   UNL     1      10.214  -6.072  -7.076  1.00  0.00     0.065 A 
ATOM      8  C   UNL     1       7.920  -6.701  -7.524  1.00  0.00     0.020 A 
ATOM      9  C   UNL     1       9.801  -5.298  -5.984  1.00  0.00     0.158 A 
ATOM     10  C   UNL     1       7.501  -5.932  -6.437  1.00  0.00     0.051 A 
ATOM     11  C   UNL     1       8.426  -5.227  -5.660  1.00  0.00     0.157 A 
BRANCH   9  12
ATOM     12  O   UNL     1      10.784  -4.622  -5.256  1.00  0.00    -0.504 OA
ATOM     13  H   UNL     1      11.770  -4.831  -5.311  1.00  0.00     0.293 HD
ENDBRANCH   9  12
BRANCH  11  14
ATOM     14  O   UNL     1       7.941  -4.476  -4.587  1.00  0.00    -0.504 OA
ATOM     15  H   UNL     1       7.435  -4.868  -3.807  1.00  0.00     0.293 HD
ENDBRANCH  11  14
ENDBRANCH   1   6
TORSDOF 5
ENDMDL
MODEL 2
REMARK VINA RESULT:    -4.856      1.770      2.353
REMARK INTER + INTRA:          -6.316
REMARK INTER:                  -6.140
REMARK INTRA:                  -0.176
REMARK UNBOUND:                -0.324
REMARK SMILES CCOC(=O)c1ccc(O)c(O)c1
REMARK SMILES IDX 4 1 5 2 3 3 2 4 1 5 6 6 13 7 7 8 11 9 8 10 9 11 12 12 10 14
REMARK H PARENT 12 13 10 15
REMARK Flexibility Score: inf
ROOT
ATOM      1  C   UNL     1       8.252  -6.442  -9.218  1.00  0.00     0.338 C 
ATOM      2  O   UNL     1       8.129  -7.421 -10.005  1.00  0.00    -0.246 OA
ENDROOT
BRANCH   1   3
ATOM      3  O   UNL     1       8.515  -5.165  -9.725  1.00  0.00    -0.462 OA
BRANCH   3   4
ATOM      4  C   UNL     1       8.838  -4.932 -11.092  1.00  0.00     0.230 C 
ATOM      5  C   UNL     1       7.681  -4.220 -11.774  1.00  0.00     0.049 C 
ENDBRANCH   3   4
ENDBRANCH   1   3
BRANCH   1   6
ATOM      6  C   UNL     1       8.119  -6.641  -7.758  1.00  0.00     0.064 A 
ATOM      7  C   UNL     1       8.111  -5.537  -6.888  1.00  0.00     0.065 A 
ATOM      8  C   UNL     1       7.996  -7.932  -7.218  1.00  0.00     0.020 A 
ATOM      9  C   UNL     1       7.986  -5.710  -5.504  1.00  0.00     0.158 A 
ATOM     10  C   UNL     1       7.870  -8.113  -5.840  1.00  0.00     0.051 A 
ATOM     11  C   UNL     1       7.864  -7.015  -4.972  1.00  0.00     0.157 A 
BRANCH   9  12
ATOM     12  O   UNL     1       7.987  -4.566  -4.702  1.00  0.00    -0.504 OA
ATOM     13  H   UNL     1       8.755  -3.912  -4.653  1.00  0.00     0.293 HD
ENDBRANCH   9  12
BRANCH  11  14
ATOM     14  O   UNL     1       7.735  -7.265  -3.604  1.00  0.00    -0.504 OA
ATOM     15  H   UNL     1       7.181  -6.700  -2.977  1.00  0.00     0.293 HD
ENDBRANCH  11  14
ENDBRANCH   1   6
TORSDOF 5
ENDMDL
MODEL 3
REMARK VINA RESULT:    -4.688      1.680      2.173
REMARK INTER + INTRA:          -6.108
REMARK INTER:                  -5.923
REMARK INTRA:                  -0.186
REMARK UNBOUND:                -0.324
REMARK SMILES CCOC(=O)c1ccc(O)c(O)c1
REMARK SMILES IDX 4 1 5 2 3 3 2 4 1 5 6 6 13 7 7 8 11 9 8 10 9 11 12 12 10 14
REMARK H PARENT 12 13 10 15
REMARK Flexibility Score: inf
ROOT
ATOM      1  C   UNL     1       8.823  -6.258  -9.076  1.00  0.00     0.338 C 
ATOM      2  O   UNL     1       7.984  -6.531  -9.978  1.00  0.00    -0.246 OA
ENDROOT
BRANCH   1   3
ATOM      3  O   UNL     1      10.059  -5.699  -9.416  1.00  0.00    -0.462 OA
BRANCH   3   4
ATOM      4  C   UNL     1      11.297  -6.351  -9.153  1.00  0.00     0.230 C 
ATOM      5  C   UNL     1      12.339  -5.891 -10.161  1.00  0.00     0.049 C 
ENDBRANCH   3   4
ENDBRANCH   1   3
BRANCH   1   6
ATOM      6  C   UNL     1       8.502  -6.528  -7.657  1.00  0.00     0.064 A 
ATOM      7  C   UNL     1       8.409  -5.471  -6.735  1.00  0.00     0.065 A 
ATOM      8  C   UNL     1       8.284  -7.842  -7.208  1.00  0.00     0.020 A 
ATOM      9  C   UNL     1       8.107  -5.712  -5.389  1.00  0.00     0.158 A 
ATOM     10  C   UNL     1       7.983  -8.090  -5.868  1.00  0.00     0.051 A 
ATOM     11  C   UNL     1       7.891  -7.038  -4.950  1.00  0.00     0.157 A 
BRANCH   9  12
ATOM     12  O   UNL     1       8.032  -4.611  -4.532  1.00  0.00    -0.504 OA
ATOM     13  H   UNL     1       7.229  -4.003  -4.464  1.00  0.00     0.293 HD
ENDBRANCH   9  12
BRANCH  11  14
ATOM     14  O   UNL     1       7.585  -7.355  -3.624  1.00  0.00    -0.504 OA
ATOM     15  H   UNL     1       7.672  -6.707  -2.855  1.00  0.00     0.293 HD
ENDBRANCH  11  14
ENDBRANCH   1   6
TORSDOF 5
ENDMDL
MODEL 4
REMARK VINA RESULT:    -4.682      1.987      2.849
REMARK INTER + INTRA:          -6.102
REMARK INTER:                  -5.853
REMARK INTRA:                  -0.249
REMARK UNBOUND:                -0.324
REMARK SMILES CCOC(=O)c1ccc(O)c(O)c1
REMARK SMILES IDX 4 1 5 2 3 3 2 4 1 5 6 6 13 7 7 8 11 9 8 10 9 11 12 12 10 14
REMARK H PARENT 12 13 10 15
REMARK Flexibility Score: inf
ROOT
ATOM      1  C   UNL     1       8.100  -8.445 -10.328  1.00  0.00     0.338 C 
ATOM      2  O   UNL     1       6.994  -9.018 -10.128  1.00  0.00    -0.246 OA
ENDROOT
BRANCH   1   3
ATOM      3  O   UNL     1       8.766  -8.617 -11.546  1.00  0.00    -0.462 OA
BRANCH   3   4
ATOM      4  C   UNL     1       9.145  -7.526 -12.378  1.00  0.00     0.230 C 
ATOM      5  C   UNL     1       7.976  -6.565 -12.521  1.00  0.00     0.049 C 
ENDBRANCH   3   4
ENDBRANCH   1   3
BRANCH   1   6
ATOM      6  C   UNL     1       8.695  -7.589  -9.278  1.00  0.00     0.064 A 
ATOM      7  C   UNL     1       7.983  -6.490  -8.769  1.00  0.00     0.065 A 
ATOM      8  C   UNL     1       9.976  -7.862  -8.772  1.00  0.00     0.020 A 
ATOM      9  C   UNL     1       8.533  -5.671  -7.775  1.00  0.00     0.158 A 
ATOM     10  C   UNL     1      10.532  -7.051  -7.781  1.00  0.00     0.051 A 
ATOM     11  C   UNL     1       9.825  -5.955  -7.274  1.00  0.00     0.157 A 
BRANCH   9  12
ATOM     12  O   UNL     1       7.766  -4.596  -7.319  1.00  0.00    -0.504 OA
ATOM     13  H   UNL     1       6.812  -4.424  -7.601  1.00  0.00     0.293 HD
ENDBRANCH   9  12
BRANCH  11  14
ATOM     14  O   UNL     1      10.437  -5.184  -6.284  1.00  0.00    -0.504 OA
ATOM     15  H   UNL     1      11.434  -5.153  -6.128  1.00  0.00     0.293 HD
ENDBRANCH  11  14
ENDBRANCH   1   6
TORSDOF 5
ENDMDL
MODEL 5
REMARK VINA RESULT:    -4.659     15.247     18.236
REMARK INTER + INTRA:          -6.073
REMARK INTER:                  -5.940
REMARK INTRA:                  -0.133
REMARK UNBOUND:                -0.324
REMARK SMILES CCOC(=O)c1ccc(O)c(O)c1
REMARK SMILES IDX 4 1 5 2 3 3 2 4 1 5 6 6 13 7 7 8 11 9 8 10 9 11 12 12 10 14
REMARK H PARENT 12 13 10 15
REMARK Flexibility Score: inf
ROOT
ATOM      1  C   UNL     1      19.487  -1.205 -19.213  1.00  0.00     0.338 C 
ATOM      2  O   UNL     1      19.582  -2.461 -19.126  1.00  0.00    -0.246 OA
ENDROOT
BRANCH   1   3
ATOM      3  O   UNL     1      18.630  -0.507 -18.356  1.00  0.00    -0.462 OA
BRANCH   3   4
ATOM      4  C   UNL     1      18.981  -0.176 -17.017  1.00  0.00     0.230 C 
ATOM      5  C   UNL     1      17.960  -0.770 -16.061  1.00  0.00     0.049 C 
ENDBRANCH   3   4
ENDBRANCH   1   3
BRANCH   1   6
ATOM      6  C   UNL     1      20.283  -0.468 -20.220  1.00  0.00     0.064 A 
ATOM      7  C   UNL     1      20.713   0.844 -19.964  1.00  0.00     0.065 A 
ATOM      8  C   UNL     1      20.621  -1.068 -21.444  1.00  0.00     0.020 A 
ATOM      9  C   UNL     1      21.466   1.554 -20.908  1.00  0.00     0.158 A 
ATOM     10  C   UNL     1      21.372  -0.367 -22.390  1.00  0.00     0.051 A 
ATOM     11  C   UNL     1      21.800   0.940 -22.137  1.00  0.00     0.157 A 
BRANCH   9  12
ATOM     12  O   UNL     1      21.858   2.855 -20.583  1.00  0.00    -0.504 OA
ATOM     13  H   UNL     1      22.795   3.210 -20.708  1.00  0.00     0.293 HD
ENDBRANCH   9  12
BRANCH  11  14
ATOM     14  O   UNL     1      22.548   1.585 -23.125  1.00  0.00    -0.504 OA
ATOM     15  H   UNL     1      23.071   1.104 -23.842  1.00  0.00     0.293 HD
ENDBRANCH  11  14
ENDBRANCH   1   6
TORSDOF 5
ENDMDL
MODEL 6
REMARK VINA RESULT:    -4.631      1.190      2.091
REMARK INTER + INTRA:          -6.038
REMARK INTER:                  -5.734
REMARK INTRA:                  -0.305
REMARK UNBOUND:                -0.324
REMARK SMILES CCOC(=O)c1ccc(O)c(O)c1
REMARK SMILES IDX 4 1 5 2 3 3 2 4 1 5 6 6 13 7 7 8 11 9 8 10 9 11 12 12 10 14
REMARK H PARENT 12 13 10 15
REMARK Flexibility Score: inf
ROOT
ATOM      1  C   UNL     1       9.852  -7.237  -9.743  1.00  0.00     0.338 C 
ATOM      2  O   UNL     1       9.843  -6.612 -10.840  1.00  0.00    -0.246 OA
ENDROOT
BRANCH   1   3
ATOM      3  O   UNL     1      10.394  -8.525  -9.676  1.00  0.00    -0.462 OA
BRANCH   3   4
ATOM      4  C   UNL     1       9.630  -9.662  -9.289  1.00  0.00     0.230 C 
ATOM      5  C   UNL     1       8.557  -9.933 -10.332  1.00  0.00     0.049 C 
ENDBRANCH   3   4
ENDBRANCH   1   3
BRANCH   1   6
ATOM      6  C   UNL     1       9.291  -6.609  -8.526  1.00  0.00     0.064 A 
ATOM      7  C   UNL     1      10.138  -6.000  -7.585  1.00  0.00     0.065 A 
ATOM      8  C   UNL     1       7.905  -6.610  -8.293  1.00  0.00     0.020 A 
ATOM      9  C   UNL     1       9.621  -5.403  -6.429  1.00  0.00     0.158 A 
ATOM     10  C   UNL     1       7.382  -6.017  -7.143  1.00  0.00     0.051 A 
ATOM     11  C   UNL     1       8.224  -5.411  -6.205  1.00  0.00     0.157 A 
BRANCH   9  12
ATOM     12  O   UNL     1      10.525  -4.817  -5.539  1.00  0.00    -0.504 OA
ATOM     13  H   UNL     1      11.000  -3.943  -5.711  1.00  0.00     0.293 HD
ENDBRANCH   9  12
BRANCH  11  14
ATOM     14  O   UNL     1       7.637  -4.835  -5.076  1.00  0.00    -0.504 OA
ATOM     15  H   UNL     1       8.050  -4.851  -4.155  1.00  0.00     0.293 HD
ENDBRANCH  11  14
ENDBRANCH   1   6
TORSDOF 5
ENDMDL
MODEL 7
REMARK VINA RESULT:    -4.571      2.076      2.980
REMARK INTER + INTRA:          -5.964
REMARK INTER:                  -5.677
REMARK INTRA:                  -0.287
REMARK UNBOUND:                -0.324
REMARK SMILES CCOC(=O)c1ccc(O)c(O)c1
REMARK SMILES IDX 4 1 5 2 3 3 2 4 1 5 6 6 13 7 7 8 11 9 8 10 9 11 12 12 10 14
REMARK H PARENT 12 13 10 15
REMARK Flexibility Score: inf
ROOT
ATOM      1  C   UNL     1       9.847  -5.994 -10.774  1.00  0.00     0.338 C 
ATOM      2  O   UNL     1      11.083  -5.798 -10.943  1.00  0.00    -0.246 OA
ENDROOT
BRANCH   1   3
ATOM      3  O   UNL     1       9.051  -6.403 -11.849  1.00  0.00    -0.462 OA
BRANCH   3   4
ATOM      4  C   UNL     1       8.899  -7.770 -12.218  1.00  0.00     0.230 C 
ATOM      5  C   UNL     1       7.514  -8.254 -11.819  1.00  0.00     0.049 C 
ENDBRANCH   3   4
ENDBRANCH   1   3
BRANCH   1   6
ATOM      6  C   UNL     1       9.238  -5.792  -9.441  1.00  0.00     0.064 A 
ATOM      7  C   UNL     1       7.955  -5.232  -9.324  1.00  0.00     0.065 A 
ATOM      8  C   UNL     1       9.929  -6.158  -8.274  1.00  0.00     0.020 A 
ATOM      9  C   UNL     1       7.366  -5.035  -8.068  1.00  0.00     0.158 A 
ATOM     10  C   UNL     1       9.349  -5.965  -7.020  1.00  0.00     0.051 A 
ATOM     11  C   UNL     1       8.072  -5.406  -6.901  1.00  0.00     0.157 A 
BRANCH   9  12
ATOM     12  O   UNL     1       6.087  -4.472  -8.031  1.00  0.00    -0.504 OA
ATOM     13  H   UNL     1       5.294  -4.839  -8.537  1.00  0.00     0.293 HD
ENDBRANCH   9  12
BRANCH  11  14
ATOM     14  O   UNL     1       7.549  -5.240  -5.617  1.00  0.00    -0.504 OA
ATOM     15  H   UNL     1       7.878  -4.549  -4.958  1.00  0.00     0.293 HD
ENDBRANCH  11  14
ENDBRANCH   1   6
TORSDOF 5
ENDMDL
MODEL 8
REMARK VINA RESULT:    -4.509      2.779      4.010
REMARK INTER + INTRA:          -5.888
REMARK INTER:                  -5.770
REMARK INTRA:                  -0.118
REMARK UNBOUND:                -0.324
REMARK SMILES CCOC(=O)c1ccc(O)c(O)c1
REMARK SMILES IDX 4 1 5 2 3 3 2 4 1 5 6 6 13 7 7 8 11 9 8 10 9 11 12 12 10 14
REMARK H PARENT 12 13 10 15
REMARK Flexibility Score: inf
ROOT
ATOM      1  C   UNL     1       7.986  -5.515 -11.934  1.00  0.00     0.338 C 
ATOM      2  O   UNL     1       7.699  -6.553 -12.592  1.00  0.00    -0.246 OA
ENDROOT
BRANCH   1   3
ATOM      3  O   UNL     1       7.656  -4.253 -12.440  1.00  0.00    -0.462 OA
BRANCH   3   4
ATOM      4  C   UNL     1       7.240  -4.047 -13.785  1.00  0.00     0.230 C 
ATOM      5  C   UNL     1       6.923  -2.576 -14.001  1.00  0.00     0.049 C 
ENDBRANCH   3   4
ENDBRANCH   1   3
BRANCH   1   6
ATOM      6  C   UNL     1       8.671  -5.629 -10.628  1.00  0.00     0.064 A 
ATOM      7  C   UNL     1       8.018  -5.238  -9.446  1.00  0.00     0.065 A 
ATOM      8  C   UNL     1       9.980  -6.131 -10.546  1.00  0.00     0.020 A 
ATOM      9  C   UNL     1       8.654  -5.341  -8.203  1.00  0.00     0.158 A 
ATOM     10  C   UNL     1      10.621  -6.236  -9.311  1.00  0.00     0.051 A 
ATOM     11  C   UNL     1       9.973  -5.846  -8.134  1.00  0.00     0.157 A 
BRANCH   9  12
ATOM     12  O   UNL     1       7.942  -4.932  -7.072  1.00  0.00    -0.504 OA
ATOM     13  H   UNL     1       7.673  -3.976  -6.890  1.00  0.00     0.293 HD
ENDBRANCH   9  12
BRANCH  11  14
ATOM     14  O   UNL     1      10.670  -5.978  -6.930  1.00  0.00    -0.504 OA
ATOM     15  H   UNL     1      11.662  -6.154  -6.869  1.00  0.00     0.293 HD
ENDBRANCH  11  14
ENDBRANCH   1   6
TORSDOF 5
ENDMDL
