MODEL 1
REMARK VINA RESULT:    -5.323      0.000      0.000
REMARK INTER + INTRA:          -7.870
REMARK INTER:                  -7.501
REMARK INTRA:                  -0.369
REMARK UNBOUND:                -0.369
REMARK SMILES C=CCCCCCCC(=O)[O-]
REMARK SMILES IDX 6 1 7 2 8 3 9 4 10 5 11 6 5 7 4 8 3 9 2 10 1 11
REMARK H PARENT
REMARK Flexibility Score: inf
ROOT
ATOM      1  C   UNL     1     129.858 126.050 127.758  1.00  0.00     0.000 C 
ENDROOT
BRANCH   1   2
ATOM      2  C   UNL     1     130.700 125.326 126.695  1.00  0.00     0.006 C 
BRANCH   2   3
ATOM      3  C   UNL     1     131.747 126.241 126.046  1.00  0.00     0.053 C 
BRANCH   3   4
ATOM      4  C   UNL     1     131.292 126.674 124.688  1.00  0.00     0.041 C 
ATOM      5  O   UNL     1     130.963 127.871 124.482  1.00  0.00    -0.550 OA
ATOM      6  O   UNL     1     131.278 125.765 123.638  1.00  0.00    -0.550 OA
ENDBRANCH   3   4
ENDBRANCH   2   3
ENDBRANCH   1   2
BRANCH   1   7
ATOM      7  C   UNL     1     128.618 125.241 128.179  1.00  0.00     0.000 C 
BRANCH   7   8
ATOM      8  C   UNL     1     128.846 123.723 128.084  1.00  0.00     0.004 C 
BRANCH   8   9
ATOM      9  C   UNL     1     128.516 122.990 129.393  1.00  0.00     0.027 C 
BRANCH   9  10
ATOM     10  C   UNL     1     128.568 123.927 130.567  1.00  0.00    -0.035 C 
ATOM     11  C   UNL     1     128.531 123.479 131.826  1.00  0.00     0.004 C 
ENDBRANCH   9  10
ENDBRANCH   8   9
ENDBRANCH   7   8
ENDBRANCH   1   7
TORSDOF 7
ENDMDL
MODEL 2
REMARK VINA RESULT:    -5.257      0.998      1.207
REMARK INTER + INTRA:          -7.777
REMARK INTER:                  -7.426
REMARK INTRA:                  -0.351
REMARK UNBOUND:                -0.369
REMARK SMILES C=CCCCCCCC(=O)[O-]
REMARK SMILES IDX 6 1 7 2 8 3 9 4 10 5 11 6 5 7 4 8 3 9 2 10 1 11
REMARK H PARENT
REMARK Flexibility Score: inf
ROOT
ATOM      1  C   UNL     1     129.986 125.931 127.513  1.00  0.00     0.000 C 
ENDROOT
BRANCH   1   2
ATOM      2  C   UNL     1     130.111 125.013 126.287  1.00  0.00     0.006 C 
BRANCH   2   3
ATOM      3  C   UNL     1     130.925 125.647 125.152  1.00  0.00     0.053 C 
BRANCH   3   4
ATOM      4  C   UNL     1     130.215 126.848 124.610  1.00  0.00     0.041 C 
ATOM      5  O   UNL     1     128.989 126.786 124.330  1.00  0.00    -0.550 OA
ATOM      6  O   UNL     1     130.896 128.049 124.461  1.00  0.00    -0.550 OA
ENDBRANCH   3   4
ENDBRANCH   2   3
ENDBRANCH   1   2
BRANCH   1   7
ATOM      7  C   UNL     1     129.331 125.227 128.714  1.00  0.00     0.000 C 
BRANCH   7   8
ATOM      8  C   UNL     1     128.875 123.796 128.380  1.00  0.00     0.004 C 
BRANCH   8   9
ATOM      9  C   UNL     1     128.495 122.987 129.630  1.00  0.00     0.027 C 
BRANCH   9  10
ATOM     10  C   UNL     1     128.570 123.836 130.868  1.00  0.00    -0.035 C 
ATOM     11  C   UNL     1     128.539 123.297 132.091  1.00  0.00     0.004 C 
ENDBRANCH   9  10
ENDBRANCH   8   9
ENDBRANCH   7   8
ENDBRANCH   1   7
TORSDOF 7
ENDMDL
MODEL 3
REMARK VINA RESULT:    -5.188      1.639      2.325
REMARK INTER + INTRA:          -7.680
REMARK INTER:                  -7.279
REMARK INTRA:                  -0.402
REMARK UNBOUND:                -0.369
REMARK SMILES C=CCCCCCCC(=O)[O-]
REMARK SMILES IDX 6 1 7 2 8 3 9 4 10 5 11 6 5 7 4 8 3 9 2 10 1 11
REMARK H PARENT
REMARK Flexibility Score: inf
ROOT
ATOM      1  C   UNL     1     130.286 124.483 126.254  1.00  0.00     0.000 C 
ENDROOT
BRANCH   1   2
ATOM      2  C   UNL     1     129.731 125.861 126.647  1.00  0.00     0.006 C 
BRANCH   2   3
ATOM      3  C   UNL     1     130.483 126.488 127.828  1.00  0.00     0.053 C 
BRANCH   3   4
ATOM      4  C   UNL     1     131.274 127.674 127.373  1.00  0.00     0.041 C 
ATOM      5  O   UNL     1     131.531 127.832 126.151  1.00  0.00    -0.550 OA
ATOM      6  O   UNL     1     131.683 128.630 128.292  1.00  0.00    -0.550 OA
ENDBRANCH   3   4
ENDBRANCH   2   3
ENDBRANCH   1   2
BRANCH   1   7
ATOM      7  C   UNL     1     129.371 123.329 126.699  1.00  0.00     0.000 C 
BRANCH   7   8
ATOM      8  C   UNL     1     128.359 123.761 127.773  1.00  0.00     0.004 C 
BRANCH   8   9
ATOM      9  C   UNL     1     128.610 123.089 129.131  1.00  0.00     0.027 C 
BRANCH   9  10
ATOM     10  C   UNL     1     128.640 124.102 130.241  1.00  0.00    -0.035 C 
ATOM     11  C   UNL     1     128.641 123.737 131.526  1.00  0.00     0.004 C 
ENDBRANCH   9  10
ENDBRANCH   8   9
ENDBRANCH   7   8
ENDBRANCH   1   7
TORSDOF 7
ENDMDL
MODEL 4
REMARK VINA RESULT:    -5.172      3.732      5.591
REMARK INTER + INTRA:          -7.657
REMARK INTER:                  -7.020
REMARK INTRA:                  -0.637
REMARK UNBOUND:                -0.369
REMARK SMILES C=CCCCCCCC(=O)[O-]
REMARK SMILES IDX 6 1 7 2 8 3 9 4 10 5 11 6 5 7 4 8 3 9 2 10 1 11
REMARK H PARENT
REMARK Flexibility Score: inf
ROOT
ATOM      1  C   UNL     1     128.516 123.778 127.086  1.00  0.00     0.000 C 
ENDROOT
BRANCH   1   2
ATOM      2  C   UNL     1     128.598 123.375 128.566  1.00  0.00     0.006 C 
BRANCH   2   3
ATOM      3  C   UNL     1     128.993 124.544 129.477  1.00  0.00     0.053 C 
BRANCH   3   4
ATOM      4  C   UNL     1     128.935 124.129 130.914  1.00  0.00     0.041 C 
ATOM      5  O   UNL     1     129.371 124.896 131.812  1.00  0.00    -0.550 OA
ATOM      6  O   UNL     1     128.355 122.917 131.264  1.00  0.00    -0.550 OA
ENDBRANCH   3   4
ENDBRANCH   2   3
ENDBRANCH   1   2
BRANCH   1   7
ATOM      7  C   UNL     1     129.790 123.415 126.303  1.00  0.00     0.000 C 
BRANCH   7   8
ATOM      8  C   UNL     1     130.454 124.643 125.659  1.00  0.00     0.004 C 
BRANCH   8   9
ATOM      9  C   UNL     1     131.423 125.362 126.610  1.00  0.00     0.027 C 
BRANCH   9  10
ATOM     10  C   UNL     1     131.191 126.847 126.599  1.00  0.00    -0.035 C 
ATOM     11  C   UNL     1     130.011 127.376 126.936  1.00  0.00     0.004 C 
ENDBRANCH   9  10
ENDBRANCH   8   9
ENDBRANCH   7   8
ENDBRANCH   1   7
TORSDOF 7
ENDMDL
MODEL 5
REMARK VINA RESULT:    -5.067      3.354      5.767
REMARK INTER + INTRA:          -7.509
REMARK INTER:                  -6.887
REMARK INTRA:                  -0.621
REMARK UNBOUND:                -0.369
REMARK SMILES C=CCCCCCCC(=O)[O-]
REMARK SMILES IDX 6 1 7 2 8 3 9 4 10 5 11 6 5 7 4 8 3 9 2 10 1 11
REMARK H PARENT
REMARK Flexibility Score: inf
ROOT
ATOM      1  C   UNL     1     130.155 124.281 126.231  1.00  0.00     0.000 C 
ENDROOT
BRANCH   1   2
ATOM      2  C   UNL     1     128.929 124.364 127.154  1.00  0.00     0.006 C 
BRANCH   2   3
ATOM      3  C   UNL     1     129.257 124.981 128.520  1.00  0.00     0.053 C 
BRANCH   3   4
ATOM      4  C   UNL     1     128.910 124.027 129.620  1.00  0.00     0.041 C 
ATOM      5  O   UNL     1     128.935 124.408 130.819  1.00  0.00    -0.550 OA
ATOM      6  O   UNL     1     128.512 122.731 129.317  1.00  0.00    -0.550 OA
ENDBRANCH   3   4
ENDBRANCH   2   3
ENDBRANCH   1   2
BRANCH   1   7
ATOM      7  C   UNL     1     131.265 125.268 126.634  1.00  0.00     0.000 C 
BRANCH   7   8
ATOM      8  C   UNL     1     131.492 126.361 125.576  1.00  0.00     0.004 C 
BRANCH   8   9
ATOM      9  C   UNL     1     130.386 127.427 125.577  1.00  0.00     0.027 C 
BRANCH   9  10
ATOM     10  C   UNL     1     129.815 127.617 124.200  1.00  0.00    -0.035 C 
ATOM     11  C   UNL     1     128.672 127.032 123.827  1.00  0.00     0.004 C 
ENDBRANCH   9  10
ENDBRANCH   8   9
ENDBRANCH   7   8
ENDBRANCH   1   7
TORSDOF 7
ENDMDL
MODEL 6
REMARK VINA RESULT:    -5.057      1.379      1.814
REMARK INTER + INTRA:          -7.495
REMARK INTER:                  -6.994
REMARK INTRA:                  -0.501
REMARK UNBOUND:                -0.369
REMARK SMILES C=CCCCCCCC(=O)[O-]
REMARK SMILES IDX 6 1 7 2 8 3 9 4 10 5 11 6 5 7 4 8 3 9 2 10 1 11
REMARK H PARENT
REMARK Flexibility Score: inf
ROOT
ATOM      1  C   UNL     1     127.527 125.626 128.028  1.00  0.00     0.000 C 
ENDROOT
BRANCH   1   2
ATOM      2  C   UNL     1     129.060 125.721 127.973  1.00  0.00     0.006 C 
BRANCH   2   3
ATOM      3  C   UNL     1     129.561 126.505 126.753  1.00  0.00     0.053 C 
BRANCH   3   4
ATOM      4  C   UNL     1     130.573 125.703 125.997  1.00  0.00     0.041 C 
ATOM      5  O   UNL     1     131.449 126.282 125.303  1.00  0.00    -0.550 OA
ATOM      6  O   UNL     1     130.577 124.318 126.097  1.00  0.00    -0.550 OA
ENDBRANCH   3   4
ENDBRANCH   2   3
ENDBRANCH   1   2
BRANCH   1   7
ATOM      7  C   UNL     1     127.037 124.219 128.411  1.00  0.00     0.000 C 
BRANCH   7   8
ATOM      8  C   UNL     1     128.183 123.196 128.485  1.00  0.00     0.004 C 
BRANCH   8   9
ATOM      9  C   UNL     1     128.307 122.544 129.871  1.00  0.00     0.027 C 
BRANCH   9  10
ATOM     10  C   UNL     1     128.560 123.575 130.935  1.00  0.00    -0.035 C 
ATOM     11  C   UNL     1     128.488 123.274 132.235  1.00  0.00     0.004 C 
ENDBRANCH   9  10
ENDBRANCH   8   9
ENDBRANCH   7   8
ENDBRANCH   1   7
TORSDOF 7
ENDMDL
MODEL 7
REMARK VINA RESULT:    -5.015      2.742      3.072
REMARK INTER + INTRA:          -7.436
REMARK INTER:                  -7.120
REMARK INTRA:                  -0.316
REMARK UNBOUND:                -0.369
REMARK SMILES C=CCCCCCCC(=O)[O-]
REMARK SMILES IDX 6 1 7 2 8 3 9 4 10 5 11 6 5 7 4 8 3 9 2 10 1 11
REMARK H PARENT
REMARK Flexibility Score: inf
ROOT
ATOM      1  C   UNL     1     129.638 126.245 127.518  1.00  0.00     0.000 C 
ENDROOT
BRANCH   1   2
ATOM      2  C   UNL     1     131.062 126.803 127.367  1.00  0.00     0.006 C 
BRANCH   2   3
ATOM      3  C   UNL     1     131.136 128.313 127.623  1.00  0.00     0.053 C 
BRANCH   3   4
ATOM      4  C   UNL     1     131.936 128.594 128.856  1.00  0.00     0.041 C 
ATOM      5  O   UNL     1     132.820 129.491 128.847  1.00  0.00    -0.550 OA
ATOM      6  O   UNL     1     131.671 127.900 130.030  1.00  0.00    -0.550 OA
ENDBRANCH   3   4
ENDBRANCH   2   3
ENDBRANCH   1   2
BRANCH   1   7
ATOM      7  C   UNL     1     129.512 125.259 128.693  1.00  0.00     0.000 C 
BRANCH   7   8
ATOM      8  C   UNL     1     128.735 123.987 128.314  1.00  0.00     0.004 C 
BRANCH   8   9
ATOM      9  C   UNL     1     128.615 122.994 129.480  1.00  0.00     0.027 C 
BRANCH   9  10
ATOM     10  C   UNL     1     128.045 123.659 130.701  1.00  0.00    -0.035 C 
ATOM     11  C   UNL     1     128.609 123.520 131.905  1.00  0.00     0.004 C 
ENDBRANCH   9  10
ENDBRANCH   8   9
ENDBRANCH   7   8
ENDBRANCH   1   7
TORSDOF 7
ENDMDL
MODEL 8
REMARK VINA RESULT:    -5.011      3.858      6.350
REMARK INTER + INTRA:          -7.431
REMARK INTER:                  -7.350
REMARK INTRA:                  -0.080
REMARK UNBOUND:                -0.369
REMARK SMILES C=CCCCCCCC(=O)[O-]
REMARK SMILES IDX 6 1 7 2 8 3 9 4 10 5 11 6 5 7 4 8 3 9 2 10 1 11
REMARK H PARENT
REMARK Flexibility Score: inf
ROOT
ATOM      1  C   UNL     1     129.395 126.486 124.785  1.00  0.00     0.000 C 
ENDROOT
BRANCH   1   2
ATOM      2  C   UNL     1     130.931 126.432 124.767  1.00  0.00     0.006 C 
BRANCH   2   3
ATOM      3  C   UNL     1     131.523 125.981 126.108  1.00  0.00     0.053 C 
BRANCH   3   4
ATOM      4  C   UNL     1     130.564 125.086 126.828  1.00  0.00     0.041 C 
ATOM      5  O   UNL     1     130.368 123.911 126.421  1.00  0.00    -0.550 OA
ATOM      6  O   UNL     1     129.925 125.533 127.977  1.00  0.00    -0.550 OA
ENDBRANCH   3   4
ENDBRANCH   2   3
ENDBRANCH   1   2
BRANCH   1   7
ATOM      7  C   UNL     1     128.823 127.373 123.665  1.00  0.00     0.000 C 
BRANCH   7   8
ATOM      8  C   UNL     1     127.400 126.958 123.256  1.00  0.00     0.004 C 
BRANCH   8   9
ATOM      9  C   UNL     1     127.014 127.459 121.856  1.00  0.00     0.027 C 
BRANCH   9  10
ATOM     10  C   UNL     1     126.918 128.959 121.825  1.00  0.00    -0.035 C 
ATOM     11  C   UNL     1     125.821 129.602 122.237  1.00  0.00     0.004 C 
ENDBRANCH   9  10
ENDBRANCH   8   9
ENDBRANCH   7   8
ENDBRANCH   1   7
TORSDOF 7
ENDMDL
MODEL 9
REMARK VINA RESULT:    -4.793      3.307      4.179
REMARK INTER + INTRA:          -7.123
REMARK INTER:                  -6.867
REMARK INTRA:                  -0.256
REMARK UNBOUND:                -0.369
REMARK SMILES C=CCCCCCCC(=O)[O-]
REMARK SMILES IDX 6 1 7 2 8 3 9 4 10 5 11 6 5 7 4 8 3 9 2 10 1 11
REMARK H PARENT
REMARK Flexibility Score: inf
ROOT
ATOM      1  C   UNL     1     128.951 126.479 124.978  1.00  0.00     0.000 C 
ENDROOT
BRANCH   1   2
ATOM      2  C   UNL     1     128.672 127.151 123.624  1.00  0.00     0.006 C 
BRANCH   2   3
ATOM      3  C   UNL     1     127.210 127.008 123.181  1.00  0.00     0.053 C 
BRANCH   3   4
ATOM      4  C   UNL     1     126.750 128.254 122.492  1.00  0.00     0.041 C 
ATOM      5  O   UNL     1     125.554 128.633 122.602  1.00  0.00    -0.550 OA
ATOM      6  O   UNL     1     127.652 129.023 121.770  1.00  0.00    -0.550 OA
ENDBRANCH   3   4
ENDBRANCH   2   3
ENDBRANCH   1   2
BRANCH   1   7
ATOM      7  C   UNL     1     130.149 127.105 125.712  1.00  0.00     0.000 C 
BRANCH   7   8
ATOM      8  C   UNL     1     130.832 126.118 126.673  1.00  0.00     0.004 C 
BRANCH   8   9
ATOM      9  C   UNL     1     129.897 124.985 127.123  1.00  0.00     0.027 C 
BRANCH   9  10
ATOM     10  C   UNL     1     129.394 125.219 128.520  1.00  0.00    -0.035 C 
ATOM     11  C   UNL     1     128.821 124.245 129.233  1.00  0.00     0.004 C 
ENDBRANCH   9  10
ENDBRANCH   8   9
ENDBRANCH   7   8
ENDBRANCH   1   7
TORSDOF 7
ENDMDL
