MODEL 1
REMARK VINA RESULT:    -3.964      0.000      0.000
REMARK INTER + INTRA:          -6.219
REMARK INTER:                  -5.587
REMARK INTRA:                  -0.632
REMARK UNBOUND:                -0.632
REMARK SMILES CCCCCCCCC(=O)[O-]
REMARK SMILES IDX 6 1 7 2 8 3 9 4 10 5 11 6 5 7 4 8 3 9 2 10 1 11
REMARK H PARENT
REMARK Flexibility Score: inf
ROOT
ATOM      1  C   UNL     1      53.826  23.827  48.328  1.00  0.00     0.000 C 
ENDROOT
BRANCH   1   2
ATOM      2  C   UNL     1      53.830  24.636  49.636  1.00  0.00     0.006 C 
BRANCH   2   3
ATOM      3  C   UNL     1      53.022  23.950  50.745  1.00  0.00     0.053 C 
BRANCH   3   4
ATOM      4  C   UNL     1      53.910  23.301  51.760  1.00  0.00     0.041 C 
ATOM      5  O   UNL     1      53.459  22.402  52.517  1.00  0.00    -0.550 OA
ATOM      6  O   UNL     1      55.247  23.669  51.851  1.00  0.00    -0.550 OA
ENDBRANCH   3   4
ENDBRANCH   2   3
ENDBRANCH   1   2
BRANCH   1   7
ATOM      7  C   UNL     1      55.212  23.765  47.665  1.00  0.00     0.000 C 
BRANCH   7   8
ATOM      8  C   UNL     1      56.235  22.981  48.500  1.00  0.00    -0.000 C 
BRANCH   8   9
ATOM      9  C   UNL     1      56.699  21.721  47.754  1.00  0.00    -0.000 C 
BRANCH   9  10
ATOM     10  C   UNL     1      56.447  20.433  48.556  1.00  0.00    -0.003 C 
ATOM     11  C   UNL     1      55.673  20.684  49.849  1.00  0.00     0.004 C 
ENDBRANCH   9  10
ENDBRANCH   8   9
ENDBRANCH   7   8
ENDBRANCH   1   7
TORSDOF 7
ENDMDL
MODEL 2
REMARK VINA RESULT:    -3.819      1.033      2.969
REMARK INTER + INTRA:          -6.014
REMARK INTER:                  -5.310
REMARK INTRA:                  -0.704
REMARK UNBOUND:                -0.632
REMARK SMILES CCCCCCCCC(=O)[O-]
REMARK SMILES IDX 6 1 7 2 8 3 9 4 10 5 11 6 5 7 4 8 3 9 2 10 1 11
REMARK H PARENT
REMARK Flexibility Score: inf
ROOT
ATOM      1  C   UNL     1      56.063  20.668  49.134  1.00  0.00     0.000 C 
ENDROOT
BRANCH   1   2
ATOM      2  C   UNL     1      55.832  21.295  50.520  1.00  0.00     0.006 C 
BRANCH   2   3
ATOM      3  C   UNL     1      54.423  21.011  51.057  1.00  0.00     0.053 C 
BRANCH   3   4
ATOM      4  C   UNL     1      54.190  21.669  52.382  1.00  0.00     0.041 C 
ATOM      5  O   UNL     1      53.267  21.268  53.138  1.00  0.00    -0.550 OA
ATOM      6  O   UNL     1      55.012  22.711  52.794  1.00  0.00    -0.550 OA
ENDBRANCH   3   4
ENDBRANCH   2   3
ENDBRANCH   1   2
BRANCH   1   7
ATOM      7  C   UNL     1      56.557  21.689  48.097  1.00  0.00     0.000 C 
BRANCH   7   8
ATOM      8  C   UNL     1      56.302  23.141  48.526  1.00  0.00    -0.000 C 
BRANCH   8   9
ATOM      9  C   UNL     1      55.378  23.853  47.526  1.00  0.00    -0.000 C 
BRANCH   9  10
ATOM     10  C   UNL     1      53.911  23.872  47.986  1.00  0.00    -0.003 C 
ATOM     11  C   UNL     1      53.757  24.278  49.452  1.00  0.00     0.004 C 
ENDBRANCH   9  10
ENDBRANCH   8   9
ENDBRANCH   7   8
ENDBRANCH   1   7
TORSDOF 7
ENDMDL
MODEL 3
REMARK VINA RESULT:    -3.774      2.851      4.212
REMARK INTER + INTRA:          -5.951
REMARK INTER:                  -5.335
REMARK INTRA:                  -0.616
REMARK UNBOUND:                -0.632
REMARK SMILES CCCCCCCCC(=O)[O-]
REMARK SMILES IDX 6 1 7 2 8 3 9 4 10 5 11 6 5 7 4 8 3 9 2 10 1 11
REMARK H PARENT
REMARK Flexibility Score: inf
ROOT
ATOM      1  C   UNL     1      53.916  23.621  48.303  1.00  0.00     0.000 C 
ENDROOT
BRANCH   1   2
ATOM      2  C   UNL     1      54.988  24.351  47.475  1.00  0.00     0.006 C 
BRANCH   2   3
ATOM      3  C   UNL     1      56.404  24.100  48.011  1.00  0.00     0.053 C 
BRANCH   3   4
ATOM      4  C   UNL     1      57.299  23.513  46.964  1.00  0.00     0.041 C 
ATOM      5  O   UNL     1      57.925  24.263  46.170  1.00  0.00    -0.550 OA
ATOM      6  O   UNL     1      57.464  22.136  46.883  1.00  0.00    -0.550 OA
ENDBRANCH   3   4
ENDBRANCH   2   3
ENDBRANCH   1   2
BRANCH   1   7
ATOM      7  C   UNL     1      53.659  24.291  49.663  1.00  0.00     0.000 C 
BRANCH   7   8
ATOM      8  C   UNL     1      53.649  23.287  50.826  1.00  0.00    -0.000 C 
BRANCH   8   9
ATOM      9  C   UNL     1      55.004  22.572  50.943  1.00  0.00    -0.000 C 
BRANCH   9  10
ATOM     10  C   UNL     1      54.905  21.067  50.645  1.00  0.00    -0.003 C 
ATOM     11  C   UNL     1      55.850  20.622  49.528  1.00  0.00     0.004 C 
ENDBRANCH   9  10
ENDBRANCH   8   9
ENDBRANCH   7   8
ENDBRANCH   1   7
TORSDOF 7
ENDMDL
MODEL 4
REMARK VINA RESULT:    -3.716      2.053      4.165
REMARK INTER + INTRA:          -5.869
REMARK INTER:                  -5.326
REMARK INTRA:                  -0.544
REMARK UNBOUND:                -0.632
REMARK SMILES CCCCCCCCC(=O)[O-]
REMARK SMILES IDX 6 1 7 2 8 3 9 4 10 5 11 6 5 7 4 8 3 9 2 10 1 11
REMARK H PARENT
REMARK Flexibility Score: inf
ROOT
ATOM      1  C   UNL     1      55.710  24.056  47.472  1.00  0.00     0.000 C 
ENDROOT
BRANCH   1   2
ATOM      2  C   UNL     1      56.374  23.099  48.478  1.00  0.00     0.006 C 
BRANCH   2   3
ATOM      3  C   UNL     1      56.672  21.726  47.862  1.00  0.00     0.053 C 
BRANCH   3   4
ATOM      4  C   UNL     1      56.228  20.608  48.754  1.00  0.00     0.041 C 
ATOM      5  O   UNL     1      56.515  19.416  48.470  1.00  0.00    -0.550 OA
ATOM      6  O   UNL     1      55.520  20.887  49.917  1.00  0.00    -0.550 OA
ENDBRANCH   3   4
ENDBRANCH   2   3
ENDBRANCH   1   2
BRANCH   1   7
ATOM      7  C   UNL     1      54.175  24.013  47.539  1.00  0.00     0.000 C 
BRANCH   7   8
ATOM      8  C   UNL     1      53.651  23.689  48.946  1.00  0.00    -0.000 C 
BRANCH   8   9
ATOM      9  C   UNL     1      53.499  24.968  49.782  1.00  0.00    -0.000 C 
BRANCH   9  10
ATOM     10  C   UNL     1      53.782  24.736  51.275  1.00  0.00    -0.003 C 
ATOM     11  C   UNL     1      53.440  23.317  51.728  1.00  0.00     0.004 C 
ENDBRANCH   9  10
ENDBRANCH   8   9
ENDBRANCH   7   8
ENDBRANCH   1   7
TORSDOF 7
ENDMDL
MODEL 5
REMARK VINA RESULT:    -3.710      2.158      3.353
REMARK INTER + INTRA:          -5.861
REMARK INTER:                  -5.536
REMARK INTRA:                  -0.325
REMARK UNBOUND:                -0.632
REMARK SMILES CCCCCCCCC(=O)[O-]
REMARK SMILES IDX 6 1 7 2 8 3 9 4 10 5 11 6 5 7 4 8 3 9 2 10 1 11
REMARK H PARENT
REMARK Flexibility Score: inf
ROOT
ATOM      1  C   UNL     1      55.859  21.448  51.659  1.00  0.00     0.000 C 
ENDROOT
BRANCH   1   2
ATOM      2  C   UNL     1      54.993  22.302  52.602  1.00  0.00     0.006 C 
BRANCH   2   3
ATOM      3  C   UNL     1      54.336  21.462  53.705  1.00  0.00     0.053 C 
BRANCH   3   4
ATOM      4  C   UNL     1      52.857  21.336  53.503  1.00  0.00     0.041 C 
ATOM      5  O   UNL     1      52.267  20.261  53.783  1.00  0.00    -0.550 OA
ATOM      6  O   UNL     1      52.127  22.419  53.029  1.00  0.00    -0.550 OA
ENDBRANCH   3   4
ENDBRANCH   2   3
ENDBRANCH   1   2
BRANCH   1   7
ATOM      7  C   UNL     1      55.273  21.351  50.241  1.00  0.00     0.000 C 
BRANCH   7   8
ATOM      8  C   UNL     1      56.074  20.410  49.331  1.00  0.00    -0.000 C 
BRANCH   8   9
ATOM      9  C   UNL     1      56.569  21.149  48.079  1.00  0.00    -0.000 C 
BRANCH   9  10
ATOM     10  C   UNL     1      56.213  22.645  48.096  1.00  0.00    -0.003 C 
ATOM     11  C   UNL     1      57.178  23.492  47.267  1.00  0.00     0.004 C 
ENDBRANCH   9  10
ENDBRANCH   8   9
ENDBRANCH   7   8
ENDBRANCH   1   7
TORSDOF 7
ENDMDL
MODEL 6
REMARK VINA RESULT:    -3.707      1.367      2.206
REMARK INTER + INTRA:          -5.856
REMARK INTER:                  -5.273
REMARK INTRA:                  -0.583
REMARK UNBOUND:                -0.632
REMARK SMILES CCCCCCCCC(=O)[O-]
REMARK SMILES IDX 6 1 7 2 8 3 9 4 10 5 11 6 5 7 4 8 3 9 2 10 1 11
REMARK H PARENT
REMARK Flexibility Score: inf
ROOT
ATOM      1  C   UNL     1      53.387  24.665  49.584  1.00  0.00     0.000 C 
ENDROOT
BRANCH   1   2
ATOM      2  C   UNL     1      53.250  23.950  50.940  1.00  0.00     0.006 C 
BRANCH   2   3
ATOM      3  C   UNL     1      54.573  23.329  51.405  1.00  0.00     0.053 C 
BRANCH   3   4
ATOM      4  C   UNL     1      54.446  21.854  51.630  1.00  0.00     0.041 C 
ATOM      5  O   UNL     1      53.930  21.415  52.690  1.00  0.00    -0.550 OA
ATOM      6  O   UNL     1      54.874  20.963  50.653  1.00  0.00    -0.550 OA
ENDBRANCH   3   4
ENDBRANCH   2   3
ENDBRANCH   1   2
BRANCH   1   7
ATOM      7  C   UNL     1      53.815  23.715  48.454  1.00  0.00     0.000 C 
BRANCH   7   8
ATOM      8  C   UNL     1      54.487  24.449  47.285  1.00  0.00    -0.000 C 
BRANCH   8   9
ATOM      9  C   UNL     1      56.016  24.322  47.364  1.00  0.00    -0.000 C 
BRANCH   9  10
ATOM     10  C   UNL     1      56.466  23.174  48.282  1.00  0.00    -0.003 C 
ATOM     11  C   UNL     1      56.900  21.931  47.505  1.00  0.00     0.004 C 
ENDBRANCH   9  10
ENDBRANCH   8   9
ENDBRANCH   7   8
ENDBRANCH   1   7
TORSDOF 7
ENDMDL
MODEL 7
REMARK VINA RESULT:    -3.671      1.741      3.161
REMARK INTER + INTRA:          -5.806
REMARK INTER:                  -5.339
REMARK INTRA:                  -0.467
REMARK UNBOUND:                -0.632
REMARK SMILES CCCCCCCCC(=O)[O-]
REMARK SMILES IDX 6 1 7 2 8 3 9 4 10 5 11 6 5 7 4 8 3 9 2 10 1 11
REMARK H PARENT
REMARK Flexibility Score: inf
ROOT
ATOM      1  C   UNL     1      55.640  20.709  50.021  1.00  0.00     0.000 C 
ENDROOT
BRANCH   1   2
ATOM      2  C   UNL     1      54.661  21.390  50.994  1.00  0.00     0.006 C 
BRANCH   2   3
ATOM      3  C   UNL     1      55.264  21.566  52.394  1.00  0.00     0.053 C 
BRANCH   3   4
ATOM      4  C   UNL     1      55.623  22.994  52.669  1.00  0.00     0.041 C 
ATOM      5  O   UNL     1      54.957  23.668  53.498  1.00  0.00    -0.550 OA
ATOM      6  O   UNL     1      56.712  23.572  52.028  1.00  0.00    -0.550 OA
ENDBRANCH   3   4
ENDBRANCH   2   3
ENDBRANCH   1   2
BRANCH   1   7
ATOM      7  C   UNL     1      56.001  21.601  48.822  1.00  0.00     0.000 C 
BRANCH   7   8
ATOM      8  C   UNL     1      55.159  22.885  48.764  1.00  0.00    -0.000 C 
BRANCH   8   9
ATOM      9  C   UNL     1      55.664  23.821  47.655  1.00  0.00    -0.000 C 
BRANCH   9  10
ATOM     10  C   UNL     1      57.123  23.537  47.261  1.00  0.00    -0.003 C 
ATOM     11  C   UNL     1      57.798  24.733  46.592  1.00  0.00     0.004 C 
ENDBRANCH   9  10
ENDBRANCH   8   9
ENDBRANCH   7   8
ENDBRANCH   1   7
TORSDOF 7
ENDMDL
MODEL 8
REMARK VINA RESULT:    -3.656      3.071      4.192
REMARK INTER + INTRA:          -5.785
REMARK INTER:                  -5.476
REMARK INTRA:                  -0.309
REMARK UNBOUND:                -0.632
REMARK SMILES CCCCCCCCC(=O)[O-]
REMARK SMILES IDX 6 1 7 2 8 3 9 4 10 5 11 6 5 7 4 8 3 9 2 10 1 11
REMARK H PARENT
REMARK Flexibility Score: inf
ROOT
ATOM      1  C   UNL     1      54.304  21.636  52.610  1.00  0.00     0.000 C 
ENDROOT
BRANCH   1   2
ATOM      2  C   UNL     1      54.624  21.464  54.105  1.00  0.00     0.006 C 
BRANCH   2   3
ATOM      3  C   UNL     1      56.053  20.957  54.337  1.00  0.00     0.053 C 
BRANCH   3   4
ATOM      4  C   UNL     1      56.784  21.794  55.342  1.00  0.00     0.041 C 
ATOM      5  O   UNL     1      57.118  21.305  56.453  1.00  0.00    -0.550 OA
ATOM      6  O   UNL     1      57.121  23.107  55.039  1.00  0.00    -0.550 OA
ENDBRANCH   3   4
ENDBRANCH   2   3
ENDBRANCH   1   2
BRANCH   1   7
ATOM      7  C   UNL     1      55.539  21.453  51.714  1.00  0.00     0.000 C 
BRANCH   7   8
ATOM      8  C   UNL     1      55.209  21.564  50.218  1.00  0.00    -0.000 C 
BRANCH   8   9
ATOM      9  C   UNL     1      55.967  20.499  49.410  1.00  0.00    -0.000 C 
BRANCH   9  10
ATOM     10  C   UNL     1      56.645  21.079  48.158  1.00  0.00    -0.003 C 
ATOM     11  C   UNL     1      56.412  22.582  48.001  1.00  0.00     0.004 C 
ENDBRANCH   9  10
ENDBRANCH   8   9
ENDBRANCH   7   8
ENDBRANCH   1   7
TORSDOF 7
ENDMDL
MODEL 9
REMARK VINA RESULT:    -3.600      1.607      2.600
REMARK INTER + INTRA:          -5.706
REMARK INTER:                  -4.981
REMARK INTRA:                  -0.725
REMARK UNBOUND:                -0.632
REMARK SMILES CCCCCCCCC(=O)[O-]
REMARK SMILES IDX 6 1 7 2 8 3 9 4 10 5 11 6 5 7 4 8 3 9 2 10 1 11
REMARK H PARENT
REMARK Flexibility Score: inf
ROOT
ATOM      1  C   UNL     1      55.708  23.143  50.964  1.00  0.00     0.000 C 
ENDROOT
BRANCH   1   2
ATOM      2  C   UNL     1      55.601  21.905  51.872  1.00  0.00     0.006 C 
BRANCH   2   3
ATOM      3  C   UNL     1      54.168  21.362  51.945  1.00  0.00     0.053 C 
BRANCH   3   4
ATOM      4  C   UNL     1      53.507  21.710  53.244  1.00  0.00     0.041 C 
ATOM      5  O   UNL     1      53.060  22.870  53.439  1.00  0.00    -0.550 OA
ATOM      6  O   UNL     1      53.361  20.742  54.230  1.00  0.00    -0.550 OA
ENDBRANCH   3   4
ENDBRANCH   2   3
ENDBRANCH   1   2
BRANCH   1   7
ATOM      7  C   UNL     1      54.499  23.297  50.027  1.00  0.00     0.000 C 
BRANCH   7   8
ATOM      8  C   UNL     1      54.843  22.996  48.561  1.00  0.00    -0.000 C 
BRANCH   8   9
ATOM      9  C   UNL     1      56.363  22.877  48.368  1.00  0.00    -0.000 C 
BRANCH   9  10
ATOM     10  C   UNL     1      56.773  21.549  47.712  1.00  0.00    -0.003 C 
ATOM     11  C   UNL     1      56.426  20.332  48.570  1.00  0.00     0.004 C 
ENDBRANCH   9  10
ENDBRANCH   8   9
ENDBRANCH   7   8
ENDBRANCH   1   7
TORSDOF 7
ENDMDL
