MODEL 1
REMARK VINA RESULT:    -4.339      0.000      0.000
REMARK INTER + INTRA:         -13.758
REMARK INTER:                  -9.919
REMARK INTRA:                  -3.839
REMARK UNBOUND:                -3.839
REMARK SMILES CCCCCCCCCCCCCCCCCCCCCCCC(=O)[O-]
REMARK SMILES IDX 13 1 14 2 15 3 16 4 17 5 18 6 19 7 20 8 21 9 22 10 23 11
REMARK SMILES IDX 24 12 25 13 26 14 12 15 11 16 10 17 9 18 8 19 7 20 6 21 5 22
REMARK SMILES IDX 4 23 3 24 2 25 1 26
REMARK H PARENT
REMARK Flexibility Score: inf
ROOT
ATOM      1  C   UNL     1      -9.318  -3.406   5.529  1.00  0.00     0.000 C 
ENDROOT
BRANCH   1   2
ATOM      2  C   UNL     1      -8.384  -4.279   6.384  1.00  0.00     0.000 C 
BRANCH   2   3
ATOM      3  C   UNL     1      -9.014  -5.637   6.736  1.00  0.00     0.000 C 
BRANCH   3   4
ATOM      4  C   UNL     1      -9.442  -6.432   5.493  1.00  0.00     0.000 C 
BRANCH   4   5
ATOM      5  C   UNL     1     -10.920  -6.857   5.544  1.00  0.00     0.000 C 
BRANCH   5   6
ATOM      6  C   UNL     1     -11.774  -5.883   6.372  1.00  0.00     0.000 C 
BRANCH   6   7
ATOM      7  C   UNL     1     -12.987  -5.351   5.589  1.00  0.00     0.000 C 
BRANCH   7   8
ATOM      8  C   UNL     1     -12.826  -5.543   4.067  1.00  0.00     0.000 C 
BRANCH   8   9
ATOM      9  C   UNL     1     -13.888  -6.473   3.454  1.00  0.00     0.000 C 
BRANCH   9  10
ATOM     10  C   UNL     1     -15.297  -5.867   3.472  1.00  0.00     0.006 C 
BRANCH  10  11
ATOM     11  C   UNL     1     -16.035  -6.145   2.158  1.00  0.00     0.053 C 
BRANCH  11  12
ATOM     12  C   UNL     1     -17.492  -6.369   2.417  1.00  0.00     0.041 C 
ATOM     13  O   UNL     1     -18.254  -5.391   2.638  1.00  0.00    -0.550 OA
ATOM     14  O   UNL     1     -18.001  -7.661   2.463  1.00  0.00    -0.550 OA
ENDBRANCH  11  12
ENDBRANCH  10  11
ENDBRANCH   9  10
ENDBRANCH   8   9
ENDBRANCH   7   8
ENDBRANCH   6   7
ENDBRANCH   5   6
ENDBRANCH   4   5
ENDBRANCH   3   4
ENDBRANCH   2   3
ENDBRANCH   1   2
BRANCH   1  15
ATOM     15  C   UNL     1      -8.737  -3.124   4.132  1.00  0.00     0.000 C 
BRANCH  15  16
ATOM     16  C   UNL     1      -9.798  -3.212   3.023  1.00  0.00     0.000 C 
BRANCH  16  17
ATOM     17  C   UNL     1      -9.761  -1.996   2.080  1.00  0.00     0.000 C 
BRANCH  17  18
ATOM     18  C   UNL     1      -8.777  -0.908   2.545  1.00  0.00    -0.000 C 
BRANCH  18  19
ATOM     19  C   UNL     1      -9.421   0.433   2.957  1.00  0.00    -0.000 C 
BRANCH  19  20
ATOM     20  C   UNL     1     -10.876   0.634   2.499  1.00  0.00    -0.000 C 
BRANCH  20  21
ATOM     21  C   UNL     1     -11.878   0.629   3.667  1.00  0.00    -0.000 C 
BRANCH  21  22
ATOM     22  C   UNL     1     -11.405  -0.240   4.843  1.00  0.00    -0.000 C 
BRANCH  22  23
ATOM     23  C   UNL     1     -12.374  -1.391   5.166  1.00  0.00    -0.000 C 
BRANCH  23  24
ATOM     24  C   UNL     1     -13.260  -1.778   3.968  1.00  0.00    -0.000 C 
BRANCH  24  25
ATOM     25  C   UNL     1     -14.670  -2.270   4.342  1.00  0.00    -0.003 C 
ATOM     26  C   UNL     1     -14.941  -2.227   5.844  1.00  0.00     0.004 C 
ENDBRANCH  24  25
ENDBRANCH  23  24
ENDBRANCH  22  23
ENDBRANCH  21  22
ENDBRANCH  20  21
ENDBRANCH  19  20
ENDBRANCH  18  19
ENDBRANCH  17  18
ENDBRANCH  16  17
ENDBRANCH  15  16
ENDBRANCH   1  15
TORSDOF 22
ENDMDL
MODEL 2
REMARK VINA RESULT:    -4.328      2.642      6.253
REMARK INTER + INTRA:         -13.734
REMARK INTER:                  -9.748
REMARK INTRA:                  -3.986
REMARK UNBOUND:                -3.839
REMARK SMILES CCCCCCCCCCCCCCCCCCCCCCCC(=O)[O-]
REMARK SMILES IDX 13 1 14 2 15 3 16 4 17 5 18 6 19 7 20 8 21 9 22 10 23 11
REMARK SMILES IDX 24 12 25 13 26 14 12 15 11 16 10 17 9 18 8 19 7 20 6 21 5 22
REMARK SMILES IDX 4 23 3 24 2 25 1 26
REMARK H PARENT
REMARK Flexibility Score: inf
ROOT
ATOM      1  C   UNL     1      -8.365  -4.553   6.450  1.00  0.00     0.000 C 
ENDROOT
BRANCH   1   2
ATOM      2  C   UNL     1      -9.016  -3.412   5.651  1.00  0.00     0.000 C 
BRANCH   2   3
ATOM      3  C   UNL     1      -8.698  -3.496   4.147  1.00  0.00     0.000 C 
BRANCH   3   4
ATOM      4  C   UNL     1      -9.923  -3.210   3.266  1.00  0.00     0.000 C 
BRANCH   4   5
ATOM      5  C   UNL     1      -9.671  -2.076   2.256  1.00  0.00     0.000 C 
BRANCH   5   6
ATOM      6  C   UNL     1      -8.439  -1.235   2.626  1.00  0.00     0.000 C 
BRANCH   6   7
ATOM      7  C   UNL     1      -8.686   0.274   2.462  1.00  0.00     0.000 C 
BRANCH   7   8
ATOM      8  C   UNL     1     -10.136   0.584   2.039  1.00  0.00     0.000 C 
BRANCH   8   9
ATOM      9  C   UNL     1     -10.869   1.525   3.012  1.00  0.00     0.000 C 
BRANCH   9  10
ATOM     10  C   UNL     1     -10.689   1.124   4.482  1.00  0.00     0.006 C 
BRANCH  10  11
ATOM     11  C   UNL     1     -11.549  -0.094   4.832  1.00  0.00     0.053 C 
BRANCH  11  12
ATOM     12  C   UNL     1     -12.977   0.313   5.020  1.00  0.00     0.041 C 
ATOM     13  O   UNL     1     -13.335   0.900   6.075  1.00  0.00    -0.550 OA
ATOM     14  O   UNL     1     -13.923   0.000   4.052  1.00  0.00    -0.550 OA
ENDBRANCH  11  12
ENDBRANCH  10  11
ENDBRANCH   9  10
ENDBRANCH   8   9
ENDBRANCH   7   8
ENDBRANCH   6   7
ENDBRANCH   5   6
ENDBRANCH   4   5
ENDBRANCH   3   4
ENDBRANCH   2   3
ENDBRANCH   1   2
BRANCH   1  15
ATOM     15  C   UNL     1      -9.391  -5.601   6.914  1.00  0.00     0.000 C 
BRANCH  15  16
ATOM     16  C   UNL     1      -9.129  -6.991   6.311  1.00  0.00     0.000 C 
BRANCH  16  17
ATOM     17  C   UNL     1      -9.732  -7.141   4.903  1.00  0.00     0.000 C 
BRANCH  17  18
ATOM     18  C   UNL     1     -11.071  -6.400   4.743  1.00  0.00    -0.000 C 
BRANCH  18  19
ATOM     19  C   UNL     1     -12.301  -7.124   5.331  1.00  0.00    -0.000 C 
BRANCH  19  20
ATOM     20  C   UNL     1     -13.586  -7.030   4.489  1.00  0.00    -0.000 C 
BRANCH  20  21
ATOM     21  C   UNL     1     -13.547  -5.886   3.461  1.00  0.00    -0.000 C 
BRANCH  21  22
ATOM     22  C   UNL     1     -14.241  -4.613   3.970  1.00  0.00    -0.000 C 
BRANCH  22  23
ATOM     23  C   UNL     1     -13.251  -3.483   4.302  1.00  0.00    -0.000 C 
BRANCH  23  24
ATOM     24  C   UNL     1     -12.921  -3.400   5.803  1.00  0.00    -0.000 C 
BRANCH  24  25
ATOM     25  C   UNL     1     -14.107  -3.688   6.741  1.00  0.00    -0.003 C 
ATOM     26  C   UNL     1     -13.833  -4.827   7.721  1.00  0.00     0.004 C 
ENDBRANCH  24  25
ENDBRANCH  23  24
ENDBRANCH  22  23
ENDBRANCH  21  22
ENDBRANCH  20  21
ENDBRANCH  19  20
ENDBRANCH  18  19
ENDBRANCH  17  18
ENDBRANCH  16  17
ENDBRANCH  15  16
ENDBRANCH   1  15
TORSDOF 22
ENDMDL
MODEL 3
REMARK VINA RESULT:    -4.210      2.258      6.072
REMARK INTER + INTRA:         -13.464
REMARK INTER:                  -8.920
REMARK INTRA:                  -4.544
REMARK UNBOUND:                -3.839
REMARK SMILES CCCCCCCCCCCCCCCCCCCCCCCC(=O)[O-]
REMARK SMILES IDX 13 1 14 2 15 3 16 4 17 5 18 6 19 7 20 8 21 9 22 10 23 11
REMARK SMILES IDX 24 12 25 13 26 14 12 15 11 16 10 17 9 18 8 19 7 20 6 21 5 22
REMARK SMILES IDX 4 23 3 24 2 25 1 26
REMARK H PARENT
REMARK Flexibility Score: inf
ROOT
ATOM      1  C   UNL     1      -8.659  -3.793   5.804  1.00  0.00     0.000 C 
ENDROOT
BRANCH   1   2
ATOM      2  C   UNL     1      -8.665  -3.705   4.269  1.00  0.00     0.000 C 
BRANCH   2   3
ATOM      3  C   UNL     1      -9.142  -2.331   3.765  1.00  0.00     0.000 C 
BRANCH   3   4
ATOM      4  C   UNL     1      -9.980  -2.430   2.481  1.00  0.00     0.000 C 
BRANCH   4   5
ATOM      5  C   UNL     1     -10.536  -1.067   2.032  1.00  0.00     0.000 C 
BRANCH   5   6
ATOM      6  C   UNL     1      -9.649   0.100   2.495  1.00  0.00     0.000 C 
BRANCH   6   7
ATOM      7  C   UNL     1     -10.438   1.410   2.661  1.00  0.00     0.000 C 
BRANCH   7   8
ATOM      8  C   UNL     1     -10.685   1.757   4.143  1.00  0.00     0.000 C 
BRANCH   8   9
ATOM      9  C   UNL     1     -12.171   1.713   4.542  1.00  0.00     0.000 C 
BRANCH   9  10
ATOM     10  C   UNL     1     -12.697   0.284   4.732  1.00  0.00     0.006 C 
BRANCH  10  11
ATOM     11  C   UNL     1     -14.096   0.125   4.127  1.00  0.00     0.053 C 
BRANCH  11  12
ATOM     12  C   UNL     1     -15.077  -0.280   5.182  1.00  0.00     0.041 C 
ATOM     13  O   UNL     1     -15.857  -1.248   4.981  1.00  0.00    -0.550 OA
ATOM     14  O   UNL     1     -15.164   0.441   6.366  1.00  0.00    -0.550 OA
ENDBRANCH  11  12
ENDBRANCH  10  11
ENDBRANCH   9  10
ENDBRANCH   8   9
ENDBRANCH   7   8
ENDBRANCH   6   7
ENDBRANCH   5   6
ENDBRANCH   4   5
ENDBRANCH   3   4
ENDBRANCH   2   3
ENDBRANCH   1   2
BRANCH   1  15
ATOM     15  C   UNL     1      -9.225  -5.129   6.314  1.00  0.00     0.000 C 
BRANCH  15  16
ATOM     16  C   UNL     1      -9.854  -5.970   5.191  1.00  0.00     0.000 C 
BRANCH  16  17
ATOM     17  C   UNL     1     -10.837  -7.025   5.729  1.00  0.00     0.000 C 
BRANCH  17  18
ATOM     18  C   UNL     1     -11.610  -6.543   6.970  1.00  0.00    -0.000 C 
BRANCH  18  19
ATOM     19  C   UNL     1     -13.140  -6.440   6.797  1.00  0.00    -0.000 C 
BRANCH  19  20
ATOM     20  C   UNL     1     -13.821  -5.320   7.604  1.00  0.00    -0.000 C 
BRANCH  20  21
ATOM     21  C   UNL     1     -14.236  -4.122   6.733  1.00  0.00    -0.000 C 
BRANCH  21  22
ATOM     22  C   UNL     1     -13.138  -3.050   6.647  1.00  0.00    -0.000 C 
BRANCH  22  23
ATOM     23  C   UNL     1     -12.316  -3.140   5.349  1.00  0.00    -0.000 C 
BRANCH  23  24
ATOM     24  C   UNL     1     -13.174  -3.497   4.122  1.00  0.00    -0.000 C 
BRANCH  24  25
ATOM     25  C   UNL     1     -12.752  -4.785   3.393  1.00  0.00    -0.003 C 
ATOM     26  C   UNL     1     -13.886  -5.800   3.266  1.00  0.00     0.004 C 
ENDBRANCH  24  25
ENDBRANCH  23  24
ENDBRANCH  22  23
ENDBRANCH  21  22
ENDBRANCH  20  21
ENDBRANCH  19  20
ENDBRANCH  18  19
ENDBRANCH  17  18
ENDBRANCH  16  17
ENDBRANCH  15  16
ENDBRANCH   1  15
TORSDOF 22
ENDMDL
MODEL 4
REMARK VINA RESULT:    -4.197      2.298      6.007
REMARK INTER + INTRA:         -13.435
REMARK INTER:                 -10.097
REMARK INTRA:                  -3.337
REMARK UNBOUND:                -3.839
REMARK SMILES CCCCCCCCCCCCCCCCCCCCCCCC(=O)[O-]
REMARK SMILES IDX 13 1 14 2 15 3 16 4 17 5 18 6 19 7 20 8 21 9 22 10 23 11
REMARK SMILES IDX 24 12 25 13 26 14 12 15 11 16 10 17 9 18 8 19 7 20 6 21 5 22
REMARK SMILES IDX 4 23 3 24 2 25 1 26
REMARK H PARENT
REMARK Flexibility Score: inf
ROOT
ATOM      1  C   UNL     1      -9.255  -3.497   5.595  1.00  0.00     0.000 C 
ENDROOT
BRANCH   1   2
ATOM      2  C   UNL     1      -8.701  -3.370   4.167  1.00  0.00     0.000 C 
BRANCH   2   3
ATOM      3  C   UNL     1      -9.816  -3.341   3.107  1.00  0.00     0.000 C 
BRANCH   3   4
ATOM      4  C   UNL     1      -9.808  -2.051   2.274  1.00  0.00     0.000 C 
BRANCH   4   5
ATOM      5  C   UNL     1      -8.924  -0.954   2.893  1.00  0.00     0.000 C 
BRANCH   5   6
ATOM      6  C   UNL     1      -9.576   0.435   2.797  1.00  0.00     0.000 C 
BRANCH   6   7
ATOM      7  C   UNL     1     -10.886   0.527   3.598  1.00  0.00     0.000 C 
BRANCH   7   8
ATOM      8  C   UNL     1     -12.107   0.772   2.689  1.00  0.00     0.000 C 
BRANCH   8   9
ATOM      9  C   UNL     1     -13.128   1.757   3.288  1.00  0.00     0.000 C 
BRANCH   9  10
ATOM     10  C   UNL     1     -14.420   1.073   3.751  1.00  0.00     0.006 C 
BRANCH  10  11
ATOM     11  C   UNL     1     -15.639   1.966   3.498  1.00  0.00     0.053 C 
BRANCH  11  12
ATOM     12  C   UNL     1     -16.899   1.162   3.579  1.00  0.00     0.041 C 
ATOM     13  O   UNL     1     -17.960   1.595   3.056  1.00  0.00    -0.550 OA
ATOM     14  O   UNL     1     -16.915  -0.041   4.273  1.00  0.00    -0.550 OA
ENDBRANCH  11  12
ENDBRANCH  10  11
ENDBRANCH   9  10
ENDBRANCH   8   9
ENDBRANCH   7   8
ENDBRANCH   6   7
ENDBRANCH   5   6
ENDBRANCH   4   5
ENDBRANCH   3   4
ENDBRANCH   2   3
ENDBRANCH   1   2
BRANCH   1  15
ATOM     15  C   UNL     1      -8.403  -4.432   6.471  1.00  0.00     0.000 C 
BRANCH  15  16
ATOM     16  C   UNL     1      -9.175  -5.682   6.924  1.00  0.00     0.000 C 
BRANCH  16  17
ATOM     17  C   UNL     1      -8.877  -6.906   6.040  1.00  0.00     0.000 C 
BRANCH  17  18
ATOM     18  C   UNL     1     -10.038  -7.258   5.094  1.00  0.00    -0.000 C 
BRANCH  18  19
ATOM     19  C   UNL     1     -11.413  -6.681   5.491  1.00  0.00    -0.000 C 
BRANCH  19  20
ATOM     20  C   UNL     1     -12.075  -5.771   4.441  1.00  0.00    -0.000 C 
BRANCH  20  21
ATOM     21  C   UNL     1     -13.426  -6.315   3.944  1.00  0.00    -0.000 C 
BRANCH  21  22
ATOM     22  C   UNL     1     -14.340  -5.207   3.396  1.00  0.00    -0.000 C 
BRANCH  22  23
ATOM     23  C   UNL     1     -15.106  -4.461   4.503  1.00  0.00    -0.000 C 
BRANCH  23  24
ATOM     24  C   UNL     1     -14.931  -2.934   4.424  1.00  0.00    -0.000 C 
BRANCH  24  25
ATOM     25  C   UNL     1     -13.500  -2.465   4.102  1.00  0.00    -0.003 C 
ATOM     26  C   UNL     1     -12.669  -2.178   5.350  1.00  0.00     0.004 C 
ENDBRANCH  24  25
ENDBRANCH  23  24
ENDBRANCH  22  23
ENDBRANCH  21  22
ENDBRANCH  20  21
ENDBRANCH  19  20
ENDBRANCH  18  19
ENDBRANCH  17  18
ENDBRANCH  16  17
ENDBRANCH  15  16
ENDBRANCH   1  15
TORSDOF 22
ENDMDL
MODEL 5
REMARK VINA RESULT:    -4.190      2.743      6.653
REMARK INTER + INTRA:         -13.417
REMARK INTER:                 -10.060
REMARK INTRA:                  -3.358
REMARK UNBOUND:                -3.839
REMARK SMILES CCCCCCCCCCCCCCCCCCCCCCCC(=O)[O-]
REMARK SMILES IDX 13 1 14 2 15 3 16 4 17 5 18 6 19 7 20 8 21 9 22 10 23 11
REMARK SMILES IDX 24 12 25 13 26 14 12 15 11 16 10 17 9 18 8 19 7 20 6 21 5 22
REMARK SMILES IDX 4 23 3 24 2 25 1 26
REMARK H PARENT
REMARK Flexibility Score: inf
ROOT
ATOM      1  C   UNL     1      -9.578  -2.575   2.849  1.00  0.00     0.000 C 
ENDROOT
BRANCH   1   2
ATOM      2  C   UNL     1      -8.495  -1.493   2.987  1.00  0.00     0.000 C 
BRANCH   2   3
ATOM      3  C   UNL     1      -8.738  -0.299   2.046  1.00  0.00     0.000 C 
BRANCH   3   4
ATOM      4  C   UNL     1     -10.129   0.325   2.231  1.00  0.00     0.000 C 
BRANCH   4   5
ATOM      5  C   UNL     1     -10.299   0.994   3.606  1.00  0.00     0.000 C 
BRANCH   5   6
ATOM      6  C   UNL     1     -11.095   2.306   3.517  1.00  0.00     0.000 C 
BRANCH   6   7
ATOM      7  C   UNL     1     -11.769   2.493   2.146  1.00  0.00     0.000 C 
BRANCH   7   8
ATOM      8  C   UNL     1     -13.245   2.922   2.277  1.00  0.00     0.000 C 
BRANCH   8   9
ATOM      9  C   UNL     1     -13.882   2.515   3.619  1.00  0.00     0.000 C 
BRANCH   9  10
ATOM     10  C   UNL     1     -15.049   1.533   3.454  1.00  0.00     0.006 C 
BRANCH  10  11
ATOM     11  C   UNL     1     -16.170   1.834   4.453  1.00  0.00     0.053 C 
BRANCH  11  12
ATOM     12  C   UNL     1     -17.506   1.698   3.793  1.00  0.00     0.041 C 
ATOM     13  O   UNL     1     -17.634   0.983   2.764  1.00  0.00    -0.550 OA
ATOM     14  O   UNL     1     -18.600   2.400   4.284  1.00  0.00    -0.550 OA
ENDBRANCH  11  12
ENDBRANCH  10  11
ENDBRANCH   9  10
ENDBRANCH   8   9
ENDBRANCH   7   8
ENDBRANCH   6   7
ENDBRANCH   5   6
ENDBRANCH   4   5
ENDBRANCH   3   4
ENDBRANCH   2   3
ENDBRANCH   1   2
BRANCH   1  15
ATOM     15  C   UNL     1      -9.345  -3.759   3.803  1.00  0.00     0.000 C 
BRANCH  15  16
ATOM     16  C   UNL     1      -9.268  -3.324   5.276  1.00  0.00     0.000 C 
BRANCH  16  17
ATOM     17  C   UNL     1      -8.445  -4.301   6.133  1.00  0.00     0.000 C 
BRANCH  17  18
ATOM     18  C   UNL     1      -9.294  -5.443   6.719  1.00  0.00    -0.000 C 
BRANCH  18  19
ATOM     19  C   UNL     1      -9.276  -6.760   5.915  1.00  0.00    -0.000 C 
BRANCH  19  20
ATOM     20  C   UNL     1     -10.602  -7.132   5.228  1.00  0.00    -0.000 C 
BRANCH  20  21
ATOM     21  C   UNL     1     -11.733  -6.132   5.528  1.00  0.00    -0.000 C 
BRANCH  21  22
ATOM     22  C   UNL     1     -12.619  -5.861   4.301  1.00  0.00    -0.000 C 
BRANCH  22  23
ATOM     23  C   UNL     1     -12.857  -4.361   4.055  1.00  0.00    -0.000 C 
BRANCH  23  24
ATOM     24  C   UNL     1     -12.908  -3.543   5.358  1.00  0.00    -0.000 C 
BRANCH  24  25
ATOM     25  C   UNL     1     -12.709  -2.028   5.176  1.00  0.00    -0.003 C 
ATOM     26  C   UNL     1     -13.016  -1.549   3.758  1.00  0.00     0.004 C 
ENDBRANCH  24  25
ENDBRANCH  23  24
ENDBRANCH  22  23
ENDBRANCH  21  22
ENDBRANCH  20  21
ENDBRANCH  19  20
ENDBRANCH  18  19
ENDBRANCH  17  18
ENDBRANCH  16  17
ENDBRANCH  15  16
ENDBRANCH   1  15
TORSDOF 22
ENDMDL
MODEL 6
REMARK VINA RESULT:    -4.162      2.897      6.264
REMARK INTER + INTRA:         -13.355
REMARK INTER:                  -9.321
REMARK INTRA:                  -4.033
REMARK UNBOUND:                -3.839
REMARK SMILES CCCCCCCCCCCCCCCCCCCCCCCC(=O)[O-]
REMARK SMILES IDX 13 1 14 2 15 3 16 4 17 5 18 6 19 7 20 8 21 9 22 10 23 11
REMARK SMILES IDX 24 12 25 13 26 14 12 15 11 16 10 17 9 18 8 19 7 20 6 21 5 22
REMARK SMILES IDX 4 23 3 24 2 25 1 26
REMARK H PARENT
REMARK Flexibility Score: inf
ROOT
ATOM      1  C   UNL     1     -11.712   1.133   3.147  1.00  0.00     0.000 C 
ENDROOT
BRANCH   1   2
ATOM      2  C   UNL     1     -10.533   0.920   2.183  1.00  0.00     0.000 C 
BRANCH   2   3
ATOM      3  C   UNL     1      -9.266   0.434   2.908  1.00  0.00     0.000 C 
BRANCH   3   4
ATOM      4  C   UNL     1      -8.841  -0.977   2.475  1.00  0.00     0.000 C 
BRANCH   4   5
ATOM      5  C   UNL     1     -10.042  -1.882   2.147  1.00  0.00     0.000 C 
BRANCH   5   6
ATOM      6  C   UNL     1     -10.054  -3.158   3.004  1.00  0.00     0.000 C 
BRANCH   6   7
ATOM      7  C   UNL     1      -9.646  -2.891   4.463  1.00  0.00     0.000 C 
BRANCH   7   8
ATOM      8  C   UNL     1      -9.257  -4.187   5.204  1.00  0.00     0.000 C 
BRANCH   8   9
ATOM      9  C   UNL     1      -9.750  -5.465   4.500  1.00  0.00     0.000 C 
BRANCH   9  10
ATOM     10  C   UNL     1      -9.728  -6.697   5.413  1.00  0.00     0.006 C 
BRANCH  10  11
ATOM     11  C   UNL     1      -9.023  -6.391   6.738  1.00  0.00     0.053 C 
BRANCH  11  12
ATOM     12  C   UNL     1      -9.811  -6.939   7.887  1.00  0.00     0.041 C 
ATOM     13  O   UNL     1      -9.239  -7.211   8.975  1.00  0.00    -0.550 OA
ATOM     14  O   UNL     1     -11.169  -7.195   7.740  1.00  0.00    -0.550 OA
ENDBRANCH  11  12
ENDBRANCH  10  11
ENDBRANCH   9  10
ENDBRANCH   8   9
ENDBRANCH   7   8
ENDBRANCH   6   7
ENDBRANCH   5   6
ENDBRANCH   4   5
ENDBRANCH   3   4
ENDBRANCH   2   3
ENDBRANCH   1   2
BRANCH   1  15
ATOM     15  C   UNL     1     -11.357   0.758   4.596  1.00  0.00     0.000 C 
BRANCH  15  16
ATOM     16  C   UNL     1     -12.258  -0.357   5.153  1.00  0.00     0.000 C 
BRANCH  16  17
ATOM     17  C   UNL     1     -13.048  -1.078   4.047  1.00  0.00     0.000 C 
BRANCH  17  18
ATOM     18  C   UNL     1     -13.592  -2.447   4.495  1.00  0.00    -0.000 C 
BRANCH  18  19
ATOM     19  C   UNL     1     -13.261  -2.845   5.948  1.00  0.00    -0.000 C 
BRANCH  19  20
ATOM     20  C   UNL     1     -12.694  -4.265   6.130  1.00  0.00    -0.000 C 
BRANCH  20  21
ATOM     21  C   UNL     1     -13.765  -5.361   5.984  1.00  0.00    -0.000 C 
BRANCH  21  22
ATOM     22  C   UNL     1     -13.402  -6.396   4.907  1.00  0.00    -0.000 C 
BRANCH  22  23
ATOM     23  C   UNL     1     -13.394  -5.804   3.486  1.00  0.00    -0.000 C 
BRANCH  23  24
ATOM     24  C   UNL     1     -14.603  -6.252   2.646  1.00  0.00    -0.000 C 
BRANCH  24  25
ATOM     25  C   UNL     1     -15.969  -5.790   3.184  1.00  0.00    -0.003 C 
ATOM     26  C   UNL     1     -16.900  -6.950   3.529  1.00  0.00     0.004 C 
ENDBRANCH  24  25
ENDBRANCH  23  24
ENDBRANCH  22  23
ENDBRANCH  21  22
ENDBRANCH  20  21
ENDBRANCH  19  20
ENDBRANCH  18  19
ENDBRANCH  17  18
ENDBRANCH  16  17
ENDBRANCH  15  16
ENDBRANCH   1  15
TORSDOF 22
ENDMDL
MODEL 7
REMARK VINA RESULT:    -4.123      2.699      6.371
REMARK INTER + INTRA:         -13.266
REMARK INTER:                  -9.606
REMARK INTRA:                  -3.659
REMARK UNBOUND:                -3.839
REMARK SMILES CCCCCCCCCCCCCCCCCCCCCCCC(=O)[O-]
REMARK SMILES IDX 13 1 14 2 15 3 16 4 17 5 18 6 19 7 20 8 21 9 22 10 23 11
REMARK SMILES IDX 24 12 25 13 26 14 12 15 11 16 10 17 9 18 8 19 7 20 6 21 5 22
REMARK SMILES IDX 4 23 3 24 2 25 1 26
REMARK H PARENT
REMARK Flexibility Score: inf
ROOT
ATOM      1  C   UNL     1     -10.037  -4.196   5.761  1.00  0.00     0.000 C 
ENDROOT
BRANCH   1   2
ATOM      2  C   UNL     1      -8.729  -3.518   5.321  1.00  0.00     0.000 C 
BRANCH   2   3
ATOM      3  C   UNL     1      -8.668  -3.299   3.799  1.00  0.00     0.000 C 
BRANCH   3   4
ATOM      4  C   UNL     1     -10.060  -3.224   3.155  1.00  0.00     0.000 C 
BRANCH   4   5
ATOM      5  C   UNL     1     -10.242  -1.968   2.284  1.00  0.00     0.000 C 
BRANCH   5   6
ATOM      6  C   UNL     1      -8.916  -1.223   2.062  1.00  0.00     0.000 C 
BRANCH   6   7
ATOM      7  C   UNL     1      -8.935   0.201   2.645  1.00  0.00     0.000 C 
BRANCH   7   8
ATOM      8  C   UNL     1      -9.929   0.335   3.817  1.00  0.00     0.000 C 
BRANCH   8   9
ATOM      9  C   UNL     1     -10.813   1.592   3.727  1.00  0.00     0.000 C 
BRANCH   9  10
ATOM     10  C   UNL     1     -11.457   1.774   2.346  1.00  0.00     0.006 C 
BRANCH  10  11
ATOM     11  C   UNL     1     -12.818   1.075   2.275  1.00  0.00     0.053 C 
BRANCH  11  12
ATOM     12  C   UNL     1     -13.823   1.806   3.110  1.00  0.00     0.041 C 
ATOM     13  O   UNL     1     -14.259   2.927   2.738  1.00  0.00    -0.550 OA
ATOM     14  O   UNL     1     -14.241   1.273   4.323  1.00  0.00    -0.550 OA
ENDBRANCH  11  12
ENDBRANCH  10  11
ENDBRANCH   9  10
ENDBRANCH   8   9
ENDBRANCH   7   8
ENDBRANCH   6   7
ENDBRANCH   5   6
ENDBRANCH   4   5
ENDBRANCH   3   4
ENDBRANCH   2   3
ENDBRANCH   1   2
BRANCH   1  15
ATOM     15  C   UNL     1      -9.897  -5.725   5.859  1.00  0.00     0.000 C 
BRANCH  15  16
ATOM     16  C   UNL     1     -10.915  -6.467   4.976  1.00  0.00     0.000 C 
BRANCH  16  17
ATOM     17  C   UNL     1     -12.050  -5.548   4.492  1.00  0.00     0.000 C 
BRANCH  17  18
ATOM     18  C   UNL     1     -13.383  -6.291   4.303  1.00  0.00    -0.000 C 
BRANCH  18  19
ATOM     19  C   UNL     1     -14.124  -5.996   2.982  1.00  0.00    -0.000 C 
BRANCH  19  20
ATOM     20  C   UNL     1     -15.621  -5.663   3.125  1.00  0.00    -0.000 C 
BRANCH  20  21
ATOM     21  C   UNL     1     -16.129  -5.795   4.571  1.00  0.00    -0.000 C 
BRANCH  21  22
ATOM     22  C   UNL     1     -16.573  -4.448   5.163  1.00  0.00    -0.000 C 
BRANCH  22  23
ATOM     23  C   UNL     1     -16.221  -3.253   4.261  1.00  0.00    -0.000 C 
BRANCH  23  24
ATOM     24  C   UNL     1     -15.197  -2.300   4.905  1.00  0.00    -0.000 C 
BRANCH  24  25
ATOM     25  C   UNL     1     -13.825  -2.262   4.209  1.00  0.00    -0.003 C 
ATOM     26  C   UNL     1     -12.702  -1.777   5.124  1.00  0.00     0.004 C 
ENDBRANCH  24  25
ENDBRANCH  23  24
ENDBRANCH  22  23
ENDBRANCH  21  22
ENDBRANCH  20  21
ENDBRANCH  19  20
ENDBRANCH  18  19
ENDBRANCH  17  18
ENDBRANCH  16  17
ENDBRANCH  15  16
ENDBRANCH   1  15
TORSDOF 22
ENDMDL
MODEL 8
REMARK VINA RESULT:    -4.118      2.615      3.743
REMARK INTER + INTRA:         -13.254
REMARK INTER:                  -9.624
REMARK INTRA:                  -3.630
REMARK UNBOUND:                -3.839
REMARK SMILES CCCCCCCCCCCCCCCCCCCCCCCC(=O)[O-]
REMARK SMILES IDX 13 1 14 2 15 3 16 4 17 5 18 6 19 7 20 8 21 9 22 10 23 11
REMARK SMILES IDX 24 12 25 13 26 14 12 15 11 16 10 17 9 18 8 19 7 20 6 21 5 22
REMARK SMILES IDX 4 23 3 24 2 25 1 26
REMARK H PARENT
REMARK Flexibility Score: inf
ROOT
ATOM      1  C   UNL     1      -8.920  -3.829   4.273  1.00  0.00     0.000 C 
ENDROOT
BRANCH   1   2
ATOM      2  C   UNL     1      -8.764  -3.911   5.800  1.00  0.00     0.000 C 
BRANCH   2   3
ATOM      3  C   UNL     1      -9.034  -5.327   6.340  1.00  0.00     0.000 C 
BRANCH   3   4
ATOM      4  C   UNL     1      -9.648  -6.256   5.282  1.00  0.00     0.000 C 
BRANCH   4   5
ATOM      5  C   UNL     1     -11.008  -6.830   5.718  1.00  0.00     0.000 C 
BRANCH   5   6
ATOM      6  C   UNL     1     -12.133  -5.786   5.624  1.00  0.00     0.000 C 
BRANCH   6   7
ATOM      7  C   UNL     1     -12.435  -5.374   4.173  1.00  0.00     0.000 C 
BRANCH   7   8
ATOM      8  C   UNL     1     -12.633  -3.852   4.029  1.00  0.00     0.000 C 
BRANCH   8   9
ATOM      9  C   UNL     1     -12.391  -3.078   5.338  1.00  0.00     0.000 C 
BRANCH   9  10
ATOM     10  C   UNL     1     -12.614  -1.567   5.190  1.00  0.00     0.006 C 
BRANCH  10  11
ATOM     11  C   UNL     1     -13.728  -1.269   4.181  1.00  0.00     0.053 C 
BRANCH  11  12
ATOM     12  C   UNL     1     -15.057  -1.229   4.870  1.00  0.00     0.041 C 
ATOM     13  O   UNL     1     -16.051  -1.812   4.362  1.00  0.00    -0.550 OA
ATOM     14  O   UNL     1     -15.210  -0.506   6.047  1.00  0.00    -0.550 OA
ENDBRANCH  11  12
ENDBRANCH  10  11
ENDBRANCH   9  10
ENDBRANCH   8   9
ENDBRANCH   7   8
ENDBRANCH   6   7
ENDBRANCH   5   6
ENDBRANCH   4   5
ENDBRANCH   3   4
ENDBRANCH   2   3
ENDBRANCH   1   2
BRANCH   1  15
ATOM     15  C   UNL     1      -8.976  -2.376   3.770  1.00  0.00     0.000 C 
BRANCH  15  16
ATOM     16  C   UNL     1      -9.751  -2.240   2.448  1.00  0.00     0.000 C 
BRANCH  16  17
ATOM     17  C   UNL     1     -10.342  -0.832   2.258  1.00  0.00     0.000 C 
BRANCH  17  18
ATOM     18  C   UNL     1      -9.591   0.245   3.061  1.00  0.00    -0.000 C 
BRANCH  18  19
ATOM     19  C   UNL     1     -10.451   1.035   4.070  1.00  0.00    -0.000 C 
BRANCH  19  20
ATOM     20  C   UNL     1     -10.960   2.401   3.576  1.00  0.00    -0.000 C 
BRANCH  20  21
ATOM     21  C   UNL     1     -11.635   2.325   2.196  1.00  0.00    -0.000 C 
BRANCH  21  22
ATOM     22  C   UNL     1     -13.055   2.914   2.203  1.00  0.00    -0.000 C 
BRANCH  22  23
ATOM     23  C   UNL     1     -13.801   2.660   3.526  1.00  0.00    -0.000 C 
BRANCH  23  24
ATOM     24  C   UNL     1     -15.209   2.074   3.314  1.00  0.00    -0.000 C 
BRANCH  24  25
ATOM     25  C   UNL     1     -16.238   2.465   4.390  1.00  0.00    -0.003 C 
ATOM     26  C   UNL     1     -17.109   3.651   3.981  1.00  0.00     0.004 C 
ENDBRANCH  24  25
ENDBRANCH  23  24
ENDBRANCH  22  23
ENDBRANCH  21  22
ENDBRANCH  20  21
ENDBRANCH  19  20
ENDBRANCH  18  19
ENDBRANCH  17  18
ENDBRANCH  16  17
ENDBRANCH  15  16
ENDBRANCH   1  15
TORSDOF 22
ENDMDL
MODEL 9
REMARK VINA RESULT:    -4.102      2.766      6.173
REMARK INTER + INTRA:         -13.217
REMARK INTER:                  -9.394
REMARK INTRA:                  -3.823
REMARK UNBOUND:                -3.839
REMARK SMILES CCCCCCCCCCCCCCCCCCCCCCCC(=O)[O-]
REMARK SMILES IDX 13 1 14 2 15 3 16 4 17 5 18 6 19 7 20 8 21 9 22 10 23 11
REMARK SMILES IDX 24 12 25 13 26 14 12 15 11 16 10 17 9 18 8 19 7 20 6 21 5 22
REMARK SMILES IDX 4 23 3 24 2 25 1 26
REMARK H PARENT
REMARK Flexibility Score: inf
ROOT
ATOM      1  C   UNL     1      -9.665  -5.767   6.397  1.00  0.00     0.000 C 
ENDROOT
BRANCH   1   2
ATOM      2  C   UNL     1      -8.691  -4.582   6.284  1.00  0.00     0.000 C 
BRANCH   2   3
ATOM      3  C   UNL     1      -9.293  -3.404   5.497  1.00  0.00     0.000 C 
BRANCH   3   4
ATOM      4  C   UNL     1      -8.603  -3.183   4.143  1.00  0.00     0.000 C 
BRANCH   4   5
ATOM      5  C   UNL     1      -9.525  -3.501   2.951  1.00  0.00     0.000 C 
BRANCH   5   6
ATOM      6  C   UNL     1     -10.028  -2.227   2.255  1.00  0.00     0.000 C 
BRANCH   6   7
ATOM      7  C   UNL     1      -8.887  -1.256   1.907  1.00  0.00     0.000 C 
BRANCH   7   8
ATOM      8  C   UNL     1      -8.969   0.053   2.719  1.00  0.00     0.000 C 
BRANCH   8   9
ATOM      9  C   UNL     1     -10.338   0.271   3.389  1.00  0.00     0.000 C 
BRANCH   9  10
ATOM     10  C   UNL     1     -11.265   1.182   2.575  1.00  0.00     0.006 C 
BRANCH  10  11
ATOM     11  C   UNL     1     -12.687   0.615   2.518  1.00  0.00     0.053 C 
BRANCH  11  12
ATOM     12  C   UNL     1     -13.691   1.706   2.726  1.00  0.00     0.041 C 
ATOM     13  O   UNL     1     -13.420   2.888   2.390  1.00  0.00    -0.550 OA
ATOM     14  O   UNL     1     -14.907   1.425   3.337  1.00  0.00    -0.550 OA
ENDBRANCH  11  12
ENDBRANCH  10  11
ENDBRANCH   9  10
ENDBRANCH   8   9
ENDBRANCH   7   8
ENDBRANCH   6   7
ENDBRANCH   5   6
ENDBRANCH   4   5
ENDBRANCH   3   4
ENDBRANCH   2   3
ENDBRANCH   1   2
BRANCH   1  15
ATOM     15  C   UNL     1      -9.649  -6.657   5.142  1.00  0.00     0.000 C 
BRANCH  15  16
ATOM     16  C   UNL     1     -10.680  -7.796   5.215  1.00  0.00     0.000 C 
BRANCH  16  17
ATOM     17  C   UNL     1     -11.777  -7.526   6.260  1.00  0.00     0.000 C 
BRANCH  17  18
ATOM     18  C   UNL     1     -13.195  -7.775   5.717  1.00  0.00    -0.000 C 
BRANCH  18  19
ATOM     19  C   UNL     1     -13.946  -6.519   5.230  1.00  0.00    -0.000 C 
BRANCH  19  20
ATOM     20  C   UNL     1     -13.828  -6.221   3.724  1.00  0.00    -0.000 C 
BRANCH  20  21
ATOM     21  C   UNL     1     -12.988  -4.967   3.426  1.00  0.00    -0.000 C 
BRANCH  21  22
ATOM     22  C   UNL     1     -12.777  -4.091   4.670  1.00  0.00    -0.000 C 
BRANCH  22  23
ATOM     23  C   UNL     1     -12.750  -2.587   4.345  1.00  0.00    -0.000 C 
BRANCH  23  24
ATOM     24  C   UNL     1     -12.678  -1.705   5.605  1.00  0.00    -0.000 C 
BRANCH  24  25
ATOM     25  C   UNL     1     -13.964  -0.918   5.915  1.00  0.00    -0.003 C 
ATOM     26  C   UNL     1     -13.697   0.417   6.606  1.00  0.00     0.004 C 
ENDBRANCH  24  25
ENDBRANCH  23  24
ENDBRANCH  22  23
ENDBRANCH  21  22
ENDBRANCH  20  21
ENDBRANCH  19  20
ENDBRANCH  18  19
ENDBRANCH  17  18
ENDBRANCH  16  17
ENDBRANCH  15  16
ENDBRANCH   1  15
TORSDOF 22
ENDMDL
